data_PCOD9023154
_publ_section_title
;
Structure prediction by ZEFSAII (Michael W. Deem and Ramdas Pophale) SiO2 
 PCOD9023154
Probable space group: P -1
;
_chemical_formula_sum "Si O2"
_cell_formula_units_Z 13
_cell_length_a 7.097167
_cell_length_b 16.299701
_cell_length_c 13.635061
_cell_angle_alpha 148.665390
_cell_angle_beta 131.377662
_cell_angle_gamma 50.836869
_cell_volume 606.381992
_symmetry_space_group_name_H-M "P -1"
_symmetry_group_IT_number 2
_symmetry_cell_setting 'triclinic'
loop_
_space_group_symop_operation_xyz
x,y,z
-x,-y,-z
loop_
_atom_site_type_symbol
_atom_site_label
_atom_site_fract_x
_atom_site_fract_y
_atom_site_fract_z
Si Si1 0.245046 0.515371 0.489288
Si Si2 0.446177 0.251904 0.805064
Si Si3 0.203003 0.055879 0.935301
Si Si4 0.885540 0.768475 0.721060
Si Si5 0.036999 0.618746 0.910238
Si Si6 0.000000 0.500000 0.000000
Si Si7 0.255800 0.096348 0.393476
O O1 0.500000 0.500000 0.500000
O O2 0.248730 0.370076 0.418159
O O3 0.158847 0.678959 0.684934
O O4 0.028003 0.497682 0.316961
O O5 0.226424 0.347578 0.893643
O O6 0.343643 0.212360 0.622462
O O7 0.571572 0.078307 0.713631
O O8 0.676222 0.350254 0.971973
O O9 0.088788 0.112319 0.060350
O O10 0.036847 0.926277 0.709560
O O11 0.143282 0.210884 0.003211
O O12 0.500000 0.000000 0.000000
O O13 0.731258 0.844124 0.651961
O O14 0.993111 0.556816 0.939196
#
# Coordination Sequence:
#
# PCOD9023154 Si02
#       7
#     2   2   2   2   2   1   2
#     4  10  23  41  63  99 135 169 216 265 328 396
#     4  10  24  46  64  97 131 170 223 277 318 387
#     4  10  23  42  65  99 134 168 215 273 327 394
#     4  10  22  39  66  96 127 177 208 270 328 383
#     4  10  24  43  63  97 134 166 219 272 319 387
#     4  12  24  42  74  88 128 186 216 268 328 388
#     4  10  22  44  68  93 136 169 217 274 330 386
#
# _framework density 21.438631999999998
#
# number of rings (size 3 to 8) (size 9 to 14) (size 15 to 20)
#    0.000    1.846    0.000    1.846    6.462    6.154 
#    5.538    2.308    0.000    0.000    0.000    0.000 
#    0.000    0.000    0.000    0.000    0.000    0.000 
#
# Total GULP energy -72437.166564 kJ/mol
# GULP energy per Si atom -5572.089736 kJ/mol
# Density = 2.138984 g / cm^3
# Si number density = 21.438632 Si / 1000 Ang^3
#
#
#
# Elastic Constant Matrix: (Units=GPa)
#
#
# Indices 1 2 3 4 5 6 
#
# 1 101.9817 45.2262 46.2098 -0.2240 -22.7857 -7.5722
# 2 45.2262 121.4575 12.4867 -11.4538 -3.8631 22.3913
# 3 46.2098 12.4867 96.8431 -16.9464 -3.0876 -16.6431
# 4 -0.2240 -11.4538 -16.9464 18.8301 -3.1728 -11.8176
# 5 -22.7857 -3.8631 -3.0876 -3.1728 26.9590 -10.2905
# 6 -7.5722 22.3913 -16.6431 -11.8176 -10.2905 49.0977
#
#
#
# Elastic Compliance Matrix: (Units=1/GPa)
#
#
# Indices 1 2 3 4 5 6 
#
# 1 0.022153 -0.008568 -0.008511 -0.004973 0.018667 0.007155
# 2 -0.008568 0.012700 0.001366 0.002733 -0.007860 -0.007640
# 3 -0.008511 0.001366 0.021792 0.029430 0.004072 0.013389
# 4 -0.004973 0.002733 0.029430 0.111504 0.028224 0.040717
# 5 0.018667 -0.007860 0.004072 0.028224 0.066435 0.028562
# 6 0.007155 -0.007640 0.013389 0.040717 0.028562 0.045280
#
#
# Mechanical properties :
#
#
# Convention : Reuss Voigt Hill
#
# Bulk Modulus (GPa) = 39.65645 58.68086 49.16866
# Shear Modulus (GPa) = 15.63980 33.40134 24.52057
#
# Velocity S-wave (km/s) = 2.70388 3.95143 3.38562
# Velocity P-wave (km/s) = 5.31844 6.94618 6.18608
#
# Compressibility (1/GPa) = 0.02521658
#
# Stress axis : x y z
#
# Youngs Moduli (GPa) = 45.14038 78.74280 45.88888
#
# Poissons Ratio (x) = 0.67468 0.39057
# Poissons Ratio (y) = 0.38677 -0.06266
# Poissons Ratio (z) = 0.38420 -0.10752
#
# Static dielectric constant tensor:
#      x y z
#    x 1.749410 -0.009860 0.031750 
#    y -0.009860 1.812640 0.026500 
#    z 0.031750 0.026500 1.805570 
# 
# From -- ./inp_files/365938.got.cif
#   From: 2010.05.17/outbox.cif.g08.bks.cpg/sg2_183_cif.got.tgz:365938.got - 2010.06.03 11:33:40.
