data_PCOD9023857
_publ_section_title
;
Structure prediction by ZEFSAII (Michael W. Deem and Ramdas Pophale) SiO2 
 PCOD9023857
Probable space group: P -1
;
_chemical_formula_sum "Si O2"
_cell_formula_units_Z 16
_cell_length_a 8.050773
_cell_length_b 10.030369
_cell_length_c 14.154853
_cell_angle_alpha 63.929255
_cell_angle_beta 55.988353
_cell_angle_gamma 107.084296
_cell_volume 586.442830
_symmetry_space_group_name_H-M "P -1"
_symmetry_group_IT_number 2
_symmetry_cell_setting 'triclinic'
loop_
_space_group_symop_operation_xyz
x,y,z
-x,-y,-z
loop_
_atom_site_type_symbol
_atom_site_label
_atom_site_fract_x
_atom_site_fract_y
_atom_site_fract_z
Si Si1 0.157301 0.308904 0.158553
Si Si2 0.944843 0.810834 0.972069
Si Si3 0.647607 0.002381 0.543863
Si Si4 0.452150 0.806681 0.319159
Si Si5 0.214213 0.661866 0.029176
Si Si6 0.433737 0.377413 0.349511
Si Si7 0.145593 0.420324 0.668935
Si Si8 0.836702 0.108464 0.718981
O O1 0.050497 0.157082 0.151395
O O2 0.985325 0.179937 0.348479
O O3 0.500000 0.500000 0.000000
O O4 0.090560 0.440338 0.104572
O O5 0.077096 0.723259 0.995097
O O6 0.607046 0.601008 0.170574
O O7 0.212143 0.052915 0.850393
O O8 0.582306 0.080559 0.625109
O O9 0.500000 0.000000 0.500000
O O10 0.547139 0.777110 0.655412
O O11 0.284154 0.579939 0.487232
O O12 0.304938 0.803910 0.277386
O O13 0.562673 0.857125 0.863173
O O14 0.095616 0.616352 0.187175
O O15 0.601021 0.461175 0.371388
O O16 0.096838 0.223996 0.526639
O O17 0.979858 0.189613 0.751502
#
# Coordination Sequence:
#
# PCOD9023857 Si02
#       8
#     2   2   2   2   2   2   2   2
#     4  12  23  36  58  92 127 153 190 250 309 353
#     4  10  23  38  60  88 121 159 197 241 300 366
#     4  12  21  40  64  88 121 161 200 241 302 371
#     4  11  23  40  64  89 118 160 208 243 295 360
#     4  10  22  40  62  87 116 161 205 242 291 359
#     4  11  24  39  63  92 124 156 196 254 305 350
#     4  11  21  44  65  85 119 166 205 241 295 361
#     4  11  25  40  61  92 123 156 204 254 293 347
#
# _framework density 27.283135999999999
#
# number of rings (size 3 to 8) (size 9 to 14) (size 15 to 20)
#    0.000    1.000    3.750    3.000    5.250    0.500 
#    0.000    0.625    0.000    0.000    0.000    0.000 
#    0.000    0.000    0.000    0.000    0.000    0.000 
#
# Total GULP energy -89583.001353 kJ/mol
# GULP energy per Si atom -5598.937585 kJ/mol
# Density = 2.722104 g / cm^3
# Si number density = 27.283136 Si / 1000 Ang^3
#
#
#
# Elastic Constant Matrix: (Units=GPa)
#
#
# Indices 1 2 3 4 5 6 
#
# 1 56.2411 15.3672 11.9278 -5.0346 -9.3817 3.1966
# 2 15.3672 81.8687 13.4050 -31.3099 -3.6571 -8.4589
# 3 11.9278 13.4050 198.7930 -18.7525 -39.8651 0.2317
# 4 -5.0346 -31.3099 -18.7525 28.8544 -2.4050 -0.0967
# 5 -9.3817 -3.6571 -39.8651 -2.4050 50.0731 -7.3054
# 6 3.1966 -8.4589 0.2317 -0.0967 -7.3054 29.3332
#
#
#
# Elastic Compliance Matrix: (Units=1/GPa)
#
#
# Indices 1 2 3 4 5 6 
#
# 1 0.019502 -0.004275 -0.000514 -0.001374 0.002466 -0.002744
# 2 -0.004275 0.024410 0.002310 0.027728 0.005456 0.008937
# 3 -0.000514 0.002310 0.006844 0.007389 0.006202 0.002237
# 4 -0.001374 0.027728 0.007389 0.070404 0.012707 0.011484
# 5 0.002466 0.005456 0.006202 0.012707 0.027571 0.008164
# 6 -0.002744 0.008937 0.002237 0.011484 0.008164 0.039021
#
#
# Mechanical properties :
#
#
# Convention : Reuss Voigt Hill
#
# Bulk Modulus (GPa) = 21.83517 46.47810 34.15663
# Shear Modulus (GPa) = 24.04127 41.39899 32.72013
#
# Velocity S-wave (km/s) = 2.97168 3.89959 3.46682
# Velocity P-wave (km/s) = 4.44917 6.11131 5.34524
#
# Compressibility (1/GPa) = 0.04579768
#
# Stress axis : x y z
#
# Youngs Moduli (GPa) = 51.27645 40.96629 146.12226
#
# Poissons Ratio (x) = 0.17515 0.07506
# Poissons Ratio (y) = 0.21923 -0.33753
# Poissons Ratio (z) = 0.02634 -0.09463
#
# Static dielectric constant tensor:
#      x y z
#    x 2.182910 -0.064360 -0.032860 
#    y -0.064360 2.101290 0.027050 
#    z -0.032860 0.027050 2.152170 
# 
# From -- ./inp_files/184800.got.cif
#   From: 2010.05.17/outbox.cif.g08.bks.cpg/sg2_93_cif.got.tgz:184800.got - 2010.06.03 11:33:40.
