data_PCOD9023203
_publ_section_title
;
Structure prediction by ZEFSAII (Michael W. Deem and Ramdas Pophale) SiO2 
 PCOD9023203
Probable space group: P -1
;
_chemical_formula_sum "Si O2"
_cell_formula_units_Z 13
_cell_length_a 9.034820
_cell_length_b 19.215790
_cell_length_c 6.401233
_cell_angle_alpha 65.141034
_cell_angle_beta 82.416704
_cell_angle_gamma 37.796120
_cell_volume 576.525857
_symmetry_space_group_name_H-M "P -1"
_symmetry_group_IT_number 2
_symmetry_cell_setting 'triclinic'
loop_
_space_group_symop_operation_xyz
x,y,z
-x,-y,-z
loop_
_atom_site_type_symbol
_atom_site_label
_atom_site_fract_x
_atom_site_fract_y
_atom_site_fract_z
Si Si1 0.813290 0.104664 0.591371
Si Si2 0.750237 0.436021 0.131306
Si Si3 0.857483 0.787339 0.340109
Si Si4 0.480033 0.304738 0.053259
Si Si5 0.997129 0.889018 0.066189
Si Si6 0.500000 0.000000 0.500000
Si Si7 0.748635 0.754417 0.003584
O O1 0.563899 0.240736 0.349276
O O2 0.938755 0.117562 0.696989
O O3 0.000000 0.000000 0.500000
O O4 0.803677 0.035019 0.831098
O O5 0.875807 0.338507 0.425944
O O6 0.975745 0.344801 0.032135
O O7 0.500000 0.500000 0.000000
O O8 0.679703 0.550857 0.074236
O O9 0.643177 0.894748 0.416189
O O10 0.890952 0.848853 0.114946
O O11 0.787970 0.747828 0.250728
O O12 0.341622 0.292055 0.984460
O O13 0.739850 0.213791 0.986882
O O14 0.551142 0.901697 0.768079
#
# Coordination Sequence:
#
# PCOD9023203 Si02
#       7
#     2   2   2   2   2   1   2
#     4   9  21  38  61  98 134 173 223 281 330 395
#     4  11  25  47  71  98 136 186 231 280 336 411
#     4  11  25  45  70 101 135 183 230 281 343 412
#     4  11  24  42  68 102 140 179 224 284 341 406
#     4  10  22  39  67 100 131 179 232 277 336 403
#     4  10  26  44  68  98 144 176 222 286 344 402
#     4  11  26  44  69 102 138 181 226 284 348 407
#
# _framework density 22.548857999999999
#
# number of rings (size 3 to 8) (size 9 to 14) (size 15 to 20)
#    0.000    1.538    0.000    2.769    8.615    9.231 
#    0.000    0.000    0.000    0.000    0.000    0.000 
#    0.000    0.000    0.000    0.000    0.000    0.000 
#
# Total GULP energy -72520.008909 kJ/mol
# GULP energy per Si atom -5578.462224 kJ/mol
# Density = 2.249754 g / cm^3
# Si number density = 22.548858 Si / 1000 Ang^3
#
#
#
# Elastic Constant Matrix: (Units=GPa)
#
#
# Indices 1 2 3 4 5 6 
#
# 1 100.3062 25.8925 50.7714 6.1528 22.4867 20.1649
# 2 25.8925 94.7102 31.4662 -1.7212 9.6857 21.3613
# 3 50.7714 31.4662 80.2127 4.0813 11.1150 16.4348
# 4 6.1528 -1.7212 4.0813 32.7308 7.4896 -7.5527
# 5 22.4867 9.6857 11.1150 7.4896 21.2015 1.2651
# 6 20.1649 21.3613 16.4348 -7.5527 1.2651 42.9910
#
#
#
# Elastic Compliance Matrix: (Units=1/GPa)
#
#
# Indices 1 2 3 4 5 6 
#
# 1 0.018818 0.000563 -0.008945 -0.000137 -0.015164 -0.005265
# 2 0.000563 0.013361 -0.003960 0.000988 -0.004671 -0.005078
# 3 -0.008945 -0.003960 0.019925 -0.001795 0.001593 -0.001816
# 4 -0.000137 0.000988 -0.001795 0.035219 -0.012212 0.006807
# 5 -0.015164 -0.004671 0.001593 -0.012212 0.068584 0.004661
# 6 -0.005265 -0.005078 -0.001816 0.006807 0.004661 0.030006
#
#
# Mechanical properties :
#
#
# Convention : Reuss Voigt Hill
#
# Bulk Modulus (GPa) = 36.47058 54.60992 45.54025
# Shear Modulus (GPa) = 22.75445 30.52459 26.63952
#
# Velocity S-wave (km/s) = 3.18011 3.68327 3.44090
# Velocity P-wave (km/s) = 5.44915 6.50843 6.00221
#
# Compressibility (1/GPa) = 0.02741936
#
# Stress axis : x y z
#
# Youngs Moduli (GPa) = 53.14067 74.84288 50.18865
#
# Poissons Ratio (x) = -0.04213 0.44893
# Poissons Ratio (y) = -0.02991 0.19876
# Poissons Ratio (z) = 0.47534 0.29640
#
# Static dielectric constant tensor:
#      x y z
#    x 1.859480 -0.030560 0.015880 
#    y -0.030560 1.794760 0.004170 
#    z 0.015880 0.004170 1.857190 
# 
# From -- ./inp_files/47078.got.cif
#   From: 2010.05.17/outbox.cif.g08.bks.cpg/sg2_24_cif.got.tgz:47078.got - 2010.06.03 11:33:40.
