data_PCOD9023360
_publ_section_title
;
Structure prediction by ZEFSAII (Michael W. Deem and Ramdas Pophale) SiO2 
 PCOD9023360
Probable space group: P -1
;
_chemical_formula_sum "Si O2"
_cell_formula_units_Z 15
_cell_length_a 11.657836
_cell_length_b 12.227661
_cell_length_c 19.975472
_cell_angle_alpha 156.952509
_cell_angle_beta 30.970606
_cell_angle_gamma 139.413049
_cell_volume 567.442420
_symmetry_space_group_name_H-M "P -1"
_symmetry_group_IT_number 2
_symmetry_cell_setting 'triclinic'
loop_
_space_group_symop_operation_xyz
x,y,z
-x,-y,-z
loop_
_atom_site_type_symbol
_atom_site_label
_atom_site_fract_x
_atom_site_fract_y
_atom_site_fract_z
Si Si1 0.754883 0.380869 0.970525
Si Si2 0.185527 0.005413 0.990471
Si Si3 0.666623 0.794376 0.616029
Si Si4 0.625415 0.427526 0.824078
Si Si5 0.255950 0.916655 0.062046
Si Si6 0.781799 0.804861 0.416734
Si Si7 0.000000 0.500000 0.500000
Si Si8 0.273310 0.721706 0.606533
O O1 0.010291 0.393872 0.831049
O O2 0.700212 0.088788 0.799476
O O3 0.747178 0.341843 0.031645
O O4 0.566277 0.599726 0.151608
O O5 0.238719 0.326730 0.132818
O O6 0.232760 0.906250 0.987729
O O7 0.917018 0.026227 0.127068
O O8 0.400102 0.825941 0.746693
O O9 0.800749 0.753057 0.457197
O O10 0.727645 0.547399 0.497687
O O11 0.787959 0.135267 0.586466
O O12 0.500000 0.500000 0.000000
O O13 0.075797 0.188636 0.323171
O O14 0.500000 0.000000 0.000000
O O15 0.529942 0.771190 0.502075
O O16 0.823091 0.357865 0.461154
#
# Coordination Sequence:
#
# PCOD9023360 Si02
#       8
#     2   2   2   2   2   2   1   2
#     4  11  23  39  68  94 130 176 212 261 319 388
#     4  10  22  39  68  91 122 174 222 258 312 387
#     4  11  21  41  65  94 128 175 213 257 319 397
#     4  11  22  40  63  96 133 174 208 259 326 391
#     4  11  19  39  66  95 112 164 234 257 298 381
#     4  12  26  39  60 102 140 161 212 266 333 382
#     4  10  22  40  68  84 120 168 220 264 306 374
#     4  11  24  41  65  95 127 173 216 272 317 380
#
# _framework density 26.434398999999999
#
# number of rings (size 3 to 8) (size 9 to 14) (size 15 to 20)
#    0.000    1.067    6.667    1.600    3.733    1.600 
#    0.000    2.667    0.000    4.800    0.000    0.000 
#    0.000    0.000    0.000    0.000    0.000    0.000 
#
# Total GULP energy -83764.193868 kJ/mol
# GULP energy per Si atom -5584.279591 kJ/mol
# Density = 2.637423 g / cm^3
# Si number density = 26.434399 Si / 1000 Ang^3
#
#
#
# Elastic Constant Matrix: (Units=GPa)
#
#
# Indices 1 2 3 4 5 6 
#
# 1 141.4859 55.4416 16.5825 -4.2657 -32.7855 0.9631
# 2 55.4416 117.1756 20.7624 -11.8339 -14.0692 -18.0540
# 3 16.5825 20.7624 61.2141 -17.5178 -36.3295 -3.3081
# 4 -4.2657 -11.8339 -17.5178 43.4752 -1.0504 -8.0906
# 5 -32.7855 -14.0692 -36.3295 -1.0504 56.8923 5.3383
# 6 0.9631 -18.0540 -3.3081 -8.0906 5.3383 46.7763
#
#
#
# Elastic Compliance Matrix: (Units=1/GPa)
#
#
# Indices 1 2 3 4 5 6 
#
# 1 0.010261 -0.004900 0.002965 0.000553 0.006847 -0.002578
# 2 -0.004900 0.012205 -0.003163 0.002494 -0.002274 0.005279
# 3 0.002965 -0.003163 0.034314 0.013987 0.023008 0.000938
# 4 0.000553 0.002494 0.013987 0.030750 0.009859 0.006134
# 5 0.006847 -0.002274 0.023008 0.009859 0.036003 -0.001795
# 6 -0.002578 0.005279 0.000938 0.006134 -0.001795 0.024801
#
#
# Mechanical properties :
#
#
# Convention : Reuss Voigt Hill
#
# Bulk Modulus (GPa) = 21.46647 56.16095 38.81371
# Shear Modulus (GPa) = 28.72580 44.56804 36.64692
#
# Velocity S-wave (km/s) = 3.30006 4.11053 3.72739
# Velocity P-wave (km/s) = 4.76013 6.61968 5.76537
#
# Compressibility (1/GPa) = 0.04658427
#
# Stress axis : x y z
#
# Youngs Moduli (GPa) = 97.45547 81.93281 29.14236
#
# Poissons Ratio (x) = 0.40144 -0.08640
# Poissons Ratio (y) = 0.47750 0.09218
# Poissons Ratio (z) = -0.28892 0.25916
#
# Static dielectric constant tensor:
#      x y z
#    x 2.063490 0.060320 0.065050 
#    y 0.060320 2.071720 -0.025600 
#    z 0.065050 -0.025600 2.120530 
# 
# From -- ./inp_files/256172.got.cif
#   From: 2010.05.17/outbox.cif.g08.bks.cpg/sg2_129_cif.got.tgz:256172.got - 2010.06.03 11:33:40.
