data_PCOD9023418
_publ_section_title
;
Structure prediction by ZEFSAII (Michael W. Deem and Ramdas Pophale) SiO2 
 PCOD9023418
Probable space group: P -1
;
_chemical_formula_sum "Si O2"
_cell_formula_units_Z 12
_cell_length_a 9.571023
_cell_length_b 9.349397
_cell_length_c 14.922336
_cell_angle_alpha 51.845492
_cell_angle_beta 34.041495
_cell_angle_gamma 71.509005
_cell_volume 527.126249
_symmetry_space_group_name_H-M "P -1"
_symmetry_group_IT_number 2
_symmetry_cell_setting 'triclinic'
loop_
_space_group_symop_operation_xyz
x,y,z
-x,-y,-z
loop_
_atom_site_type_symbol
_atom_site_label
_atom_site_fract_x
_atom_site_fract_y
_atom_site_fract_z
Si Si1 0.167356 0.871109 0.711279
Si Si2 0.203564 0.857027 0.896889
Si Si3 0.264279 0.558367 0.218254
Si Si4 0.320202 0.278627 0.645367
Si Si5 0.067045 0.237048 0.607358
Si Si6 0.183769 0.457704 0.103668
O O1 0.056830 0.815009 0.893568
O O2 0.066066 0.674140 0.779118
O O3 0.500000 0.000000 0.500000
O O4 0.043370 0.018100 0.680677
O O5 0.401647 0.097310 0.697870
O O6 0.322438 0.693937 0.908129
O O7 0.980604 0.804647 0.114527
O O8 0.173865 0.391641 0.408935
O O9 0.104572 0.459535 0.248779
O O10 0.193747 0.736821 0.222450
O O11 0.582956 0.621207 0.000481
O O12 0.500000 0.500000 0.500000
O O13 0.282651 0.296158 0.552986
#
# Coordination Sequence:
#
# PCOD9023418 Si02
#       6
#     2   2   2   2   2   2
#     4  11  25  40  67 100 133 171 221 284 341 384
#     4  10  22  40  64  98 130 170 217 276 341 385
#     4  10  23  42  65  89 133 185 216 271 317 406
#     4  10  22  39  68  99 131 169 220 280 333 390
#     4  10  22  43  63  95 129 175 230 258 331 401
#     4  11  23  42  65  96 136 172 222 272 335 390
#
# _framework density 22.764945000000001
#
# number of rings (size 3 to 8) (size 9 to 14) (size 15 to 20)
#    0.000    1.667    1.667    1.500    7.000    1.333 
#    0.000    6.667    0.000    0.000    0.000    0.000 
#    0.000    0.000    0.000    0.000    0.000    0.000 
#
# Total GULP energy -66988.823267 kJ/mol
# GULP energy per Si atom -5582.401939 kJ/mol
# Density = 2.271313 g / cm^3
# Si number density = 22.764945 Si / 1000 Ang^3
#
#
#
# Elastic Constant Matrix: (Units=GPa)
#
#
# Indices 1 2 3 4 5 6 
#
# 1 93.6833 37.4577 42.8742 -24.1814 23.8896 9.7522
# 2 37.4577 144.6977 47.8915 -19.1337 -2.8674 -13.8874
# 3 42.8742 47.8915 57.7638 -14.3090 14.5625 9.4487
# 4 -24.1814 -19.1337 -14.3090 47.2460 0.5534 -0.9146
# 5 23.8896 -2.8674 14.5625 0.5534 38.8302 -0.3970
# 6 9.7522 -13.8874 9.4487 -0.9146 -0.3970 46.7304
#
#
#
# Elastic Compliance Matrix: (Units=1/GPa)
#
#
# Indices 1 2 3 4 5 6 
#
# 1 0.019768 -0.001774 -0.008751 0.006801 -0.009137 -0.002828
# 2 -0.001774 0.011722 -0.010769 0.000625 0.006049 0.006095
# 3 -0.008751 -0.010769 0.037167 0.002355 -0.009475 -0.008924
# 4 0.006801 0.000625 0.002355 0.025652 -0.005400 -0.001254
# 5 -0.009137 0.006049 -0.009475 -0.005400 0.035511 0.005816
# 6 -0.002828 0.006095 -0.008924 -0.001254 0.005816 0.025630
#
#
# Mechanical properties :
#
#
# Convention : Reuss Voigt Hill
#
# Bulk Modulus (GPa) = 38.35909 61.39908 49.87909
# Shear Modulus (GPa) = 24.18628 37.75609 30.97119
#
# Velocity S-wave (km/s) = 3.26304 4.07691 3.69247
# Velocity P-wave (km/s) = 5.57523 7.01363 6.33539
#
# Compressibility (1/GPa) = 0.02606944
#
# Stress axis : x y z
#
# Youngs Moduli (GPa) = 50.58574 85.30996 26.90541
#
# Poissons Ratio (x) = 0.15136 0.23545
# Poissons Ratio (y) = 0.08975 0.28974
# Poissons Ratio (z) = 0.44267 0.91870
#
# Static dielectric constant tensor:
#      x y z
#    x 1.859780 -0.014660 -0.022020 
#    y -0.014660 1.958510 0.036710 
#    z -0.022020 0.036710 1.855850 
# 
# From -- ./inp_files/173232.got.cif
#   From: 2010.05.17/outbox.cif.g08.bks.cpg/sg2_87_cif.got.tgz:173232.got - 2010.06.03 11:33:40.
