data_PCOD9023147
_publ_section_title
;
Structure prediction by ZEFSAII (Michael W. Deem and Ramdas Pophale) SiO2 
 PCOD9023147
Probable space group: P -1
;
_chemical_formula_sum "Si O2"
_cell_formula_units_Z 16
_cell_length_a 23.530097
_cell_length_b 7.645071
_cell_length_c 9.319157
_cell_angle_alpha 80.751511
_cell_angle_beta 134.158638
_cell_angle_gamma 63.410021
_cell_volume 727.407799
_symmetry_space_group_name_H-M "P -1"
_symmetry_group_IT_number 2
_symmetry_cell_setting 'triclinic'
loop_
_space_group_symop_operation_xyz
x,y,z
-x,-y,-z
loop_
_atom_site_type_symbol
_atom_site_label
_atom_site_fract_x
_atom_site_fract_y
_atom_site_fract_z
Si Si1 0.605519 0.783086 0.592541
Si Si2 0.915075 0.991617 0.907235
Si Si3 0.065590 0.275929 0.276821
Si Si4 0.520085 0.648840 0.094774
Si Si5 0.707172 0.277769 0.717932
Si Si6 0.615838 0.809687 0.083787
Si Si7 0.167130 0.334620 0.959867
Si Si8 0.857768 0.569012 0.426603
O O1 0.670733 0.472693 0.757403
O O2 0.716197 0.735579 0.795894
O O3 0.500000 0.000000 0.500000
O O4 0.516448 0.950249 0.272192
O O5 0.870229 0.982279 0.679884
O O6 0.799985 0.228173 0.783264
O O7 0.016310 0.709717 0.225863
O O8 0.000000 0.000000 0.000000
O O9 0.166255 0.200534 0.565975
O O10 0.946621 0.437136 0.153020
O O11 0.000000 0.500000 0.000000
O O12 0.578057 0.484077 0.370587
O O13 0.612903 0.624732 0.178222
O O14 0.500000 0.500000 0.000000
O O15 0.398448 0.995552 0.860490
O O16 0.774254 0.969092 0.896602
O O17 0.742160 0.634791 0.238207
O O18 0.117082 0.455247 0.694131
#
# Coordination Sequence:
#
# PCOD9023147 Si02
#       8
#     2   2   2   2   2   2   2   2
#     4  11  24  46  66  94 136 180 223 277 352 390
#     4  11  23  43  67 102 138 175 229 279 337 411
#     4  10  22  40  68  95 131 184 215 271 347 393
#     4  10  22  39  66  95 129 170 232 280 332 391
#     4  11  24  41  66 100 129 177 228 275 338 405
#     4  10  22  42  63  97 131 175 220 282 333 405
#     4  12  23  45  71  96 143 179 226 283 336 415
#     4  11  23  42  67  97 142 177 223 274 349 401
#
# _framework density 21.995916000000001
#
# number of rings (size 3 to 8) (size 9 to 14) (size 15 to 20)
#    0.000    1.250    3.750    2.625    1.750    5.500 
#    4.500    1.250    0.000    0.000    0.000    0.000 
#    0.000    0.000    0.000    0.000    0.000    0.000 
#
# Total GULP energy -89155.236618 kJ/mol
# GULP energy per Si atom -5572.202289 kJ/mol
# Density = 2.194585 g / cm^3
# Si number density = 21.995916 Si / 1000 Ang^3
#
#
#
# Elastic Constant Matrix: (Units=GPa)
#
#
# Indices 1 2 3 4 5 6 
#
# 1 109.1346 44.2029 26.5987 6.3654 8.4658 -13.7662
# 2 44.2029 126.7124 24.7269 3.3756 1.4069 -6.1804
# 3 26.5987 24.7269 71.2611 11.6325 -2.2436 -1.0316
# 4 6.3654 3.3756 11.6325 36.0239 2.2874 0.4825
# 5 8.4658 1.4069 -2.2436 2.2874 38.6311 3.4896
# 6 -13.7662 -6.1804 -1.0316 0.4825 3.4896 41.3687
#
#
#
# Elastic Compliance Matrix: (Units=1/GPa)
#
#
# Indices 1 2 3 4 5 6 
#
# 1 0.012047 -0.003333 -0.003281 -0.000615 -0.003006 0.003690
# 2 -0.003333 0.009461 -0.002087 0.000359 0.000223 0.000229
# 3 -0.003281 -0.002087 0.016813 -0.004776 0.002155 -0.001110
# 4 -0.000615 0.000359 -0.004776 0.029501 -0.001861 -0.000457
# 5 -0.003006 0.000223 0.002155 -0.001861 0.027059 -0.003174
# 6 0.003690 0.000229 -0.001110 -0.000457 -0.003174 0.025680
#
#
# Mechanical properties :
#
#
# Convention : Reuss Voigt Hill
#
# Bulk Modulus (GPa) = 47.80240 55.35170 51.57705
# Shear Modulus (GPa) = 34.49807 37.31003 35.90405
#
# Velocity S-wave (km/s) = 3.96458 4.12299 4.04456
# Velocity P-wave (km/s) = 6.53734 6.91987 6.73132
#
# Compressibility (1/GPa) = 0.02091945
#
# Stress axis : x y z
#
# Youngs Moduli (GPa) = 83.00845 105.69844 59.47722
#
# Poissons Ratio (x) = 0.35224 0.19515
# Poissons Ratio (y) = 0.27663 0.12414
# Poissons Ratio (z) = 0.27235 0.22062
#
# Static dielectric constant tensor:
#      x y z
#    x 1.811240 -0.007490 -0.028220 
#    y -0.007490 2.036260 -0.064140 
#    z -0.028220 -0.064140 1.813710 
# 
# From -- ./inp_files/351743.got.cif
#   From: 2010.05.17/outbox.cif.g08.bks.cpg/sg2_176_cif.got.tgz:351743.got - 2010.06.03 11:33:40.
