data_PCOD9023791
_publ_section_title
;
Structure prediction by ZEFSAII (Michael W. Deem and Ramdas Pophale) SiO2 
 PCOD9023791
Probable space group: P -1
;
_chemical_formula_sum "Si O2"
_cell_formula_units_Z 16
_cell_length_a 22.173554
_cell_length_b 12.516889
_cell_length_c 5.225422
_cell_angle_alpha 97.273086
_cell_angle_beta 80.018499
_cell_angle_gamma 149.299767
_cell_volume 728.503381
_symmetry_space_group_name_H-M "P -1"
_symmetry_group_IT_number 2
_symmetry_cell_setting 'triclinic'
loop_
_space_group_symop_operation_xyz
x,y,z
-x,-y,-z
loop_
_atom_site_type_symbol
_atom_site_label
_atom_site_fract_x
_atom_site_fract_y
_atom_site_fract_z
Si Si1 0.457380 0.663060 0.764460
Si Si2 0.827269 0.839032 0.647544
Si Si3 0.043337 0.291887 0.799087
Si Si4 0.834181 0.322876 0.461055
Si Si5 0.637286 0.687933 0.032047
Si Si6 0.999240 0.593138 0.820695
Si Si7 0.615420 0.892265 0.222326
Si Si8 0.212913 0.364446 0.885414
O O1 0.383518 0.441098 0.796311
O O2 0.512197 0.739022 0.466035
O O3 0.355327 0.598447 0.854252
O O4 0.557381 0.825280 0.964106
O O5 0.810723 0.749917 0.372056
O O6 0.724194 0.770409 0.776823
O O7 0.824340 0.749246 0.857916
O O8 0.953733 0.088880 0.632378
O O9 0.103198 0.480973 0.662098
O O10 0.137755 0.357156 0.882152
O O11 0.965904 0.238273 0.051836
O O12 0.902179 0.308751 0.407907
O O13 0.863807 0.397182 0.755169
O O14 0.712368 0.118368 0.342224
O O15 0.673369 0.860119 0.155180
O O16 0.500000 0.500000 0.000000
O O17 0.000000 0.500000 0.000000
#
# Coordination Sequence:
#
# PCOD9023791 Si02
#       8
#     2   2   2   2   2   2   2   2
#     4  10  22  40  61  93 128 164 211 264 312 372
#     4  11  24  40  64  96 129 164 216 262 320 382
#     4  11  24  40  66  90 127 172 212 260 321 379
#     4  10  23  41  64  94 129 164 211 265 316 379
#     4   9  19  39  62  93 124 162 203 258 319 375
#     4   9  21  42  61  89 129 158 210 255 320 365
#     4  11  22  39  67  92 127 167 210 258 322 377
#     4  11  24  43  64  92 130 167 214 269 314 374
#
# _framework density 21.962837
#
# number of rings (size 3 to 8) (size 9 to 14) (size 15 to 20)
#    0.000    1.750    0.000    4.125    7.000    3.000 
#   13.500    1.250    0.000    0.000    0.000    0.000 
#    0.000    0.000    0.000    0.000    0.000    0.000 
#
# Total GULP energy -89195.834243 kJ/mol
# GULP energy per Si atom -5574.739640 kJ/mol
# Density = 2.191285 g / cm^3
# Si number density = 21.962837 Si / 1000 Ang^3
#
#
#
# Elastic Constant Matrix: (Units=GPa)
#
#
# Indices 1 2 3 4 5 6 
#
# 1 113.4265 25.8384 13.7661 9.3936 6.7259 16.6807
# 2 25.8384 58.3257 1.6917 24.1060 6.0632 7.0147
# 3 13.7661 1.6917 74.6172 23.4664 15.3943 -1.1734
# 4 9.3936 24.1060 23.4664 27.2149 8.4880 1.4758
# 5 6.7259 6.0632 15.3943 8.4880 21.9381 2.2553
# 6 16.6807 7.0147 -1.1734 1.4758 2.2553 18.1157
#
#
#
# Elastic Compliance Matrix: (Units=1/GPa)
#
#
# Indices 1 2 3 4 5 6 
#
# 1 0.011536 -0.005991 -0.003652 0.005070 -0.000365 -0.008906
# 2 -0.005991 0.037686 0.013853 -0.042589 -0.001355 -0.004541
# 3 -0.003652 0.013853 0.025120 -0.030021 -0.009050 0.003198
# 4 0.005070 -0.042589 -0.030021 0.100974 -0.008058 0.002656
# 5 -0.000365 -0.001355 -0.009050 -0.008058 0.056160 -0.006061
# 6 -0.008906 -0.004541 0.003198 0.002656 -0.006061 0.065905
#
#
# Mechanical properties :
#
#
# Convention : Reuss Voigt Hill
#
# Bulk Modulus (GPa) = 12.08276 36.55132 24.31704
# Shear Modulus (GPa) = 15.79537 27.12528 21.46033
#
# Velocity S-wave (km/s) = 2.68467 3.51815 3.12928
# Velocity P-wave (km/s) = 3.88888 5.76035 4.91452
#
# Compressibility (1/GPa) = 0.08276253
#
# Stress axis : x y z
#
# Youngs Moduli (GPa) = 86.68746 26.53471 39.80898
#
# Poissons Ratio (x) = 0.15897 0.14537
# Poissons Ratio (y) = 0.51934 -0.55147
# Poissons Ratio (z) = 0.31657 -0.36758
#
# Static dielectric constant tensor:
#      x y z
#    x 1.873030 0.052460 -0.027890 
#    y 0.052460 1.872000 -0.001450 
#    z -0.027890 -0.001450 1.921330 
# 
# From -- ./inp_files/118727.got.cif
#   From: 2010.05.17/outbox.cif.g08.bks.cpg/sg2_60_cif.got.tgz:118727.got - 2010.06.03 11:33:40.
