data_PCOD9023766
_publ_section_title
;
Structure prediction by ZEFSAII (Michael W. Deem and Ramdas Pophale) SiO2 
 PCOD9023766
Probable space group: P -1
;
_chemical_formula_sum "Si O2"
_cell_formula_units_Z 12
_cell_length_a 8.375350
_cell_length_b 6.545183
_cell_length_c 12.876471
_cell_angle_alpha 55.567139
_cell_angle_beta 122.422598
_cell_angle_gamma 125.336041
_cell_volume 451.412822
_symmetry_space_group_name_H-M "P -1"
_symmetry_group_IT_number 2
_symmetry_cell_setting 'triclinic'
loop_
_space_group_symop_operation_xyz
x,y,z
-x,-y,-z
loop_
_atom_site_type_symbol
_atom_site_label
_atom_site_fract_x
_atom_site_fract_y
_atom_site_fract_z
Si Si1 0.732283 0.001012 0.356037
Si Si2 0.503469 0.385828 0.873163
Si Si3 0.604366 0.961172 0.653857
Si Si4 0.798434 0.119045 0.003197
Si Si5 0.873486 0.480669 0.115516
Si Si6 0.017191 0.802505 0.407304
O O1 0.493922 0.916468 0.326416
O O2 0.824481 0.302942 0.252502
O O3 0.843740 0.019317 0.500327
O O4 0.799818 0.821976 0.351086
O O5 0.522689 0.646301 0.742317
O O6 0.288769 0.190373 0.904395
O O7 0.598296 0.195860 0.900771
O O8 0.668593 0.492918 0.993048
O O9 0.500000 0.000000 0.500000
O O10 0.847247 0.084215 0.680958
O O11 0.915921 0.286109 0.098430
O O12 0.938760 0.236424 0.918623
O O13 0.000000 0.500000 0.500000
#
# Coordination Sequence:
#
# PCOD9023766 Si02
#       6
#     2   2   2   2   2   2
#     4  10  22  41  65  94 128 166 219 267 319 395
#     4   9  17  35  57  88 128 166 209 261 329 372
#     4  10  22  40  61  90 128 169 208 271 318 379
#     4   8  17  32  58  93 123 174 206 266 325 380
#     4   9  17  34  58  91 126 165 209 273 316 376
#     4  10  23  44  64  92 129 172 214 268 325 384
#
# _framework density 26.583205
#
# number of rings (size 3 to 8) (size 9 to 14) (size 15 to 20)
#    1.000    1.667    0.000    1.000    0.000    4.000 
#    3.000    2.500    0.000    0.000    0.000    0.000 
#    0.000    0.000    0.000    0.000    0.000    0.000 
#
# Total GULP energy -67072.003651 kJ/mol
# GULP energy per Si atom -5589.333638 kJ/mol
# Density = 2.652270 g / cm^3
# Si number density = 26.583205 Si / 1000 Ang^3
#
#
#
# Elastic Constant Matrix: (Units=GPa)
#
#
# Indices 1 2 3 4 5 6 
#
# 1 236.4804 65.1167 55.7042 -32.2804 -21.3168 27.3375
# 2 65.1167 87.4176 20.5369 -32.6076 -3.0511 13.6882
# 3 55.7042 20.5369 89.0144 -24.6161 2.7569 3.3743
# 4 -32.2804 -32.6076 -24.6161 55.7326 -3.4792 -7.4984
# 5 -21.3168 -3.0511 2.7569 -3.4792 45.2056 -9.4828
# 6 27.3375 13.6882 3.3743 -7.4984 -9.4828 49.3716
#
#
#
# Elastic Compliance Matrix: (Units=1/GPa)
#
#
# Indices 1 2 3 4 5 6 
#
# 1 0.006437 -0.003628 -0.003169 0.000124 0.002611 -0.001821
# 2 -0.003628 0.017237 0.000577 0.007996 -0.000314 -0.001656
# 3 -0.003169 0.000577 0.014459 0.004917 -0.001745 0.001018
# 4 0.000124 0.007996 0.004917 0.025258 0.002602 0.001714
# 5 0.002611 -0.000314 -0.001745 0.002602 0.024446 0.003851
# 6 -0.001821 -0.001656 0.001018 0.001714 0.003851 0.022653
#
#
# Mechanical properties :
#
#
# Convention : Reuss Voigt Hill
#
# Bulk Modulus (GPa) = 38.91892 77.29198 58.10545
# Shear Modulus (GPa) = 38.02507 48.16560 43.09534
#
# Velocity S-wave (km/s) = 3.78619 4.26124 4.03072
# Velocity P-wave (km/s) = 5.81256 7.30407 6.60058
#
# Compressibility (1/GPa) = 0.02569444
#
# Stress axis : x y z
#
# Youngs Moduli (GPa) = 155.35473 58.01486 69.16099
#
# Poissons Ratio (x) = 0.21046 0.21915
# Poissons Ratio (y) = 0.56358 -0.03992
# Poissons Ratio (z) = 0.49226 -0.03348
#
# Static dielectric constant tensor:
#      x y z
#    x 2.205510 -0.023200 0.039390 
#    y -0.023200 2.070170 0.033760 
#    z 0.039390 0.033760 2.047550 
# 
# From -- ./inp_files/492128.got.cif
#   From: 2010.05.17/outbox.cif.g08.bks.cpg/sg2_247_cif.got.tgz:492128.got - 2010.06.03 11:33:40.
