data_PCOD9023128
_publ_section_title
;
Structure prediction by ZEFSAII (Michael W. Deem and Ramdas Pophale) SiO2 
 PCOD9023128
Probable space group: P -1
;
_chemical_formula_sum "Si O2"
_cell_formula_units_Z 14
_cell_length_a 9.792562
_cell_length_b 9.616818
_cell_length_c 9.828134
_cell_angle_alpha 65.864308
_cell_angle_beta 66.066588
_cell_angle_gamma 41.049044
_cell_volume 547.316394
_symmetry_space_group_name_H-M "P -1"
_symmetry_group_IT_number 2
_symmetry_cell_setting 'triclinic'
loop_
_space_group_symop_operation_xyz
x,y,z
-x,-y,-z
loop_
_atom_site_type_symbol
_atom_site_label
_atom_site_fract_x
_atom_site_fract_y
_atom_site_fract_z
Si Si1 0.185129 0.678273 0.502606
Si Si2 0.904522 0.610463 0.644258
Si Si3 0.436367 0.833866 0.725176
Si Si4 0.614558 0.176692 0.550990
Si Si5 0.956775 0.775653 0.093909
Si Si6 0.671824 0.353155 0.842640
Si Si7 0.354680 0.959248 0.104968
O O1 0.384539 0.424074 0.547956
O O2 0.220523 0.802322 0.526525
O O3 0.201438 0.713718 0.323707
O O4 0.983351 0.723078 0.594183
O O5 0.656815 0.759678 0.689910
O O6 0.000000 0.500000 0.500000
O O7 0.996049 0.428170 0.791848
O O8 0.377120 0.908149 0.563479
O O9 0.497131 0.611673 0.809223
O O10 0.246671 0.024788 0.817799
O O11 0.630428 0.082079 0.725327
O O12 0.156058 0.734205 0.075806
O O13 0.877451 0.844285 0.943645
O O14 0.579311 0.249847 0.909000
O O15 0.500000 0.000000 0.000000
#
# Coordination Sequence:
#
# PCOD9023128 Si02
#       7
#     2   2   2   2   2   2   2
#     4   9  16  34  60  85 113 161 199 236 294 351
#     4  11  19  38  62  90 124 157 198 252 296 349
#     4  10  22  39  66  94 115 155 212 249 288 352
#     4   9  18  36  61  86 120 159 195 244 302 356
#     4  11  23  39  64  93 120 159 203 247 295 362
#     4   9  20  42  62  83 123 165 199 244 298 355
#     4  11  23  38  61  91 124 162 198 243 312 365
#
# _framework density 25.579355
#
# number of rings (size 3 to 8) (size 9 to 14) (size 15 to 20)
#    0.000    2.000    4.286    2.143    0.000    1.143 
#    0.000    4.286    0.000   18.857    0.000    0.000 
#    0.000    0.000    0.000    0.000    0.000    0.000 
#
# Total GULP energy -78511.734837 kJ/mol
# GULP energy per Si atom -5607.981060 kJ/mol
# Density = 2.552113 g / cm^3
# Si number density = 25.579355 Si / 1000 Ang^3
#
#
#
# Elastic Constant Matrix: (Units=GPa)
#
#
# Indices 1 2 3 4 5 6 
#
# 1 141.5855 36.5617 79.4776 -5.5358 -34.5603 -25.6980
# 2 36.5617 103.1356 49.9964 -5.5710 -4.2526 -20.4880
# 3 79.4776 49.9964 154.1254 -26.1321 -4.1237 -21.0489
# 4 -5.5358 -5.5710 -26.1321 41.7926 -15.9289 8.7348
# 5 -34.5603 -4.2526 -4.1237 -15.9289 60.4811 -3.5611
# 6 -25.6980 -20.4880 -21.0489 8.7348 -3.5611 36.7330
#
#
#
# Elastic Compliance Matrix: (Units=1/GPa)
#
#
# Indices 1 2 3 4 5 6 
#
# 1 0.013437 -0.000342 -0.005764 -0.000399 0.007553 0.006734
# 2 -0.000342 0.012413 -0.003385 -0.001436 0.000370 0.005122
# 3 -0.005764 -0.003385 0.011344 0.005546 -0.001349 -0.000869
# 4 -0.000399 -0.001436 0.005546 0.031142 0.007984 -0.004533
# 5 0.007553 0.000370 -0.001349 0.007984 0.023185 0.005066
# 6 0.006734 0.005122 -0.000869 -0.004533 0.005066 0.035862
#
#
# Mechanical properties :
#
#
# Convention : Reuss Voigt Hill
#
# Bulk Modulus (GPa) = 54.90442 81.21311 68.05876
# Shear Modulus (GPa) = 32.80095 43.32206 38.06151
#
# Velocity S-wave (km/s) = 3.58484 4.11984 3.86162
# Velocity P-wave (km/s) = 6.21656 7.37897 6.82257
#
# Compressibility (1/GPa) = 0.01821347
#
# Stress axis : x y z
#
# Youngs Moduli (GPa) = 74.42247 80.56046 88.15253
#
# Poissons Ratio (x) = 0.02752 0.50811
# Poissons Ratio (y) = 0.02543 0.29836
# Poissons Ratio (z) = 0.42897 0.27266
#
# Static dielectric constant tensor:
#      x y z
#    x 2.007700 0.044570 -0.014290 
#    y 0.044570 2.065660 -0.053010 
#    z -0.014290 -0.053010 2.031220 
# 
# From -- ./inp_files/506145.got.cif
#   From: 2010.05.17/outbox.cif.g08.bks.cpg/sg2_254_cif.got.tgz:506145.got - 2010.06.03 11:33:40.
