data_PCOD9023800
_publ_section_title
;
Structure prediction by ZEFSAII (Michael W. Deem and Ramdas Pophale) SiO2 
 PCOD9023800
Probable space group: P -1
;
_chemical_formula_sum "Si O2"
_cell_formula_units_Z 16
_cell_length_a 8.133627
_cell_length_b 8.406802
_cell_length_c 10.479041
_cell_angle_alpha 78.891721
_cell_angle_beta 118.332708
_cell_angle_gamma 98.056434
_cell_volume 617.896394
_symmetry_space_group_name_H-M "P -1"
_symmetry_group_IT_number 2
_symmetry_cell_setting 'triclinic'
loop_
_space_group_symop_operation_xyz
x,y,z
-x,-y,-z
loop_
_atom_site_type_symbol
_atom_site_label
_atom_site_fract_x
_atom_site_fract_y
_atom_site_fract_z
Si Si1 0.044681 0.544958 0.157309
Si Si2 0.438483 0.463751 0.249414
Si Si3 0.700221 0.331555 0.064952
Si Si4 0.155530 0.065798 0.447384
Si Si5 0.069048 0.151758 0.783528
Si Si6 0.831947 0.618928 0.448734
Si Si7 0.473947 0.882840 0.730735
Si Si8 0.205834 0.946488 0.043101
O O1 0.260595 0.513562 0.255670
O O2 0.026755 0.724417 0.176944
O O3 0.871381 0.440647 0.173339
O O4 0.000000 0.500000 0.000000
O O5 0.634818 0.520402 0.374861
O O6 0.425653 0.269069 0.267805
O O7 0.420948 0.548161 0.087567
O O8 0.622312 0.210279 0.166793
O O9 0.783196 0.217268 0.004674
O O10 0.170546 0.258781 0.449134
O O11 0.070088 0.996502 0.294024
O O12 0.332970 0.966799 0.570601
O O13 0.000000 0.000000 0.500000
O O14 0.144674 0.252767 0.676645
O O15 0.246703 0.085006 0.928798
O O16 0.000000 0.500000 0.500000
O O17 0.626579 0.023464 0.803194
O O18 0.000000 0.000000 0.000000
#
# Coordination Sequence:
#
# PCOD9023800 Si02
#       8
#     2   2   2   2   2   2   2   2
#     4  10  22  40  61  93 133 170 213 268 327 389
#     4  11  21  38  62  93 130 171 219 274 327 386
#     4  11  21  37  64  96 127 169 220 273 328 392
#     4  10  23  43  65  97 133 168 218 275 326 390
#     4  11  23  43  67  96 134 178 220 271 330 391
#     4  11  23  43  69  96 128 174 223 273 324 391
#     4  12  23  41  66  97 129 172 222 273 328 393
#     4  12  24  41  64  96 135 174 216 275 334 390
#
# _framework density 25.894309
#
# number of rings (size 3 to 8) (size 9 to 14) (size 15 to 20)
#    0.000    1.000    0.000    9.750    0.000    1.000 
#    0.000    5.000    0.000    1.500    0.000    0.875 
#    0.000    0.000    0.000    0.000    0.000    0.000 
#
# Total GULP energy -89480.985244 kJ/mol
# GULP energy per Si atom -5592.561578 kJ/mol
# Density = 2.583537 g / cm^3
# Si number density = 25.894309 Si / 1000 Ang^3
#
#
#
# Elastic Constant Matrix: (Units=GPa)
#
#
# Indices 1 2 3 4 5 6 
#
# 1 74.2772 32.3302 21.5324 19.0127 17.0964 -5.0574
# 2 32.3302 133.3745 20.1007 31.6368 18.1125 -30.6613
# 3 21.5324 20.1007 103.1404 11.2361 22.8993 -10.3767
# 4 19.0127 31.6368 11.2361 52.2021 1.9445 -4.3948
# 5 17.0964 18.1125 22.8993 1.9445 52.2413 1.8471
# 6 -5.0574 -30.6613 -10.3767 -4.3948 1.8471 46.0447
#
#
#
# Elastic Compliance Matrix: (Units=1/GPa)
#
#
# Indices 1 2 3 4 5 6 
#
# 1 0.016956 -0.002425 -0.001820 -0.004210 -0.003739 -0.000414
# 2 -0.002425 0.011372 0.000319 -0.005364 -0.003337 0.007000
# 3 -0.001820 0.000319 0.011469 -0.001608 -0.004575 0.002627
# 4 -0.004210 -0.005364 -0.001608 0.023982 0.003128 -0.002233
# 5 -0.003739 -0.003337 -0.004575 0.003128 0.023564 -0.004311
# 6 -0.000414 0.007000 0.002627 -0.002233 -0.004311 0.026886
#
#
# Mechanical properties :
#
#
# Convention : Reuss Voigt Hill
#
# Bulk Modulus (GPa) = 31.30282 50.96872 41.13577
# Shear Modulus (GPa) = 37.67088 45.88621 41.77855
#
# Velocity S-wave (km/s) = 3.81831 4.21415 4.02110
# Velocity P-wave (km/s) = 5.61732 6.58823 6.12206
#
# Compressibility (1/GPa) = 0.03194600
#
# Stress axis : x y z
#
# Youngs Moduli (GPa) = 58.97540 87.93421 87.19515
#
# Poissons Ratio (x) = 0.21321 0.15871
# Poissons Ratio (y) = 0.14300 -0.02786
# Poissons Ratio (z) = 0.10735 -0.02809
#
# Static dielectric constant tensor:
#      x y z
#    x 2.428070 0.161400 -0.152230 
#    y 0.161400 2.028950 -0.011170 
#    z -0.152230 -0.011170 2.070120 
# 
# From -- ./inp_files/283446.got.cif
#   From: 2010.05.17/outbox.cif.g08.bks.cpg/sg2_142_cif.got.tgz:283446.got - 2010.06.03 11:33:40.
