data_PCOD9023138
_publ_section_title
;
Structure prediction by ZEFSAII (Michael W. Deem and Ramdas Pophale) SiO2 
 PCOD9023138
Probable space group: P -1
;
_chemical_formula_sum "Si O2"
_cell_formula_units_Z 16
_cell_length_a 23.415098
_cell_length_b 8.045266
_cell_length_c 8.801020
_cell_angle_alpha 55.352447
_cell_angle_beta 49.457899
_cell_angle_gamma 33.011697
_cell_volume 685.313379
_symmetry_space_group_name_H-M "P -1"
_symmetry_group_IT_number 2
_symmetry_cell_setting 'triclinic'
loop_
_space_group_symop_operation_xyz
x,y,z
-x,-y,-z
loop_
_atom_site_type_symbol
_atom_site_label
_atom_site_fract_x
_atom_site_fract_y
_atom_site_fract_z
Si Si1 0.636533 0.918914 0.286783
Si Si2 0.571598 0.457496 0.529404
Si Si3 0.855637 0.858608 0.638114
Si Si4 0.839894 0.703626 0.197479
Si Si5 0.379819 0.819125 0.102279
Si Si6 0.785009 0.274194 0.280643
Si Si7 0.077458 0.605382 0.463916
Si Si8 0.062282 0.043395 0.090728
O O1 0.716773 0.923600 0.224188
O O2 0.709026 0.572343 0.362647
O O3 0.512280 0.208192 0.419308
O O4 0.637202 0.945582 0.088715
O O5 0.500000 0.500000 0.500000
O O6 0.607867 0.220013 0.717909
O O7 0.687433 0.330652 0.344711
O O8 0.877926 0.595513 0.661545
O O9 0.955210 0.742435 0.630333
O O10 0.727613 0.106355 0.791237
O O11 0.858163 0.996961 0.415027
O O12 0.848916 0.603527 0.407690
O O13 0.931047 0.374572 0.124228
O O14 0.879540 0.854907 0.036808
O O15 0.500000 0.500000 0.000000
O O16 0.870898 0.177866 0.055331
O O17 0.069281 0.858027 0.305268
#
# Coordination Sequence:
#
# PCOD9023138 Si02
#       8
#     2   2   2   2   2   2   2   2
#     4  11  23  41  69  95 133 178 220 274 336 402
#     4  10  22  43  70  93 133 171 221 287 336 388
#     4  10  22  39  66  94 134 176 222 280 328 395
#     4  11  25  42  64  99 136 174 227 279 331 394
#     4   9  21  40  64  95 125 172 219 264 333 400
#     4  11  22  42  65  98 129 176 228 268 337 409
#     4  11  23  42  63  96 136 179 224 275 333 395
#     4  11  24  41  65  93 137 175 227 269 333 397
#
# _framework density 23.346983000000002
#
# number of rings (size 3 to 8) (size 9 to 14) (size 15 to 20)
#    0.000    1.500    1.250    3.000    5.250    2.000 
#    2.250    0.625    0.000    0.000    0.000    0.000 
#    0.000    0.000    0.000    0.000    0.000    0.000 
#
# Total GULP energy -89360.440447 kJ/mol
# GULP energy per Si atom -5585.027528 kJ/mol
# Density = 2.329384 g / cm^3
# Si number density = 23.346983 Si / 1000 Ang^3
#
#
#
# Elastic Constant Matrix: (Units=GPa)
#
#
# Indices 1 2 3 4 5 6 
#
# 1 67.7497 17.7274 13.3352 -1.7285 6.1444 -2.4619
# 2 17.7274 106.5053 34.6926 12.0710 -2.8925 1.5549
# 3 13.3352 34.6926 110.5292 3.0627 5.2911 3.0288
# 4 -1.7285 12.0710 3.0627 49.9822 -0.3712 -9.3195
# 5 6.1444 -2.8925 5.2911 -0.3712 19.9894 -0.4866
# 6 -2.4619 1.5549 3.0288 -9.3195 -0.4866 42.9973
#
#
#
# Elastic Compliance Matrix: (Units=1/GPa)
#
#
# Indices 1 2 3 4 5 6 
#
# 1 0.016203 -0.002718 -0.000938 0.001490 -0.005065 0.001358
# 2 -0.002718 0.011327 -0.003282 -0.002771 0.003270 -0.000898
# 3 -0.000938 -0.003282 0.010352 -0.000027 -0.002944 -0.000703
# 4 0.001490 -0.002771 -0.000027 0.021636 -0.000331 0.004873
# 5 -0.005065 0.003270 -0.002944 -0.000331 0.052837 0.000325
# 6 0.001358 -0.000898 -0.000703 0.004873 0.000325 0.024477
#
#
# Mechanical properties :
#
#
# Convention : Reuss Voigt Hill
#
# Bulk Modulus (GPa) = 41.65744 46.25496 43.95620
# Shear Modulus (GPa) = 31.50423 37.19573 34.34998
#
# Velocity S-wave (km/s) = 3.67739 3.99578 3.83989
# Velocity P-wave (km/s) = 5.99270 6.41431 6.20708
#
# Compressibility (1/GPa) = 0.02400531
#
# Stress axis : x y z
#
# Youngs Moduli (GPa) = 61.71865 88.28648 96.60152
#
# Poissons Ratio (x) = 0.23992 0.09060
# Poissons Ratio (y) = 0.16772 0.31709
# Poissons Ratio (z) = 0.05788 0.28980
#
# Static dielectric constant tensor:
#      x y z
#    x 1.936370 0.060210 -0.025390 
#    y 0.060210 1.888560 0.002760 
#    z -0.025390 0.002760 1.941410 
# 
# From -- ./inp_files/352028.got.cif
#   From: 2010.05.17/outbox.cif.g08.bks.cpg/sg2_177_cif.got.tgz:352028.got - 2010.06.03 11:33:40.
