data_PCOD9023675
_publ_section_title
;
Structure prediction by ZEFSAII (Michael W. Deem and Ramdas Pophale) SiO2 
 PCOD9023675
Probable space group: P -1
;
_chemical_formula_sum "Si O2"
_cell_formula_units_Z 16
_cell_length_a 5.753284
_cell_length_b 16.375895
_cell_length_c 21.653282
_cell_angle_alpha 21.474200
_cell_angle_beta 72.671012
_cell_angle_gamma 80.971141
_cell_volume 669.398584
_symmetry_space_group_name_H-M "P -1"
_symmetry_group_IT_number 2
_symmetry_cell_setting 'triclinic'
loop_
_space_group_symop_operation_xyz
x,y,z
-x,-y,-z
loop_
_atom_site_type_symbol
_atom_site_label
_atom_site_fract_x
_atom_site_fract_y
_atom_site_fract_z
Si Si1 0.671190 0.296848 0.981662
Si Si2 0.791969 0.244573 0.199995
Si Si3 0.620888 0.141830 0.544132
Si Si4 0.917376 0.233245 0.334978
Si Si5 0.705356 0.786720 0.378363
Si Si6 0.208806 0.758707 0.125391
Si Si7 0.605990 0.700015 0.242184
Si Si8 0.128684 0.008222 0.262765
O O1 0.368481 0.234099 0.063077
O O2 0.695695 0.038535 0.177666
O O3 0.842256 0.516906 0.855239
O O4 0.745681 0.348926 0.867809
O O5 0.767708 0.194027 0.309946
O O6 0.938879 0.104878 0.247513
O O7 0.512670 0.141182 0.262551
O O8 0.000000 0.500000 0.000000
O O9 0.428358 0.249934 0.516713
O O10 0.741211 0.252057 0.393255
O O11 0.808869 0.154159 0.576805
O O12 0.000000 0.000000 0.500000
O O13 0.549441 0.533627 0.541185
O O14 0.006612 0.850119 0.324280
O O15 0.394867 0.709439 0.198673
O O16 0.895581 0.692805 0.206914
O O17 0.320359 0.046571 0.908085
#
# Coordination Sequence:
#
# PCOD9023675 Si02
#       8
#     2   2   2   2   2   2   2   2
#     4  11  26  41  64  96 135 173 230 281 343 411
#     4  11  23  40  61  84 123 167 223 281 342 404
#     4  10  22  40  60  88 122 165 223 274 336 401
#     4  12  24  40  62  91 122 173 226 284 340 402
#     4  10  23  42  67  95 131 179 219 278 341 408
#     4  10  24  46  72 111 137 181 223 283 338 411
#     4  10  23  45  77 102 144 178 226 275 343 410
#     4  10  22  41  59  90 127 174 216 276 341 402
#
# _framework density 23.902054
#
# number of rings (size 3 to 8) (size 9 to 14) (size 15 to 20)
#    0.000    1.500    1.250    3.375    8.750    1.500 
#    4.500    0.625    0.000    0.000    0.000    0.000 
#    0.000    0.000    0.000    0.000    0.000    0.000 
#
# Total GULP energy -89142.176798 kJ/mol
# GULP energy per Si atom -5571.386050 kJ/mol
# Density = 2.384765 g / cm^3
# Si number density = 23.902054 Si / 1000 Ang^3
#
#
#
# Elastic Constant Matrix: (Units=GPa)
#
#
# Indices 1 2 3 4 5 6 
#
# 1 71.6627 23.1394 18.4026 -8.3009 -13.9080 14.7245
# 2 23.1394 77.3479 3.4363 4.9144 -1.7360 12.2758
# 3 18.4026 3.4363 127.4963 -29.5449 -11.0097 12.9212
# 4 -8.3009 4.9144 -29.5449 39.6759 -2.0801 -7.5205
# 5 -13.9080 -1.7360 -11.0097 -2.0801 30.0409 -5.6402
# 6 14.7245 12.2758 12.9212 -7.5205 -5.6402 20.5033
#
#
#
# Elastic Compliance Matrix: (Units=1/GPa)
#
#
# Indices 1 2 3 4 5 6 
#
# 1 0.018775 -0.004450 -0.000520 0.003055 0.007062 -0.007429
# 2 -0.004450 0.015926 -0.000330 -0.005001 -0.003272 -0.008866
# 3 -0.000520 -0.000330 0.010135 0.007252 0.003548 -0.002181
# 4 0.003055 -0.005001 0.007252 0.034403 0.008253 0.011120
# 5 0.007062 -0.003272 0.003548 0.008253 0.039863 0.008645
# 6 -0.007429 -0.008866 -0.002181 0.011120 0.008645 0.067247
#
#
# Mechanical properties :
#
#
# Convention : Reuss Voigt Hill
#
# Bulk Modulus (GPa) = 29.20823 40.71816 34.96320
# Shear Modulus (GPa) = 23.99676 33.47925 28.73800
#
# Velocity S-wave (km/s) = 3.17197 3.74663 3.47122
# Velocity P-wave (km/s) = 5.06574 5.98237 5.54303
#
# Compressibility (1/GPa) = 0.03423693
#
# Stress axis : x y z
#
# Youngs Moduli (GPa) = 53.26144 62.79015 98.66699
#
# Poissons Ratio (x) = 0.27944 0.05126
# Poissons Ratio (y) = 0.23703 0.03255
# Poissons Ratio (z) = 0.02767 0.02071
#
# Static dielectric constant tensor:
#      x y z
#    x 2.029820 0.097180 -0.134360 
#    y 0.097180 1.854770 -0.083600 
#    z -0.134360 -0.083600 2.162930 
# 
# From -- ./inp_files/324168.got.cif
#   From: 2010.05.17/outbox.cif.g08.bks.cpg/sg2_163_cif.got.tgz:324168.got - 2010.06.03 11:33:40.
