data_PCOD9023037
_publ_section_title
;
Structure prediction by ZEFSAII (Michael W. Deem and Ramdas Pophale) SiO2 
 PCOD9023037
Probable space group: P -1
;
_chemical_formula_sum "Si O2"
_cell_formula_units_Z 16
_cell_length_a 14.607157
_cell_length_b 12.043495
_cell_length_c 17.587639
_cell_angle_alpha 50.076854
_cell_angle_beta 30.821443
_cell_angle_gamma 29.759529
_cell_volume 718.411172
_symmetry_space_group_name_H-M "P -1"
_symmetry_group_IT_number 2
_symmetry_cell_setting 'triclinic'
loop_
_space_group_symop_operation_xyz
x,y,z
-x,-y,-z
loop_
_atom_site_type_symbol
_atom_site_label
_atom_site_fract_x
_atom_site_fract_y
_atom_site_fract_z
Si Si1 0.615207 0.609833 0.149907
Si Si2 0.557173 0.131382 0.411593
Si Si3 0.108281 0.660552 0.782630
Si Si4 0.765682 0.265728 0.860595
Si Si5 0.221448 0.608800 0.367241
Si Si6 0.426538 0.391156 0.533959
Si Si7 0.156449 0.115773 0.344817
Si Si8 0.514617 0.830198 0.978842
O O1 0.875025 0.406788 0.113986
O O2 0.471650 0.555242 0.246098
O O3 0.698349 0.639141 0.000894
O O4 0.364040 0.860823 0.268313
O O5 0.346290 0.367953 0.403759
O O6 0.463515 0.237642 0.517112
O O7 0.500000 0.000000 0.500000
O O8 0.911097 0.944429 0.234922
O O9 0.303796 0.436114 0.684740
O O10 0.271240 0.710379 0.637355
O O11 0.763110 0.903922 0.900307
O O12 0.812145 0.334622 0.722040
O O13 0.647351 0.188563 0.947220
O O14 0.500000 0.500000 0.000000
O O15 0.926018 0.840447 0.526627
O O16 0.167169 0.666091 0.563090
O O17 0.301228 0.177859 0.198500
#
# Coordination Sequence:
#
# PCOD9023037 Si02
#       8
#     2   2   2   2   2   2   2   2
#     4  11  21  38  68  95 136 179 213 263 338 403
#     4  11  24  46  69  97 136 174 228 285 324 388
#     4  11  21  39  66  95 136 175 219 262 334 408
#     4  11  26  46  72  95 128 182 227 277 341 391
#     4  10  24  44  69  98 131 176 231 268 333 410
#     4  10  22  39  65  98 133 172 221 270 326 397
#     4  11  22  39  65  99 138 174 213 275 330 398
#     4  11  24  43  61  98 145 171 215 282 335 391
#
# _framework density 22.271367999999999
#
# number of rings (size 3 to 8) (size 9 to 14) (size 15 to 20)
#    0.000    1.250    5.000    0.750    5.250    1.500 
#    0.000    0.000    0.000    0.000    0.000    0.000 
#    0.000    0.000    0.000    0.000    0.000    0.000 
#
# Total GULP energy -89504.036988 kJ/mol
# GULP energy per Si atom -5594.002312 kJ/mol
# Density = 2.222068 g / cm^3
# Si number density = 22.271368 Si / 1000 Ang^3
#
#
#
# Elastic Constant Matrix: (Units=GPa)
#
#
# Indices 1 2 3 4 5 6 
#
# 1 60.7811 23.0502 25.4407 -4.1072 4.0783 7.2555
# 2 23.0502 76.9140 8.9155 -5.6782 -5.8387 15.9527
# 3 25.4407 8.9155 82.5398 -8.1298 2.0102 3.5412
# 4 -4.1072 -5.6782 -8.1298 31.9389 8.1831 -2.8369
# 5 4.0783 -5.8387 2.0102 8.1831 34.4445 -3.4611
# 6 7.2555 15.9527 3.5412 -2.8369 -3.4611 43.8089
#
#
#
# Elastic Compliance Matrix: (Units=1/GPa)
#
#
# Indices 1 2 3 4 5 6 
#
# 1 0.021486 -0.005707 -0.005760 0.001084 -0.003556 -0.001225
# 2 -0.005707 0.015912 0.000280 0.001082 0.002638 -0.004593
# 3 -0.005760 0.000280 0.014196 0.003128 -0.000858 -0.000161
# 4 0.001084 0.001082 0.003128 0.034626 -0.008277 0.000762
# 5 -0.003556 0.002638 -0.000858 -0.008277 0.032088 0.001697
# 6 -0.001225 -0.004593 -0.000161 0.000762 0.001697 0.024898
#
#
# Mechanical properties :
#
#
# Convention : Reuss Voigt Hill
#
# Bulk Modulus (GPa) = 34.22333 37.22752 35.72543
# Shear Modulus (GPa) = 28.51903 32.89371 30.70637
#
# Velocity S-wave (km/s) = 3.58232 3.84728 3.71716
# Velocity P-wave (km/s) = 5.70181 6.04046 5.87357
#
# Compressibility (1/GPa) = 0.02921983
#
# Stress axis : x y z
#
# Youngs Moduli (GPa) = 46.54219 62.84443 70.44021
#
# Poissons Ratio (x) = 0.35866 0.40574
# Poissons Ratio (y) = 0.26562 -0.01970
# Poissons Ratio (z) = 0.26808 -0.01758
#
# Static dielectric constant tensor:
#      x y z
#    x 1.838130 -0.023040 0.011390 
#    y -0.023040 1.851160 -0.012010 
#    z 0.011390 -0.012010 1.829000 
# 
# From -- ./inp_files/225818.got.cif
#   From: 2010.05.17/outbox.cif.g08.bks.cpg/sg2_113_cif.got.tgz:225818.got - 2010.06.03 11:33:40.
