data_PCOD9023024
_publ_section_title
;
Structure prediction by ZEFSAII (Michael W. Deem and Ramdas Pophale) SiO2 
 PCOD9023024
Probable space group: P -1
;
_chemical_formula_sum "Si O2"
_cell_formula_units_Z 14
_cell_length_a 12.347973
_cell_length_b 21.478531
_cell_length_c 15.997896
_cell_angle_alpha 159.198336
_cell_angle_beta 33.639102
_cell_angle_gamma 155.028000
_cell_volume 632.992877
_symmetry_space_group_name_H-M "P -1"
_symmetry_group_IT_number 2
_symmetry_cell_setting 'triclinic'
loop_
_space_group_symop_operation_xyz
x,y,z
-x,-y,-z
loop_
_atom_site_type_symbol
_atom_site_label
_atom_site_fract_x
_atom_site_fract_y
_atom_site_fract_z
Si Si1 0.990703 0.791494 0.715329
Si Si2 0.808132 0.418823 0.597944
Si Si3 0.202047 0.302289 0.918623
Si Si4 0.504320 0.677229 0.470035
Si Si5 0.988415 0.189604 0.613239
Si Si6 0.223099 0.431991 0.596341
Si Si7 0.795930 0.183713 0.903773
O O1 0.730166 0.550491 0.616957
O O2 0.961789 0.763677 0.599395
O O3 0.206832 0.777609 0.591369
O O4 0.000000 0.000000 0.000000
O O5 0.561732 0.351291 0.621849
O O6 0.000000 0.500000 0.500000
O O7 0.920612 0.636175 0.857154
O O8 0.070456 0.293799 0.907306
O O9 0.500000 0.500000 0.000000
O O10 0.133612 0.058059 0.658299
O O11 0.756332 0.720270 0.388211
O O12 0.583194 0.923336 0.747264
O O13 0.085975 0.352936 0.675485
O O14 0.818141 0.176099 0.779041
O O15 0.500000 0.500000 0.500000
O O16 0.269780 0.660601 0.831708
#
# Coordination Sequence:
#
# PCOD9023024 Si02
#       7
#     2   2   2   2   2   2   2
#     4  11  25  44  64 102 137 176 220 275 338 394
#     4  10  22  39  65  97 132 172 221 276 324 385
#     4  11  22  43  69  98 134 172 228 274 333 392
#     4  10  22  42  71  96 129 177 221 275 329 387
#     4  11  24  43  70  99 134 177 221 277 333 401
#     4  12  26  45  68  99 138 177 219 276 336 403
#     4  11  24  45  69  99 134 174 234 268 331 403
#
# _framework density 22.117152999999998
#
# number of rings (size 3 to 8) (size 9 to 14) (size 15 to 20)
#    0.000    1.143    2.857    3.857    6.000    1.714 
#    0.000    0.714    0.000    0.000    0.000    0.000 
#    0.000    0.000    0.000    0.000    0.000    0.000 
#
# Total GULP energy -78100.798370 kJ/mol
# GULP energy per Si atom -5578.628455 kJ/mol
# Density = 2.206681 g / cm^3
# Si number density = 22.117153 Si / 1000 Ang^3
#
#
#
# Elastic Constant Matrix: (Units=GPa)
#
#
# Indices 1 2 3 4 5 6 
#
# 1 114.7339 15.3501 41.0536 10.5166 16.3706 -1.0944
# 2 15.3501 70.4108 28.8463 10.4272 3.4878 -3.8361
# 3 41.0536 28.8463 154.4941 0.3690 6.3255 -11.9298
# 4 10.5166 10.4272 0.3690 25.7198 -4.3858 8.5791
# 5 16.3706 3.4878 6.3255 -4.3858 42.5926 -4.3492
# 6 -1.0944 -3.8361 -11.9298 8.5791 -4.3492 30.0526
#
#
#
# Elastic Compliance Matrix: (Units=1/GPa)
#
#
# Indices 1 2 3 4 5 6 
#
# 1 0.010751 -0.000322 -0.002602 -0.004991 -0.004220 0.000132
# 2 -0.000322 0.016801 -0.002737 -0.007906 -0.001342 0.003109
# 3 -0.002602 -0.002737 0.007835 0.001355 0.000439 0.002343
# 4 -0.004991 -0.007906 0.001355 0.049810 0.006065 -0.013995
# 5 -0.004220 -0.001342 0.000439 0.006065 0.025961 0.001875
# 6 0.000132 0.003109 0.002343 -0.013995 0.001875 0.038873
#
#
# Mechanical properties :
#
#
# Convention : Reuss Voigt Hill
#
# Bulk Modulus (GPa) = 41.55700 56.68207 49.11954
# Shear Modulus (GPa) = 29.52046 36.63225 33.07635
#
# Velocity S-wave (km/s) = 3.65736 4.07416 3.87137
# Velocity P-wave (km/s) = 6.05519 6.91487 6.49926
#
# Compressibility (1/GPa) = 0.02406334
#
# Stress axis : x y z
#
# Youngs Moduli (GPa) = 93.01673 59.52097 127.63427
#
# Poissons Ratio (x) = 0.01919 0.33207
# Poissons Ratio (y) = 0.03000 0.34938
# Poissons Ratio (z) = 0.24200 0.16293
#
# Static dielectric constant tensor:
#      x y z
#    x 3.051190 2.178620 2.472460 
#    y 2.178620 5.770460 4.408190 
#    z 2.472460 4.408190 6.911280 
# 
# From -- ./inp_files/353862.got.cif
#   From: 2010.05.17/outbox.cif.g08.bks.cpg/sg2_177_cif.got.tgz:353862.got - 2010.06.03 11:33:40.
