data_PCOD9023643
_publ_section_title
;
Structure prediction by ZEFSAII (Michael W. Deem and Ramdas Pophale) SiO2 
 PCOD9023643
Probable space group: P -1
;
_chemical_formula_sum "Si O2"
_cell_formula_units_Z 13
_cell_length_a 7.440296
_cell_length_b 16.779468
_cell_length_c 4.913595
_cell_angle_alpha 99.136124
_cell_angle_beta 116.727516
_cell_angle_gamma 71.806233
_cell_volume 520.378753
_symmetry_space_group_name_H-M "P -1"
_symmetry_group_IT_number 2
_symmetry_cell_setting 'triclinic'
loop_
_space_group_symop_operation_xyz
x,y,z
-x,-y,-z
loop_
_atom_site_type_symbol
_atom_site_label
_atom_site_fract_x
_atom_site_fract_y
_atom_site_fract_z
Si Si1 0.955390 0.783227 0.778344
Si Si2 0.099562 0.614269 0.105717
Si Si3 0.000000 0.500000 0.500000
Si Si4 0.523172 0.906717 0.566677
Si Si5 0.369557 0.828264 0.891275
Si Si6 0.539109 0.564508 0.282474
Si Si7 0.716047 0.687500 0.169366
O O1 0.767908 0.863504 0.782021
O O2 0.840055 0.737970 0.459748
O O3 0.032189 0.712969 0.027002
O O4 0.151549 0.807219 0.787065
O O5 0.089761 0.562644 0.800515
O O6 0.338780 0.590826 0.354503
O O7 0.911197 0.607032 0.176247
O O8 0.772504 0.531853 0.527223
O O9 0.375662 0.898878 0.714434
O O10 0.500000 0.000000 0.500000
O O11 0.447039 0.856970 0.244083
O O12 0.562363 0.748053 0.885410
O O13 0.552580 0.649943 0.193832
O O14 0.500000 0.500000 0.000000
#
# Coordination Sequence:
#
# PCOD9023643 Si02
#       7
#     2   2   1   2   2   2   2
#     4  11  24  41  68  99 136 178 229 279 344 412
#     4  11  22  41  64  90 130 174 229 277 346 399
#     4  10  22  40  60  86 132 170 220 288 336 394
#     4  11  26  47  72 107 143 178 225 284 343 415
#     4  11  25  43  74 104 139 183 229 278 346 415
#     4  10  22  40  59  90 126 170 227 282 341 398
#     4  11  23  40  67  94 131 180 229 286 342 409
#
# _framework density 24.981805000000001
#
# number of rings (size 3 to 8) (size 9 to 14) (size 15 to 20)
#    0.000    1.231    4.615    0.462    2.154    4.923 
#    0.000    2.308    0.000    0.000    0.000    0.000 
#    0.000    0.000    0.000    0.000    0.000    0.000 
#
# Total GULP energy -72503.828552 kJ/mol
# GULP energy per Si atom -5577.217581 kJ/mol
# Density = 2.492495 g / cm^3
# Si number density = 24.981805 Si / 1000 Ang^3
#
#
#
# Elastic Constant Matrix: (Units=GPa)
#
#
# Indices 1 2 3 4 5 6 
#
# 1 199.1761 54.2055 33.3965 -17.8443 29.5828 16.7576
# 2 54.2055 92.9705 -10.7503 -15.2379 34.3577 11.1802
# 3 33.3965 -10.7503 62.4889 8.6337 16.7538 6.3773
# 4 -17.8443 -15.2379 8.6337 27.4306 3.1861 -2.7047
# 5 29.5828 34.3577 16.7538 3.1861 39.1063 -5.5820
# 6 16.7576 11.1802 6.3773 -2.7047 -5.5820 45.4195
#
#
#
# Elastic Compliance Matrix: (Units=1/GPa)
#
#
# Indices 1 2 3 4 5 6 
#
# 1 0.007465 -0.003963 -0.005036 0.004208 -0.000476 -0.000880
# 2 -0.003963 0.030618 0.015835 0.012168 -0.033343 -0.011671
# 3 -0.005036 0.015835 0.028931 -0.001736 -0.023657 -0.009113
# 4 0.004208 0.012168 -0.001736 0.048186 -0.017569 -0.003594
# 5 -0.000476 -0.033343 -0.023657 -0.017569 0.069533 0.019204
# 6 -0.000880 -0.011671 -0.009113 -0.003594 0.019204 0.028640
#
#
# Mechanical properties :
#
#
# Convention : Reuss Voigt Hill
#
# Bulk Modulus (GPa) = 12.39374 56.48209 34.43792
# Shear Modulus (GPa) = 22.06571 40.91020 31.48796
#
# Velocity S-wave (km/s) = 2.97521 4.05112 3.55411
# Velocity P-wave (km/s) = 4.09566 6.67386 5.53691
#
# Compressibility (1/GPa) = 0.08068589
#
# Stress axis : x y z
#
# Youngs Moduli (GPa) = 133.95086 32.66078 34.56552
#
# Poissons Ratio (x) = 0.12944 0.17406
# Poissons Ratio (y) = 0.53089 -0.54734
# Poissons Ratio (z) = 0.67452 -0.51718
#
# Static dielectric constant tensor:
#      x y z
#    x 2.011960 0.068290 -0.091330 
#    y 0.068290 2.144630 -0.051880 
#    z -0.091330 -0.051880 1.827480 
# 
# From -- ./inp_files/5149.got.cif
#   From: 2010.05.17/outbox.cif.g08.bks.cpg/sg2_3_cif.got.tgz:5149.got - 2010.06.03 11:33:40.
