data_PCOD9023834
_publ_section_title
;
Structure prediction by ZEFSAII (Michael W. Deem and Ramdas Pophale) SiO2 
 PCOD9023834
Probable space group: P -1
;
_chemical_formula_sum "Si O2"
_cell_formula_units_Z 14
_cell_length_a 11.737715
_cell_length_b 10.359993
_cell_length_c 6.799163
_cell_angle_alpha 56.772430
_cell_angle_beta 125.504049
_cell_angle_gamma 106.174512
_cell_volume 562.070332
_symmetry_space_group_name_H-M "P -1"
_symmetry_group_IT_number 2
_symmetry_cell_setting 'triclinic'
loop_
_space_group_symop_operation_xyz
x,y,z
-x,-y,-z
loop_
_atom_site_type_symbol
_atom_site_label
_atom_site_fract_x
_atom_site_fract_y
_atom_site_fract_z
Si Si1 0.883468 0.917092 0.185929
Si Si2 0.539880 0.705526 0.551921
Si Si3 0.142889 0.564615 0.005538
Si Si4 0.780029 0.648873 0.091120
Si Si5 0.356334 0.912778 0.447251
Si Si6 0.394110 0.412963 0.654315
Si Si7 0.819484 0.083983 0.361537
O O1 0.040806 0.964177 0.332632
O O2 0.813120 0.951531 0.300440
O O3 0.888354 0.745934 0.239974
O O4 0.778493 0.012009 0.859503
O O5 0.686208 0.749733 0.754579
O O6 0.404902 0.767095 0.483903
O O7 0.522815 0.522094 0.710392
O O8 0.548740 0.728932 0.307982
O O9 0.148844 0.750318 0.844030
O O10 0.161246 0.493134 0.862857
O O11 0.264732 0.495007 0.332225
O O12 0.000000 0.500000 0.000000
O O13 0.665126 0.619384 0.166146
O O14 0.310545 0.889120 0.644577
O O15 0.500000 0.000000 0.500000
#
# Coordination Sequence:
#
# PCOD9023834 Si02
#       7
#     2   2   2   2   2   2   2
#     4  11  26  46  69 104 140 187 232 291 341 423
#     4  10  22  40  62 100 137 177 228 285 344 411
#     4  11  25  45  70 102 133 181 239 286 342 417
#     4  11  23  41  70 100 135 180 229 287 346 409
#     4  12  25  44  71 103 139 184 234 283 345 419
#     4  10  22  40  67  96 138 176 226 289 346 407
#     4  11  27  47  71 102 143 187 231 287 357 408
#
# _framework density 24.907913000000001
#
# number of rings (size 3 to 8) (size 9 to 14) (size 15 to 20)
#    0.000    1.143    1.429    3.429    2.000   10.857 
#    0.000    0.000    0.000    0.000    0.000    0.000 
#    0.000    0.000    0.000    0.000    0.000    0.000 
#
# Total GULP energy -78223.174315 kJ/mol
# GULP energy per Si atom -5587.369594 kJ/mol
# Density = 2.485122 g / cm^3
# Si number density = 24.907913 Si / 1000 Ang^3
#
#
#
# Elastic Constant Matrix: (Units=GPa)
#
#
# Indices 1 2 3 4 5 6 
#
# 1 150.0448 23.8010 29.7848 13.2989 -33.0859 -19.5062
# 2 23.8010 98.4734 26.6729 36.1083 -16.6115 -23.8741
# 3 29.7848 26.6729 98.2958 21.9897 4.8108 -3.2025
# 4 13.2989 36.1083 21.9897 38.5617 -13.0434 -5.3036
# 5 -33.0859 -16.6115 4.8108 -13.0434 32.6081 3.4470
# 6 -19.5062 -23.8741 -3.2025 -5.3036 3.4470 43.9158
#
#
#
# Elastic Compliance Matrix: (Units=1/GPa)
#
#
# Indices 1 2 3 4 5 6 
#
# 1 0.010447 0.000621 -0.004513 0.003145 0.012412 0.004054
# 2 0.000621 0.018158 -0.001982 -0.013677 0.003851 0.008048
# 3 -0.004513 -0.001982 0.014547 -0.008936 -0.011073 -0.002231
# 4 0.003145 -0.013677 -0.008936 0.048218 0.017063 -0.002206
# 5 0.012412 0.003851 -0.011073 0.017063 0.053187 0.004685
# 6 0.004054 0.008048 -0.002231 -0.002206 0.004685 0.028150
#
#
# Mechanical properties :
#
#
# Convention : Reuss Voigt Hill
#
# Bulk Modulus (GPa) = 31.84346 56.37013 44.10680
# Shear Modulus (GPa) = 25.65113 40.78747 33.21930
#
# Velocity S-wave (km/s) = 3.21259 4.05103 3.65593
# Velocity P-wave (km/s) = 5.15492 6.67545 5.96385
#
# Compressibility (1/GPa) = 0.03140362
#
# Stress axis : x y z
#
# Youngs Moduli (GPa) = 95.71831 55.07297 68.74296
#
# Poissons Ratio (x) = -0.03419 0.31025
# Poissons Ratio (y) = -0.05942 0.13624
# Poissons Ratio (z) = 0.43199 0.10915
#
# Static dielectric constant tensor:
#      x y z
#    x 1.990780 -0.106440 -0.017140 
#    y -0.106440 2.231270 -0.046220 
#    z -0.017140 -0.046220 1.995740 
# 
# From -- ./inp_files/68794.got.cif
#   From: 2010.05.17/outbox.cif.g08.bks.cpg/sg2_35_cif.got.tgz:68794.got - 2010.06.03 11:33:40.
