data_PCOD9023001
_publ_section_title
;
Structure prediction by ZEFSAII (Michael W. Deem and Ramdas Pophale) SiO2 
 PCOD9023001
Probable space group: P -1
;
_chemical_formula_sum "Si O2"
_cell_formula_units_Z 16
_cell_length_a 5.322102
_cell_length_b 15.758646
_cell_length_c 8.053297
_cell_angle_alpha 98.914190
_cell_angle_beta 103.698419
_cell_angle_gamma 78.675695
_cell_volume 639.252154
_symmetry_space_group_name_H-M "P -1"
_symmetry_group_IT_number 2
_symmetry_cell_setting 'triclinic'
loop_
_space_group_symop_operation_xyz
x,y,z
-x,-y,-z
loop_
_atom_site_type_symbol
_atom_site_label
_atom_site_fract_x
_atom_site_fract_y
_atom_site_fract_z
Si Si1 0.378112 0.427950 0.063534
Si Si2 0.662400 0.250463 0.180559
Si Si3 0.730095 0.648885 0.308265
Si Si4 0.229868 0.058091 0.925312
Si Si5 0.715078 0.446167 0.636707
Si Si6 0.514222 0.831054 0.222280
Si Si7 0.159226 0.998063 0.355869
Si Si8 0.764046 0.831958 0.723194
O O1 0.586821 0.353205 0.160858
O O2 0.213619 0.482590 0.198443
O O3 0.500000 0.500000 0.000000
O O4 0.236735 0.376147 0.890463
O O5 0.467809 0.220427 0.279702
O O6 0.956064 0.225737 0.289263
O O7 0.606500 0.205058 0.978206
O O8 0.467882 0.615570 0.321785
O O9 0.653415 0.752378 0.332186
O O10 0.011711 0.604206 0.410377
O O11 0.271249 0.113285 0.787178
O O12 0.047045 0.990817 0.824783
O O13 0.171027 0.129354 0.076726
O O14 0.500000 0.000000 0.000000
O O15 0.500000 0.500000 0.500000
O O16 0.308227 0.902089 0.305914
O O17 0.306024 0.081037 0.376256
O O18 0.000000 0.000000 0.500000
#
# Coordination Sequence:
#
# PCOD9023001 Si02
#       8
#     2   2   2   2   2   2   2   2
#     4   9  21  41  70 102 133 167 220 272 332 392
#     4  10  22  39  68  98 127 169 227 280 314 392
#     4  10  23  41  70  97 130 168 223 272 319 392
#     4  11  21  40  68  88 124 175 227 270 320 395
#     4  11  23  43  68  97 134 174 208 262 339 406
#     4  10  22  39  65  96 128 173 224 275 330 388
#     4  12  25  41  63  93 136 177 225 276 338 392
#     4  11  22  41  64  94 128 174 226 270 329 384
#
# _framework density 25.029247000000002
#
# number of rings (size 3 to 8) (size 9 to 14) (size 15 to 20)
#    0.000    1.500    2.500    2.625    1.750    8.500 
#    2.250    0.000    0.000    0.000    0.000    0.000 
#    0.000    0.000    0.000    0.000    0.000    0.000 
#
# Total GULP energy -89405.449313 kJ/mol
# GULP energy per Si atom -5587.840582 kJ/mol
# Density = 2.497228 g / cm^3
# Si number density = 25.029247 Si / 1000 Ang^3
#
#
#
# Elastic Constant Matrix: (Units=GPa)
#
#
# Indices 1 2 3 4 5 6 
#
# 1 116.2148 49.8912 7.5158 0.1298 -6.1316 -17.0697
# 2 49.8912 182.0020 17.7886 -10.1885 -19.3604 -14.7793
# 3 7.5158 17.7886 62.1964 2.8193 -5.6532 4.8240
# 4 0.1298 -10.1885 2.8193 26.3944 1.2024 -0.0704
# 5 -6.1316 -19.3604 -5.6532 1.2024 40.2770 -7.8156
# 6 -17.0697 -14.7793 4.8240 -0.0704 -7.8156 35.1109
#
#
#
# Elastic Compliance Matrix: (Units=1/GPa)
#
#
# Indices 1 2 3 4 5 6 
#
# 1 0.010373 -0.002325 -0.000779 -0.000910 0.001242 0.004446
# 2 -0.002325 0.007033 -0.001779 0.002776 0.003238 0.002801
# 3 -0.000779 -0.001779 0.017132 -0.002561 0.000868 -0.003293
# 4 -0.000910 0.002776 -0.002561 0.039245 -0.000116 0.001131
# 5 0.001242 0.003238 0.000868 -0.000116 0.028279 0.008142
# 6 0.004446 0.002801 -0.003293 0.001131 0.008142 0.034089
#
#
# Mechanical properties :
#
#
# Convention : Reuss Voigt Hill
#
# Bulk Modulus (GPa) = 40.37098 56.75605 48.56352
# Shear Modulus (GPa) = 32.43101 39.37096 35.90098
#
# Velocity S-wave (km/s) = 3.60352 3.97041 3.79141
# Velocity P-wave (km/s) = 5.78605 6.61392 6.21379
#
# Compressibility (1/GPa) = 0.02477027
#
# Stress axis : x y z
#
# Youngs Moduli (GPa) = 96.40525 142.18771 58.37174
#
# Poissons Ratio (x) = 0.33060 0.04548
# Poissons Ratio (y) = 0.22415 0.10386
# Poissons Ratio (z) = 0.07511 0.25300
#
# Static dielectric constant tensor:
#      x y z
#    x 2.076680 0.053590 0.025690 
#    y 0.053590 2.465230 0.124510 
#    z 0.025690 0.124510 2.093300 
# 
# From -- ./inp_files/135320.got.cif
#   From: 2010.05.17/outbox.cif.g08.bks.cpg/sg2_68_cif.got.tgz:135320.got - 2010.06.03 11:33:40.
