data_PCOD9023109
_publ_section_title
;
Structure prediction by ZEFSAII (Michael W. Deem and Ramdas Pophale) SiO2 
 PCOD9023109
Probable space group: P -1
;
_chemical_formula_sum "Si O2"
_cell_formula_units_Z 14
_cell_length_a 8.282292
_cell_length_b 7.799762
_cell_length_c 11.331913
_cell_angle_alpha 112.135292
_cell_angle_beta 88.737223
_cell_angle_gamma 113.689789
_cell_volume 613.684774
_symmetry_space_group_name_H-M "P -1"
_symmetry_group_IT_number 2
_symmetry_cell_setting 'triclinic'
loop_
_space_group_symop_operation_xyz
x,y,z
-x,-y,-z
loop_
_atom_site_type_symbol
_atom_site_label
_atom_site_fract_x
_atom_site_fract_y
_atom_site_fract_z
Si Si1 0.750904 0.103871 0.260457
Si Si2 0.377679 0.424372 0.628768
Si Si3 0.451038 0.675234 0.095437
Si Si4 0.819877 0.284089 0.735247
Si Si5 0.793590 0.426799 0.140507
Si Si6 0.436571 0.168087 0.391186
Si Si7 0.997475 0.202785 0.492459
O O1 0.792887 0.262945 0.194431
O O2 0.613078 0.137937 0.359229
O O3 0.920390 0.143897 0.348329
O O4 0.633406 0.877494 0.156504
O O5 0.311641 0.451547 0.765087
O O6 0.420127 0.235808 0.542138
O O7 0.533239 0.637009 0.640305
O O8 0.199387 0.373551 0.539768
O O9 0.329528 0.637492 0.205705
O O10 0.500000 0.500000 0.000000
O O11 0.316363 0.689591 0.001413
O O12 0.884989 0.287357 0.599955
O O13 0.002497 0.411072 0.836003
O O14 0.725101 0.040792 0.698736
O O15 0.000000 0.000000 0.500000
#
# Coordination Sequence:
#
# PCOD9023109 Si02
#       7
#     2   2   2   2   2   2   2
#     4  10  24  42  63  89 129 166 204 259 316 365
#     4   9  19  34  63  91 128 157 204 249 317 365
#     4  11  25  41  66  92 122 169 216 253 299 367
#     4  10  22  39  66  91 128 161 208 254 314 362
#     4  10  22  42  64  90 130 168 204 251 308 375
#     4   9  18  36  57  96 122 163 195 257 308 372
#     4  11  22  39  66  95 123 160 205 260 316 371
#
# _framework density 22.813013999999999
#
# number of rings (size 3 to 8) (size 9 to 14) (size 15 to 20)
#    0.000    2.000    1.429    0.857    4.000    8.571 
#    0.000    3.571    0.000    0.000    0.000    0.000 
#    0.000    0.000    0.000    0.000    0.000    0.000 
#
# Total GULP energy -78185.951562 kJ/mol
# GULP energy per Si atom -5584.710826 kJ/mol
# Density = 2.276109 g / cm^3
# Si number density = 22.813014 Si / 1000 Ang^3
#
#
#
# Elastic Constant Matrix: (Units=GPa)
#
#
# Indices 1 2 3 4 5 6 
#
# 1 56.1189 40.4773 48.9873 -4.7231 -4.3027 11.3680
# 2 40.4773 108.1503 37.4583 19.7018 4.6540 15.7748
# 3 48.9873 37.4583 115.6819 18.4826 13.6707 0.7782
# 4 -4.7231 19.7018 18.4826 36.0503 -3.2524 0.6909
# 5 -4.3027 4.6540 13.6707 -3.2524 65.8360 6.1558
# 6 11.3680 15.7748 0.7782 0.6909 6.1558 39.8449
#
#
#
# Elastic Compliance Matrix: (Units=1/GPa)
#
#
# Indices 1 2 3 4 5 6 
#
# 1 0.060133 -0.018170 -0.026318 0.032744 0.013427 -0.012091
# 2 -0.018170 0.017329 0.004924 -0.014727 -0.004080 -0.000887
# 3 -0.026318 0.004924 0.022040 -0.018305 -0.008176 0.006709
# 4 0.032744 -0.014727 -0.018305 0.050471 0.009997 -0.005574
# 5 0.013427 -0.004080 -0.008176 0.009997 0.019030 -0.005170
# 6 -0.012091 -0.000887 0.006709 -0.005574 -0.005170 0.029662
#
#
# Mechanical properties :
#
#
# Convention : Reuss Voigt Hill
#
# Bulk Modulus (GPa) = 49.07951 59.31076 54.19513
# Shear Modulus (GPa) = 17.56952 38.54811 28.05881
#
# Velocity S-wave (km/s) = 2.77817 4.11511 3.51087
# Velocity P-wave (km/s) = 5.64372 6.97380 6.34371
#
# Compressibility (1/GPa) = 0.02037510
#
# Stress axis : x y z
#
# Youngs Moduli (GPa) = 16.62994 57.70653 45.37141
#
# Poissons Ratio (x) = 1.04852 1.19407
# Poissons Ratio (y) = 0.30216 -0.22341
# Poissons Ratio (z) = 0.43766 -0.28415
#
# Static dielectric constant tensor:
#      x y z
#    x 1.899360 -0.018250 -0.020400 
#    y -0.018250 1.856470 -0.004950 
#    z -0.020400 -0.004950 1.889440 
# 
# From -- ./inp_files/376886.got.cif
#   From: 2010.05.17/outbox.cif.g08.bks.cpg/sg2_189_cif.got.tgz:376886.got - 2010.06.03 11:33:40.
