data_PCOD9023510
_publ_section_title
;
Structure prediction by ZEFSAII (Michael W. Deem and Ramdas Pophale) SiO2 
 PCOD9023510
Probable space group: P -1
;
_chemical_formula_sum "Si O2"
_cell_formula_units_Z 12
_cell_length_a 15.558990
_cell_length_b 5.083802
_cell_length_c 9.283853
_cell_angle_alpha 105.710270
_cell_angle_beta 59.456721
_cell_angle_gamma 70.653209
_cell_volume 502.100773
_symmetry_space_group_name_H-M "P -1"
_symmetry_group_IT_number 2
_symmetry_cell_setting 'triclinic'
loop_
_space_group_symop_operation_xyz
x,y,z
-x,-y,-z
loop_
_atom_site_type_symbol
_atom_site_label
_atom_site_fract_x
_atom_site_fract_y
_atom_site_fract_z
Si Si1 0.772131 0.292442 0.250028
Si Si2 0.954492 0.775286 0.456670
Si Si3 0.362141 0.853340 0.866350
Si Si4 0.394636 0.212321 0.297723
Si Si5 0.329899 0.729391 0.200445
Si Si6 0.868447 0.588708 0.000010
O O1 0.656629 0.352739 0.267895
O O2 0.719179 0.519419 0.468195
O O3 0.846118 0.378627 0.096886
O O4 0.853218 0.897695 0.143279
O O5 0.000000 0.500000 0.500000
O O6 0.015996 0.605729 0.228136
O O7 0.810621 0.006104 0.607285
O O8 0.000000 0.000000 0.500000
O O9 0.484754 0.833646 0.751616
O O10 0.347175 0.740019 0.017831
O O11 0.246163 0.224276 0.985640
O O12 0.372179 0.382021 0.184981
O O13 0.398429 0.880375 0.237562
#
# Coordination Sequence:
#
# PCOD9023510 Si02
#       6
#     2   2   2   2   2   2
#     4  10  23  42  66  94 130 173 222 246 317 392
#     4  12  22  43  69  94 127 166 221 265 313 383
#     4  10  24  41  71  90 132 170 224 253 314 388
#     4  12  26  42  62 100 137 169 201 270 334 376
#     4  12  26  41  65 100 132 163 212 274 330 364
#     4  10  22  39  70  93 117 168 232 257 298 368
#
# _framework density 23.899583
#
# number of rings (size 3 to 8) (size 9 to 14) (size 15 to 20)
#    1.000    0.000    1.667    5.500    4.667    0.667 
#    0.000    5.000    0.000    0.000    0.000    0.000 
#    0.000    0.000    0.000    0.000    0.000    0.000 
#
# Total GULP energy -67238.901065 kJ/mol
# GULP energy per Si atom -5603.241755 kJ/mol
# Density = 2.384519 g / cm^3
# Si number density = 23.899583 Si / 1000 Ang^3
#
#
#
# Elastic Constant Matrix: (Units=GPa)
#
#
# Indices 1 2 3 4 5 6 
#
# 1 70.8543 37.9773 25.6659 -16.3063 -12.1109 -10.3557
# 2 37.9773 110.8478 2.0958 -8.6048 -9.6878 15.1613
# 3 25.6659 2.0958 105.0777 -3.6920 -9.8503 -1.5697
# 4 -16.3063 -8.6048 -3.6920 30.6088 4.3176 -7.5743
# 5 -12.1109 -9.6878 -9.8503 4.3176 46.2999 8.7041
# 6 -10.3557 15.1613 -1.5697 -7.5743 8.7041 29.1983
#
#
#
# Elastic Compliance Matrix: (Units=1/GPa)
#
#
# Indices 1 2 3 4 5 6 
#
# 1 0.029257 -0.011594 -0.006155 0.016996 -0.001607 0.020954
# 2 -0.011594 0.014786 0.002478 -0.005798 0.003817 -0.014298
# 3 -0.006155 0.002478 0.011031 -0.002626 0.002298 -0.004243
# 4 0.016996 -0.005798 -0.002626 0.046212 -0.005892 0.022641
# 5 -0.001607 0.003817 0.002298 -0.005892 0.025169 -0.011460
# 6 0.020954 -0.014298 -0.004243 0.022641 -0.011460 0.058166
#
#
# Mechanical properties :
#
#
# Convention : Reuss Voigt Hill
#
# Bulk Modulus (GPa) = 40.76761 46.47308 43.62035
# Shear Modulus (GPa) = 22.38726 35.95744 29.17235
#
# Velocity S-wave (km/s) = 3.06391 3.88302 3.49753
# Velocity P-wave (km/s) = 5.44166 6.29215 5.88230
#
# Compressibility (1/GPa) = 0.02452927
#
# Stress axis : x y z
#
# Youngs Moduli (GPa) = 34.17993 67.63142 90.65711
#
# Poissons Ratio (x) = 0.78414 0.55803
# Poissons Ratio (y) = 0.39629 -0.22461
# Poissons Ratio (z) = 0.21039 -0.16756
#
# Static dielectric constant tensor:
#      x y z
#    x 1.936620 -0.014830 -0.001030 
#    y -0.014830 1.850160 0.026400 
#    z -0.001030 0.026400 1.862530 
# 
# From -- ./inp_files/22213.got.cif
#   From: 2010.05.17/outbox.cif.g08.bks.cpg/sg2_12_cif.got.tgz:22213.got - 2010.06.03 11:33:40.
