data_PCOD9023811
_publ_section_title
;
Structure prediction by ZEFSAII (Michael W. Deem and Ramdas Pophale) SiO2 
 PCOD9023811
Probable space group: P -1
;
_chemical_formula_sum "Si O2"
_cell_formula_units_Z 16
_cell_length_a 8.659795
_cell_length_b 17.848105
_cell_length_c 16.660465
_cell_angle_alpha 161.739412
_cell_angle_beta 71.370197
_cell_angle_gamma 116.239798
_cell_volume 675.954589
_symmetry_space_group_name_H-M "P -1"
_symmetry_group_IT_number 2
_symmetry_cell_setting 'triclinic'
loop_
_space_group_symop_operation_xyz
x,y,z
-x,-y,-z
loop_
_atom_site_type_symbol
_atom_site_label
_atom_site_fract_x
_atom_site_fract_y
_atom_site_fract_z
Si Si1 0.373407 0.365077 0.306956
Si Si2 0.031613 0.519007 0.702394
Si Si3 0.021423 0.828272 0.480642
Si Si4 0.401534 0.805939 0.008843
Si Si5 0.312329 0.724181 0.257383
Si Si6 0.767387 0.232831 0.321731
Si Si7 0.663421 0.493356 0.135929
Si Si8 0.268984 0.397179 0.085359
O O1 0.500000 0.500000 0.500000
O O2 0.518626 0.391574 0.239568
O O3 0.260946 0.529904 0.474489
O O4 0.257792 0.033944 0.995362
O O5 0.006410 0.319424 0.578597
O O6 0.954414 0.352457 0.464212
O O7 0.238788 0.756480 0.922434
O O8 0.883262 0.625883 0.850082
O O9 0.116800 0.725497 0.293844
O O10 0.824322 0.774965 0.426812
O O11 0.168879 0.132055 0.778808
O O12 0.319120 0.722858 0.026926
O O13 0.584456 0.091422 0.265571
O O14 0.500000 0.000000 0.500000
O O15 0.315171 0.546093 0.001299
O O16 0.321002 0.634474 0.255050
O O17 0.457160 0.431788 0.123288
#
# Coordination Sequence:
#
# PCOD9023811 Si02
#       8
#     2   2   2   2   2   2   2   2
#     4  10  22  44  70  98 135 169 210 255 316 383
#     4  10  22  40  61  95 126 161 215 261 311 383
#     4  10  23  40  58  85 120 161 210 267 313 379
#     4   9  23  39  65  94 126 166 209 263 317 379
#     4  11  23  39  57  80 121 159 209 267 321 381
#     4  10  22  41  69  96 130 174 205 258 321 368
#     4  11  21  41  59  87 118 160 212 261 324 377
#     4  11  23  38  59  83 119 166 208 267 317 373
#
# _framework density 23.670231000000001
#
# number of rings (size 3 to 8) (size 9 to 14) (size 15 to 20)
#    0.750    1.000    1.250    2.625    3.500    3.500 
#    4.500    1.250    0.000    0.000    0.000    0.000 
#    0.000    0.000    0.000    0.000    0.000    0.000 
#
# Total GULP energy -89251.335031 kJ/mol
# GULP energy per Si atom -5578.208439 kJ/mol
# Density = 2.361636 g / cm^3
# Si number density = 23.670231 Si / 1000 Ang^3
#
#
#
# Elastic Constant Matrix: (Units=GPa)
#
#
# Indices 1 2 3 4 5 6 
#
# 1 152.7794 18.3494 -24.7002 -2.3942 15.0083 -7.3362
# 2 18.3494 59.4357 -2.7268 -16.3813 1.2738 4.9658
# 3 -24.7002 -2.7268 139.9833 -16.9933 36.9411 -4.7716
# 4 -2.3942 -16.3813 -16.9933 30.0556 -4.9236 6.6752
# 5 15.0083 1.2738 36.9411 -4.9236 54.1709 -4.2433
# 6 -7.3362 4.9658 -4.7716 6.6752 -4.2433 27.9125
#
#
#
# Elastic Compliance Matrix: (Units=1/GPa)
#
#
# Indices 1 2 3 4 5 6 
#
# 1 0.007659 -0.002579 0.002213 -0.000659 -0.003435 0.002485
# 2 -0.002579 0.022373 0.001518 0.014580 -0.000141 -0.007907
# 3 0.002213 0.001518 0.010096 0.005642 -0.007051 -0.000384
# 4 -0.000659 0.014580 0.005642 0.047163 -0.000755 -0.013196
# 5 -0.003435 -0.000141 -0.007051 -0.000755 0.024295 0.001791
# 6 0.002485 -0.007907 -0.000384 -0.013196 0.001791 0.041249
#
#
# Mechanical properties :
#
#
# Convention : Reuss Voigt Hill
#
# Bulk Modulus (GPa) = 23.56671 37.11591 30.34131
# Shear Modulus (GPa) = 30.36280 46.51286 38.43783
#
# Velocity S-wave (km/s) = 3.58542 4.43768 4.03412
# Velocity P-wave (km/s) = 5.20752 6.47857 5.87750
#
# Compressibility (1/GPa) = 0.04243274
#
# Stress axis : x y z
#
# Youngs Moduli (GPa) = 130.55971 44.69716 99.04606
#
# Poissons Ratio (x) = 0.11527 -0.21915
# Poissons Ratio (y) = 0.33670 -0.15040
# Poissons Ratio (z) = -0.28887 -0.06787
#
# Static dielectric constant tensor:
#      x y z
#    x 1.825680 0.014100 -0.184700 
#    y 0.014100 1.907470 0.007150 
#    z -0.184700 0.007150 1.778070 
# 
# From -- ./inp_files/51216.got.cif
#   From: 2010.05.17/outbox.cif.g08.bks.cpg/sg2_26_cif.got.tgz:51216.got - 2010.06.03 11:33:40.
