data_PCOD9023758
_publ_section_title
;
Structure prediction by ZEFSAII (Michael W. Deem and Ramdas Pophale) SiO2 
 PCOD9023758
Probable space group: P -1
;
_chemical_formula_sum "Si O2"
_cell_formula_units_Z 16
_cell_length_a 9.210943
_cell_length_b 11.692234
_cell_length_c 14.783332
_cell_angle_alpha 68.420435
_cell_angle_beta 84.892540
_cell_angle_gamma 37.034179
_cell_volume 830.089524
_symmetry_space_group_name_H-M "P -1"
_symmetry_group_IT_number 2
_symmetry_cell_setting 'triclinic'
loop_
_space_group_symop_operation_xyz
x,y,z
-x,-y,-z
loop_
_atom_site_type_symbol
_atom_site_label
_atom_site_fract_x
_atom_site_fract_y
_atom_site_fract_z
Si Si1 0.301166 0.140955 0.343386
Si Si2 0.852943 0.576696 0.888730
Si Si3 0.012717 0.881389 0.646040
Si Si4 0.759997 0.899935 0.006213
Si Si5 0.116273 0.749565 0.882923
Si Si6 0.771221 0.310971 0.490465
Si Si7 0.414601 0.758783 0.958231
Si Si8 0.869750 0.707686 0.492013
O O1 0.167847 0.298770 0.218451
O O2 0.213687 0.059725 0.377546
O O3 0.210621 0.263590 0.407658
O O4 0.610913 0.927609 0.389003
O O5 0.561893 0.736612 0.880596
O O6 0.010081 0.352329 0.902864
O O7 0.000000 0.500000 0.000000
O O8 0.079726 0.818651 0.763999
O O9 0.237206 0.688796 0.618550
O O10 0.923742 0.081510 0.575502
O O11 0.713474 0.055231 0.020944
O O12 0.860271 0.872962 0.909418
O O13 0.500000 0.000000 0.000000
O O14 0.216722 0.795447 0.922069
O O15 0.343495 0.488894 0.944595
O O16 0.500000 0.500000 0.500000
O O17 0.931500 0.318468 0.507593
O O18 0.000000 0.500000 0.500000
#
# Coordination Sequence:
#
# PCOD9023758 Si02
#       8
#     2   2   2   2   2   2   2   2
#     4  10  22  40  65  89 125 167 212 260 317 378
#     4  11  22  40  62  94 128 169 212 264 321 376
#     4  10  22  40  64  86 122 165 208 253 312 372
#     4  11  22  38  63  91 129 164 212 264 308 380
#     4  10  23  41  62  89 125 171 208 257 315 377
#     4  10  22  42  63  93 125 156 206 260 318 379
#     4  10  22  40  61  89 129 164 210 259 313 370
#     4  10  22  42  65  94 125 161 209 266 321 378
#
# _framework density 19.275029
#
# number of rings (size 3 to 8) (size 9 to 14) (size 15 to 20)
#    0.000    1.750    1.250    2.625    1.750    3.000 
#    2.250    0.000    0.000    0.000    0.000    0.000 
#    0.000    0.000    0.000    0.000    0.000    0.000 
#
# Total GULP energy -89268.246250 kJ/mol
# GULP energy per Si atom -5579.265391 kJ/mol
# Density = 1.923116 g / cm^3
# Si number density = 19.275029 Si / 1000 Ang^3
#
#
#
# Elastic Constant Matrix: (Units=GPa)
#
#
# Indices 1 2 3 4 5 6 
#
# 1 87.2692 72.0659 45.9108 5.4491 -13.5318 9.6785
# 2 72.0659 165.6748 51.7145 10.0837 0.2514 13.3136
# 3 45.9108 51.7145 100.4803 15.3850 -4.8812 4.0695
# 4 5.4491 10.0837 15.3850 10.4395 -1.2203 -8.0821
# 5 -13.5318 0.2514 -4.8812 -1.2203 24.7249 0.4863
# 6 9.6785 13.3136 4.0695 -8.0821 0.4863 47.6251
#
#
#
# Elastic Compliance Matrix: (Units=1/GPa)
#
#
# Indices 1 2 3 4 5 6 
#
# 1 0.023594 -0.008495 -0.006819 0.006705 0.012000 -0.000822
# 2 -0.008495 0.010559 -0.000585 -0.007343 -0.005188 -0.002369
# 3 -0.006819 -0.000585 0.017230 -0.024599 -0.001458 -0.004083
# 4 0.006705 -0.007343 -0.024599 0.159414 0.006170 0.029782
# 5 0.012000 -0.005188 -0.001458 0.006170 0.047088 -0.000298
# 6 -0.000822 -0.002369 -0.004083 0.029782 -0.000298 0.027233
#
#
# Mechanical properties :
#
#
# Convention : Reuss Voigt Hill
#
# Bulk Modulus (GPa) = 51.05670 76.97854 64.01762
# Shear Modulus (GPa) = 15.45869 28.80678 22.13273
#
# Velocity S-wave (km/s) = 2.83504 3.87009 3.39227
# Velocity P-wave (km/s) = 6.10431 7.74556 6.97339
#
# Compressibility (1/GPa) = 0.01958607
#
# Stress axis : x y z
#
# Youngs Moduli (GPa) = 42.38298 94.70837 58.03935
#
# Poissons Ratio (x) = 0.80454 0.39576
# Poissons Ratio (y) = 0.36004 0.03393
# Poissons Ratio (z) = 0.28900 0.05536
#
# Static dielectric constant tensor:
#      x y z
#    x 1.708470 0.014670 -0.005620 
#    y 0.014670 1.687910 0.025260 
#    z -0.005620 0.025260 1.674050 
# 
# From -- ./inp_files/500165.got.cif
#   From: 2010.05.17/outbox.cif.g08.bks.cpg/sg2_251_cif.got.tgz:500165.got - 2010.06.03 11:33:40.
