data_PCOD9023421
_publ_section_title
;
Structure prediction by ZEFSAII (Michael W. Deem and Ramdas Pophale) SiO2 
 PCOD9023421
Probable space group: P -1
;
_chemical_formula_sum "Si O2"
_cell_formula_units_Z 16
_cell_length_a 8.501855
_cell_length_b 26.468575
_cell_length_c 13.259199
_cell_angle_alpha 19.089396
_cell_angle_beta 137.665546
_cell_angle_gamma 133.149438
_cell_volume 655.708165
_symmetry_space_group_name_H-M "P -1"
_symmetry_group_IT_number 2
_symmetry_cell_setting 'triclinic'
loop_
_space_group_symop_operation_xyz
x,y,z
-x,-y,-z
loop_
_atom_site_type_symbol
_atom_site_label
_atom_site_fract_x
_atom_site_fract_y
_atom_site_fract_z
Si Si1 0.810418 0.640890 0.622471
Si Si2 0.627575 0.502749 0.208708
Si Si3 0.790695 0.981772 0.359629
Si Si4 0.073313 0.791150 0.173171
Si Si5 0.199813 0.547907 0.206728
Si Si6 0.280655 0.039102 0.944120
Si Si7 0.728944 0.725217 0.681915
Si Si8 0.664949 0.632484 0.199389
O O1 0.580390 0.593777 0.663737
O O2 0.768882 0.613806 0.534795
O O3 0.861293 0.817719 0.336085
O O4 0.000000 0.500000 0.000000
O O5 0.807335 0.381644 0.464485
O O6 0.715650 0.588337 0.189920
O O7 0.557897 0.628254 0.851536
O O8 0.858325 0.104886 0.893638
O O9 0.860675 0.817157 0.655077
O O10 0.000000 0.000000 0.500000
O O11 0.822578 0.116541 0.042471
O O12 0.805254 0.769972 0.053148
O O13 0.504509 0.986535 0.220057
O O14 0.386101 0.654889 0.041892
O O15 0.263886 0.513530 0.417888
O O16 0.937902 0.618265 0.936043
O O17 0.356391 0.139482 0.690982
#
# Coordination Sequence:
#
# PCOD9023421 Si02
#       8
#     2   2   2   2   2   2   2   2
#     4  11  23  44  68  96 143 188 232 288 353 418
#     4  11  23  39  77 104 141 177 248 289 343 420
#     4  11  25  42  68 101 145 185 229 291 360 408
#     4  11  21  41  71 106 143 180 235 298 346 421
#     4  10  22  39  68  99 140 184 238 287 346 409
#     4  11  25  46  67 104 148 182 232 294 358 417
#     4  11  22  42  72 105 134 183 239 290 351 413
#     4  10  22  40  66 108 142 183 235 289 351 412
#
# _framework density 24.401098000000001
#
# number of rings (size 3 to 8) (size 9 to 14) (size 15 to 20)
#    0.000    1.250    3.750    2.625    1.750    1.500 
#    4.500    3.125    2.750    0.000    0.000    0.000 
#    0.000    0.000    0.000    0.000    0.000    0.000 
#
# Total GULP energy -89115.493344 kJ/mol
# GULP energy per Si atom -5569.718334 kJ/mol
# Density = 2.434556 g / cm^3
# Si number density = 24.401098 Si / 1000 Ang^3
#
#
#
# Elastic Constant Matrix: (Units=GPa)
#
#
# Indices 1 2 3 4 5 6 
#
# 1 75.1559 46.1315 45.3871 -5.1436 12.6648 -7.5167
# 2 46.1315 210.6200 45.0361 -27.4954 17.7044 -4.3313
# 3 45.3871 45.0361 79.2998 -16.9735 14.0228 -7.7400
# 4 -5.1436 -27.4954 -16.9735 45.7559 -3.1485 -2.7759
# 5 12.6648 17.7044 14.0228 -3.1485 27.9221 -3.7001
# 6 -7.5167 -4.3313 -7.7400 -2.7759 -3.7001 23.4183
#
#
#
# Elastic Compliance Matrix: (Units=1/GPa)
#
#
# Indices 1 2 3 4 5 6 
#
# 1 0.022117 -0.002601 -0.011177 -0.003294 -0.002865 0.002081
# 2 -0.002601 0.006061 -0.001022 0.002845 -0.001830 -0.000003
# 3 -0.011177 -0.001022 0.022004 0.006223 -0.004158 0.003577
# 4 -0.003294 0.002845 0.006223 0.025787 0.000082 0.004595
# 5 -0.002865 -0.001830 -0.004158 0.000082 0.040880 0.003836
# 6 0.002081 -0.000003 0.003577 0.004595 0.003836 0.045702
#
#
# Mechanical properties :
#
#
# Convention : Reuss Voigt Hill
#
# Bulk Modulus (GPa) = 48.58147 70.90946 59.74546
# Shear Modulus (GPa) = 25.12420 34.65399 29.88909
#
# Velocity S-wave (km/s) = 3.21227 3.77262 3.50367
# Velocity P-wave (km/s) = 5.80612 6.93541 6.39574
#
# Compressibility (1/GPa) = 0.02058398
#
# Stress axis : x y z
#
# Youngs Moduli (GPa) = 45.21307 164.98715 45.44621
#
# Poissons Ratio (x) = 0.42908 0.50796
# Poissons Ratio (y) = 0.11759 0.04642
# Poissons Ratio (z) = 0.50535 0.16854
#
# Static dielectric constant tensor:
#      x y z
#    x 2.028870 -0.023890 0.013670 
#    y -0.023890 2.113310 -0.000420 
#    z 0.013670 -0.000420 1.973400 
# 
# From -- ./inp_files/508899.got.cif
#   From: 2010.05.17/outbox.cif.g08.bks.cpg/sg2_255_cif.got.tgz:508899.got - 2010.06.03 11:33:40.
