data_PCOD9023082
_publ_section_title
;
Structure prediction by ZEFSAII (Michael W. Deem and Ramdas Pophale) SiO2 
 PCOD9023082
Probable space group: P -1
;
_chemical_formula_sum "Si O2"
_cell_formula_units_Z 12
_cell_length_a 11.773020
_cell_length_b 6.731676
_cell_length_c 12.025943
_cell_angle_alpha 93.039032
_cell_angle_beta 73.627265
_cell_angle_gamma 139.156063
_cell_volume 578.213810
_symmetry_space_group_name_H-M "P -1"
_symmetry_group_IT_number 2
_symmetry_cell_setting 'triclinic'
loop_
_space_group_symop_operation_xyz
x,y,z
-x,-y,-z
loop_
_atom_site_type_symbol
_atom_site_label
_atom_site_fract_x
_atom_site_fract_y
_atom_site_fract_z
Si Si1 0.405073 0.717229 0.228697
Si Si2 0.243847 0.109419 0.179394
Si Si3 0.726407 0.208884 0.011585
Si Si4 0.229902 0.869451 0.761246
Si Si5 0.925388 0.420900 0.641870
Si Si6 0.993913 0.900191 0.878145
O O1 0.389554 0.473521 0.177376
O O2 0.208633 0.560426 0.307955
O O3 0.520133 0.989904 0.110969
O O4 0.551257 0.896645 0.296469
O O5 0.066275 0.008588 0.187019
O O6 0.202344 0.929140 0.294934
O O7 0.280753 0.000317 0.066911
O O8 0.825990 0.297420 0.107549
O O9 0.835823 0.521821 0.924373
O O10 0.096932 0.641039 0.689224
O O11 0.185528 0.044317 0.796270
O O12 0.000000 0.500000 0.500000
O O13 0.000000 0.000000 0.000000
#
# Coordination Sequence:
#
# PCOD9023082 Si02
#       6
#     2   2   2   2   2   2
#     4  10  25  42  67 101 135 167 219 269 330 394
#     4  12  22  41  68 102 131 174 217 264 335 396
#     4  10  22  39  66 104 140 163 210 266 339 398
#     4  10  22  44  64  95 135 171 212 267 330 382
#     4  12  27  48  67  88 131 183 228 275 317 376
#     4  12  20  36  68 103 137 173 204 265 336 402
#
# _framework density 20.753565999999999
#
# number of rings (size 3 to 8) (size 9 to 14) (size 15 to 20)
#    1.000    0.000    5.000    2.000    0.000    6.667 
#    0.000    0.833    0.000    0.000    0.000    0.000 
#    0.000    0.000    0.000    0.000    0.000    0.000 
#
# Total GULP energy -66898.806197 kJ/mol
# GULP energy per Si atom -5574.900516 kJ/mol
# Density = 2.070633 g / cm^3
# Si number density = 20.753566 Si / 1000 Ang^3
#
#
#
# Elastic Constant Matrix: (Units=GPa)
#
#
# Indices 1 2 3 4 5 6 
#
# 1 114.7541 39.8138 43.4597 9.0863 0.2332 8.6591
# 2 39.8138 82.3815 34.9235 11.4363 -2.6208 -2.0450
# 3 43.4597 34.9235 132.7875 5.1436 -2.9505 3.1409
# 4 9.0863 11.4363 5.1436 16.1964 -0.7664 6.4821
# 5 0.2332 -2.6208 -2.9505 -0.7664 22.1705 4.0968
# 6 8.6591 -2.0450 3.1409 6.4821 4.0968 37.0846
#
#
#
# Elastic Compliance Matrix: (Units=1/GPa)
#
#
# Indices 1 2 3 4 5 6 
#
# 1 0.011478 -0.004327 -0.002511 -0.001674 -0.000590 -0.002348
# 2 -0.004327 0.016909 -0.002715 -0.010175 0.000614 0.003884
# 3 -0.002511 -0.002715 0.009076 0.000723 0.001044 -0.000574
# 4 -0.001674 -0.010175 0.000723 0.075375 0.004077 -0.013857
# 5 -0.000590 0.000614 0.001044 0.004077 0.046530 -0.005770
# 6 -0.002348 0.003884 -0.000574 -0.013857 -0.005770 0.030836
#
#
# Mechanical properties :
#
#
# Convention : Reuss Voigt Hill
#
# Bulk Modulus (GPa) = 54.47858 62.92412 58.70135
# Shear Modulus (GPa) = 23.20955 29.20536 26.20746
#
# Velocity S-wave (km/s) = 3.34779 3.75540 3.55743
# Velocity P-wave (km/s) = 6.42268 7.01352 6.72459
#
# Compressibility (1/GPa) = 0.01835584
#
# Stress axis : x y z
#
# Youngs Moduli (GPa) = 87.12686 59.13910 110.18611
#
# Poissons Ratio (x) = 0.25590 0.27669
# Poissons Ratio (y) = 0.37700 0.29917
# Poissons Ratio (z) = 0.21879 0.16057
#
# Static dielectric constant tensor:
#      x y z
#    x 1.840740 0.053970 0.027990 
#    y 0.053970 1.807120 0.034420 
#    z 0.027990 0.034420 1.717580 
# 
# From -- ./inp_files/408475.got.cif
#   From: 2010.05.17/outbox.cif.g08.bks.cpg/sg2_205_cif.got.tgz:408475.got - 2010.06.03 11:33:40.
