data_PCOD9023345
_publ_section_title
;
Structure prediction by ZEFSAII (Michael W. Deem and Ramdas Pophale) SiO2 
 PCOD9023345
Probable space group: P -1
;
_chemical_formula_sum "Si O2"
_cell_formula_units_Z 16
_cell_length_a 5.264459
_cell_length_b 23.866559
_cell_length_c 5.245187
_cell_angle_alpha 95.038678
_cell_angle_beta 95.097708
_cell_angle_gamma 68.356123
_cell_volume 609.061012
_symmetry_space_group_name_H-M "P -1"
_symmetry_group_IT_number 2
_symmetry_cell_setting 'triclinic'
loop_
_space_group_symop_operation_xyz
x,y,z
-x,-y,-z
loop_
_atom_site_type_symbol
_atom_site_label
_atom_site_fract_x
_atom_site_fract_y
_atom_site_fract_z
Si Si1 0.707682 0.593017 0.935186
Si Si2 0.125000 0.532417 0.323386
Si Si3 0.749530 0.081511 0.761981
Si Si4 0.971614 0.152191 0.412890
Si Si5 0.514156 0.801782 0.956188
Si Si6 0.260133 0.036387 0.180807
Si Si7 0.155881 0.626937 0.664472
Si Si8 0.831996 0.750200 0.436950
O O1 0.733172 0.522285 0.877861
O O2 0.391004 0.631105 0.875205
O O3 0.906128 0.614748 0.779797
O O4 0.864222 0.587023 0.210645
O O5 0.300829 0.567203 0.480330
O O6 0.000000 0.500000 0.500000
O O7 0.818393 0.117237 0.550856
O O8 0.736914 0.017563 0.653223
O O9 0.502461 0.132844 0.908749
O O10 0.991188 0.060669 0.987077
O O11 0.249678 0.097118 0.342625
O O12 0.011668 0.204909 0.597167
O O13 0.794612 0.184210 0.163594
O O14 0.682246 0.777071 0.702793
O O15 0.631615 0.755856 0.182593
O O16 0.500000 0.000000 0.000000
O O17 0.038871 0.684740 0.499926
#
# Coordination Sequence:
#
# PCOD9023345 Si02
#       8
#     2   2   2   2   2   2   2   2
#     4  10  23  44  71 106 145 191 241 302 370 436
#     4   9  21  43  71 106 148 189 239 302 369 436
#     4  10  22  42  69 101 136 183 234 299 363 442
#     4  11  25  45  73 100 144 187 238 301 366 443
#     4  11  26  49  69 100 139 185 239 298 362 432
#     4  10  22  39  68 103 140 180 231 296 370 442
#     4  11  26  43  70 105 142 193 245 305 362 440
#     4  12  29  45  74 102 140 193 244 298 366 435
#
# _framework density 26.269943999999999
#
# number of rings (size 3 to 8) (size 9 to 14) (size 15 to 20)
#    0.000    1.500    1.250    1.500    8.750    7.000 
#    0.000    0.000    0.000    0.000    0.000    0.000 
#    0.000    0.000    0.000    0.000    0.000    0.000 
#
# Total GULP energy -89457.206043 kJ/mol
# GULP energy per Si atom -5591.075378 kJ/mol
# Density = 2.621015 g / cm^3
# Si number density = 26.269944 Si / 1000 Ang^3
#
#
#
# Elastic Constant Matrix: (Units=GPa)
#
#
# Indices 1 2 3 4 5 6 
#
# 1 84.2464 35.6853 30.8301 -21.1857 5.1181 -0.0192
# 2 35.6853 112.8888 34.4262 -35.1607 12.1482 -3.5026
# 3 30.8301 34.4262 131.9509 -39.5580 7.6310 -6.6535
# 4 -21.1857 -35.1607 -39.5580 53.5411 -13.3545 9.6414
# 5 5.1181 12.1482 7.6310 -13.3545 50.9021 -5.4698
# 6 -0.0192 -3.5026 -6.6535 9.6414 -5.4698 30.3103
#
#
#
# Elastic Compliance Matrix: (Units=1/GPa)
#
#
# Indices 1 2 3 4 5 6 
#
# 1 0.014586 -0.003315 -0.001873 0.002518 0.000097 -0.001568
# 2 -0.003315 0.012051 -0.000518 0.006136 -0.000946 -0.000846
# 3 -0.001873 -0.000518 0.010065 0.006449 0.000515 0.000190
# 4 0.002518 0.006136 0.006449 0.030868 0.004678 -0.006848
# 5 0.000097 -0.000946 0.000515 0.004678 0.021265 0.002353
# 6 -0.001568 -0.000846 0.000190 -0.006848 0.002353 0.035538
#
#
# Mechanical properties :
#
#
# Convention : Reuss Voigt Hill
#
# Bulk Modulus (GPa) = 39.54177 58.99659 49.26918
# Shear Modulus (GPa) = 34.67087 42.16034 38.41561
#
# Velocity S-wave (km/s) = 3.63684 4.01045 3.82820
# Velocity P-wave (km/s) = 5.72016 6.62960 6.19160
#
# Compressibility (1/GPa) = 0.02528971
#
# Stress axis : x y z
#
# Youngs Moduli (GPa) = 68.55742 82.98293 99.35878
#
# Poissons Ratio (x) = 0.27506 0.18612
# Poissons Ratio (y) = 0.22724 0.05147
# Poissons Ratio (z) = 0.12842 0.04299
#
# Static dielectric constant tensor:
#      x y z
#    x 2.200940 -0.020900 0.023620 
#    y -0.020900 2.088360 0.061660 
#    z 0.023620 0.061660 2.131120 
# 
# From -- ./inp_files/13317.got.cif
#   From: 2010.05.17/outbox.cif.g08.bks.cpg/sg2_7_cif.got.tgz:13317.got - 2010.06.03 11:33:40.
