data_PCOD9023169
_publ_section_title
;
Structure prediction by ZEFSAII (Michael W. Deem and Ramdas Pophale) SiO2 
 PCOD9023169
Probable space group: P -1
;
_chemical_formula_sum "Si O2"
_cell_formula_units_Z 14
_cell_length_a 6.050371
_cell_length_b 5.278923
_cell_length_c 23.851758
_cell_angle_alpha 112.699769
_cell_angle_beta 126.684726
_cell_angle_gamma 80.434532
_cell_volume 561.463924
_symmetry_space_group_name_H-M "P -1"
_symmetry_group_IT_number 2
_symmetry_cell_setting 'triclinic'
loop_
_space_group_symop_operation_xyz
x,y,z
-x,-y,-z
loop_
_atom_site_type_symbol
_atom_site_label
_atom_site_fract_x
_atom_site_fract_y
_atom_site_fract_z
Si Si1 0.568866 0.106439 0.781174
Si Si2 0.712963 0.693193 0.420651
Si Si3 0.045285 0.465794 0.908929
Si Si4 0.372793 0.117508 0.344149
Si Si5 0.204039 0.327008 0.444537
Si Si6 0.476584 0.333519 0.186036
Si Si7 0.538354 0.100904 0.949917
O O1 0.718417 0.026504 0.740231
O O2 0.383843 0.358901 0.767606
O O3 0.804449 0.234021 0.871626
O O4 0.418554 0.841873 0.763385
O O5 0.610694 0.929172 0.386125
O O6 0.788647 0.807744 0.504294
O O7 0.973775 0.541195 0.426847
O O8 0.482619 0.431547 0.371623
O O9 0.300152 0.299922 0.914862
O O10 0.849477 0.614665 0.848447
O O11 0.176296 0.701789 0.989914
O O12 0.182193 0.129906 0.370819
O O13 0.500000 0.500000 0.500000
O O14 0.483312 0.163548 0.115565
O O15 0.500000 0.000000 0.000000
#
# Coordination Sequence:
#
# PCOD9023169 Si02
#       7
#     2   2   2   2   2   2   2
#     4  10  23  43  59  85 124 168 200 247 307 370
#     4  10  22  39  66  97 122 165 211 254 311 361
#     4   9  23  37  64  88 119 155 205 250 311 363
#     4  11  22  42  61  91 132 165 210 253 305 373
#     4   9  21  40  67  96 128 161 207 264 305 356
#     4  10  23  41  61  83 122 157 200 255 304 361
#     4  11  22  38  63  93 117 152 208 260 308 365
#
# _framework density 24.934816999999999
#
# number of rings (size 3 to 8) (size 9 to 14) (size 15 to 20)
#    0.857    1.143    0.000    2.571    4.000    8.571 
#    5.143    0.000    0.000    0.000    0.000    0.000 
#    0.000    0.000    0.000    0.000    0.000    0.000 
#
# Total GULP energy -78140.248227 kJ/mol
# GULP energy per Si atom -5581.446302 kJ/mol
# Density = 2.487806 g / cm^3
# Si number density = 24.934817 Si / 1000 Ang^3
#
#
#
# Elastic Constant Matrix: (Units=GPa)
#
#
# Indices 1 2 3 4 5 6 
#
# 1 35.8588 -2.3972 39.2716 4.3479 -19.3591 -13.1827
# 2 -2.3972 124.2341 33.9560 6.4101 -13.7025 2.2846
# 3 39.2716 33.9560 107.8042 12.9608 -33.7298 -1.0901
# 4 4.3479 6.4101 12.9608 31.4619 -12.1805 -5.6444
# 5 -19.3591 -13.7025 -33.7298 -12.1805 53.8083 6.7605
# 6 -13.1827 2.2846 -1.0901 -5.6444 6.7605 23.4576
#
#
#
# Elastic Compliance Matrix: (Units=1/GPa)
#
#
# Indices 1 2 3 4 5 6 
#
# 1 0.082429 0.009746 -0.030929 0.010988 0.009738 0.043774
# 2 0.009746 0.010026 -0.006159 0.000546 0.001843 0.003815
# 3 -0.030929 -0.006159 0.024078 -0.006393 0.003228 -0.018132
# 4 0.010988 0.000546 -0.006393 0.037823 0.007026 0.012901
# 5 0.009738 0.001843 0.003228 0.007026 0.026225 -0.000425
# 6 0.043774 0.003815 -0.018132 0.012901 -0.000425 0.069243
#
#
# Mechanical properties :
#
#
# Convention : Reuss Voigt Hill
#
# Bulk Modulus (GPa) = 16.16814 45.50642 30.83728
# Shear Modulus (GPa) = 15.37878 34.88334 25.13106
#
# Velocity S-wave (km/s) = 2.48616 3.74435 3.17814
# Velocity P-wave (km/s) = 3.83921 6.08139 5.08542
#
# Compressibility (1/GPa) = 0.06185002
#
# Stress axis : x y z
#
# Youngs Moduli (GPa) = 12.13164 99.74382 41.53101
#
# Poissons Ratio (x) = -0.97214 1.28453
# Poissons Ratio (y) = -0.11824 0.25577
# Poissons Ratio (z) = 0.37522 0.61428
#
# Static dielectric constant tensor:
#      x y z
#    x 1.983310 0.036800 -0.008850 
#    y 0.036800 2.044310 0.022830 
#    z -0.008850 0.022830 1.969720 
# 
# From -- ./inp_files/602998.got.cif
#   From: 2010.05.17/outbox.cif.g08.bks.cpg/sg2_302_cif.got.tgz:602998.got - 2010.06.03 11:33:40.
