data_PCOD9023362
_publ_section_title
;
Structure prediction by ZEFSAII (Michael W. Deem and Ramdas Pophale) SiO2 
 PCOD9023362
Probable space group: P -1
;
_chemical_formula_sum "Si O2"
_cell_formula_units_Z 14
_cell_length_a 12.569404
_cell_length_b 13.261933
_cell_length_c 9.147435
_cell_angle_alpha 47.673749
_cell_angle_beta 109.174354
_cell_angle_gamma 146.677518
_cell_volume 505.968877
_symmetry_space_group_name_H-M "P -1"
_symmetry_group_IT_number 2
_symmetry_cell_setting 'triclinic'
loop_
_space_group_symop_operation_xyz
x,y,z
-x,-y,-z
loop_
_atom_site_type_symbol
_atom_site_label
_atom_site_fract_x
_atom_site_fract_y
_atom_site_fract_z
Si Si1 0.698717 0.778744 0.916227
Si Si2 0.183317 0.516474 0.607587
Si Si3 0.694698 0.854050 0.131461
Si Si4 0.413051 0.707963 0.938587
Si Si5 0.307810 0.911234 0.733480
Si Si6 0.033421 0.496514 0.268121
Si Si7 0.008524 0.933855 0.720446
O O1 0.637465 0.875284 0.795859
O O2 0.934845 0.968998 0.772065
O O3 0.500000 0.500000 0.000000
O O4 0.655354 0.695681 0.146457
O O5 0.451307 0.749919 0.514191
O O6 0.160429 0.543659 0.403710
O O7 0.957644 0.185100 0.872614
O O8 0.485351 0.735645 0.108931
O O9 0.744406 0.861384 0.309840
O O10 0.379724 0.831851 0.801482
O O11 0.186497 0.392893 0.072609
O O12 0.095243 0.718760 0.713868
O O13 0.142753 0.599545 0.619698
O O14 0.208938 0.785873 0.975536
O O15 0.000000 0.000000 0.500000
#
# Coordination Sequence:
#
# PCOD9023362 Si02
#       7
#     2   2   2   2   2   2   2
#     4   8  19  42  62  86 120 167 209 264 322 387
#     4  11  22  40  64  96 136 173 213 262 327 390
#     4  10  22  39  68  91 128 176 214 260 333 396
#     4   9  21  39  65  87 132 168 214 262 324 389
#     4  11  22  42  65  97 136 175 217 267 312 386
#     4  10  23  38  64  91 138 175 219 262 313 373
#     4  11  22  40  67  95 127 163 218 283 328 383
#
# _framework density 27.669684
#
# number of rings (size 3 to 8) (size 9 to 14) (size 15 to 20)
#    0.857    1.143    0.000    3.857    0.000    2.857 
#    0.000    0.000   15.714    0.000    0.000    0.000 
#    0.000    0.000    0.000    0.000    0.000    0.000 
#
# Total GULP energy -78272.448827 kJ/mol
# GULP energy per Si atom -5590.889202 kJ/mol
# Density = 2.760671 g / cm^3
# Si number density = 27.669684 Si / 1000 Ang^3
#
#
#
# Elastic Constant Matrix: (Units=GPa)
#
#
# Indices 1 2 3 4 5 6 
#
# 1 110.3471 -0.5767 18.4103 -3.2883 1.4267 -3.9406
# 2 -0.5767 173.5641 48.0178 36.0136 -4.8014 2.6046
# 3 18.4103 48.0178 119.0356 17.9449 -14.9913 -4.6313
# 4 -3.2883 36.0136 17.9449 59.3267 10.7981 3.4826
# 5 1.4267 -4.8014 -14.9913 10.7981 26.8122 1.9222
# 6 -3.9406 2.6046 -4.6313 3.4826 1.9222 25.5276
#
#
#
# Elastic Compliance Matrix: (Units=1/GPa)
#
#
# Indices 1 2 3 4 5 6 
#
# 1 0.009503 0.000233 -0.001998 0.001326 -0.002192 0.001065
# 2 0.000233 0.007252 -0.002164 -0.004012 0.001741 -0.000680
# 3 -0.001998 -0.002164 0.011108 -0.003584 0.007239 0.001871
# 4 0.001326 -0.004012 -0.003584 0.022726 -0.011784 -0.002249
# 5 -0.002192 0.001741 0.007239 -0.011784 0.046597 -0.001104
# 6 0.001065 -0.000680 0.001871 -0.002249 -0.001104 0.040137
#
#
# Mechanical properties :
#
#
# Convention : Reuss Voigt Hill
#
# Bulk Modulus (GPa) = 49.99117 59.40552 54.69835
# Shear Modulus (GPa) = 32.92775 44.80632 38.86703
#
# Velocity S-wave (km/s) = 3.45342 4.02845 3.75197
# Velocity P-wave (km/s) = 5.83163 6.56918 6.21136
#
# Compressibility (1/GPa) = 0.02000353
#
# Stress axis : x y z
#
# Youngs Moduli (GPa) = 105.23247 137.89879 90.02921
#
# Poissons Ratio (x) = -0.03207 0.17988
# Poissons Ratio (y) = -0.02447 0.19480
# Poissons Ratio (z) = 0.21026 0.29837
#
# Static dielectric constant tensor:
#      x y z
#    x 2.190560 -0.034260 0.024400 
#    y -0.034260 2.164800 0.006120 
#    z 0.024400 0.006120 2.282710 
# 
# From -- ./inp_files/349420.got.cif
#   From: 2010.05.17/outbox.cif.g08.bks.cpg/sg2_175_cif.got.tgz:349420.got - 2010.06.03 11:33:40.
