data_PCOD9023322
_publ_section_title
;
Structure prediction by ZEFSAII (Michael W. Deem and Ramdas Pophale) SiO2 
 PCOD9023322
Probable space group: P -1
;
_chemical_formula_sum "Si O2"
_cell_formula_units_Z 16
_cell_length_a 19.727739
_cell_length_b 11.875238
_cell_length_c 5.598606
_cell_angle_alpha 113.728095
_cell_angle_beta 87.658568
_cell_angle_gamma 138.763071
_cell_volume 713.154559
_symmetry_space_group_name_H-M "P -1"
_symmetry_group_IT_number 2
_symmetry_cell_setting 'triclinic'
loop_
_space_group_symop_operation_xyz
x,y,z
-x,-y,-z
loop_
_atom_site_type_symbol
_atom_site_label
_atom_site_fract_x
_atom_site_fract_y
_atom_site_fract_z
Si Si1 0.748814 0.894514 0.059230
Si Si2 0.635057 0.963894 0.934651
Si Si3 0.794709 0.818306 0.384237
Si Si4 0.298471 0.822061 0.405915
Si Si5 0.776515 0.564804 0.814328
Si Si6 0.025769 0.869702 0.018960
Si Si7 0.954925 0.486655 0.747750
Si Si8 0.612736 0.498415 0.524667
O O1 0.724635 0.984286 0.000765
O O2 0.638170 0.644033 0.835654
O O3 0.860398 0.981660 0.027351
O O4 0.780323 0.932703 0.364506
O O5 0.515633 0.721941 0.697799
O O6 0.662507 0.078176 0.781254
O O7 0.627944 0.034001 0.243330
O O8 0.685084 0.653797 0.427706
O O9 0.918391 0.991411 0.636044
O O10 0.783387 0.678410 0.112169
O O11 0.266163 0.629951 0.253422
O O12 0.180454 0.718159 0.392053
O O13 0.681158 0.476134 0.573764
O O14 0.906094 0.752057 0.848065
O O15 0.988584 0.677359 0.910166
O O16 0.000000 0.500000 0.500000
O O17 0.000000 0.500000 0.000000
#
# Coordination Sequence:
#
# PCOD9023322 Si02
#       8
#     2   2   2   2   2   2   2   2
#     4  10  23  42  68 102 135 173 228 286 353 409
#     4  12  27  46  72 100 142 179 240 277 347 403
#     4  10  23  41  68  99 134 179 232 283 348 402
#     4  11  27  44  69 104 135 190 223 288 336 415
#     4  10  24  45  66  98 140 173 239 275 353 402
#     4  10  22  39  68 100 134 178 220 287 348 414
#     4  11  23  41  67  99 144 177 221 275 340 415
#     4  10  25  44  68  97 132 186 227 296 329 407
#
# _framework density 22.435528000000001
#
# number of rings (size 3 to 8) (size 9 to 14) (size 15 to 20)
#    0.000    1.500    0.000    3.000   12.250    7.000 
#    0.000    0.000    0.000    0.000    0.000    0.000 
#    0.000    0.000    0.000    0.000    0.000    0.000 
#
# Total GULP energy -89155.354758 kJ/mol
# GULP energy per Si atom -5572.209672 kJ/mol
# Density = 2.238446 g / cm^3
# Si number density = 22.435528 Si / 1000 Ang^3
#
#
#
# Elastic Constant Matrix: (Units=GPa)
#
#
# Indices 1 2 3 4 5 6 
#
# 1 66.9242 21.7580 31.6261 -9.8140 10.2025 -10.0837
# 2 21.7580 81.6381 36.0444 -4.0673 8.8418 -14.7773
# 3 31.6261 36.0444 89.6615 1.6970 5.9475 -12.8973
# 4 -9.8140 -4.0673 1.6970 41.1632 -0.4396 7.4216
# 5 10.2025 8.8418 5.9475 -0.4396 30.4797 6.9259
# 6 -10.0837 -14.7773 -12.8973 7.4216 6.9259 29.9705
#
#
#
# Elastic Compliance Matrix: (Units=1/GPa)
#
#
# Indices 1 2 3 4 5 6 
#
# 1 0.020210 -0.001247 -0.005701 0.004118 -0.006172 0.004138
# 2 -0.001247 0.016507 -0.004915 0.000281 -0.004924 0.006673
# 3 -0.005701 -0.004915 0.015709 -0.003094 -0.000527 0.003307
# 4 0.004118 0.000281 -0.003094 0.026640 0.001038 -0.006644
# 5 -0.006172 -0.004924 -0.000527 0.001038 0.039636 -0.014148
# 6 0.004138 0.006673 0.003307 -0.006644 -0.014148 0.044386
#
#
# Mechanical properties :
#
#
# Convention : Reuss Voigt Hill
#
# Bulk Modulus (GPa) = 34.84219 46.34230 40.59225
# Shear Modulus (GPa) = 25.46109 30.24239 27.85174
#
# Velocity S-wave (km/s) = 3.37242 3.67545 3.52719
# Velocity P-wave (km/s) = 5.54327 6.22194 5.89239
#
# Compressibility (1/GPa) = 0.02870083
#
# Stress axis : x y z
#
# Youngs Moduli (GPa) = 49.48090 60.58210 63.65852
#
# Poissons Ratio (x) = 0.07553 0.36290
# Poissons Ratio (y) = 0.06169 0.31287
# Poissons Ratio (z) = 0.28207 0.29775
#
# Static dielectric constant tensor:
#      x y z
#    x 1.836160 -0.047740 -0.006980 
#    y -0.047740 1.734230 -0.025180 
#    z -0.006980 -0.025180 1.907030 
# 
# From -- ./inp_files/118325.got.cif
#   From: 2010.05.17/outbox.cif.g08.bks.cpg/sg2_60_cif.got.tgz:118325.got - 2010.06.03 11:33:40.
