data_PCOD9023612
_publ_section_title
;
Structure prediction by ZEFSAII (Michael W. Deem and Ramdas Pophale) SiO2 
 PCOD9023612
Probable space group: P -1
;
_chemical_formula_sum "Si O2"
_cell_formula_units_Z 15
_cell_length_a 5.152142
_cell_length_b 9.165391
_cell_length_c 18.105978
_cell_angle_alpha 101.219476
_cell_angle_beta 80.666893
_cell_angle_gamma 127.518488
_cell_volume 664.131789
_symmetry_space_group_name_H-M "P -1"
_symmetry_group_IT_number 2
_symmetry_cell_setting 'triclinic'
loop_
_space_group_symop_operation_xyz
x,y,z
-x,-y,-z
loop_
_atom_site_type_symbol
_atom_site_label
_atom_site_fract_x
_atom_site_fract_y
_atom_site_fract_z
Si Si1 0.102874 0.462902 0.245521
Si Si2 0.121240 0.074548 0.815110
Si Si3 0.338956 0.283065 0.974092
Si Si4 0.874772 0.186752 0.110690
Si Si5 0.154523 0.298289 0.718409
Si Si6 0.256363 0.892415 0.669407
Si Si7 0.934322 0.003284 0.588782
Si Si8 0.500000 0.000000 0.000000
O O1 0.483195 0.560667 0.251100
O O2 0.990103 0.376417 0.159528
O O3 0.005713 0.598264 0.276196
O O4 0.899718 0.292647 0.294630
O O5 0.303076 0.230877 0.885159
O O6 0.957941 0.133740 0.771825
O O7 0.977498 0.889484 0.851443
O O8 0.320610 0.044355 0.741593
O O9 0.500000 0.500000 0.000000
O O10 0.487425 0.189415 0.998525
O O11 0.972187 0.179098 0.019107
O O12 0.497570 0.036912 0.095038
O O13 0.168841 0.207977 0.633989
O O14 0.574472 0.943749 0.617232
O O15 0.006698 0.879987 0.620933
O O16 0.000000 0.000000 0.500000
#
# Coordination Sequence:
#
# PCOD9023612 Si02
#       8
#     2   2   2   2   2   2   2   1
#     4  11  24  42  68  96 139 173 226 285 330 406
#     4   9  20  40  60  89 125 170 222 274 326 407
#     4  11  23  41  59  92 129 171 233 285 351 395
#     4  10  23  42  61  88 130 174 230 278 345 398
#     4  11  23  43  65 101 128 172 227 278 338 405
#     4  10  22  43  66  99 131 181 214 268 343 404
#     4  11  23  44  71  99 134 173 218 267 333 421
#     4  10  22  40  58  88 118 176 222 284 346 402
#
# _framework density 22.585878000000001
#
# number of rings (size 3 to 8) (size 9 to 14) (size 15 to 20)
#    0.000    1.600    0.000    5.200    3.733    0.533 
#   38.400    4.000    0.000    0.000    0.000    0.000 
#    0.000    0.000    0.000    0.000    0.000    0.000 
#
# Total GULP energy -83540.801283 kJ/mol
# GULP energy per Si atom -5569.386752 kJ/mol
# Density = 2.253447 g / cm^3
# Si number density = 22.585878 Si / 1000 Ang^3
#
#
#
# Elastic Constant Matrix: (Units=GPa)
#
#
# Indices 1 2 3 4 5 6 
#
# 1 93.4038 19.0646 25.2101 -5.6430 -0.7527 -34.1540
# 2 19.0646 112.1147 40.0456 5.2820 1.5129 -27.2531
# 3 25.2101 40.0456 177.8178 5.0802 -1.1406 -12.2517
# 4 -5.6430 5.2820 5.0802 23.2776 6.1018 4.3644
# 5 -0.7527 1.5129 -1.1406 6.1018 26.2759 -2.5874
# 6 -34.1540 -27.2531 -12.2517 4.3644 -2.5874 39.8580
#
#
#
# Elastic Compliance Matrix: (Units=1/GPa)
#
#
# Indices 1 2 3 4 5 6 
#
# 1 0.016137 0.001203 -0.001601 0.000942 0.001498 0.014152
# 2 0.001203 0.011809 -0.002095 -0.003884 0.001047 0.008955
# 3 -0.001601 -0.002095 0.006317 -0.001318 0.000588 -0.000680
# 4 0.000942 -0.003884 -0.001318 0.049088 -0.012034 -0.008410
# 5 0.001498 0.001047 0.000588 -0.012034 0.041470 0.006191
# 6 0.014152 0.008955 -0.000680 -0.008410 0.006191 0.044452
#
#
# Mechanical properties :
#
#
# Convention : Reuss Voigt Hill
#
# Bulk Modulus (GPa) = 34.15687 61.33077 47.74382
# Shear Modulus (GPa) = 27.17124 37.81669 32.49396
#
# Velocity S-wave (km/s) = 3.47222 4.09632 3.79711
# Velocity P-wave (km/s) = 5.58847 7.04177 6.35679
#
# Compressibility (1/GPa) = 0.02927669
#
# Stress axis : x y z
#
# Youngs Moduli (GPa) = 61.97112 84.68243 158.29914
#
# Poissons Ratio (x) = -0.10191 0.25344
# Poissons Ratio (y) = -0.07458 0.33169
# Poissons Ratio (z) = 0.09922 0.17744
#
# Static dielectric constant tensor:
#      x y z
#    x 2.317770 0.235980 -0.004760 
#    y 0.235980 1.991070 0.006020 
#    z -0.004760 0.006020 1.844200 
# 
# From -- ./inp_files/107361.got.cif
#   From: 2010.05.17/outbox.cif.g08.bks.cpg/sg2_54_cif.got.tgz:107361.got - 2010.06.03 11:33:40.
