data_PCOD9023805
_publ_section_title
;
Structure prediction by ZEFSAII (Michael W. Deem and Ramdas Pophale) SiO2 
 PCOD9023805
Probable space group: P -1
;
_chemical_formula_sum "Si O2"
_cell_formula_units_Z 16
_cell_length_a 12.808956
_cell_length_b 11.597988
_cell_length_c 28.125044
_cell_angle_alpha 153.404938
_cell_angle_beta 155.228903
_cell_angle_gamma 32.065159
_cell_volume 769.545097
_symmetry_space_group_name_H-M "P -1"
_symmetry_group_IT_number 2
_symmetry_cell_setting 'triclinic'
loop_
_space_group_symop_operation_xyz
x,y,z
-x,-y,-z
loop_
_atom_site_type_symbol
_atom_site_label
_atom_site_fract_x
_atom_site_fract_y
_atom_site_fract_z
Si Si1 0.522581 0.393680 0.845568
Si Si2 0.008618 0.877630 0.744981
Si Si3 0.053152 0.018341 0.921600
Si Si4 0.782481 0.645832 0.391689
Si Si5 0.968848 0.163806 0.692560
Si Si6 0.392758 0.751049 0.344428
Si Si7 0.587332 0.992599 0.106812
Si Si8 0.751429 0.502365 0.135854
O O1 0.393452 0.340615 0.722949
O O2 0.343278 0.353681 0.800804
O O3 0.553237 0.694842 0.973239
O O4 0.802024 0.224028 0.904785
O O5 0.998830 0.884250 0.799723
O O6 0.983805 0.594225 0.609587
O O7 0.281240 0.909566 0.848607
O O8 0.813030 0.120781 0.732748
O O9 0.122388 0.794231 0.907105
O O10 0.305800 0.136938 0.058672
O O11 0.623659 0.581072 0.348384
O O12 0.860388 0.923936 0.536046
O O13 0.761987 0.326741 0.703465
O O14 0.208769 0.032057 0.775508
O O15 0.062939 0.350194 0.762012
O O16 0.500000 0.000000 0.500000
O O17 0.500000 0.500000 0.000000
#
# Coordination Sequence:
#
# PCOD9023805 Si02
#       8
#     2   2   2   2   2   2   2   2
#     4  11  23  40  65  94 123 172 207 265 316 367
#     4  11  21  39  64  96 129 164 209 267 318 369
#     4  11  22  39  66  93 124 166 215 264 314 366
#     4  11  22  41  67  95 130 164 212 258 321 381
#     4  10  22  43  64  91 131 172 200 264 318 370
#     4   9  21  39  63  92 133 161 202 261 314 383
#     4  10  22  40  61  94 129 162 211 262 315 375
#     4  11  22  46  64  88 135 162 216 265 307 377
#
# _framework density 20.791504
#
# number of rings (size 3 to 8) (size 9 to 14) (size 15 to 20)
#    0.000    1.500    6.250    0.375    0.000    8.000 
#    0.000    5.625    0.000    0.000    0.000    0.000 
#    0.000    0.000    0.000    0.000    0.000    0.000 
#
# Total GULP energy -89382.761518 kJ/mol
# GULP energy per Si atom -5586.422595 kJ/mol
# Density = 2.074418 g / cm^3
# Si number density = 20.791504 Si / 1000 Ang^3
#
#
#
# Elastic Constant Matrix: (Units=GPa)
#
#
# Indices 1 2 3 4 5 6 
#
# 1 128.4401 19.7385 29.5909 4.6868 9.6236 10.0857
# 2 19.7385 66.0180 1.3620 -4.6843 2.9517 2.9283
# 3 29.5909 1.3620 89.6019 -4.2850 -4.5014 9.8616
# 4 4.6868 -4.6843 -4.2850 23.3935 3.1158 -0.2856
# 5 9.6236 2.9517 -4.5014 3.1158 34.5580 1.7928
# 6 10.0857 2.9283 9.8616 -0.2856 1.7928 36.7777
#
#
#
# Elastic Compliance Matrix: (Units=1/GPa)
#
#
# Indices 1 2 3 4 5 6 
#
# 1 0.009321 -0.002740 -0.003134 -0.002680 -0.002456 -0.001399
# 2 -0.002740 0.016307 0.000888 0.004081 -0.000845 -0.000712
# 3 -0.003134 0.000888 0.012732 0.002792 0.002345 -0.002718
# 4 -0.002680 0.004081 0.002792 0.045055 -0.003310 0.000173
# 5 -0.002456 -0.000845 0.002345 -0.003310 0.030369 -0.001394
# 6 -0.001399 -0.000712 -0.002718 0.000173 -0.001394 0.028429
#
#
# Mechanical properties :
#
#
# Convention : Reuss Voigt Hill
#
# Bulk Modulus (GPa) = 35.22631 42.82699 39.02665
# Shear Modulus (GPa) = 30.93129 34.50373 32.71751
#
# Velocity S-wave (km/s) = 3.86124 4.07813 3.97117
# Velocity P-wave (km/s) = 6.07111 6.54354 6.31174
#
# Compressibility (1/GPa) = 0.02838788
#
# Stress axis : x y z
#
# Youngs Moduli (GPa) = 107.29020 61.32211 78.53938
#
# Poissons Ratio (x) = 0.16805 0.24615
# Poissons Ratio (y) = 0.29402 -0.06976
# Poissons Ratio (z) = 0.33625 -0.05447
#
# Static dielectric constant tensor:
#      x y z
#    x 1.753000 -0.028850 -0.005690 
#    y -0.028850 1.812760 -0.012870 
#    z -0.005690 -0.012870 1.764760 
# 
# From -- ./inp_files/618388.got.cif
#   From: 2010.05.17/outbox.cif.g08.bks.cpg/sg2_310_cif.got.tgz:618388.got - 2010.06.03 11:33:40.
