data_PCOD9023658
_publ_section_title
;
Structure prediction by ZEFSAII (Michael W. Deem and Ramdas Pophale) SiO2 
 PCOD9023658
Probable space group: P -1
;
_chemical_formula_sum "Si O2"
_cell_formula_units_Z 16
_cell_length_a 9.267697
_cell_length_b 8.985019
_cell_length_c 13.283217
_cell_angle_alpha 90.270324
_cell_angle_beta 137.945174
_cell_angle_gamma 96.303630
_cell_volume 730.227031
_symmetry_space_group_name_H-M "P -1"
_symmetry_group_IT_number 2
_symmetry_cell_setting 'triclinic'
loop_
_space_group_symop_operation_xyz
x,y,z
-x,-y,-z
loop_
_atom_site_type_symbol
_atom_site_label
_atom_site_fract_x
_atom_site_fract_y
_atom_site_fract_z
Si Si1 0.754816 0.659873 0.344094
Si Si2 0.311153 0.358405 0.918188
Si Si3 0.878266 0.486024 0.723455
Si Si4 0.009272 0.793287 0.911213
Si Si5 0.769216 0.371354 0.448286
Si Si6 0.572687 0.915374 0.722248
Si Si7 0.374883 0.047536 0.030643
Si Si8 0.626916 0.240837 0.732528
O O1 0.730155 0.705421 0.216382
O O2 0.674001 0.479751 0.320721
O O3 0.601841 0.739640 0.335419
O O4 0.016471 0.676586 0.491807
O O5 0.356839 0.221584 0.008475
O O6 0.101450 0.419390 0.851200
O O7 0.500000 0.500000 0.000000
O O8 0.918089 0.651397 0.792973
O O9 0.833534 0.474510 0.580888
O O10 0.694137 0.373409 0.687652
O O11 0.803800 0.857456 0.850189
O O12 0.149405 0.930457 0.922366
O O13 0.176813 0.747380 0.082083
O O14 0.606605 0.225346 0.400769
O O15 0.603260 0.070717 0.676785
O O16 0.510760 0.962688 0.802713
O O17 0.500000 0.000000 0.000000
#
# Coordination Sequence:
#
# PCOD9023658 Si02
#       8
#     2   2   2   2   2   2   2   2
#     4  10  22  40  60  84 121 157 202 248 292 358
#     4  11  20  36  61  89 118 154 201 252 299 352
#     4  11  23  39  62  88 119 161 209 245 289 364
#     4  11  23  40  63  92 125 158 195 253 311 351
#     4  10  24  43  60  86 122 168 203 240 300 358
#     4  11  23  41  62  88 129 160 192 248 307 363
#     4  11  22  38  62  93 122 153 198 251 309 359
#     4  11  22  39  63  93 118 153 203 255 306 350
#
# _framework density 21.910993999999999
#
# number of rings (size 3 to 8) (size 9 to 14) (size 15 to 20)
#    0.000    1.250    0.000    7.875    0.000    5.000 
#    0.000    2.500    0.000    0.000    0.000    0.000 
#    0.000    0.000    0.000    0.000    0.000    0.000 
#
# Total GULP energy -89412.848612 kJ/mol
# GULP energy per Si atom -5588.303038 kJ/mol
# Density = 2.186112 g / cm^3
# Si number density = 21.910994 Si / 1000 Ang^3
#
#
#
# Elastic Constant Matrix: (Units=GPa)
#
#
# Indices 1 2 3 4 5 6 
#
# 1 108.8045 23.1604 16.9752 -1.1398 14.0173 -3.0801
# 2 23.1604 124.6052 29.2028 15.8494 2.4344 15.9908
# 3 16.9752 29.2028 37.4414 9.6520 5.3725 -2.0659
# 4 -1.1398 15.8494 9.6520 34.2368 -5.3899 4.2401
# 5 14.0173 2.4344 5.3725 -5.3899 22.5025 -1.6621
# 6 -3.0801 15.9908 -2.0659 4.2401 -1.6621 39.3115
#
#
#
# Elastic Compliance Matrix: (Units=1/GPa)
#
#
# Indices 1 2 3 4 5 6 
#
# 1 0.010722 -0.001369 -0.003193 0.000917 -0.005482 0.000899
# 2 -0.001369 0.010963 -0.007690 -0.002274 0.000611 -0.004700
# 3 -0.003193 -0.007690 0.037987 -0.009207 -0.008045 0.005527
# 4 0.000917 -0.002274 -0.009207 0.034811 0.010003 -0.002819
# 5 -0.005482 0.000611 -0.008045 0.010003 0.052107 0.000023
# 6 0.000899 -0.004700 0.005527 -0.002819 0.000023 0.028015
#
#
# Mechanical properties :
#
#
# Convention : Reuss Voigt Hill
#
# Bulk Modulus (GPa) = 28.43659 45.50310 36.96984
# Shear Modulus (GPa) = 23.71555 32.64433 28.17994
#
# Velocity S-wave (km/s) = 3.29349 3.86406 3.59013
# Velocity P-wave (km/s) = 5.24110 6.38124 5.83907
#
# Compressibility (1/GPa) = 0.03516596
#
# Stress axis : x y z
#
# Youngs Moduli (GPa) = 93.26812 91.21899 26.32482
#
# Poissons Ratio (x) = 0.12491 0.08406
# Poissons Ratio (y) = 0.12772 0.20245
# Poissons Ratio (z) = 0.29781 0.70150
#
# Static dielectric constant tensor:
#      x y z
#    x 1.794020 0.017720 -0.003150 
#    y 0.017720 1.855690 0.014130 
#    z -0.003150 0.014130 1.817000 
# 
# From -- ./inp_files/186756.got.cif
#   From: 2010.05.17/outbox.cif.g08.bks.cpg/sg2_94_cif.got.tgz:186756.got - 2010.06.03 11:33:40.
