data_PCOD9023229
_publ_section_title
;
Structure prediction by ZEFSAII (Michael W. Deem and Ramdas Pophale) SiO2 
 PCOD9023229
Probable space group: P -1
;
_chemical_formula_sum "Si O2"
_cell_formula_units_Z 12
_cell_length_a 10.377350
_cell_length_b 10.965753
_cell_length_c 13.617410
_cell_angle_alpha 30.928664
_cell_angle_beta 134.023941
_cell_angle_gamma 115.218171
_cell_volume 508.440131
_symmetry_space_group_name_H-M "P -1"
_symmetry_group_IT_number 2
_symmetry_cell_setting 'triclinic'
loop_
_space_group_symop_operation_xyz
x,y,z
-x,-y,-z
loop_
_atom_site_type_symbol
_atom_site_label
_atom_site_fract_x
_atom_site_fract_y
_atom_site_fract_z
Si Si1 0.672387 0.099982 0.444966
Si Si2 0.936014 0.063648 0.127684
Si Si3 0.021815 0.332618 0.727698
Si Si4 0.233165 0.478695 0.912952
Si Si5 0.189127 0.331758 0.340827
Si Si6 0.696834 0.832033 0.282331
O O1 0.719497 0.290678 0.264014
O O2 0.742979 0.823351 0.616585
O O3 0.433493 0.260035 0.222844
O O4 0.825122 0.044419 0.654108
O O5 0.914157 0.957086 0.083154
O O6 0.853861 0.935890 0.256288
O O7 0.820282 0.379290 0.862057
O O8 0.173617 0.348234 0.877984
O O9 0.000000 0.500000 0.500000
O O10 0.802713 0.515726 0.532654
O O11 0.037247 0.607417 0.789320
O O12 0.330773 0.146954 0.630775
O O13 0.500000 0.000000 0.000000
#
# Coordination Sequence:
#
# PCOD9023229 Si02
#       6
#     2   2   2   2   2   2
#     4  11  22  41  65  93 127 166 208 255 308 377
#     4  11  23  42  64  92 127 162 208 257 309 371
#     4   9  18  40  61  86 124 157 204 260 298 365
#     4  10  22  39  67  91 121 171 207 250 321 358
#     4  11  24  42  64  92 131 162 206 262 307 369
#     4  10  23  40  63  96 121 165 209 252 320 363
#
# _framework density 23.601597999999999
#
# number of rings (size 3 to 8) (size 9 to 14) (size 15 to 20)
#    0.000    1.667    5.000    1.000    4.667    4.000 
#    3.000    0.000    0.000    0.000    0.000    0.000 
#    0.000    0.000    0.000    0.000    0.000    0.000 
#
# Total GULP energy -67115.642066 kJ/mol
# GULP energy per Si atom -5592.970172 kJ/mol
# Density = 2.354788 g / cm^3
# Si number density = 23.601598 Si / 1000 Ang^3
#
#
#
# Elastic Constant Matrix: (Units=GPa)
#
#
# Indices 1 2 3 4 5 6 
#
# 1 58.2617 22.8263 19.7050 -2.7649 -3.9747 -8.4325
# 2 22.8263 109.2559 53.0647 -14.9140 7.3774 -7.9077
# 3 19.7050 53.0647 115.8772 10.4327 1.3387 14.3897
# 4 -2.7649 -14.9140 10.4327 50.3970 3.1702 -0.0986
# 5 -3.9747 7.3774 1.3387 3.1702 32.0719 3.9707
# 6 -8.4325 -7.9077 14.3897 -0.0986 3.9707 22.4463
#
#
#
# Elastic Compliance Matrix: (Units=1/GPa)
#
#
# Indices 1 2 3 4 5 6 
#
# 1 0.020760 -0.001532 -0.004177 0.001458 0.001763 0.009631
# 2 -0.001532 0.016147 -0.009192 0.006979 -0.005701 0.012045
# 3 -0.004177 -0.009192 0.016052 -0.006525 0.003522 -0.015749
# 4 0.001458 0.006979 -0.006525 0.023637 -0.004490 0.008087
# 5 0.001763 -0.005701 0.003522 -0.004490 0.034204 -0.009674
# 6 0.009631 0.012045 -0.015749 0.008087 -0.009674 0.064256
#
#
# Mechanical properties :
#
#
# Convention : Reuss Voigt Hill
#
# Bulk Modulus (GPa) = 43.18100 52.73185 47.95643
# Shear Modulus (GPa) = 23.52104 33.50297 28.51200
#
# Velocity S-wave (km/s) = 3.16030 3.77174 3.47948
# Velocity P-wave (km/s) = 5.62603 6.43110 6.04199
#
# Compressibility (1/GPa) = 0.02315833
#
# Stress axis : x y z
#
# Youngs Moduli (GPa) = 48.16939 61.93163 62.29771
#
# Poissons Ratio (x) = 0.09486 0.26019
# Poissons Ratio (y) = 0.07378 0.57264
# Poissons Ratio (z) = 0.20118 0.56928
#
# Static dielectric constant tensor:
#      x y z
#    x 1.940010 0.024750 -0.066480 
#    y 0.024750 1.939400 0.006430 
#    z -0.066480 0.006430 1.955040 
# 
# From -- ./inp_files/145782.got.cif
#   From: 2010.05.17/outbox.cif.g08.bks.cpg/sg2_73_cif.got.tgz:145782.got - 2010.06.03 11:33:40.
