data_PCOD9023961
_publ_section_title
;
Structure prediction by ZEFSAII (Michael W. Deem and Ramdas Pophale) SiO2 
 PCOD9023961
Probable space group: P -1
;
_chemical_formula_sum "Si O2"
_cell_formula_units_Z 16
_cell_length_a 7.959586
_cell_length_b 17.749742
_cell_length_c 8.956551
_cell_angle_alpha 48.565065
_cell_angle_beta 96.993413
_cell_angle_gamma 127.783674
_cell_volume 658.232926
_symmetry_space_group_name_H-M "P -1"
_symmetry_group_IT_number 2
_symmetry_cell_setting 'triclinic'
loop_
_space_group_symop_operation_xyz
x,y,z
-x,-y,-z
loop_
_atom_site_type_symbol
_atom_site_label
_atom_site_fract_x
_atom_site_fract_y
_atom_site_fract_z
Si Si1 0.788097 0.143250 0.509606
Si Si2 0.723650 0.969079 0.473668
Si Si3 0.415253 0.715607 0.968439
Si Si4 0.416723 0.277620 0.712892
Si Si5 0.667734 0.549816 0.178503
Si Si6 0.460643 0.882075 0.005685
Si Si7 0.791933 0.531417 0.900648
Si Si8 0.031966 0.845796 0.015618
O O1 0.541441 0.098390 0.504661
O O2 0.998146 0.309527 0.349788
O O3 0.849703 0.099778 0.430813
O O4 0.707805 0.035189 0.773538
O O5 0.649936 0.839105 0.729397
O O6 0.870621 0.031075 0.255160
O O7 0.356596 0.792241 0.953799
O O8 0.468034 0.667478 0.179708
O O9 0.214585 0.583322 0.014937
O O10 0.531981 0.409528 0.448257
O O11 0.484904 0.191679 0.789989
O O12 0.134492 0.175847 0.847399
O O13 0.464861 0.534661 0.101514
O O14 0.789943 0.544510 0.060060
O O15 0.857665 0.693139 0.109144
O O16 0.733423 0.120181 0.958056
#
# Coordination Sequence:
#
# PCOD9023961 Si02
#       8
#     2   2   2   2   2   2   2   2
#     4   9  17  36  62  86 127 162 204 257 310 363
#     4   9  18  35  62  91 117 166 211 252 302 371
#     4   9  20  38  61  95 124 151 216 251 303 372
#     4  10  22  40  62  93 123 165 215 252 297 386
#     4  11  23  38  57  92 128 166 204 253 322 368
#     4   8  20  40  65  96 116 162 218 250 302 375
#     4  11  22  37  61  92 129 164 198 265 321 360
#     4  11  19  38  69  87 124 163 209 259 301 359
#
# _framework density 24.307506
#
# number of rings (size 3 to 8) (size 9 to 14) (size 15 to 20)
#    0.750    1.500    2.500    1.125    0.000    1.500 
#    4.500    0.625    0.000    1.500    0.000    0.000 
#    0.000    0.000    0.000    0.000    0.000    0.000 
#
# Total GULP energy -89418.805859 kJ/mol
# GULP energy per Si atom -5588.675366 kJ/mol
# Density = 2.425218 g / cm^3
# Si number density = 24.307506 Si / 1000 Ang^3
#
#
#
# Elastic Constant Matrix: (Units=GPa)
#
#
# Indices 1 2 3 4 5 6 
#
# 1 81.2235 12.0314 9.0889 7.0566 -9.8273 6.8316
# 2 12.0314 84.0192 18.9051 -13.4628 1.7533 -4.0676
# 3 9.0889 18.9051 118.8214 -4.2529 4.1138 -6.8982
# 4 7.0566 -13.4628 -4.2529 32.3126 8.7710 3.5063
# 5 -9.8273 1.7533 4.1138 8.7710 17.2900 -5.5187
# 6 6.8316 -4.0676 -6.8982 3.5063 -5.5187 24.3747
#
#
#
# Elastic Compliance Matrix: (Units=1/GPa)
#
#
# Indices 1 2 3 4 5 6 
#
# 1 0.015490 -0.003611 -0.001450 -0.008650 0.013572 -0.001037
# 2 -0.003611 0.014273 -0.001425 0.008575 -0.007491 0.000061
# 3 -0.001450 -0.001425 0.009019 0.001534 -0.003024 0.001816
# 4 -0.008650 0.008575 0.001534 0.046630 -0.032959 -0.009881
# 5 0.013572 -0.007491 -0.003024 -0.032959 0.089872 0.019179
# 6 -0.001037 0.000061 0.001816 -0.009881 0.019179 0.047605
#
#
# Mechanical properties :
#
#
# Convention : Reuss Voigt Hill
#
# Bulk Modulus (GPa) = 38.74592 40.45721 39.60156
# Shear Modulus (GPa) = 20.45306 31.06471 25.75888
#
# Velocity S-wave (km/s) = 2.90389 3.57877 3.25885
# Velocity P-wave (km/s) = 5.21708 5.81007 5.52154
#
# Compressibility (1/GPa) = 0.02580917
#
# Stress axis : x y z
#
# Youngs Moduli (GPa) = 64.55913 70.06234 110.88191
#
# Poissons Ratio (x) = 0.25301 0.16077
# Poissons Ratio (y) = 0.23314 0.15799
# Poissons Ratio (z) = 0.09361 0.09983
#
# Static dielectric constant tensor:
#      x y z
#    x 2.000330 0.001450 0.052600 
#    y 0.001450 1.950320 0.013330 
#    z 0.052600 0.013330 1.890140 
# 
# From -- ./inp_files/282898.got.cif
#   From: 2010.05.17/outbox.cif.g08.bks.cpg/sg2_142_cif.got.tgz:282898.got - 2010.06.03 11:33:40.
