data_PCOD9023030
_publ_section_title
;
Structure prediction by ZEFSAII (Michael W. Deem and Ramdas Pophale) SiO2 
 PCOD9023030
Probable space group: P -1
;
_chemical_formula_sum "Si O2"
_cell_formula_units_Z 16
_cell_length_a 20.428828
_cell_length_b 5.523275
_cell_length_c 8.065295
_cell_angle_alpha 80.556006
_cell_angle_beta 57.180315
_cell_angle_gamma 66.362924
_cell_volume 698.940883
_symmetry_space_group_name_H-M "P -1"
_symmetry_group_IT_number 2
_symmetry_cell_setting 'triclinic'
loop_
_space_group_symop_operation_xyz
x,y,z
-x,-y,-z
loop_
_atom_site_type_symbol
_atom_site_label
_atom_site_fract_x
_atom_site_fract_y
_atom_site_fract_z
Si Si1 0.242552 0.791037 0.318337
Si Si2 0.322326 0.037166 0.404841
Si Si3 0.825425 0.609399 0.247385
Si Si4 0.514210 0.209859 0.583229
Si Si5 0.637279 0.678940 0.974306
Si Si6 0.091303 0.986815 0.928548
Si Si7 0.796003 0.698653 0.913243
Si Si8 0.910586 0.182190 0.679138
O O1 0.330021 0.581417 0.153162
O O2 0.158002 0.746316 0.385228
O O3 0.267694 0.863492 0.454661
O O4 0.221005 0.056602 0.209367
O O5 0.250807 0.313760 0.527930
O O6 0.366420 0.089514 0.173742
O O7 0.391827 0.915870 0.460524
O O8 0.855818 0.302569 0.190048
O O9 0.890062 0.755630 0.188359
O O10 0.789574 0.758645 0.107822
O O11 0.500000 0.500000 0.500000
O O12 0.500000 0.000000 0.500000
O O13 0.446939 0.255891 0.817476
O O14 0.717734 0.612026 0.992564
O O15 0.099413 0.968116 0.121412
O O16 0.000000 0.000000 0.000000
O O17 0.885762 0.475250 0.761550
O O18 0.000000 0.000000 0.500000
#
# Coordination Sequence:
#
# PCOD9023030 Si02
#       8
#     2   2   2   2   2   2   2   2
#     4  10  22  42  68  97 136 184 234 290 360 407
#     4  11  27  43  74 104 142 187 235 299 353 428
#     4  11  24  43  69  96 140 182 239 281 361 418
#     4  12  30  49  76 110 145 190 234 292 359 429
#     4  10  24  45  72 102 144 179 240 288 355 421
#     4  11  25  43  65  99 140 185 235 300 348 416
#     4   9  20  42  65  98 129 188 228 295 344 424
#     4  10  22  39  65  97 138 185 240 296 355 422
#
# _framework density 22.891777999999999
#
# number of rings (size 3 to 8) (size 9 to 14) (size 15 to 20)
#    0.000    1.500    1.250    1.500   10.500    3.000 
#    0.000    0.000    0.000    0.000    0.000    0.000 
#    0.000    0.000    0.000    0.000    0.000    0.000 
#
# Total GULP energy -89196.163999 kJ/mol
# GULP energy per Si atom -5574.760250 kJ/mol
# Density = 2.283968 g / cm^3
# Si number density = 22.891778 Si / 1000 Ang^3
#
#
#
# Elastic Constant Matrix: (Units=GPa)
#
#
# Indices 1 2 3 4 5 6 
#
# 1 133.0050 28.3858 41.2472 7.0238 7.8176 -10.8774
# 2 28.3858 82.6239 42.6610 -1.6111 -12.5849 3.3634
# 3 41.2472 42.6610 126.3914 13.6446 -16.4518 7.6437
# 4 7.0238 -1.6111 13.6446 40.6765 0.9750 -2.9255
# 5 7.8176 -12.5849 -16.4518 0.9750 19.8501 5.3200
# 6 -10.8774 3.3634 7.6437 -2.9255 5.3200 35.2084
#
#
#
# Elastic Compliance Matrix: (Units=1/GPa)
#
#
# Indices 1 2 3 4 5 6 
#
# 1 0.010806 -0.003562 -0.004260 0.000164 -0.011767 0.006395
# 2 -0.003562 0.016670 -0.003129 0.001836 0.010200 -0.003402
# 3 -0.004260 -0.003129 0.012769 -0.004392 0.012096 -0.005982
# 4 0.000164 0.001836 -0.004392 0.026489 -0.004850 0.003763
# 5 -0.011767 0.010200 0.012096 -0.004850 0.076903 -0.019259
# 6 0.006395 -0.003402 -0.005982 0.003763 -0.019259 0.035224
#
#
# Mechanical properties :
#
#
# Convention : Reuss Voigt Hill
#
# Bulk Modulus (GPa) = 54.51920 62.95648 58.73784
# Shear Modulus (GPa) = 24.16890 34.46211 29.31550
#
# Velocity S-wave (km/s) = 3.25282 3.88420 3.58245
# Velocity P-wave (km/s) = 6.16243 6.90489 6.54420
#
# Compressibility (1/GPa) = 0.01834216
#
# Stress axis : x y z
#
# Youngs Moduli (GPa) = 92.54212 59.98680 78.31684
#
# Poissons Ratio (x) = 0.21368 0.33365
# Poissons Ratio (y) = 0.32965 0.24505
# Poissons Ratio (z) = 0.39425 0.18770
#
# Static dielectric constant tensor:
#      x y z
#    x 1.934450 0.078280 0.019700 
#    y 0.078280 1.949350 -0.027980 
#    z 0.019700 -0.027980 1.907300 
# 
# From -- ./inp_files/340309.got.cif
#   From: 2010.05.17/outbox.cif.g08.bks.cpg/sg2_171_cif.got.tgz:340309.got - 2010.06.03 11:33:40.
