data_PCOD9023053
_publ_section_title
;
Structure prediction by ZEFSAII (Michael W. Deem and Ramdas Pophale) SiO2 
 PCOD9023053
Probable space group: P -1
;
_chemical_formula_sum "Si O2"
_cell_formula_units_Z 14
_cell_length_a 12.256001
_cell_length_b 19.752801
_cell_length_c 9.000690
_cell_angle_alpha 130.746418
_cell_angle_beta 63.675960
_cell_angle_gamma 153.580321
_cell_volume 667.076418
_symmetry_space_group_name_H-M "P -1"
_symmetry_group_IT_number 2
_symmetry_cell_setting 'triclinic'
loop_
_space_group_symop_operation_xyz
x,y,z
-x,-y,-z
loop_
_atom_site_type_symbol
_atom_site_label
_atom_site_fract_x
_atom_site_fract_y
_atom_site_fract_z
Si Si1 0.029507 0.521734 0.693746
Si Si2 0.651599 0.709837 0.375375
Si Si3 0.078292 0.036096 0.834951
Si Si4 0.475758 0.211567 0.645573
Si Si5 0.594049 0.975865 0.000825
Si Si6 0.650022 0.134278 0.458001
Si Si7 0.851459 0.731325 0.018400
O O1 0.000000 0.500000 0.500000
O O2 0.800965 0.441612 0.775847
O O3 0.939644 0.373696 0.623684
O O4 0.336656 0.746033 0.853982
O O5 0.651685 0.803410 0.417492
O O6 0.786839 0.718969 0.208382
O O7 0.343565 0.473032 0.222416
O O8 0.818615 0.836759 0.606115
O O9 0.317662 0.125159 0.770369
O O10 0.190556 0.204879 0.954185
O O11 0.000000 0.000000 0.000000
O O12 0.475032 0.104818 0.459371
O O13 0.683801 0.074154 0.243329
O O14 0.841224 0.092882 0.938158
O O15 0.500000 0.000000 0.000000
O O16 0.500000 0.000000 0.500000
#
# Coordination Sequence:
#
# PCOD9023053 Si02
#       7
#     2   2   2   2   2   2   2
#     4  10  22  39  65  99 132 172 224 267 329 390
#     4  10  22  43  68  95 129 172 227 284 325 394
#     4  11  25  42  67  94 131 177 219 283 340 393
#     4   9  21  44  64  92 136 168 221 278 326 392
#     4  12  23  38  69 100 128 176 226 269 328 409
#     4  10  25  42  62  97 141 177 212 275 342 395
#     4  10  24  40  68  99 126 174 227 270 336 390
#
# _framework density 20.987102
#
# number of rings (size 3 to 8) (size 9 to 14) (size 15 to 20)
#    0.857    0.857    1.429    2.571   10.000    1.143 
#    0.000    1.429    0.000    0.000    0.000    0.000 
#    0.000    0.000    0.000    0.000    0.000    0.000 
#
# Total GULP energy -78010.670870 kJ/mol
# GULP energy per Si atom -5572.190776 kJ/mol
# Density = 2.093933 g / cm^3
# Si number density = 20.987102 Si / 1000 Ang^3
#
#
#
# Elastic Constant Matrix: (Units=GPa)
#
#
# Indices 1 2 3 4 5 6 
#
# 1 43.6823 28.1762 19.7036 5.8054 -11.6230 1.4848
# 2 28.1762 161.2948 62.5008 12.6415 0.8449 8.2883
# 3 19.7036 62.5008 99.9905 8.3412 -7.6163 -7.1169
# 4 5.8054 12.6415 8.3412 41.7949 -7.1761 -8.3985
# 5 -11.6230 0.8449 -7.6163 -7.1761 17.2403 2.5606
# 6 1.4848 8.2883 -7.1169 -8.3985 2.5606 46.8462
#
#
#
# Elastic Compliance Matrix: (Units=1/GPa)
#
#
# Indices 1 2 3 4 5 6 
#
# 1 0.032859 -0.005186 -0.001716 0.000873 0.022226 -0.001443
# 2 -0.005186 0.009615 -0.005477 -0.002829 -0.007196 -0.002483
# 3 -0.001716 -0.005477 0.014330 0.000536 0.005218 0.003011
# 4 0.000873 -0.002829 0.000536 0.027539 0.011706 0.004852
# 5 0.022226 -0.007196 0.005218 0.011706 0.080659 -0.000949
# 6 -0.001443 -0.002483 0.003011 0.004852 -0.000949 0.023211
#
#
# Mechanical properties :
#
#
# Convention : Reuss Voigt Hill
#
# Bulk Modulus (GPa) = 31.20546 58.41431 44.80988
# Shear Modulus (GPa) = 22.35623 34.14874 28.25249
#
# Velocity S-wave (km/s) = 3.26734 4.03815 3.67302
# Velocity P-wave (km/s) = 5.39770 7.04528 6.27579
#
# Compressibility (1/GPa) = 0.03204568
#
# Stress axis : x y z
#
# Youngs Moduli (GPa) = 30.43349 104.00401 69.78546
#
# Poissons Ratio (x) = 0.53934 0.11976
# Poissons Ratio (y) = 0.15782 0.38221
# Poissons Ratio (z) = 0.05223 0.56963
#
# Static dielectric constant tensor:
#      x y z
#    x 1.773230 0.025090 -0.006360 
#    y 0.025090 1.790460 -0.002720 
#    z -0.006360 -0.002720 1.799550 
# 
# From -- ./inp_files/282261.got.cif
#   From: 2010.05.17/outbox.cif.g08.bks.cpg/sg2_142_cif.got.tgz:282261.got - 2010.06.03 11:33:40.
