data_PCOD9023714
_publ_section_title
;
Structure prediction by ZEFSAII (Michael W. Deem and Ramdas Pophale) SiO2 
 PCOD9023714
Probable space group: P -1
;
_chemical_formula_sum "Si O2"
_cell_formula_units_Z 14
_cell_length_a 9.147752
_cell_length_b 15.066925
_cell_length_c 14.870121
_cell_angle_alpha 29.139846
_cell_angle_beta 110.032954
_cell_angle_gamma 130.641902
_cell_volume 598.575479
_symmetry_space_group_name_H-M "P -1"
_symmetry_group_IT_number 2
_symmetry_cell_setting 'triclinic'
loop_
_space_group_symop_operation_xyz
x,y,z
-x,-y,-z
loop_
_atom_site_type_symbol
_atom_site_label
_atom_site_fract_x
_atom_site_fract_y
_atom_site_fract_z
Si Si1 0.680980 0.218252 0.548728
Si Si2 0.651054 0.988555 0.917385
Si Si3 0.826481 0.360684 0.791565
Si Si4 0.747629 0.717521 0.945097
Si Si5 0.526751 0.194747 0.265194
Si Si6 0.530619 0.489011 0.286902
Si Si7 0.253755 0.302090 0.565314
O O1 0.771297 0.196658 0.675129
O O2 0.629963 0.377977 0.422552
O O3 0.886249 0.404433 0.349382
O O4 0.459653 0.900557 0.742299
O O5 0.744166 0.133061 0.905665
O O6 0.365771 0.798252 0.027320
O O7 0.676803 0.797283 0.079192
O O8 0.793651 0.526632 0.590911
O O9 0.691097 0.851747 0.758309
O O10 0.729013 0.519945 0.055326
O O11 0.537449 0.514228 0.157913
O O12 0.005384 0.970641 0.826402
O O13 0.500000 0.000000 0.500000
O O14 0.298860 0.295566 0.474854
O O15 0.500000 0.500000 0.500000
#
# Coordination Sequence:
#
# PCOD9023714 Si02
#       7
#     2   2   2   2   2   2   2
#     4  12  22  41  68  94 131 175 226 280 329 399
#     4  10  22  40  60  96 134 173 220 276 334 401
#     4  10  22  41  64  93 139 179 218 274 336 399
#     4  11  24  46  72  96 136 182 219 287 337 390
#     4  11  23  46  73  96 130 179 236 278 338 394
#     4  11  24  40  68 101 135 174 234 269 336 407
#     4  11  24  44  68 106 142 177 221 274 338 414
#
# _framework density 23.388862
#
# number of rings (size 3 to 8) (size 9 to 14) (size 15 to 20)
#    0.000    1.143    4.286    1.286    0.000    6.857 
#    0.000    5.000    0.000    0.000    0.000    0.000 
#    0.000    0.000    0.000    0.000    0.000    0.000 
#
# Total GULP energy -78030.082658 kJ/mol
# GULP energy per Si atom -5573.577333 kJ/mol
# Density = 2.333563 g / cm^3
# Si number density = 23.388862 Si / 1000 Ang^3
#
#
#
# Elastic Constant Matrix: (Units=GPa)
#
#
# Indices 1 2 3 4 5 6 
#
# 1 120.2016 29.1030 51.4413 -7.9434 25.9581 -18.2177
# 2 29.1030 86.4105 34.6518 -10.7051 7.2135 -12.2535
# 3 51.4413 34.6518 91.5170 -1.7109 23.3622 -7.8174
# 4 -7.9434 -10.7051 -1.7109 36.3293 -9.9951 8.0769
# 5 25.9581 7.2135 23.3622 -9.9951 60.7288 0.4940
# 6 -18.2177 -12.2535 -7.8174 8.0769 0.4940 33.2219
#
#
#
# Elastic Compliance Matrix: (Units=1/GPa)
#
#
# Indices 1 2 3 4 5 6 
#
# 1 0.012287 -0.001013 -0.005286 0.000141 -0.003117 0.005132
# 2 -0.001013 0.014646 -0.004969 0.003560 0.001168 0.002794
# 3 -0.005286 -0.004969 0.016767 -0.002953 -0.004086 -0.000008
# 4 0.000141 0.003560 -0.002953 0.031674 0.005924 -0.007093
# 5 -0.003117 0.001168 -0.004086 0.005924 0.020240 -0.003981
# 6 0.005132 0.002794 -0.000008 -0.007093 -0.003981 0.035728
#
#
# Mechanical properties :
#
#
# Convention : Reuss Voigt Hill
#
# Bulk Modulus (GPa) = 47.25082 58.72460 52.98771
# Shear Modulus (GPa) = 31.06878 38.25152 34.66015
#
# Velocity S-wave (km/s) = 3.64862 4.04847 3.85373
# Velocity P-wave (km/s) = 6.16409 6.85681 6.51966
#
# Compressibility (1/GPa) = 0.02116365
#
# Stress axis : x y z
#
# Youngs Moduli (GPa) = 81.38549 68.27611 59.64019
#
# Poissons Ratio (x) = 0.06917 0.31528
# Poissons Ratio (y) = 0.08245 0.29637
# Poissons Ratio (z) = 0.43023 0.33928
#
# Static dielectric constant tensor:
#      x y z
#    x 1.871200 0.023190 -0.036120 
#    y 0.023190 1.924430 -0.026000 
#    z -0.036120 -0.026000 1.948720 
# 
# From -- ./inp_files/505110.got.cif
#   From: 2010.05.17/outbox.cif.g08.bks.cpg/sg2_253_cif.got.tgz:505110.got - 2010.06.03 11:33:40.
