data_PCOD9023787
_publ_section_title
;
Structure prediction by ZEFSAII (Michael W. Deem and Ramdas Pophale) SiO2 
 PCOD9023787
Probable space group: P -1
;
_chemical_formula_sum "Si O2"
_cell_formula_units_Z 14
_cell_length_a 12.848879
_cell_length_b 9.707887
_cell_length_c 11.083760
_cell_angle_alpha 118.372444
_cell_angle_beta 126.228043
_cell_angle_gamma 36.482678
_cell_volume 663.107119
_symmetry_space_group_name_H-M "P -1"
_symmetry_group_IT_number 2
_symmetry_cell_setting 'triclinic'
loop_
_space_group_symop_operation_xyz
x,y,z
-x,-y,-z
loop_
_atom_site_type_symbol
_atom_site_label
_atom_site_fract_x
_atom_site_fract_y
_atom_site_fract_z
Si Si1 0.353067 0.137592 0.845449
Si Si2 0.064224 0.966149 0.891743
Si Si3 0.042780 0.476232 0.163796
Si Si4 0.605392 0.458889 0.177322
Si Si5 0.213896 0.657632 0.337984
Si Si6 0.637396 0.052491 0.827813
Si Si7 0.372499 0.763137 0.663386
O O1 0.469145 0.124413 0.818335
O O2 0.155027 0.392682 0.854187
O O3 0.308508 0.998812 0.722865
O O4 0.500000 0.000000 0.000000
O O5 0.177022 0.725582 0.799825
O O6 0.216645 0.972145 0.003762
O O7 0.888557 0.175666 0.778086
O O8 0.000000 0.000000 0.000000
O O9 0.100084 0.605145 0.276671
O O10 0.217654 0.213832 0.222358
O O11 0.000000 0.500000 0.000000
O O12 0.480991 0.720777 0.243172
O O13 0.599155 0.335531 0.225881
O O14 0.500000 0.500000 0.000000
O O15 0.232990 0.770713 0.500911
O O16 0.425578 0.418471 0.343161
#
# Coordination Sequence:
#
# PCOD9023787 Si02
#       7
#     2   2   2   2   2   2   2
#     4  12  22  38  67  93 131 168 222 275 323 386
#     4  11  23  39  68  97 131 174 221 269 326 395
#     4  12  22  38  66  96 128 171 221 272 325 385
#     4  10  22  40  61  92 133 168 216 270 324 386
#     4  11  22  42  68  97 134 172 226 266 326 399
#     4  11  23  40  62  96 130 164 218 269 328 377
#     4  11  24  42  67  97 133 178 216 277 326 386
#
# _framework density 21.112729000000002
#
# number of rings (size 3 to 8) (size 9 to 14) (size 15 to 20)
#    0.000    0.857    4.286    4.286    2.000    2.286 
#    0.000    0.714    3.143    1.714    0.000    0.000 
#    0.000    0.000    0.000    0.000    0.000    0.000 
#
# Total GULP energy -78159.114251 kJ/mol
# GULP energy per Si atom -5582.793875 kJ/mol
# Density = 2.106468 g / cm^3
# Si number density = 21.112729 Si / 1000 Ang^3
#
#
#
# Elastic Constant Matrix: (Units=GPa)
#
#
# Indices 1 2 3 4 5 6 
#
# 1 104.8354 32.9591 19.7847 1.9424 10.9097 -12.7377
# 2 32.9591 100.8133 -4.6214 0.7262 9.5763 -19.2437
# 3 19.7847 -4.6214 69.6667 11.8282 18.0074 6.6841
# 4 1.9424 0.7262 11.8282 19.1384 0.6698 0.9161
# 5 10.9097 9.5763 18.0074 0.6698 23.7755 -3.9960
# 6 -12.7377 -19.2437 6.6841 0.9161 -3.9960 40.4695
#
#
#
# Elastic Compliance Matrix: (Units=1/GPa)
#
#
# Indices 1 2 3 4 5 6 
#
# 1 0.011710 -0.003456 -0.003833 0.001212 -0.000679 0.002581
# 2 -0.003456 0.012421 0.003086 -0.002036 -0.005049 0.003856
# 3 -0.003833 0.003086 0.022758 -0.012958 -0.017180 -0.004901
# 4 0.001212 -0.002036 -0.012958 0.059864 0.008567 0.001044
# 5 -0.000679 -0.005049 -0.017180 0.008567 0.058146 0.005770
# 6 0.002581 0.003856 -0.004901 0.001044 0.005770 0.028712
#
#
# Mechanical properties :
#
#
# Convention : Reuss Voigt Hill
#
# Bulk Modulus (GPa) = 25.98443 41.28448 33.63445
# Shear Modulus (GPa) = 23.27278 31.82288 27.54783
#
# Velocity S-wave (km/s) = 3.32371 3.88659 3.61612
# Velocity P-wave (km/s) = 5.20227 6.30377 5.77932
#
# Compressibility (1/GPa) = 0.03848458
#
# Stress axis : x y z
#
# Youngs Moduli (GPa) = 85.39465 80.50877 43.94063
#
# Poissons Ratio (x) = 0.27822 0.16841
# Poissons Ratio (y) = 0.29510 -0.13560
# Poissons Ratio (z) = 0.32729 -0.24846
#
# Static dielectric constant tensor:
#      x y z
#    x 1.759150 -0.023130 0.004560 
#    y -0.023130 1.903640 0.062140 
#    z 0.004560 0.062140 1.769370 
# 
# From -- ./inp_files/255653.got.cif
#   From: 2010.05.17/outbox.cif.g08.bks.cpg/sg2_128_cif.got.tgz:255653.got - 2010.06.03 11:33:40.
