data_PCOD9023378
_publ_section_title
;
Structure prediction by ZEFSAII (Michael W. Deem and Ramdas Pophale) SiO2 
 PCOD9023378
Probable space group: P -1
;
_chemical_formula_sum "Si O2"
_cell_formula_units_Z 16
_cell_length_a 20.669954
_cell_length_b 12.054847
_cell_length_c 19.520159
_cell_angle_alpha 29.573016
_cell_angle_beta 151.900917
_cell_angle_gamma 160.672836
_cell_volume 736.162169
_symmetry_space_group_name_H-M "P -1"
_symmetry_group_IT_number 2
_symmetry_cell_setting 'triclinic'
loop_
_space_group_symop_operation_xyz
x,y,z
-x,-y,-z
loop_
_atom_site_type_symbol
_atom_site_label
_atom_site_fract_x
_atom_site_fract_y
_atom_site_fract_z
Si Si1 0.392992 0.626064 0.121341
Si Si2 0.328732 0.748270 0.417871
Si Si3 0.004243 0.420831 0.860875
Si Si4 0.143366 0.188005 0.752069
Si Si5 0.331473 0.328937 0.372417
Si Si6 0.214332 0.825738 0.066823
Si Si7 0.250136 0.199229 0.694488
Si Si8 0.408948 0.921536 0.652534
O O1 0.406689 0.559376 0.250215
O O2 0.507934 0.583580 0.204986
O O3 0.152281 0.390619 0.008203
O O4 0.500000 0.000000 0.000000
O O5 0.230895 0.376916 0.527074
O O6 0.147884 0.710477 0.273113
O O7 0.500000 0.000000 0.500000
O O8 0.449987 0.921380 0.367559
O O9 0.869965 0.225377 0.909008
O O10 0.126331 0.811411 0.777113
O O11 0.178828 0.230446 0.680969
O O12 0.236599 0.513563 0.704940
O O13 0.894187 0.856732 0.713412
O O14 0.280399 0.142595 0.926156
O O15 0.500000 0.500000 0.500000
O O16 0.299673 0.026424 0.488403
O O17 0.414760 0.907065 0.215229
O O18 0.000000 0.500000 0.000000
#
# Coordination Sequence:
#
# PCOD9023378 Si02
#       8
#     2   2   2   2   2   2   2   2
#     4  10  23  44  66 101 138 169 224 288 338 394
#     4  11  22  41  66  95 135 174 225 272 341 409
#     4  10  22  39  68  94 129 175 224 280 331 395
#     4  12  24  42  68  98 138 177 223 280 347 405
#     4  12  26  44  72 103 135 179 230 286 338 408
#     4  11  21  40  68  99 130 172 230 279 331 400
#     4  11  22  40  70  96 129 174 225 279 333 404
#     4  11  25  42  66  98 136 180 220 282 344 405
#
# _framework density 21.734341000000001
#
# number of rings (size 3 to 8) (size 9 to 14) (size 15 to 20)
#    0.000    1.000    5.000    1.875    1.750    2.000 
#    0.000    0.625    2.750    0.000    0.000    0.000 
#    0.000    0.000    0.000    0.000    0.000    0.000 
#
# Total GULP energy -89144.704350 kJ/mol
# GULP energy per Si atom -5571.544022 kJ/mol
# Density = 2.168487 g / cm^3
# Si number density = 21.734341 Si / 1000 Ang^3
#
#
#
# Elastic Constant Matrix: (Units=GPa)
#
#
# Indices 1 2 3 4 5 6 
#
# 1 56.0827 11.5537 15.1655 19.5312 12.5179 14.6534
# 2 11.5537 50.4260 21.9435 -0.1440 -14.7925 -5.1351
# 3 15.1655 21.9435 130.0225 16.5740 8.0461 2.9955
# 4 19.5312 -0.1440 16.5740 37.0176 5.6783 3.2532
# 5 12.5179 -14.7925 8.0461 5.6783 31.2814 2.6575
# 6 14.6534 -5.1351 2.9955 3.2532 2.6575 29.0187
#
#
#
# Elastic Compliance Matrix: (Units=1/GPa)
#
#
# Indices 1 2 3 4 5 6 
#
# 1 0.033815 -0.015420 0.001982 -0.014668 -0.017245 -0.016785
# 2 -0.015420 0.033633 -0.006341 0.006785 0.021483 0.011665
# 3 0.001982 -0.006341 0.009454 -0.004309 -0.005260 -0.002134
# 4 -0.014668 0.006785 -0.004309 0.035788 0.003288 0.004739
# 5 -0.017245 0.021483 -0.005260 0.003288 0.049088 0.008189
# 6 -0.016785 0.011665 -0.002134 0.004739 0.008189 0.043939
#
#
# Mechanical properties :
#
#
# Convention : Reuss Voigt Hill
#
# Bulk Modulus (GPa) = 26.77832 37.09517 31.93675
# Shear Modulus (GPa) = 19.40072 31.98812 25.69442
#
# Velocity S-wave (km/s) = 2.99093 3.84054 3.44205
# Velocity P-wave (km/s) = 4.92697 6.06390 5.52476
#
# Compressibility (1/GPa) = 0.03734364
#
# Stress axis : x y z
#
# Youngs Moduli (GPa) = 29.57306 29.73299 105.77776
#
# Poissons Ratio (x) = 0.45848 -0.20965
# Poissons Ratio (y) = 0.45602 0.67069
# Poissons Ratio (z) = -0.05861 0.18852
#
# Static dielectric constant tensor:
#      x y z
#    x 1.806150 -0.046500 -0.009210 
#    y -0.046500 1.860560 0.032040 
#    z -0.009210 0.032040 1.891680 
# 
# From -- ./inp_files/447499.got.cif
#   From: 2010.05.17/outbox.cif.g08.bks.cpg/sg2_224_cif.got.tgz:447499.got - 2010.06.03 11:33:40.
