data_PCOD9023410
_publ_section_title
;
Structure prediction by ZEFSAII (Michael W. Deem and Ramdas Pophale) SiO2 
 PCOD9023410
Probable space group: P -1
;
_chemical_formula_sum "Si O2"
_cell_formula_units_Z 16
_cell_length_a 13.250159
_cell_length_b 8.951056
_cell_length_c 11.082379
_cell_angle_alpha 105.210219
_cell_angle_beta 31.618829
_cell_angle_gamma 108.780191
_cell_volume 652.225196
_symmetry_space_group_name_H-M "P -1"
_symmetry_group_IT_number 2
_symmetry_cell_setting 'triclinic'
loop_
_space_group_symop_operation_xyz
x,y,z
-x,-y,-z
loop_
_atom_site_type_symbol
_atom_site_label
_atom_site_fract_x
_atom_site_fract_y
_atom_site_fract_z
Si Si1 0.158972 0.877807 0.576534
Si Si2 0.232665 0.993373 0.023306
Si Si3 0.519624 0.249633 0.681922
Si Si4 0.270668 0.672324 0.821419
Si Si5 0.843937 0.592824 0.288704
Si Si6 0.680349 0.145621 0.852904
Si Si7 0.519405 0.604645 0.771558
Si Si8 0.199287 0.122582 0.774821
O O1 0.247377 0.750790 0.538844
O O2 0.200163 0.848610 0.389774
O O3 0.265967 0.034866 0.571878
O O4 0.937399 0.909187 0.809246
O O5 0.200668 0.896334 0.159786
O O6 0.256470 0.855952 0.873695
O O7 0.428504 0.124533 0.852056
O O8 0.471671 0.418208 0.798423
O O9 0.381511 0.174332 0.692917
O O10 0.279260 0.574381 0.669732
O O11 0.442385 0.647460 0.728238
O O12 0.069365 0.584123 0.070511
O O13 0.752263 0.645293 0.515862
O O14 0.847399 0.718048 0.202159
O O15 0.584703 0.297843 0.009346
O O16 0.500000 0.000000 0.000000
O O17 0.000000 0.000000 0.000000
#
# Coordination Sequence:
#
# PCOD9023410 Si02
#       8
#     2   2   2   2   2   2   2   2
#     4  12  25  45  71 104 138 189 232 284 354 410
#     4  11  24  45  72 103 141 181 243 288 345 414
#     4  12  26  44  69 105 147 182 228 292 358 416
#     4  10  22  39  68  98 137 182 232 284 343 417
#     4  11  22  41  68 101 144 180 233 285 352 414
#     4  11  24  48  77  98 135 189 245 287 338 422
#     4  11  26  44  70 104 140 184 234 289 351 408
#     4  12  24  44  71 103 146 182 225 289 354 420
#
# _framework density 24.531403999999998
#
# number of rings (size 3 to 8) (size 9 to 14) (size 15 to 20)
#    0.000    0.750    5.000    1.875    1.750    4.500 
#    0.000    0.625    0.000    0.000    0.000    0.000 
#    0.000    0.000    0.000    0.000    0.000    0.000 
#
# Total GULP energy -89322.687945 kJ/mol
# GULP energy per Si atom -5582.667997 kJ/mol
# Density = 2.447557 g / cm^3
# Si number density = 24.531404 Si / 1000 Ang^3
#
#
#
# Elastic Constant Matrix: (Units=GPa)
#
#
# Indices 1 2 3 4 5 6 
#
# 1 76.6421 22.9888 25.9192 10.6200 -0.0045 -11.3214
# 2 22.9888 153.2462 43.9007 26.4994 0.8177 -9.6886
# 3 25.9192 43.9007 126.2507 30.5713 -2.1545 -1.5436
# 4 10.6200 26.4994 30.5713 41.5041 2.1795 -3.8153
# 5 -0.0045 0.8177 -2.1545 2.1795 44.4809 2.7513
# 6 -11.3214 -9.6886 -1.5436 -3.8153 2.7513 31.1977
#
#
#
# Elastic Compliance Matrix: (Units=1/GPa)
#
#
# Indices 1 2 3 4 5 6 
#
# 1 0.015051 -0.001092 -0.002442 -0.000883 -0.000358 0.004925
# 2 -0.001092 0.007848 -0.001679 -0.003343 -0.000159 0.001563
# 3 -0.002442 -0.001679 0.010517 -0.006259 0.000954 -0.001737
# 4 -0.000883 -0.003343 -0.006259 0.031381 -0.001924 0.002339
# 5 -0.000358 -0.000159 0.000954 -0.001924 0.022772 -0.002376
# 6 0.004925 0.001563 -0.001737 0.002339 -0.002376 0.034736
#
#
# Mechanical properties :
#
#
# Convention : Reuss Voigt Hill
#
# Bulk Modulus (GPa) = 43.49864 60.19513 51.84689
# Shear Modulus (GPa) = 35.61407 40.99190 38.30298
#
# Velocity S-wave (km/s) = 3.81435 4.09222 3.95572
# Velocity P-wave (km/s) = 6.09667 6.84979 6.48417
#
# Compressibility (1/GPa) = 0.02298922
#
# Stress axis : x y z
#
# Youngs Moduli (GPa) = 66.44020 127.42248 95.08729
#
# Poissons Ratio (x) = 0.13917 0.23222
# Poissons Ratio (y) = 0.07256 0.15964
# Poissons Ratio (z) = 0.16226 0.21393
#
# Static dielectric constant tensor:
#      x y z
#    x 2.028990 -0.019870 -0.019620 
#    y -0.019870 1.991620 -0.018500 
#    z -0.019620 -0.018500 2.020460 
# 
# From -- ./inp_files/447748.got.cif
#   From: 2010.05.17/outbox.cif.g08.bks.cpg/sg2_224_cif.got.tgz:447748.got - 2010.06.03 11:33:40.
