data_PCOD9023415
_publ_section_title
;
Structure prediction by ZEFSAII (Michael W. Deem and Ramdas Pophale) SiO2 
 PCOD9023415
Probable space group: P -1
;
_chemical_formula_sum "Si O2"
_cell_formula_units_Z 16
_cell_length_a 9.477013
_cell_length_b 9.214697
_cell_length_c 11.668168
_cell_angle_alpha 96.781259
_cell_angle_beta 63.519295
_cell_angle_gamma 131.005417
_cell_volume 664.917109
_symmetry_space_group_name_H-M "P -1"
_symmetry_group_IT_number 2
_symmetry_cell_setting 'triclinic'
loop_
_space_group_symop_operation_xyz
x,y,z
-x,-y,-z
loop_
_atom_site_type_symbol
_atom_site_label
_atom_site_fract_x
_atom_site_fract_y
_atom_site_fract_z
Si Si1 0.993709 0.906936 0.764816
Si Si2 0.582109 0.164561 0.338019
Si Si3 0.090972 0.319927 0.454453
Si Si4 0.328682 0.805698 0.962713
Si Si5 0.150815 0.951172 0.939273
Si Si6 0.459979 0.301925 0.000607
Si Si7 0.288666 0.722187 0.457122
Si Si8 0.311372 0.262126 0.539029
O O1 0.948141 0.781678 0.659745
O O2 0.769980 0.850894 0.863544
O O3 0.075139 0.853974 0.832429
O O4 0.191490 0.138693 0.686373
O O5 0.620405 0.191273 0.190412
O O6 0.750543 0.304807 0.393043
O O7 0.403812 0.176218 0.435027
O O8 0.495436 0.949097 0.380041
O O9 0.290155 0.557038 0.401626
O O10 0.128910 0.223707 0.526389
O O11 0.892706 0.302291 0.546666
O O12 0.136328 0.802962 0.016183
O O13 0.344530 0.658603 0.004886
O O14 0.500000 0.000000 0.000000
O O15 0.386565 0.169168 0.899650
O O16 0.000000 0.000000 0.000000
O O17 0.500000 0.500000 0.000000
O O18 0.500000 0.500000 0.500000
#
# Coordination Sequence:
#
# PCOD9023415 Si02
#       8
#     2   2   2   2   2   2   2   2
#     4  11  23  41  68  92 137 184 222 295 351 415
#     4  11  22  42  65  98 141 181 230 285 348 419
#     4  11  22  39  59  96 133 176 227 271 346 417
#     4  10  22  39  68  99 128 181 234 284 346 414
#     4   9  21  43  67  94 131 179 232 288 351 408
#     4  10  23  44  68  99 132 179 240 293 348 410
#     4  10  23  38  62  95 140 177 222 284 341 413
#     4  12  25  41  64  99 137 185 233 279 352 422
#
# _framework density 24.063151000000001
#
# number of rings (size 3 to 8) (size 9 to 14) (size 15 to 20)
#    0.000    1.500    2.500    1.875    3.500    4.000 
#    0.000    2.500    0.000    0.000    0.000    0.000 
#    0.000    0.000    0.000    0.000    0.000    0.000 
#
# Total GULP energy -89159.628604 kJ/mol
# GULP energy per Si atom -5572.476788 kJ/mol
# Density = 2.400838 g / cm^3
# Si number density = 24.063151 Si / 1000 Ang^3
#
#
#
# Elastic Constant Matrix: (Units=GPa)
#
#
# Indices 1 2 3 4 5 6 
#
# 1 184.9567 10.4624 16.7027 -6.2132 35.8423 -21.4677
# 2 10.4624 104.6482 16.7353 -1.3793 9.4680 -7.3073
# 3 16.7027 16.7353 46.0986 5.0594 10.4529 5.3044
# 4 -6.2132 -1.3793 5.0594 20.1150 7.9368 5.7026
# 5 35.8423 9.4680 10.4529 7.9368 51.8542 5.2465
# 6 -21.4677 -7.3073 5.3044 5.7026 5.2465 39.1728
#
#
#
# Elastic Compliance Matrix: (Units=1/GPa)
#
#
# Indices 1 2 3 4 5 6 
#
# 1 0.007404 0.000572 -0.002551 0.003913 -0.005784 0.004715
# 2 0.000572 0.010568 -0.004113 0.001953 -0.002082 0.002836
# 3 -0.002551 -0.004113 0.025560 -0.005674 -0.001302 -0.004626
# 4 0.003913 0.001953 -0.005674 0.057628 -0.010362 -0.003724
# 5 -0.005784 -0.002082 -0.001302 -0.010362 0.026054 -0.005363
# 6 0.004715 0.002836 -0.004626 -0.003724 -0.005363 0.030528
#
#
# Mechanical properties :
#
#
# Convention : Reuss Voigt Hill
#
# Bulk Modulus (GPa) = 31.89822 47.05605 39.47713
# Shear Modulus (GPa) = 27.71995 41.68196 34.70095
#
# Velocity S-wave (km/s) = 3.39775 4.16647 3.80159
# Velocity P-wave (km/s) = 5.35516 6.53787 5.97584
#
# Compressibility (1/GPa) = 0.03134971
#
# Stress axis : x y z
#
# Youngs Moduli (GPa) = 135.05695 94.62111 39.12355
#
# Poissons Ratio (x) = -0.05410 0.09980
# Poissons Ratio (y) = -0.07722 0.16090
# Poissons Ratio (z) = 0.34450 0.38913
#
# Static dielectric constant tensor:
#      x y z
#    x 1.972330 0.016220 -0.050040 
#    y 0.016220 2.018480 0.037720 
#    z -0.050040 0.037720 2.105690 
# 
# From -- ./inp_files/382282.got.cif
#   From: 2010.05.17/outbox.cif.g08.bks.cpg/sg2_192_cif.got.tgz:382282.got - 2010.06.03 11:33:40.
