data_PCOD9023717
_publ_section_title
;
Structure prediction by ZEFSAII (Michael W. Deem and Ramdas Pophale) SiO2 
 PCOD9023717
Probable space group: P -1
;
_chemical_formula_sum "Si O2"
_cell_formula_units_Z 15
_cell_length_a 11.794385
_cell_length_b 7.245377
_cell_length_c 12.250562
_cell_angle_alpha 122.557071
_cell_angle_beta 124.062779
_cell_angle_gamma 98.616782
_cell_volume 557.822194
_symmetry_space_group_name_H-M "P -1"
_symmetry_group_IT_number 2
_symmetry_cell_setting 'triclinic'
loop_
_space_group_symop_operation_xyz
x,y,z
-x,-y,-z
loop_
_atom_site_type_symbol
_atom_site_label
_atom_site_fract_x
_atom_site_fract_y
_atom_site_fract_z
Si Si1 0.000000 0.500000 0.500000
Si Si2 0.079801 0.223335 0.713311
Si Si3 0.488553 0.768880 0.055912
Si Si4 0.452456 0.725911 0.448579
Si Si5 0.157796 0.355256 0.018698
Si Si6 0.807583 0.107827 0.880109
Si Si7 0.229373 0.777805 0.502505
Si Si8 0.315835 0.012605 0.980499
O O1 0.863220 0.396731 0.494129
O O2 0.830291 0.279875 0.256565
O O3 0.285244 0.484376 0.876204
O O4 0.096907 0.137134 0.816285
O O5 0.927920 0.254077 0.655510
O O6 0.000000 0.000000 0.500000
O O7 0.469837 0.009911 0.107209
O O8 0.617867 0.891876 0.270142
O O9 0.577893 0.763141 0.993124
O O10 0.313998 0.668589 0.446147
O O11 0.500000 0.000000 0.500000
O O12 0.634383 0.829043 0.634321
O O13 0.340263 0.479687 0.218658
O O14 0.992701 0.208781 0.964726
O O15 0.193536 0.632617 0.070811
O O16 0.785084 0.043816 0.976010
#
# Coordination Sequence:
#
# PCOD9023717 Si02
#       8
#     1   2   2   2   2   2   2   2
#     4  10  18  28  54  82 112 134 162 218 274 320
#     4  12  24  38  52  72 112 152 183 212 249 320
#     4  10  20  34  51  79 112 134 178 214 264 319
#     4  10  18  28  50  75 105 132 163 221 271 315
#     4  10  19  31  48  75 105 136 179 210 263 320
#     4  10  17  31  52  79 109 130 162 225 280 314
#     4  11  20  33  54  83 107 138 173 215 279 314
#     4  10  17  31  53  82 113 133 162 225 274 320
#
# _framework density 26.890288000000002
#
# number of rings (size 3 to 8) (size 9 to 14) (size 15 to 20)
#    0.000    1.600    4.000    4.000    0.000    0.533 
#    0.000    0.000    0.000    0.800    0.000   11.200 
#    0.000    0.000    0.000    0.000    0.000    0.000 
#
# Total GULP energy -83605.596466 kJ/mol
# GULP energy per Si atom -5573.706431 kJ/mol
# Density = 2.682908 g / cm^3
# Si number density = 26.890288 Si / 1000 Ang^3
#
#
#
# Elastic Constant Matrix: (Units=GPa)
#
#
# Indices 1 2 3 4 5 6 
#
# 1 82.5306 32.7426 22.5074 2.9007 9.4512 36.4869
# 2 32.7426 84.8925 45.7335 -3.2018 -5.5257 42.7918
# 3 22.5074 45.7335 236.7623 -25.6743 31.1578 38.6404
# 4 2.9007 -3.2018 -25.6743 41.3517 22.5074 -7.5847
# 5 9.4512 -5.5257 31.1578 22.5074 39.9321 -3.4427
# 6 36.4869 42.7918 38.6404 -7.5847 -3.4427 62.3738
#
#
#
# Elastic Compliance Matrix: (Units=1/GPa)
#
#
# Indices 1 2 3 4 5 6 
#
# 1 0.018125 -0.003782 0.001960 0.002632 -0.008634 -0.009379
# 2 -0.003782 0.021158 -0.004676 -0.009254 0.011836 -0.009879
# 3 0.001960 -0.004676 0.008823 0.012931 -0.015516 -0.002688
# 4 0.002632 -0.009254 0.012931 0.054799 -0.042785 0.001101
# 5 -0.008634 0.011836 -0.015516 -0.042785 0.065372 0.004948
# 6 -0.009379 -0.009879 -0.002688 0.001101 0.004948 0.030368
#
#
# Mechanical properties :
#
#
# Convention : Reuss Voigt Hill
#
# Bulk Modulus (GPa) = 28.48163 67.35026 47.91595
# Shear Modulus (GPa) = 22.38666 48.94500 35.66583
#
# Velocity S-wave (km/s) = 2.88847 4.27098 3.64585
# Velocity P-wave (km/s) = 4.66252 7.03010 5.96496
#
# Compressibility (1/GPa) = 0.03511035
#
# Stress axis : x y z
#
# Youngs Moduli (GPa) = 55.17145 47.26260 113.33507
#
# Poissons Ratio (x) = 0.17874 -0.22211
# Poissons Ratio (y) = 0.20864 0.53000
# Poissons Ratio (z) = -0.10813 0.22102
#
# Static dielectric constant tensor:
#      x y z
#    x 2.199860 -0.180730 -0.164120 
#    y -0.180730 2.158720 0.036080 
#    z -0.164120 0.036080 2.103290 
# 
# From -- ./inp_files/423913.got.cif
#   From: 2010.05.17/outbox.cif.g08.bks.cpg/sg2_212_cif.got.tgz:423913.got - 2010.06.03 11:33:40.
