data_PCOD9023516
_publ_section_title
;
Structure prediction by ZEFSAII (Michael W. Deem and Ramdas Pophale) SiO2 
 PCOD9023516
Probable space group: P -1
;
_chemical_formula_sum "Si O2"
_cell_formula_units_Z 16
_cell_length_a 32.599398
_cell_length_b 9.762247
_cell_length_c 12.223046
_cell_angle_alpha 139.246470
_cell_angle_beta 26.504095
_cell_angle_gamma 154.666309
_cell_volume 715.455092
_symmetry_space_group_name_H-M "P -1"
_symmetry_group_IT_number 2
_symmetry_cell_setting 'triclinic'
loop_
_space_group_symop_operation_xyz
x,y,z
-x,-y,-z
loop_
_atom_site_type_symbol
_atom_site_label
_atom_site_fract_x
_atom_site_fract_y
_atom_site_fract_z
Si Si1 0.459989 0.961188 0.869426
Si Si2 0.866582 0.112777 0.120810
Si Si3 0.668467 0.840415 0.634080
Si Si4 0.362639 0.364651 0.806053
Si Si5 0.690006 0.144400 0.292261
Si Si6 0.850883 0.126899 0.588042
Si Si7 0.408850 0.059657 0.821370
Si Si8 0.046509 0.144517 0.854817
O O1 0.390504 0.659363 0.928991
O O2 0.610677 0.122883 0.568790
O O3 0.395352 0.888699 0.857424
O O4 0.435808 0.142129 0.091528
O O5 0.748165 0.988214 0.416316
O O6 0.775924 0.899265 0.100843
O O7 0.000000 0.500000 0.000000
O O8 0.926971 0.011654 0.975249
O O9 0.562601 0.455214 0.680401
O O10 0.798879 0.072609 0.553353
O O11 0.500000 0.500000 0.500000
O O12 0.341029 0.157593 0.826726
O O13 0.855079 0.479892 0.127576
O O14 0.635507 0.137270 0.302835
O O15 0.000000 0.500000 0.500000
O O16 0.871326 0.913807 0.422525
O O17 0.715990 0.987152 0.889525
O O18 0.000000 0.000000 0.000000
#
# Coordination Sequence:
#
# PCOD9023516 Si02
#       8
#     2   2   2   2   2   2   2   2
#     4  10  22  39  70  95 131 173 221 273 334 389
#     4  12  26  46  68  94 136 178 223 277 334 398
#     4  11  23  44  66 100 134 172 231 280 328 394
#     4  10  23  44  63  93 132 175 222 269 324 399
#     4  11  22  42  65 100 132 173 224 273 327 400
#     4  11  24  41  65 104 141 169 214 281 335 396
#     4  11  23  41  71 100 136 172 226 281 329 389
#     4  12  24  41  70  96 135 176 222 271 340 397
#
# _framework density 22.363389000000002
#
# number of rings (size 3 to 8) (size 9 to 14) (size 15 to 20)
#    0.000    1.000    2.500    5.625    5.250    0.000 
#    2.250    3.750    0.000    0.000    0.000    0.000 
#    0.000    0.000    0.000    0.000    0.000    0.000 
#
# Total GULP energy -89258.946469 kJ/mol
# GULP energy per Si atom -5578.684154 kJ/mol
# Density = 2.231249 g / cm^3
# Si number density = 22.363389 Si / 1000 Ang^3
#
#
#
# Elastic Constant Matrix: (Units=GPa)
#
#
# Indices 1 2 3 4 5 6 
#
# 1 70.4586 12.6477 12.6211 -6.5417 -14.0380 -17.0839
# 2 12.6477 96.2249 19.9940 3.3798 -13.3955 -18.0184
# 3 12.6211 19.9940 76.8208 2.5413 1.2416 -17.2299
# 4 -6.5417 3.3798 2.5413 38.5741 -0.5090 -14.4659
# 5 -14.0380 -13.3955 1.2416 -0.5090 33.0093 1.7953
# 6 -17.0839 -18.0184 -17.2299 -14.4659 1.7953 38.2843
#
#
#
# Elastic Compliance Matrix: (Units=1/GPa)
#
#
# Indices 1 2 3 4 5 6 
#
# 1 0.019183 0.000597 -0.001285 0.007398 0.007982 0.010684
# 2 0.000597 0.012453 -0.002267 0.001226 0.005122 0.005330
# 3 -0.001285 -0.002267 0.015092 0.001082 -0.002326 0.005670
# 4 0.007398 0.001226 0.001082 0.033348 0.003203 0.016816
# 5 0.007982 0.005122 -0.002326 0.003203 0.035662 0.004464
# 6 0.010684 0.005330 0.005670 0.016816 0.004464 0.042093
#
#
# Mechanical properties :
#
#
# Convention : Reuss Voigt Hill
#
# Bulk Modulus (GPa) = 24.49786 37.11442 30.80614
# Shear Modulus (GPa) = 28.19341 35.18962 31.69152
#
# Velocity S-wave (km/s) = 3.55448 3.97109 3.76854
# Velocity P-wave (km/s) = 5.27484 6.13662 5.72198
#
# Compressibility (1/GPa) = 0.04081989
#
# Stress axis : x y z
#
# Youngs Moduli (GPa) = 52.12858 80.30236 66.26084
#
# Poissons Ratio (x) = -0.04798 0.08512
# Poissons Ratio (y) = -0.03115 0.15022
# Poissons Ratio (z) = 0.06696 0.18205
#
# Static dielectric constant tensor:
#      x y z
#    x 1.859350 -0.038430 -0.001100 
#    y -0.038430 1.866450 0.014040 
#    z -0.001100 0.014040 1.883680 
# 
# From -- ./inp_files/399867.got.cif
#   From: 2010.05.17/outbox.cif.g08.bks.cpg/sg2_200_cif.got.tgz:399867.got - 2010.06.03 11:33:40.
