data_PCOD9023286
_publ_section_title
;
Structure prediction by ZEFSAII (Michael W. Deem and Ramdas Pophale) SiO2 
 PCOD9023286
Probable space group: P -1
;
_chemical_formula_sum "Si O2"
_cell_formula_units_Z 14
_cell_length_a 10.399471
_cell_length_b 9.699912
_cell_length_c 11.601144
_cell_angle_alpha 50.066140
_cell_angle_beta 79.699406
_cell_angle_gamma 118.633725
_cell_volume 544.310737
_symmetry_space_group_name_H-M "P -1"
_symmetry_group_IT_number 2
_symmetry_cell_setting 'triclinic'
loop_
_space_group_symop_operation_xyz
x,y,z
-x,-y,-z
loop_
_atom_site_type_symbol
_atom_site_label
_atom_site_fract_x
_atom_site_fract_y
_atom_site_fract_z
Si Si1 0.419524 0.161293 0.471166
Si Si2 0.433851 0.810394 0.004141
Si Si3 0.297537 0.703279 0.464595
Si Si4 0.959942 0.601556 0.851801
Si Si5 0.569844 0.442795 0.665555
Si Si6 0.306168 0.361133 0.024591
Si Si7 0.899046 0.063412 0.918855
O O1 0.536487 0.141906 0.541152
O O2 0.383920 0.296613 0.487376
O O3 0.579288 0.395935 0.221860
O O4 0.189912 0.869850 0.614632
O O5 0.623720 0.039157 0.758601
O O6 0.227493 0.665332 0.055958
O O7 0.372732 0.558706 0.212172
O O8 0.500000 0.000000 0.000000
O O9 0.328195 0.570062 0.440715
O O10 0.060888 0.405401 0.705130
O O11 0.862642 0.688083 0.862077
O O12 0.000000 0.500000 0.000000
O O13 0.317594 0.141978 0.867185
O O14 0.500000 0.500000 0.000000
O O15 0.175004 0.074124 0.124374
O O16 0.000000 0.000000 0.000000
#
# Coordination Sequence:
#
# PCOD9023286 Si02
#       7
#     2   2   2   2   2   2   2
#     4  11  23  41  69  98 129 177 226 271 333 397
#     4  10  24  44  63  96 135 166 221 277 330 396
#     4  11  21  40  65  98 130 172 218 276 328 389
#     4  12  25  44  71  97 135 181 222 275 341 396
#     4  10  22  39  67  96 132 168 222 279 323 391
#     4  11  26  44  66 104 140 168 225 288 329 392
#     4  11  22  38  68  99 125 174 226 268 327 395
#
# _framework density 25.720603000000001
#
# number of rings (size 3 to 8) (size 9 to 14) (size 15 to 20)
#    0.000    1.143    4.286    3.000    2.000    5.714 
#    0.000    0.000    0.000    0.000    0.000    0.000 
#    0.000    0.000    0.000    0.000    0.000    0.000 
#
# Total GULP energy -78369.711017 kJ/mol
# GULP energy per Si atom -5597.836501 kJ/mol
# Density = 2.566206 g / cm^3
# Si number density = 25.720603 Si / 1000 Ang^3
#
#
#
# Elastic Constant Matrix: (Units=GPa)
#
#
# Indices 1 2 3 4 5 6 
#
# 1 120.4122 41.0631 17.4682 -0.2579 3.7433 27.1546
# 2 41.0631 121.0070 27.4177 -19.1815 2.2079 28.7637
# 3 17.4682 27.4177 102.9564 -16.1915 -14.0875 26.7104
# 4 -0.2579 -19.1815 -16.1915 48.0905 13.1321 0.4301
# 5 3.7433 2.2079 -14.0875 13.1321 45.4682 5.7779
# 6 27.1546 28.7637 26.7104 0.4301 5.7779 57.4126
#
#
#
# Elastic Compliance Matrix: (Units=1/GPa)
#
#
# Indices 1 2 3 4 5 6 
#
# 1 0.010005 -0.002735 -0.000322 -0.001099 -0.000067 -0.003197
# 2 -0.002735 0.011024 -0.001024 0.004468 -0.001455 -0.003640
# 3 -0.000322 -0.001024 0.012435 0.002781 0.003828 -0.005526
# 4 -0.001099 0.004468 0.002781 0.025229 -0.006224 -0.002575
# 5 -0.000067 -0.001455 0.003828 -0.006224 0.025503 -0.003540
# 6 -0.003197 -0.003640 -0.005526 -0.002575 -0.003540 0.023700
#
#
# Mechanical properties :
#
#
# Convention : Reuss Voigt Hill
#
# Bulk Modulus (GPa) = 39.52161 57.36374 48.44268
# Shear Modulus (GPa) = 40.16323 47.42271 43.79297
#
# Velocity S-wave (km/s) = 3.95589 4.29857 4.13078
# Velocity P-wave (km/s) = 6.02201 6.85478 6.45184
#
# Compressibility (1/GPa) = 0.02530261
#
# Stress axis : x y z
#
# Youngs Moduli (GPa) = 99.95042 90.70985 80.41927
#
# Poissons Ratio (x) = 0.24811 0.02586
# Poissons Ratio (y) = 0.27339 0.08234
# Poissons Ratio (z) = 0.03214 0.09287
#
# Static dielectric constant tensor:
#      x y z
#    x 2.255600 -0.116470 0.131920 
#    y -0.116470 2.096370 -0.043770 
#    z 0.131920 -0.043770 2.047940 
# 
# From -- ./inp_files/419780.got.cif
#   From: 2010.05.17/outbox.cif.g08.bks.cpg/sg2_210_cif.got.tgz:419780.got - 2010.06.03 11:33:40.
