data_PCOD9023475
_publ_section_title
;
Structure prediction by ZEFSAII (Michael W. Deem and Ramdas Pophale) SiO2 
 PCOD9023475
Probable space group: P -1
;
_chemical_formula_sum "Si O2"
_cell_formula_units_Z 15
_cell_length_a 8.268649
_cell_length_b 6.321759
_cell_length_c 17.066620
_cell_angle_alpha 119.983191
_cell_angle_beta 124.363224
_cell_angle_gamma 83.486213
_cell_volume 619.870432
_symmetry_space_group_name_H-M "P -1"
_symmetry_group_IT_number 2
_symmetry_cell_setting 'triclinic'
loop_
_space_group_symop_operation_xyz
x,y,z
-x,-y,-z
loop_
_atom_site_type_symbol
_atom_site_label
_atom_site_fract_x
_atom_site_fract_y
_atom_site_fract_z
Si Si1 0.473359 0.706910 0.931530
Si Si2 0.000000 0.000000 0.500000
Si Si3 0.177767 0.394925 0.914373
Si Si4 0.869727 0.065838 0.305237
Si Si5 0.515508 0.905077 0.576003
Si Si6 0.801652 0.522114 0.607517
Si Si7 0.345079 0.549126 0.698749
Si Si8 0.762299 0.430630 0.763485
O O1 0.338125 0.600291 0.948886
O O2 0.352587 0.584442 0.800733
O O3 0.695413 0.650926 0.984229
O O4 0.500000 0.000000 0.000000
O O5 0.047741 0.024151 0.609976
O O6 0.809355 0.717849 0.413634
O O7 0.967976 0.475974 0.876800
O O8 0.146951 0.143195 0.805120
O O9 0.682079 0.184808 0.294757
O O10 0.007202 0.322741 0.355258
O O11 0.646636 0.699102 0.582489
O O12 0.286048 0.755785 0.505613
O O13 0.500000 0.000000 0.500000
O O14 0.642977 0.145617 0.697983
O O15 0.827242 0.474938 0.697562
O O16 0.577409 0.559400 0.743055
#
# Coordination Sequence:
#
# PCOD9023475 Si02
#       8
#     2   1   2   2   2   2   2   2
#     4  11  24  50  83 102 137 195 252 298 357 443
#     4  12  30  46  70 110 160 188 240 302 376 432
#     4  11  24  47  78 107 135 194 256 294 353 447
#     4  12  25  48  71 105 147 200 245 291 364 447
#     4   9  20  37  59  98 138 188 241 288 342 425
#     4  10  22  39  69  97 141 200 249 278 353 444
#     4  12  28  47  71 110 153 189 235 310 374 421
#     4  11  25  42  67 110 148 183 240 310 364 420
#
# _framework density 24.198606000000002
#
# number of rings (size 3 to 8) (size 9 to 14) (size 15 to 20)
#    0.000    1.067    4.000    1.200    7.467    1.600 
#    0.000    0.667    0.000    0.000    0.000    0.000 
#    0.000    0.000    0.000    0.000    0.000    0.000 
#
# Total GULP energy -83551.136823 kJ/mol
# GULP energy per Si atom -5570.075788 kJ/mol
# Density = 2.414353 g / cm^3
# Si number density = 24.198606 Si / 1000 Ang^3
#
#
#
# Elastic Constant Matrix: (Units=GPa)
#
#
# Indices 1 2 3 4 5 6 
#
# 1 62.4673 19.3677 5.2555 2.2296 23.1449 -7.8010
# 2 19.3677 81.7322 21.1781 -1.4883 8.0654 -7.7712
# 3 5.2555 21.1781 84.6888 -13.1376 15.5055 -2.7477
# 4 2.2296 -1.4883 -13.1376 43.6023 -0.9916 8.4111
# 5 23.1449 8.0654 15.5055 -0.9916 37.0859 -5.1558
# 6 -7.8010 -7.7712 -2.7477 8.4111 -5.1558 44.0034
#
#
#
# Elastic Compliance Matrix: (Units=1/GPa)
#
#
# Indices 1 2 3 4 5 6 
#
# 1 0.022590 -0.004362 0.002060 -0.001385 -0.013768 0.002015
# 2 -0.004362 0.014222 -0.003583 -0.000688 0.001360 0.001806
# 3 0.002060 -0.003583 0.014385 0.004137 -0.006539 -0.000926
# 4 -0.001385 -0.000688 0.004137 0.025178 -0.000738 -0.005008
# 5 -0.013768 0.001360 -0.006539 -0.000738 0.038255 0.002015
# 6 0.002015 0.001806 -0.000926 -0.005008 0.002015 0.024537
#
#
# Mechanical properties :
#
#
# Convention : Reuss Voigt Hill
#
# Bulk Modulus (GPa) = 25.36327 35.61010 30.48668
# Shear Modulus (GPa) = 30.47329 37.14411 33.80870
#
# Velocity S-wave (km/s) = 3.55251 3.92212 3.74188
# Velocity P-wave (km/s) = 5.22792 5.93788 5.59417
#
# Compressibility (1/GPa) = 0.03942710
#
# Stress axis : x y z
#
# Youngs Moduli (GPa) = 44.26830 70.31326 69.51700
#
# Poissons Ratio (x) = 0.30670 -0.14321
# Poissons Ratio (y) = 0.19309 0.24908
# Poissons Ratio (z) = -0.09120 0.25193
#
# Static dielectric constant tensor:
#      x y z
#    x 2.094340 0.069430 0.096370 
#    y 0.069430 1.772250 0.004470 
#    z 0.096370 0.004470 1.945700 
# 
# From -- ./inp_files/553904.got.cif
#   From: 2010.05.17/outbox.cif.g08.bks.cpg/sg2_277_cif.got.tgz:553904.got - 2010.06.03 11:33:40.
