data_PCOD9023567
_publ_section_title
;
Structure prediction by ZEFSAII (Michael W. Deem and Ramdas Pophale) SiO2 
 PCOD9023567
Probable space group: P -1
;
_chemical_formula_sum "Si O2"
_cell_formula_units_Z 14
_cell_length_a 11.607219
_cell_length_b 8.958038
_cell_length_c 10.463855
_cell_angle_alpha 110.692216
_cell_angle_beta 137.389927
_cell_angle_gamma 49.905499
_cell_volume 547.971946
_symmetry_space_group_name_H-M "P -1"
_symmetry_group_IT_number 2
_symmetry_cell_setting 'triclinic'
loop_
_space_group_symop_operation_xyz
x,y,z
-x,-y,-z
loop_
_atom_site_type_symbol
_atom_site_label
_atom_site_fract_x
_atom_site_fract_y
_atom_site_fract_z
Si Si1 0.955089 0.218919 0.675537
Si Si2 0.354399 0.833400 0.764244
Si Si3 0.654389 0.286595 0.636662
Si Si4 0.931507 0.589718 0.826637
Si Si5 0.742892 0.429062 0.096833
Si Si6 0.535131 0.670843 0.230902
Si Si7 0.478462 0.949550 0.659130
O O1 0.794065 0.205227 0.451106
O O2 0.885171 0.224452 0.767461
O O3 0.928861 0.422744 0.698417
O O4 0.191011 0.028825 0.774258
O O5 0.475170 0.881759 0.778902
O O6 0.541201 0.637284 0.931792
O O7 0.500000 0.500000 0.500000
O O8 0.538382 0.343001 0.693525
O O9 0.670919 0.093910 0.546398
O O10 0.701323 0.795838 0.723809
O O11 0.069139 0.629166 0.862178
O O12 0.000000 0.500000 0.000000
O O13 0.734603 0.487827 0.255857
O O14 0.676894 0.281470 0.997725
O O15 0.571901 0.837444 0.314952
#
# Coordination Sequence:
#
# PCOD9023567 Si02
#       7
#     2   2   2   2   2   2   2
#     4  10  22  39  72  99 126 167 239 260 325 390
#     4  10  22  44  69  98 128 182 216 276 318 401
#     4  11  21  45  73  95 127 175 221 278 327 403
#     4  12  23  39  67 106 128 179 222 271 323 397
#     4  11  25  44  66  93 142 175 220 272 332 387
#     4  11  25  44  63  97 134 177 218 277 339 385
#     4  11  23  40  71  97 136 171 221 275 329 387
#
# _framework density 25.548752
#
# number of rings (size 3 to 8) (size 9 to 14) (size 15 to 20)
#    0.000    1.143    2.857    3.857    2.000    1.714 
#    5.143    0.714    0.000    0.000    0.000    0.000 
#    0.000    0.000    0.000    0.000    0.000    0.000 
#
# Total GULP energy -78256.922210 kJ/mol
# GULP energy per Si atom -5589.780158 kJ/mol
# Density = 2.549060 g / cm^3
# Si number density = 25.548752 Si / 1000 Ang^3
#
#
#
# Elastic Constant Matrix: (Units=GPa)
#
#
# Indices 1 2 3 4 5 6 
#
# 1 218.1486 32.0559 29.5560 11.2130 4.2668 -3.8115
# 2 32.0559 102.4994 23.0359 26.2307 0.3675 -8.5457
# 3 29.5560 23.0359 39.0281 19.2848 0.3826 0.0286
# 4 11.2130 26.2307 19.2848 40.9090 -2.3860 8.1551
# 5 4.2668 0.3675 0.3826 -2.3860 48.4765 -3.7130
# 6 -3.8115 -8.5457 0.0286 8.1551 -3.7130 44.5220
#
#
#
# Elastic Compliance Matrix: (Units=1/GPa)
#
#
# Indices 1 2 3 4 5 6 
#
# 1 0.005210 -0.001020 -0.003837 0.001006 -0.000368 0.000038
# 2 -0.001020 0.012981 -0.003323 -0.007223 -0.000053 0.003725
# 3 -0.003837 -0.003323 0.037946 -0.015082 -0.000547 0.001726
# 4 0.001006 -0.007223 -0.015082 0.037595 0.001318 -0.008067
# 5 -0.000368 -0.000053 -0.000547 0.001318 0.020842 0.001455
# 6 0.000038 0.003725 0.001726 -0.008067 0.001455 0.024777
#
#
# Mechanical properties :
#
#
# Convention : Reuss Voigt Hill
#
# Bulk Modulus (GPa) = 25.13947 58.77462 41.95705
# Shear Modulus (GPa) = 29.59128 45.11674 37.35401
#
# Velocity S-wave (km/s) = 3.40697 4.20683 3.82785
# Velocity P-wave (km/s) = 5.03366 6.83018 5.99955
#
# Compressibility (1/GPa) = 0.03977809
#
# Stress axis : x y z
#
# Youngs Moduli (GPa) = 191.94199 77.03481 26.35347
#
# Poissons Ratio (x) = 0.07857 0.10111
# Poissons Ratio (y) = 0.19577 0.08756
# Poissons Ratio (z) = 0.73644 0.25595
#
# Static dielectric constant tensor:
#      x y z
#    x 2.005560 -0.005860 -0.084340 
#    y -0.005860 1.973990 0.009480 
#    z -0.084340 0.009480 2.192550 
# 
# From -- ./inp_files/419859.got.cif
#   From: 2010.05.17/outbox.cif.g08.bks.cpg/sg2_210_cif.got.tgz:419859.got - 2010.06.03 11:33:40.
