data_PCOD9023433
_publ_section_title
;
Structure prediction by ZEFSAII (Michael W. Deem and Ramdas Pophale) SiO2 
 PCOD9023433
Probable space group: P -1
;
_chemical_formula_sum "Si O2"
_cell_formula_units_Z 14
_cell_length_a 12.830604
_cell_length_b 11.304394
_cell_length_c 9.321393
_cell_angle_alpha 121.716684
_cell_angle_beta 135.154643
_cell_angle_gamma 36.690759
_cell_volume 566.716226
_symmetry_space_group_name_H-M "P -1"
_symmetry_group_IT_number 2
_symmetry_cell_setting 'triclinic'
loop_
_space_group_symop_operation_xyz
x,y,z
-x,-y,-z
loop_
_atom_site_type_symbol
_atom_site_label
_atom_site_fract_x
_atom_site_fract_y
_atom_site_fract_z
Si Si1 0.095849 0.618645 0.157565
Si Si2 0.625756 0.009429 0.950984
Si Si3 0.780495 0.502983 0.364322
Si Si4 0.171269 0.382386 0.808583
Si Si5 0.224737 0.837254 0.438007
Si Si6 0.260724 0.771169 0.756101
Si Si7 0.568182 0.773333 0.573002
O O1 0.191252 0.703809 0.262933
O O2 0.257230 0.440035 0.311142
O O3 0.085450 0.522783 0.951493
O O4 0.860355 0.808793 0.110468
O O5 0.584472 0.918696 0.736328
O O6 0.407595 0.165737 0.927225
O O7 0.663653 0.144642 0.030239
O O8 0.806123 0.519189 0.233689
O O9 0.686820 0.415188 0.252573
O O10 0.628353 0.715964 0.430312
O O11 0.010097 0.378590 0.581920
O O12 0.327344 0.751700 0.642628
O O13 0.352441 0.848928 0.463579
O O14 0.993450 0.054623 0.377217
#
# Coordination Sequence:
#
# PCOD9023433 Si02
#       7
#     2   2   2   2   2   2   2
#     4  11  23  44  67 103 131 170 224 281 319 401
#     4  11  25  42  67 102 133 171 222 275 329 389
#     4  11  25  46  68  95 135 178 221 273 328 399
#     4  11  26  46  68  94 138 177 222 270 333 392
#     4  10  22  39  69 101 136 170 218 274 336 388
#     4  10  22  43  65 102 136 169 222 274 329 395
#     4  12  23  42  71 100 134 173 221 277 330 387
#
# _framework density 24.703721999999999
#
# number of rings (size 3 to 8) (size 9 to 14) (size 15 to 20)
#    0.000    1.143    2.857    2.571    2.000    3.429 
#    2.571    1.429    0.000    0.000    0.000    0.000 
#    0.000    0.000    0.000    0.000    0.000    0.000 
#
# Total GULP energy -78373.764411 kJ/mol
# GULP energy per Si atom -5598.126029 kJ/mol
# Density = 2.464750 g / cm^3
# Si number density = 24.703722 Si / 1000 Ang^3
#
#
#
# Elastic Constant Matrix: (Units=GPa)
#
#
# Indices 1 2 3 4 5 6 
#
# 1 77.6384 21.3665 17.8516 -0.4745 19.9576 -11.6091
# 2 21.3665 103.1859 33.6791 5.2574 19.9145 -12.0962
# 3 17.8516 33.6791 72.9838 1.2362 21.4616 7.4569
# 4 -0.4745 5.2574 1.2362 41.3800 10.7931 16.3073
# 5 19.9576 19.9145 21.4616 10.7931 43.0663 9.3234
# 6 -11.6091 -12.0962 7.4569 16.3073 9.3234 52.1916
#
#
#
# Elastic Compliance Matrix: (Units=1/GPa)
#
#
# Indices 1 2 3 4 5 6 
#
# 1 0.016149 -0.000730 -0.001973 0.000305 -0.007303 0.004914
# 2 -0.000730 0.012941 -0.005239 -0.002562 -0.003477 0.005007
# 3 -0.001973 -0.005239 0.018718 0.003319 -0.005889 -0.004312
# 4 0.000305 -0.002562 0.003319 0.029583 -0.006041 -0.009164
# 5 -0.007303 -0.003477 -0.005889 -0.006041 0.033908 -0.005759
# 6 0.004914 0.005007 -0.004312 -0.009164 -0.005759 0.025922
#
#
# Mechanical properties :
#
#
# Convention : Reuss Voigt Hill
#
# Bulk Modulus (GPa) = 31.32412 44.40026 37.86219
# Shear Modulus (GPa) = 30.53524 39.38831 34.96178
#
# Velocity S-wave (km/s) = 3.51958 3.99736 3.76605
# Velocity P-wave (km/s) = 5.40592 6.27035 5.85411
#
# Compressibility (1/GPa) = 0.03192428
#
# Stress axis : x y z
#
# Youngs Moduli (GPa) = 61.92444 77.27440 53.42461
#
# Poissons Ratio (x) = 0.05641 0.10539
# Poissons Ratio (y) = 0.04521 0.27989
# Poissons Ratio (z) = 0.12216 0.40484
#
# Static dielectric constant tensor:
#      x y z
#    x 1.965880 0.003240 -0.007160 
#    y 0.003240 1.948050 -0.046380 
#    z -0.007160 -0.046380 1.976380 
# 
# From -- ./inp_files/263120.got.cif
#   From: 2010.05.17/outbox.cif.g08.bks.cpg/sg2_132_cif.got.tgz:263120.got - 2010.06.03 11:33:40.
