data_PCOD9023049
_publ_section_title
;
Structure prediction by ZEFSAII (Michael W. Deem and Ramdas Pophale) SiO2 
 PCOD9023049
Probable space group: P -1
;
_chemical_formula_sum "Si O2"
_cell_formula_units_Z 14
_cell_length_a 8.236031
_cell_length_b 17.662729
_cell_length_c 8.645643
_cell_angle_alpha 107.888766
_cell_angle_beta 112.280453
_cell_angle_gamma 38.642598
_cell_volume 726.607154
_symmetry_space_group_name_H-M "P -1"
_symmetry_group_IT_number 2
_symmetry_cell_setting 'triclinic'
loop_
_space_group_symop_operation_xyz
x,y,z
-x,-y,-z
loop_
_atom_site_type_symbol
_atom_site_label
_atom_site_fract_x
_atom_site_fract_y
_atom_site_fract_z
Si Si1 0.194568 0.832119 0.012532
Si Si2 0.779011 0.360379 0.998884
Si Si3 0.026612 0.213505 0.694325
Si Si4 0.303237 0.997344 0.870977
Si Si5 0.971095 0.864133 0.656625
Si Si6 0.747518 0.783871 0.694917
Si Si7 0.498081 0.147615 0.663014
O O1 0.392467 0.820104 0.169874
O O2 0.244619 0.723775 0.012132
O O3 0.184868 0.832703 0.824711
O O4 0.891844 0.960419 0.035085
O O5 0.998780 0.322800 0.172271
O O6 0.500000 0.500000 0.000000
O O7 0.879560 0.319681 0.831737
O O8 0.294301 0.165259 0.702149
O O9 0.897578 0.226750 0.496974
O O10 0.106589 0.106421 0.746749
O O11 0.494435 0.872202 0.772907
O O12 0.500000 0.000000 0.000000
O O13 0.817190 0.848935 0.693441
O O14 0.746030 0.005333 0.615735
O O15 0.658082 0.770843 0.496933
#
# Coordination Sequence:
#
# PCOD9023049 Si02
#       7
#     2   2   2   2   2   2   2
#     4  10  22  32  52  82 115 133 175 216 257 312
#     4  10  22  41  57  71  97 145 193 221 245 302
#     4  10  18  32  57  77 103 142 173 205 263 326
#     4  11  15  31  51  77 108 142 171 206 254 321
#     4  10  17  31  51  82 113 139 160 202 265 331
#     4  10  18  32  56  75 107 142 176 205 260 321
#     4  11  19  32  51  88 115 134 159 214 278 318
#
# _framework density 19.267631999999999
#
# number of rings (size 3 to 8) (size 9 to 14) (size 15 to 20)
#    0.000    1.714    7.143    1.286    0.000    0.571 
#    0.000    7.857    0.000    0.000    0.000    0.000 
#    0.000    0.000    0.000    0.000    0.000    0.000 
#
# Total GULP energy -78050.821710 kJ/mol
# GULP energy per Si atom -5575.058694 kJ/mol
# Density = 1.922378 g / cm^3
# Si number density = 19.267632 Si / 1000 Ang^3
#
#
#
# Elastic Constant Matrix: (Units=GPa)
#
#
# Indices 1 2 3 4 5 6 
#
# 1 23.3968 3.9067 32.2322 -3.2284 2.0478 -1.1802
# 2 3.9067 101.4665 51.9070 -1.8209 -9.5196 -11.1970
# 3 32.2322 51.9070 193.2414 -13.3665 5.2343 -16.7211
# 4 -3.2284 -1.8209 -13.3665 15.8229 -6.6388 0.5782
# 5 2.0478 -9.5196 5.2343 -6.6388 32.0857 1.9955
# 6 -1.1802 -11.1970 -16.7211 0.5782 1.9955 11.2078
#
#
#
# Elastic Compliance Matrix: (Units=1/GPa)
#
#
# Indices 1 2 3 4 5 6 
#
# 1 0.056989 0.002447 -0.010589 0.003217 -0.000051 -0.007509
# 2 0.002447 0.012578 -0.003217 0.000537 0.003756 0.007327
# 3 -0.010589 -0.003217 0.008904 0.004052 -0.001453 0.009005
# 4 0.003217 0.000537 0.004052 0.073379 0.014440 0.000564
# 5 -0.000051 0.003756 -0.001453 0.014440 0.035854 -0.005549
# 6 -0.007509 0.007327 0.009005 0.000564 -0.005549 0.110145
#
#
# Mechanical properties :
#
#
# Convention : Reuss Voigt Hill
#
# Bulk Modulus (GPa) = 17.93627 54.91074 36.42351
# Shear Modulus (GPa) = 14.74263 27.16053 20.95158
#
# Velocity S-wave (km/s) = 2.76914 3.75860 3.30115
# Velocity P-wave (km/s) = 4.42192 6.88454 5.78577
#
# Compressibility (1/GPa) = 0.05575295
#
# Stress axis : x y z
#
# Youngs Moduli (GPa) = 17.54711 79.50613 112.30812
#
# Poissons Ratio (x) = -0.19455 1.18921
# Poissons Ratio (y) = -0.04294 0.36132
# Poissons Ratio (z) = 0.18580 0.25579
#
# Static dielectric constant tensor:
#      x y z
#    x 1.724860 -0.000790 -0.005790 
#    y -0.000790 1.641450 -0.019140 
#    z -0.005790 -0.019140 1.773750 
# 
# From -- ./inp_files/164259.got.cif
#   From: 2010.05.17/outbox.cif.g08.bks.cpg/sg2_83_cif.got.tgz:164259.got - 2010.06.03 11:33:40.
