data_PCOD9023593
_publ_section_title
;
Structure prediction by ZEFSAII (Michael W. Deem and Ramdas Pophale) SiO2 
 PCOD9023593
Probable space group: P -1
;
_chemical_formula_sum "Si O2"
_cell_formula_units_Z 16
_cell_length_a 15.266964
_cell_length_b 12.303138
_cell_length_c 6.385266
_cell_angle_alpha 100.885636
_cell_angle_beta 52.443422
_cell_angle_gamma 70.403276
_cell_volume 761.456145
_symmetry_space_group_name_H-M "P -1"
_symmetry_group_IT_number 2
_symmetry_cell_setting 'triclinic'
loop_
_space_group_symop_operation_xyz
x,y,z
-x,-y,-z
loop_
_atom_site_type_symbol
_atom_site_label
_atom_site_fract_x
_atom_site_fract_y
_atom_site_fract_z
Si Si1 0.212161 0.289396 0.772054
Si Si2 0.874255 0.799581 0.511200
Si Si3 0.539048 0.397822 0.214354
Si Si4 0.660603 0.510445 0.840915
Si Si5 0.461369 0.263642 0.553619
Si Si6 0.074858 0.072668 0.899800
Si Si7 0.688017 0.979000 0.228955
Si Si8 0.035761 0.646654 0.605161
O O1 0.171800 0.276623 0.593640
O O2 0.317841 0.325128 0.671094
O O3 0.292520 0.135959 0.688650
O O4 0.075175 0.372268 0.140329
O O5 0.905852 0.884856 0.343393
O O6 0.000395 0.688092 0.429472
O O7 0.758029 0.902032 0.881628
O O8 0.500000 0.500000 0.500000
O O9 0.413266 0.460473 0.261299
O O10 0.559281 0.268360 0.246928
O O11 0.657003 0.391404 0.913696
O O12 0.811109 0.470429 0.608350
O O13 0.569874 0.642329 0.166735
O O14 0.539288 0.110571 0.461204
O O15 0.218474 0.983016 0.779304
O O16 0.995463 0.217105 0.188694
O O17 0.000000 0.000000 0.000000
#
# Coordination Sequence:
#
# PCOD9023593 Si02
#       8
#     2   2   2   2   2   2   2   2
#     4   9  20  37  56  83 112 141 185 232 275 328
#     4   8  18  36  53  75 109 144 181 228 280 323
#     4   9  22  39  55  80 109 146 187 222 271 325
#     4  10  22  40  56  79 116 146 182 233 272 322
#     4  11  22  35  57  84 111 148 188 223 274 337
#     4   9  19  32  53  83 109 139 185 233 277 329
#     4   9  20  35  53  81 112 143 181 227 282 330
#     4   9  20  37  57  77 108 149 180 225 282 324
#
# _framework density 21.012371000000002
#
# number of rings (size 3 to 8) (size 9 to 14) (size 15 to 20)
#    0.000    3.250    0.000    0.375    0.000   16.000 
#    0.000    1.250    0.000    0.000    0.000    0.000 
#    0.000    0.000    0.000    0.000    0.000    0.000 
#
# Total GULP energy -89229.444787 kJ/mol
# GULP energy per Si atom -5576.840299 kJ/mol
# Density = 2.096455 g / cm^3
# Si number density = 21.012371 Si / 1000 Ang^3
#
#
#
# Elastic Constant Matrix: (Units=GPa)
#
#
# Indices 1 2 3 4 5 6 
#
# 1 110.8516 11.7470 36.5785 -14.4764 11.2483 -10.1273
# 2 11.7470 41.5750 18.1063 -2.8614 6.3584 0.0943
# 3 36.5785 18.1063 35.6145 -4.7040 5.1371 -14.1900
# 4 -14.4764 -2.8614 -4.7040 15.5956 -12.0328 -6.7003
# 5 11.2483 6.3584 5.1371 -12.0328 37.4802 -3.7241
# 6 -10.1273 0.0943 -14.1900 -6.7003 -3.7241 26.4918
#
#
#
# Elastic Compliance Matrix: (Units=1/GPa)
#
#
# Indices 1 2 3 4 5 6 
#
# 1 0.015274 0.003439 -0.016313 0.009880 0.000202 -0.000384
# 2 0.003439 0.037548 -0.032066 -0.017255 -0.010719 -0.021866
# 3 -0.016313 -0.032066 0.084359 0.039117 0.016425 0.051266
# 4 0.009880 -0.017255 0.039117 0.150348 0.049806 0.069818
# 5 0.000202 -0.010719 0.016425 0.049806 0.044942 0.027828
# 6 -0.000384 -0.021866 0.051266 0.069818 0.027828 0.086709
#
#
# Mechanical properties :
#
#
# Convention : Reuss Voigt Hill
#
# Bulk Modulus (GPa) = 21.14157 35.65606 28.39882
# Shear Modulus (GPa) = 9.52696 24.02082 16.77389
#
# Velocity S-wave (km/s) = 2.13162 3.38476 2.82846
# Velocity P-wave (km/s) = 4.01768 5.68167 4.92052
#
# Compressibility (1/GPa) = 0.04730017
#
# Stress axis : x y z
#
# Youngs Moduli (GPa) = 65.46977 26.63290 11.85415
#
# Poissons Ratio (x) = -0.09158 0.19338
# Poissons Ratio (y) = -0.22513 0.38011
# Poissons Ratio (z) = 1.06801 0.85400
#
# Static dielectric constant tensor:
#      x y z
#    x 1.800810 0.023660 -0.027560 
#    y 0.023660 1.781010 -0.020470 
#    z -0.027560 -0.020470 1.758920 
# 
# From -- ./inp_files/98383.got.cif
#   From: 2010.05.17/outbox.cif.g08.bks.cpg/sg2_50_cif.got.tgz:98383.got - 2010.06.03 11:33:40.
