data_PCOD9023886
_publ_section_title
;
Structure prediction by ZEFSAII (Michael W. Deem and Ramdas Pophale) SiO2 
 PCOD9023886
Probable space group: P -1
;
_chemical_formula_sum "Si O2"
_cell_formula_units_Z 14
_cell_length_a 19.009749
_cell_length_b 5.176422
_cell_length_c 11.744298
_cell_angle_alpha 59.594683
_cell_angle_beta 140.892139
_cell_angle_gamma 126.035367
_cell_volume 586.691747
_symmetry_space_group_name_H-M "P -1"
_symmetry_group_IT_number 2
_symmetry_cell_setting 'triclinic'
loop_
_space_group_symop_operation_xyz
x,y,z
-x,-y,-z
loop_
_atom_site_type_symbol
_atom_site_label
_atom_site_fract_x
_atom_site_fract_y
_atom_site_fract_z
Si Si1 0.063861 0.374198 0.511340
Si Si2 0.709310 0.232778 0.165930
Si Si3 0.678278 0.716369 0.426223
Si Si4 0.413166 0.330542 0.207049
Si Si5 0.182729 0.122364 0.079160
Si Si6 0.211075 0.821613 0.962940
Si Si7 0.833281 0.293620 0.649007
O O1 0.201686 0.503030 0.696829
O O2 0.067326 0.542767 0.356984
O O3 0.000000 0.500000 0.500000
O O4 0.000000 0.000000 0.500000
O O5 0.657087 0.912828 0.246482
O O6 0.622267 0.393734 0.964414
O O7 0.785978 0.170887 0.171278
O O8 0.553402 0.456639 0.367326
O O9 0.769410 0.542374 0.545238
O O10 0.739332 0.980489 0.539560
O O11 0.328336 0.230146 0.233761
O O12 0.352412 0.008154 0.128536
O O13 0.165955 0.447595 0.019301
O O14 0.152146 0.004600 0.935351
O O15 0.125728 0.836393 0.157562
#
# Coordination Sequence:
#
# PCOD9023886 Si02
#       7
#     2   2   2   2   2   2   2
#     4  11  25  43  67  90 113 150 199 254 319 362
#     4  10  22  40  62  89 124 154 203 252 301 351
#     4  11  24  34  60  93 127 165 201 236 297 349
#     4   9  22  37  59  91 124 170 197 239 282 357
#     4   9  20  38  57  85 122 169 202 234 289 344
#     4   9  20  35  60  83 119 168 201 237 282 342
#     4  11  24  41  60  89 127 158 199 254 292 357
#
# _framework density 23.862618999999999
#
# number of rings (size 3 to 8) (size 9 to 14) (size 15 to 20)
#    0.857    1.143    0.000    3.000   10.000    1.714 
#    0.000    0.000    0.000   12.000    0.000    0.000 
#    0.000    0.000    0.000    0.000    0.000    0.000 
#
# Total GULP energy -78200.003463 kJ/mol
# GULP energy per Si atom -5585.714533 kJ/mol
# Density = 2.380831 g / cm^3
# Si number density = 23.862619 Si / 1000 Ang^3
#
#
#
# Elastic Constant Matrix: (Units=GPa)
#
#
# Indices 1 2 3 4 5 6 
#
# 1 71.3648 44.8533 22.4466 -8.9443 -11.2144 5.2542
# 2 44.8533 134.6551 23.1893 5.4186 -9.2602 -13.4070
# 3 22.4466 23.1893 30.2249 5.7100 -10.6985 8.5431
# 4 -8.9443 5.4186 5.7100 27.2911 3.8503 -5.9895
# 5 -11.2144 -9.2602 -10.6985 3.8503 33.8617 -1.7280
# 6 5.2542 -13.4070 8.5431 -5.9895 -1.7280 48.3185
#
#
#
# Elastic Compliance Matrix: (Units=1/GPa)
#
#
# Indices 1 2 3 4 5 6 
#
# 1 0.024227 -0.005821 -0.015910 0.012448 -0.000005 0.000106
# 2 -0.005821 0.010660 -0.004629 -0.002144 -0.000020 0.004143
# 3 -0.015910 -0.004629 0.061374 -0.021978 0.014712 -0.012604
# 4 0.012448 -0.002144 -0.021978 0.048633 -0.008547 0.007660
# 5 -0.000005 -0.000020 0.014712 -0.008547 0.035022 -0.002413
# 6 0.000106 0.004143 -0.012604 0.007660 -0.002413 0.024926
#
#
# Mechanical properties :
#
#
# Convention : Reuss Voigt Hill
#
# Bulk Modulus (GPa) = 22.96620 46.35815 34.66217
# Shear Modulus (GPa) = 18.37743 31.61130 24.99437
#
# Velocity S-wave (km/s) = 2.77814 3.64362 3.23991
# Velocity P-wave (km/s) = 4.46497 6.09677 5.34353
#
# Compressibility (1/GPa) = 0.04354225
#
# Stress axis : x y z
#
# Youngs Moduli (GPa) = 41.27705 93.81138 16.29349
#
# Poissons Ratio (x) = 0.54604 0.25923
# Poissons Ratio (y) = 0.24026 0.07542
# Poissons Ratio (z) = 0.65671 0.43422
#
# Static dielectric constant tensor:
#      x y z
#    x 1.903230 0.024410 0.019860 
#    y 0.024410 1.863950 0.010200 
#    z 0.019860 0.010200 1.971850 
# 
# From -- ./inp_files/468294.got.cif
#   From: 2010.05.17/outbox.cif.g08.bks.cpg/sg2_235_cif.got.tgz:468294.got - 2010.06.03 11:33:40.
