data_PCOD9023173
_publ_section_title
;
Structure prediction by ZEFSAII (Michael W. Deem and Ramdas Pophale) SiO2 
 PCOD9023173
Probable space group: P -1
;
_chemical_formula_sum "Si O2"
_cell_formula_units_Z 14
_cell_length_a 14.917937
_cell_length_b 7.906346
_cell_length_c 8.998176
_cell_angle_alpha 81.952790
_cell_angle_beta 36.577592
_cell_angle_gamma 73.128700
_cell_volume 597.105074
_symmetry_space_group_name_H-M "P -1"
_symmetry_group_IT_number 2
_symmetry_cell_setting 'triclinic'
loop_
_space_group_symop_operation_xyz
x,y,z
-x,-y,-z
loop_
_atom_site_type_symbol
_atom_site_label
_atom_site_fract_x
_atom_site_fract_y
_atom_site_fract_z
Si Si1 0.186757 0.795467 0.667278
Si Si2 0.096516 0.929233 0.107246
Si Si3 0.980574 0.396161 0.685197
Si Si4 0.468436 0.965141 0.214201
Si Si5 0.828795 0.582746 0.288690
Si Si6 0.455648 0.844280 0.668504
Si Si7 0.671135 0.672282 0.196522
O O1 0.314739 0.898909 0.450106
O O2 0.246397 0.582120 0.589439
O O3 0.126275 0.845229 0.910391
O O4 0.032278 0.879170 0.760817
O O5 0.024823 0.802214 0.315311
O O6 0.270226 0.907925 0.934986
O O7 0.000000 0.500000 0.500000
O O8 0.123035 0.372885 0.616761
O O9 0.808150 0.505172 0.970922
O O10 0.609939 0.809350 0.124822
O O11 0.461127 0.151285 0.285624
O O12 0.500000 0.000000 0.000000
O O13 0.750751 0.715865 0.239998
O O14 0.000000 0.500000 0.000000
O O15 0.507663 0.681294 0.501897
O O16 0.500000 0.000000 0.500000
#
# Coordination Sequence:
#
# PCOD9023173 Si02
#       7
#     2   2   2   2   2   2   2
#     4  11  23  40  69 100 132 176 236 270 325 412
#     4  11  23  40  69 100 132 176 236 270 325 412
#     4  11  26  42  67 105 138 176 217 286 349 382
#     4  11  26  42  67 105 138 176 217 286 349 382
#     4  10  22  39  66  97 130 177 225 272 335 395
#     4  10  22  39  66  97 130 177 225 272 335 395
#     4  10  22  41  68  88 137 175 228 264 335 402
#
# _framework density 23.446462
#
# number of rings (size 3 to 8) (size 9 to 14) (size 15 to 20)
#    0.000    1.429    5.714    0.000   12.000    3.429 
#    0.000    1.429    0.000    3.429    0.000    0.000 
#    0.000    0.000    0.000    0.000    0.000    0.000 
#
# Total GULP energy -77982.288041 kJ/mol
# GULP energy per Si atom -5570.163432 kJ/mol
# Density = 2.339310 g / cm^3
# Si number density = 23.446462 Si / 1000 Ang^3
#
#
#
# Elastic Constant Matrix: (Units=GPa)
#
#
# Indices 1 2 3 4 5 6 
#
# 1 111.0255 37.6252 36.0572 -18.2800 -2.2789 -23.0177
# 2 37.6252 104.4641 34.1918 -14.0222 -7.1543 -15.0062
# 3 36.0572 34.1918 60.2938 -15.7746 4.0647 -16.1866
# 4 -18.2800 -14.0222 -15.7746 41.3417 -3.7469 -5.1833
# 5 -2.2789 -7.1543 4.0647 -3.7469 39.1568 -3.0860
# 6 -23.0177 -15.0062 -16.1866 -5.1833 -3.0860 48.6871
#
#
#
# Elastic Compliance Matrix: (Units=1/GPa)
#
#
# Indices 1 2 3 4 5 6 
#
# 1 0.012682 -0.001835 -0.004392 0.004018 0.001598 0.004499
# 2 -0.001835 0.012698 -0.005356 0.001941 0.003086 0.001668
# 3 -0.004392 -0.005356 0.025522 0.006379 -0.002859 0.005256
# 4 0.004018 0.001941 0.006379 0.030385 0.003470 0.008073
# 5 0.001598 0.003086 -0.002859 0.003470 0.027048 0.002840
# 6 0.004499 0.001668 0.005256 0.008073 0.002840 0.025967
#
#
# Mechanical properties :
#
#
# Convention : Reuss Voigt Hill
#
# Bulk Modulus (GPa) = 36.05461 54.61465 45.33463
# Shear Modulus (GPa) = 29.99131 37.03106 33.51118
#
# Velocity S-wave (km/s) = 3.58039 3.97846 3.78466
# Velocity P-wave (km/s) = 5.70114 6.66694 6.20287
#
# Compressibility (1/GPa) = 0.02773571
#
# Stress axis : x y z
#
# Youngs Moduli (GPa) = 78.84909 78.75152 39.18142
#
# Poissons Ratio (x) = 0.14452 0.17210
# Poissons Ratio (y) = 0.14470 0.20986
# Poissons Ratio (z) = 0.34633 0.42180
#
# Static dielectric constant tensor:
#      x y z
#    x 2.000200 0.013070 -0.100860 
#    y 0.013070 2.167490 0.191760 
#    z -0.100860 0.191760 2.033710 
# 
# From -- ./inp_files/298098.got.cif
#   From: 2010.05.17/outbox.cif.g08.bks.cpg/sg2_150_cif.got.tgz:298098.got - 2010.06.03 11:33:40.
