data_PCOD9023774
_publ_section_title
;
Structure prediction by ZEFSAII (Michael W. Deem and Ramdas Pophale) SiO2 
 PCOD9023774
Probable space group: P -1
;
_chemical_formula_sum "Si O2"
_cell_formula_units_Z 16
_cell_length_a 14.545474
_cell_length_b 11.614536
_cell_length_c 8.794747
_cell_angle_alpha 107.342621
_cell_angle_beta 49.506925
_cell_angle_gamma 70.038136
_cell_volume 729.042926
_symmetry_space_group_name_H-M "P -1"
_symmetry_group_IT_number 2
_symmetry_cell_setting 'triclinic'
loop_
_space_group_symop_operation_xyz
x,y,z
-x,-y,-z
loop_
_atom_site_type_symbol
_atom_site_label
_atom_site_fract_x
_atom_site_fract_y
_atom_site_fract_z
Si Si1 0.956998 0.497741 0.280543
Si Si2 0.692164 0.899784 0.194708
Si Si3 0.943169 0.936292 0.421001
Si Si4 0.660839 0.133040 0.548669
Si Si5 0.422747 0.181904 0.077227
Si Si6 0.142555 0.571848 0.929258
Si Si7 0.329260 0.929203 0.998764
Si Si8 0.534787 0.345446 0.477057
O O1 0.011283 0.577062 0.160395
O O2 0.790553 0.651185 0.627066
O O3 0.145254 0.312120 0.067713
O O4 0.889751 0.443075 0.215103
O O5 0.500000 0.000000 0.500000
O O6 0.742567 0.972405 0.283481
O O7 0.658995 0.969030 0.087818
O O8 0.805677 0.075553 0.490437
O O9 0.829376 0.937472 0.660162
O O10 0.000000 0.000000 0.500000
O O11 0.088419 0.745719 0.108227
O O12 0.587771 0.289911 0.574839
O O13 0.514881 0.165497 0.818789
O O14 0.498105 0.217387 0.140286
O O15 0.500000 0.000000 0.000000
O O16 0.350586 0.404267 0.682311
O O17 0.316588 0.826504 0.857037
O O18 0.500000 0.500000 0.500000
#
# Coordination Sequence:
#
# PCOD9023774 Si02
#       8
#     2   2   2   2   2   2   2   2
#     4  11  22  39  66 102 139 170 220 285 349 419
#     4  11  22  39  65  99 136 175 216 274 346 425
#     4  11  23  45  65  92 132 178 228 284 331 402
#     4  10  23  42  66  97 132 180 230 273 356 409
#     4  11  22  39  66 100 139 178 214 275 351 421
#     4  11  23  39  65 100 130 172 227 276 346 411
#     4  10  22  40  61  91 129 171 222 272 343 401
#     4  11  23  45  66  93 131 179 232 286 334 407
#
# _framework density 21.946580000000001
#
# number of rings (size 3 to 8) (size 9 to 14) (size 15 to 20)
#    0.000    1.250    2.500    4.500    3.500    1.000 
#    2.250   11.250    0.000    0.000    0.000    0.000 
#    0.000    0.000    0.000    0.000    0.000    0.000 
#
# Total GULP energy -89240.231836 kJ/mol
# GULP energy per Si atom -5577.514490 kJ/mol
# Density = 2.189663 g / cm^3
# Si number density = 21.946580 Si / 1000 Ang^3
#
#
#
# Elastic Constant Matrix: (Units=GPa)
#
#
# Indices 1 2 3 4 5 6 
#
# 1 122.2195 28.8539 25.1227 1.4823 12.9672 -17.6715
# 2 28.8539 120.4591 43.5255 -1.5733 14.4254 -20.4341
# 3 25.1227 43.5255 116.3845 9.1559 6.8296 -15.5391
# 4 1.4823 -1.5733 9.1559 31.2647 -3.5738 6.8895
# 5 12.9672 14.4254 6.8296 -3.5738 32.2640 -2.4177
# 6 -17.6715 -20.4341 -15.5391 6.8895 -2.4177 35.0133
#
#
#
# Elastic Compliance Matrix: (Units=1/GPa)
#
#
# Indices 1 2 3 4 5 6 
#
# 1 0.009497 -0.000942 -0.000878 -0.001458 -0.003077 0.003928
# 2 -0.000942 0.010761 -0.003076 0.000174 -0.003450 0.004167
# 3 -0.000878 -0.003076 0.010733 -0.004063 -0.000748 0.003273
# 4 -0.001458 0.000174 -0.004063 0.035803 0.004647 -0.009161
# 5 -0.003077 -0.003450 -0.000748 0.004647 0.034263 -0.002447
# 6 0.003928 0.004167 0.003273 -0.009161 -0.002447 0.036061
#
#
# Mechanical properties :
#
#
# Convention : Reuss Voigt Hill
#
# Bulk Modulus (GPa) = 47.17212 61.56303 54.36758
# Shear Modulus (GPa) = 32.47267 37.14580 34.80923
#
# Velocity S-wave (km/s) = 3.85076 4.11853 3.98689
# Velocity P-wave (km/s) = 6.42743 7.12240 6.78382
#
# Compressibility (1/GPa) = 0.02119896
#
# Stress axis : x y z
#
# Youngs Moduli (GPa) = 105.29686 92.92880 93.17416
#
# Poissons Ratio (x) = 0.08751 0.08181
# Poissons Ratio (y) = 0.09916 0.28660
# Poissons Ratio (z) = 0.09246 0.28585
#
# Static dielectric constant tensor:
#      x y z
#    x 1.910260 0.046930 -0.014080 
#    y 0.046930 1.828590 0.009760 
#    z -0.014080 0.009760 1.812680 
# 
# From -- ./inp_files/307912.got.cif
#   From: 2010.05.17/outbox.cif.g08.bks.cpg/sg2_154_cif.got.tgz:307912.got - 2010.06.03 11:33:40.
