data_PCOD9023726
_publ_section_title
;
Structure prediction by ZEFSAII (Michael W. Deem and Ramdas Pophale) SiO2 
 PCOD9023726
Probable space group: P -1
;
_chemical_formula_sum "Si O2"
_cell_formula_units_Z 14
_cell_length_a 11.886521
_cell_length_b 8.450307
_cell_length_c 19.936708
_cell_angle_alpha 137.366046
_cell_angle_beta 147.608664
_cell_angle_gamma 65.500752
_cell_volume 597.374089
_symmetry_space_group_name_H-M "P -1"
_symmetry_group_IT_number 2
_symmetry_cell_setting 'triclinic'
loop_
_space_group_symop_operation_xyz
x,y,z
-x,-y,-z
loop_
_atom_site_type_symbol
_atom_site_label
_atom_site_fract_x
_atom_site_fract_y
_atom_site_fract_z
Si Si1 0.302309 0.763899 0.729165
Si Si2 0.189078 0.666826 0.086006
Si Si3 0.658796 0.355654 0.143467
Si Si4 0.858800 0.173952 0.678714
Si Si5 0.239097 0.603016 0.501130
Si Si6 0.719530 0.881514 0.390891
Si Si7 0.360139 0.176169 0.404135
O O1 0.419222 0.727528 0.843787
O O2 0.360512 0.697355 0.665536
O O3 0.000000 0.500000 0.500000
O O4 0.430930 0.104580 0.905901
O O5 0.452961 0.699466 0.240241
O O6 0.233745 0.969149 0.211993
O O7 0.000000 0.500000 0.000000
O O8 0.086322 0.491259 0.911704
O O9 0.737078 0.678804 0.285189
O O10 0.927570 0.390090 0.278840
O O11 0.626716 0.208011 0.558233
O O12 0.910958 0.043255 0.599965
O O13 0.790376 0.980026 0.650242
O O14 0.353031 0.446230 0.476498
O O15 0.292002 0.882767 0.580367
#
# Coordination Sequence:
#
# PCOD9023726 Si02
#       7
#     2   2   2   2   2   2   2
#     4   9  21  39  59  84 111 151 199 240 281 337
#     4   9  20  36  59  85 110 152 202 245 288 340
#     4  10  22  40  61  85 117 158 197 235 288 349
#     4   9  19  37  60  81 109 152 196 245 292 338
#     4  11  23  37  57  88 124 155 190 241 292 348
#     4  11  23  37  57  88 121 155 195 238 292 352
#     4   9  19  37  58  82 111 148 198 244 288 344
#
# _framework density 23.435901000000001
#
# number of rings (size 3 to 8) (size 9 to 14) (size 15 to 20)
#    0.000    2.286    0.000    2.143    0.000   14.286 
#    0.000    1.429    0.000    0.000    0.000    0.000 
#    0.000    0.000    0.000    0.000    0.000    0.000 
#
# Total GULP energy -78010.931076 kJ/mol
# GULP energy per Si atom -5572.209363 kJ/mol
# Density = 2.338256 g / cm^3
# Si number density = 23.435901 Si / 1000 Ang^3
#
#
#
# Elastic Constant Matrix: (Units=GPa)
#
#
# Indices 1 2 3 4 5 6 
#
# 1 69.5948 15.6758 40.2944 10.7413 -11.8082 -23.3217
# 2 15.6758 92.6711 40.1781 28.9824 1.4381 -28.5008
# 3 40.2944 40.1781 134.0134 28.5733 -42.2019 -30.7327
# 4 10.7413 28.9824 28.5733 30.6081 -15.1361 -9.1484
# 5 -11.8082 1.4381 -42.2019 -15.1361 35.4417 13.3129
# 6 -23.3217 -28.5008 -30.7327 -9.1484 13.3129 32.4014
#
#
#
# Elastic Compliance Matrix: (Units=1/GPa)
#
#
# Indices 1 2 3 4 5 6 
#
# 1 0.022130 0.008111 -0.006368 -0.009633 -0.011855 0.019174
# 2 0.008111 0.036687 -0.010070 -0.037574 -0.039692 0.034257
# 3 -0.006368 -0.010070 0.017398 0.005540 0.023215 -0.004913
# 4 -0.009633 -0.037574 0.005540 0.082595 0.052587 -0.033016
# 5 -0.011855 -0.039692 0.023215 0.052587 0.092767 -0.044694
# 6 0.019174 0.034257 -0.004913 -0.033016 -0.044694 0.079179
#
#
# Mechanical properties :
#
#
# Convention : Reuss Voigt Hill
#
# Bulk Modulus (GPa) = 16.78901 54.28618 35.53759
# Shear Modulus (GPa) = 13.61421 33.03232 23.32326
#
# Velocity S-wave (km/s) = 2.41283 3.75837 3.15809
# Velocity P-wave (km/s) = 3.86544 6.48442 5.33804
#
# Compressibility (1/GPa) = 0.05956277
#
# Stress axis : x y z
#
# Youngs Moduli (GPa) = 45.18853 27.25729 57.47626
#
# Poissons Ratio (x) = -0.22109 0.36599
# Poissons Ratio (y) = -0.36653 0.57878
# Poissons Ratio (z) = 0.28775 0.27448
#
# Static dielectric constant tensor:
#      x y z
#    x 1.921290 0.019970 0.010690 
#    y 0.019970 1.938740 0.062050 
#    z 0.010690 0.062050 2.006430 
# 
# From -- ./inp_files/272492.got.cif
#   From: 2010.05.17/outbox.cif.g08.bks.cpg/sg2_137_cif.got.tgz:272492.got - 2010.06.03 11:33:40.
