data_PCOD9023190
_publ_section_title
;
Structure prediction by ZEFSAII (Michael W. Deem and Ramdas Pophale) SiO2 
 PCOD9023190
Probable space group: P -1
;
_chemical_formula_sum "Si O2"
_cell_formula_units_Z 14
_cell_length_a 6.123181
_cell_length_b 26.833302
_cell_length_c 5.140697
_cell_angle_alpha 72.253367
_cell_angle_beta 90.356587
_cell_angle_gamma 54.728070
_cell_volume 638.476898
_symmetry_space_group_name_H-M "P -1"
_symmetry_group_IT_number 2
_symmetry_cell_setting 'triclinic'
loop_
_space_group_symop_operation_xyz
x,y,z
-x,-y,-z
loop_
_atom_site_type_symbol
_atom_site_label
_atom_site_fract_x
_atom_site_fract_y
_atom_site_fract_z
Si Si1 0.266274 0.424510 0.366166
Si Si2 0.185822 0.549883 0.325986
Si Si3 0.143038 0.018552 0.174210
Si Si4 0.159455 0.132949 0.899656
Si Si5 0.344853 0.635817 0.030829
Si Si6 0.601347 0.100850 0.309092
Si Si7 0.950552 0.791502 0.724339
O O1 0.146573 0.501390 0.246768
O O2 0.429040 0.392724 0.150752
O O3 0.020966 0.423171 0.472836
O O4 0.494280 0.386235 0.658627
O O5 0.500000 0.500000 0.500000
O O6 0.180668 0.604414 0.079018
O O7 0.194356 0.066491 0.967803
O O8 0.916884 0.066556 0.317903
O O9 0.388655 0.953308 0.430037
O O10 0.000000 0.000000 0.000000
O O11 0.462858 0.109800 0.014504
O O12 0.002249 0.174742 0.093068
O O13 0.017369 0.182798 0.583849
O O14 0.134705 0.714099 0.878089
O O15 0.380157 0.172118 0.318309
#
# Coordination Sequence:
#
# PCOD9023190 Si02
#       7
#     2   2   2   2   2   2   2
#     4  10  22  39  66  99 125 170 215 265 320 377
#     4   9  21  40  68  97 131 165 215 270 318 365
#     4  11  22  38  66  94 120 157 217 268 321 378
#     4  10  23  42  62  86 125 162 207 264 319 374
#     4  11  22  42  62  92 136 167 219 259 318 383
#     4   9  23  39  61  92 121 160 209 263 319 381
#     4  10  23  43  59  86 127 172 205 256 316 390
#
# _framework density 21.927182999999999
#
# number of rings (size 3 to 8) (size 9 to 14) (size 15 to 20)
#    0.857    1.143    0.000    2.571    4.000    8.571 
#    5.143    0.000    0.000    0.000    0.000    0.000 
#    0.000    0.000    0.000    0.000    0.000    0.000 
#
# Total GULP energy -78069.839950 kJ/mol
# GULP energy per Si atom -5576.417139 kJ/mol
# Density = 2.187728 g / cm^3
# Si number density = 21.927183 Si / 1000 Ang^3
#
#
#
# Elastic Constant Matrix: (Units=GPa)
#
#
# Indices 1 2 3 4 5 6 
#
# 1 52.5536 36.4270 26.3181 -9.4916 -12.9406 -16.1316
# 2 36.4270 138.1969 69.7433 -27.8189 -4.1123 -16.6092
# 3 26.3181 69.7433 145.0201 -14.0111 4.0233 -0.9663
# 4 -9.4916 -27.8189 -14.0111 45.7165 0.9589 3.6013
# 5 -12.9406 -4.1123 4.0233 0.9589 27.6581 5.3230
# 6 -16.1316 -16.6092 -0.9663 3.6013 5.3230 23.4387
#
#
#
# Elastic Compliance Matrix: (Units=1/GPa)
#
#
# Indices 1 2 3 4 5 6 
#
# 1 0.031764 -0.003729 -0.004037 0.001570 0.011732 0.016146
# 2 -0.003729 0.012146 -0.004655 0.004788 -0.000431 0.005210
# 3 -0.004037 -0.004655 0.009901 -0.000182 -0.003063 -0.004945
# 4 0.001570 0.004788 -0.000182 0.025007 0.000508 0.000509
# 5 0.011732 -0.000431 -0.003063 0.000508 0.042406 -0.002065
# 6 0.016146 0.005210 -0.004945 0.000509 -0.002065 0.057656
#
#
# Mechanical properties :
#
#
# Convention : Reuss Voigt Hill
#
# Bulk Modulus (GPa) = 34.52136 66.74972 50.63554
# Shear Modulus (GPa) = 23.43250 32.91480 28.17365
#
# Velocity S-wave (km/s) = 3.27257 3.87860 3.58840
# Velocity P-wave (km/s) = 5.48246 7.11096 6.34914
#
# Compressibility (1/GPa) = 0.02896757
#
# Stress axis : x y z
#
# Youngs Moduli (GPa) = 31.48258 82.33495 100.99672
#
# Poissons Ratio (x) = 0.30706 0.40773
# Poissons Ratio (y) = 0.11741 0.47013
# Poissons Ratio (z) = 0.12710 0.38326
#
# Static dielectric constant tensor:
#      x y z
#    x 1.881020 -0.011170 -0.033240 
#    y -0.011170 1.808370 0.052440 
#    z -0.033240 0.052440 1.842140 
# 
# From -- ./inp_files/14374.got.cif
#   From: 2010.05.17/outbox.cif.g08.bks.cpg/sg2_8_cif.got.tgz:14374.got - 2010.06.03 11:33:40.
