data_PCOD9023000
_publ_section_title
;
Structure prediction by ZEFSAII (Michael W. Deem and Ramdas Pophale) SiO2 
 PCOD9023000
Probable space group: P -1
;
_chemical_formula_sum "Si O2"
_cell_formula_units_Z 14
_cell_length_a 14.311542
_cell_length_b 10.185631
_cell_length_c 6.268655
_cell_angle_alpha 65.268393
_cell_angle_beta 126.570406
_cell_angle_gamma 120.581141
_cell_volume 622.976150
_symmetry_space_group_name_H-M "P -1"
_symmetry_group_IT_number 2
_symmetry_cell_setting 'triclinic'
loop_
_space_group_symop_operation_xyz
x,y,z
-x,-y,-z
loop_
_atom_site_type_symbol
_atom_site_label
_atom_site_fract_x
_atom_site_fract_y
_atom_site_fract_z
Si Si1 0.914211 0.829319 0.917028
Si Si2 0.137868 0.344453 0.614024
Si Si3 0.400170 0.502465 0.187478
Si Si4 0.299024 0.623191 0.357487
Si Si5 0.779544 0.907609 0.320234
Si Si6 0.089424 0.752033 0.866318
Si Si7 0.543745 0.737911 0.858159
O O1 0.794431 0.845787 0.619275
O O2 0.004688 0.782355 0.914849
O O3 0.871315 0.693825 0.124727
O O4 0.000000 0.000000 0.000000
O O5 0.247289 0.483679 0.554860
O O6 0.147395 0.184517 0.646977
O O7 0.010930 0.363798 0.348847
O O8 0.500000 0.500000 0.500000
O O9 0.309861 0.551716 0.188772
O O10 0.383581 0.351288 0.122266
O O11 0.467744 0.636520 0.020450
O O12 0.432854 0.740767 0.546533
O O13 0.196485 0.700489 0.140537
O O14 0.849164 0.089213 0.286846
O O15 0.650737 0.871848 0.039873
#
# Coordination Sequence:
#
# PCOD9023000 Si02
#       7
#     2   2   2   2   2   2   2
#     4  11  21  43  68  94 122 174 224 265 314 380
#     4  11  22  41  67  94 126 174 222 264 316 382
#     4   9  19  41  62  89 129 171 220 258 312 383
#     4  11  25  41  63  98 138 170 207 270 328 387
#     4  11  22  40  69  96 126 166 223 271 318 385
#     4  11  24  41  63  99 135 164 218 270 327 382
#     4  10  22  39  65  96 128 171 218 262 316 393
#
# _framework density 22.472769
#
# number of rings (size 3 to 8) (size 9 to 14) (size 15 to 20)
#    0.000    1.429    2.857    3.857    0.000   10.286 
#    0.000    0.714    0.000    2.571    0.000    0.000 
#    0.000    0.000    0.000    0.000    0.000    0.000 
#
# Total GULP energy -78041.978544 kJ/mol
# GULP energy per Si atom -5574.427039 kJ/mol
# Density = 2.242162 g / cm^3
# Si number density = 22.472769 Si / 1000 Ang^3
#
#
#
# Elastic Constant Matrix: (Units=GPa)
#
#
# Indices 1 2 3 4 5 6 
#
# 1 103.8246 25.5936 62.2519 -5.6096 -5.0523 13.1175
# 2 25.5936 39.1943 24.6722 18.0142 5.5983 9.0150
# 3 62.2519 24.6722 136.1463 13.4312 5.4462 0.8934
# 4 -5.6096 18.0142 13.4312 47.5819 8.1222 6.0340
# 5 -5.0523 5.5983 5.4462 8.1222 50.7318 -0.5067
# 6 13.1175 9.0150 0.8934 6.0340 -0.5067 19.7336
#
#
#
# Elastic Compliance Matrix: (Units=1/GPa)
#
#
# Indices 1 2 3 4 5 6 
#
# 1 0.018298 -0.009108 -0.007591 0.008682 0.002150 -0.010259
# 2 -0.009108 0.041760 -0.001767 -0.014788 -0.003043 -0.008499
# 3 -0.007591 -0.001767 0.011544 -0.004134 -0.001073 0.006567
# 4 0.008682 -0.014788 -0.004134 0.030170 -0.001971 -0.008104
# 5 0.002150 -0.003043 -0.001073 -0.001971 0.020704 0.001144
# 6 -0.010259 -0.008499 0.006567 -0.008104 0.001144 0.063587
#
#
# Mechanical properties :
#
#
# Convention : Reuss Voigt Hill
#
# Bulk Modulus (GPa) = 28.84358 56.02230 42.43294
# Shear Modulus (GPa) = 21.31725 34.71929 28.01827
#
# Velocity S-wave (km/s) = 3.08325 3.93485 3.53479
# Velocity P-wave (km/s) = 5.05351 6.75479 5.96511
#
# Compressibility (1/GPa) = 0.03466976
#
# Stress axis : x y z
#
# Youngs Moduli (GPa) = 54.64946 23.94648 86.62478
#
# Poissons Ratio (x) = 0.21811 0.65761
# Poissons Ratio (y) = 0.49775 0.15304
# Poissons Ratio (z) = 0.41487 0.04231
#
# Static dielectric constant tensor:
#      x y z
#    x 1.865430 -0.010390 -0.016580 
#    y -0.010390 2.037180 0.175700 
#    z -0.016580 0.175700 1.971530 
# 
# From -- ./inp_files/93302.got.cif
#   From: 2010.05.17/outbox.cif.g08.bks.cpg/sg2_47_cif.got.tgz:93302.got - 2010.06.03 11:33:40.
