data_PCOD9023110
_publ_section_title
;
Structure prediction by ZEFSAII (Michael W. Deem and Ramdas Pophale) SiO2 
 PCOD9023110
Probable space group: P -1
;
_chemical_formula_sum "Si O2"
_cell_formula_units_Z 16
_cell_length_a 6.530158
_cell_length_b 20.961992
_cell_length_c 8.688096
_cell_angle_alpha 49.986023
_cell_angle_beta 104.554820
_cell_angle_gamma 127.784794
_cell_volume 699.585138
_symmetry_space_group_name_H-M "P -1"
_symmetry_group_IT_number 2
_symmetry_cell_setting 'triclinic'
loop_
_space_group_symop_operation_xyz
x,y,z
-x,-y,-z
loop_
_atom_site_type_symbol
_atom_site_label
_atom_site_fract_x
_atom_site_fract_y
_atom_site_fract_z
Si Si1 0.250105 0.156247 0.906587
Si Si2 0.317123 0.322987 0.471527
Si Si3 0.186253 0.401862 0.596819
Si Si4 0.292987 0.667826 0.859086
Si Si5 0.171770 0.827582 0.606054
Si Si6 0.877558 0.464749 0.276948
Si Si7 0.859004 0.760287 0.944380
Si Si8 0.330896 0.990961 0.128563
O O1 0.410480 0.261365 0.671874
O O2 0.388356 0.099663 0.020776
O O3 0.972160 0.082218 0.877382
O O4 0.177846 0.180320 0.018966
O O5 0.151028 0.334424 0.546170
O O6 0.117071 0.255393 0.401660
O O7 0.590340 0.434181 0.309455
O O8 0.500000 0.500000 0.500000
O O9 0.014621 0.442164 0.469131
O O10 0.110550 0.323755 0.844099
O O11 0.575746 0.694808 0.906622
O O12 0.311322 0.771354 0.714206
O O13 0.188001 0.611568 0.761640
O O14 0.082693 0.582722 0.074676
O O15 0.094268 0.835400 0.752010
O O16 0.330693 0.930553 0.369963
O O17 0.500000 0.000000 0.000000
#
# Coordination Sequence:
#
# PCOD9023110 Si02
#       8
#     2   2   2   2   2   2   2   2
#     4   9  23  43  66  98 128 168 212 271 334 389
#     4  10  22  39  66  91 129 175 221 267 318 387
#     4  11  23  40  60  92 132 177 226 270 313 370
#     4  11  24  38  62  99 132 178 219 265 324 380
#     4  11  24  41  66  98 130 173 213 276 334 388
#     4  11  23  39  65  91 132 183 227 259 314 387
#     4  11  24  43  63  97 143 166 215 277 327 379
#     4  10  23  44  74  96 123 169 219 264 335 410
#
# _framework density 22.870697
#
# number of rings (size 3 to 8) (size 9 to 14) (size 15 to 20)
#    0.000    1.500    3.750    0.000    3.500    5.500 
#    0.000    1.250    0.000    0.000    0.000    0.000 
#    0.000    0.000    0.000    0.000    0.000    0.000 
#
# Total GULP energy -89477.805548 kJ/mol
# GULP energy per Si atom -5592.362847 kJ/mol
# Density = 2.281864 g / cm^3
# Si number density = 22.870697 Si / 1000 Ang^3
#
#
#
# Elastic Constant Matrix: (Units=GPa)
#
#
# Indices 1 2 3 4 5 6 
#
# 1 53.7363 7.8047 49.7705 15.3704 -1.0277 -13.2642
# 2 7.8047 53.7809 16.9183 8.9238 6.6331 -11.8755
# 3 49.7705 16.9183 132.6015 10.0584 3.2321 -12.8973
# 4 15.3704 8.9238 10.0584 21.9984 3.0509 -1.4882
# 5 -1.0277 6.6331 3.2321 3.0509 39.6384 0.6927
# 6 -13.2642 -11.8755 -12.8973 -1.4882 0.6927 44.6521
#
#
#
# Elastic Compliance Matrix: (Units=1/GPa)
#
#
# Indices 1 2 3 4 5 6 
#
# 1 0.037734 0.003384 -0.012238 -0.022026 0.002969 0.007794
# 2 0.003384 0.022144 -0.002754 -0.009308 -0.002779 0.005832
# 3 -0.012238 -0.002754 0.012124 0.004237 -0.001159 -0.000707
# 4 -0.022026 -0.009308 0.004237 0.062873 -0.004100 -0.005636
# 5 0.002969 -0.002779 -0.001159 -0.004100 0.026193 -0.000735
# 6 0.007794 0.005832 -0.000707 -0.005636 -0.000735 0.025881
#
#
# Mechanical properties :
#
#
# Convention : Reuss Voigt Hill
#
# Bulk Modulus (GPa) = 20.49828 43.23395 31.86612
# Shear Modulus (GPa) = 22.08196 32.29947 27.19072
#
# Velocity S-wave (km/s) = 3.11064 3.76209 3.45177
# Velocity P-wave (km/s) = 4.67799 6.14945 5.46349
#
# Compressibility (1/GPa) = 0.04878457
#
# Stress axis : x y z
#
# Youngs Moduli (GPa) = 26.50144 45.15836 82.47865
#
# Poissons Ratio (x) = -0.15280 1.00939
# Poissons Ratio (y) = -0.08967 0.22717
# Poissons Ratio (z) = 0.32433 0.12438
#
# Static dielectric constant tensor:
#      x y z
#    x 1.842720 -0.030000 -0.006930 
#    y -0.030000 1.871880 0.022920 
#    z -0.006930 0.022920 1.856520 
# 
# From -- ./inp_files/54773.got.cif
#   From: 2010.05.17/outbox.cif.g08.bks.cpg/sg2_28_cif.got.tgz:54773.got - 2010.06.03 11:33:40.
