data_PCOD9023156
_publ_section_title
;
Structure prediction by ZEFSAII (Michael W. Deem and Ramdas Pophale) SiO2 
 PCOD9023156
Probable space group: P -1
;
_chemical_formula_sum "Si O2"
_cell_formula_units_Z 16
_cell_length_a 5.641684
_cell_length_b 17.806835
_cell_length_c 12.569341
_cell_angle_alpha 35.322897
_cell_angle_beta 118.216533
_cell_angle_gamma 107.342466
_cell_volume 633.728411
_symmetry_space_group_name_H-M "P -1"
_symmetry_group_IT_number 2
_symmetry_cell_setting 'triclinic'
loop_
_space_group_symop_operation_xyz
x,y,z
-x,-y,-z
loop_
_atom_site_type_symbol
_atom_site_label
_atom_site_fract_x
_atom_site_fract_y
_atom_site_fract_z
Si Si1 0.124562 0.962831 0.401710
Si Si2 0.333719 0.095705 0.939983
Si Si3 0.234819 0.831577 0.294335
Si Si4 0.290424 0.132837 0.431168
Si Si5 0.525580 0.434682 0.382755
Si Si6 0.181466 0.790372 0.076127
Si Si7 0.953816 0.494169 0.667962
Si Si8 0.984917 0.421508 0.980081
O O1 0.380954 0.874782 0.497719
O O2 0.869269 0.894602 0.462913
O O3 0.237314 0.017888 0.471053
O O4 0.010742 0.089811 0.160363
O O5 0.274956 0.981819 0.139450
O O6 0.514936 0.192695 0.917049
O O7 0.073792 0.169609 0.734069
O O8 0.500000 0.000000 0.000000
O O9 0.456610 0.704500 0.514466
O O10 0.191798 0.807886 0.185069
O O11 0.134975 0.273025 0.194049
O O12 0.353483 0.428798 0.461946
O O13 0.337944 0.556678 0.143014
O O14 0.835089 0.458760 0.422356
O O15 0.084140 0.654754 0.188784
O O16 0.090338 0.492081 0.817562
O O17 0.000000 0.500000 0.000000
#
# Coordination Sequence:
#
# PCOD9023156 Si02
#       8
#     2   2   2   2   2   2   2   2
#     4  10  22  39  66  96 128 171 215 281 335 392
#     4   9  22  42  64  94 130 174 220 277 334 392
#     4  10  23  43  68  97 137 178 222 275 335 411
#     4  10  22  40  63  94 132 169 223 271 337 391
#     4  10  25  44  68  96 137 179 227 271 336 399
#     4  11  23  41  70  98 139 171 227 278 341 399
#     4  10  25  43  67  99 137 177 225 278 332 396
#     4  10  24  46  67  97 135 183 227 282 332 402
#
# _framework density 25.247406999999999
#
# number of rings (size 3 to 8) (size 9 to 14) (size 15 to 20)
#    0.750    1.250    1.250    0.000    8.750    3.500 
#    4.500    0.000    0.000    0.000    0.000    0.000 
#    0.000    0.000    0.000    0.000    0.000    0.000 
#
# Total GULP energy -89287.255710 kJ/mol
# GULP energy per Si atom -5580.453482 kJ/mol
# Density = 2.518994 g / cm^3
# Si number density = 25.247407 Si / 1000 Ang^3
#
#
#
# Elastic Constant Matrix: (Units=GPa)
#
#
# Indices 1 2 3 4 5 6 
#
# 1 193.9418 25.5862 69.1629 -20.2581 13.0476 5.6525
# 2 25.5862 49.7632 6.2086 -0.2573 -10.4640 3.7273
# 3 69.1629 6.2086 134.7139 -20.1842 17.7088 -1.2212
# 4 -20.2581 -0.2573 -20.1842 34.5001 -3.9405 -3.8286
# 5 13.0476 -10.4640 17.7088 -3.9405 39.8850 -5.6799
# 6 5.6525 3.7273 -1.2212 -3.8286 -5.6799 32.8991
#
#
#
# Elastic Compliance Matrix: (Units=1/GPa)
#
#
# Indices 1 2 3 4 5 6 
#
# 1 0.007033 -0.003566 -0.002895 0.002083 -0.001887 -0.000995
# 2 -0.003566 0.023577 -0.000437 -0.001454 0.007262 -0.000990
# 3 -0.002895 -0.000437 0.009916 0.003840 -0.003073 0.000831
# 4 0.002083 -0.001454 0.003840 0.033006 0.001059 0.003973
# 5 -0.001887 0.007262 -0.003073 0.001059 0.029724 0.004642
# 6 -0.000995 -0.000990 0.000831 0.003973 0.004642 0.031974
#
#
# Mechanical properties :
#
#
# Convention : Reuss Voigt Hill
#
# Bulk Modulus (GPa) = 37.41247 64.48159 50.94703
# Shear Modulus (GPa) = 31.65827 39.95426 35.80626
#
# Velocity S-wave (km/s) = 3.54492 3.98239 3.77001
# Velocity P-wave (km/s) = 5.62190 6.83676 6.25887
#
# Compressibility (1/GPa) = 0.02672906
#
# Stress axis : x y z
#
# Youngs Moduli (GPa) = 142.19444 42.41448 100.84287
#
# Poissons Ratio (x) = 0.15125 0.29195
# Poissons Ratio (y) = 0.50708 0.04409
# Poissons Ratio (z) = 0.41167 0.01854
#
# Static dielectric constant tensor:
#      x y z
#    x 2.189850 0.010790 0.017330 
#    y 0.010790 2.036790 0.048010 
#    z 0.017330 0.048010 1.987600 
# 
# From -- ./inp_files/485645.got.cif
#   From: 2010.05.17/outbox.cif.g08.bks.cpg/sg2_243_cif.got.tgz:485645.got - 2010.06.03 11:33:40.
