data_PCOD9023898
_publ_section_title
;
Structure prediction by ZEFSAII (Michael W. Deem and Ramdas Pophale) SiO2 
 PCOD9023898
Probable space group: P -1
;
_chemical_formula_sum "Si O2"
_cell_formula_units_Z 16
_cell_length_a 14.199299
_cell_length_b 23.010283
_cell_length_c 22.882066
_cell_angle_alpha 167.486969
_cell_angle_beta 148.844557
_cell_angle_gamma 29.920790
_cell_volume 804.749048
_symmetry_space_group_name_H-M "P -1"
_symmetry_group_IT_number 2
_symmetry_cell_setting 'triclinic'
loop_
_space_group_symop_operation_xyz
x,y,z
-x,-y,-z
loop_
_atom_site_type_symbol
_atom_site_label
_atom_site_fract_x
_atom_site_fract_y
_atom_site_fract_z
Si Si1 0.160485 0.897134 0.280330
Si Si2 0.719004 0.182501 0.972344
Si Si3 0.321645 0.626521 0.728569
Si Si4 0.882777 0.792343 0.844926
Si Si5 0.426051 0.237645 0.588941
Si Si6 0.986054 0.805702 0.218880
Si Si7 0.235139 0.615616 0.272535
Si Si8 0.884056 0.567840 0.285945
O O1 0.363560 0.915809 0.429826
O O2 0.045736 0.828993 0.207308
O O3 0.063315 0.192015 0.487466
O O4 0.189280 0.643411 0.000993
O O5 0.713643 0.243320 0.097563
O O6 0.583930 0.452816 0.134053
O O7 0.928169 0.158524 0.035259
O O8 0.649981 0.919269 0.657512
O O9 0.198569 0.414188 0.440774
O O10 0.540928 0.457634 0.674299
O O11 0.261424 0.900702 0.924673
O O12 0.948265 0.626609 0.777013
O O13 0.279587 0.273070 0.599575
O O14 0.169476 0.664369 0.217836
O O15 0.883017 0.108995 0.486872
O O16 0.840170 0.628218 0.979641
#
# Coordination Sequence:
#
# PCOD9023898 Si02
#       8
#     2   2   2   2   2   2   2   2
#     4  12  22  38  64  86 116 160 200 235 292 354
#     4  11  22  37  58  90 125 153 192 240 292 353
#     4  12  22  38  64  86 116 160 200 235 292 354
#     4  11  23  39  57  85 122 160 200 240 281 336
#     4  11  22  37  58  90 125 153 192 240 292 353
#     4  10  22  40  62  90 119 145 184 243 304 355
#     4  10  22  40  62  90 119 145 184 243 304 355
#     4  11  23  39  57  85 122 160 200 240 281 336
#
# _framework density 19.881975000000001
#
# number of rings (size 3 to 8) (size 9 to 14) (size 15 to 20)
#    0.000    1.000    0.000    9.000    0.000    3.000 
#    0.000    0.000    0.000   15.000    0.000    0.000 
#    0.000    0.000    0.000    0.000    0.000    0.000 
#
# Total GULP energy -89502.621766 kJ/mol
# GULP energy per Si atom -5593.913860 kJ/mol
# Density = 1.983672 g / cm^3
# Si number density = 19.881975 Si / 1000 Ang^3
#
#
#
# Elastic Constant Matrix: (Units=GPa)
#
#
# Indices 1 2 3 4 5 6 
#
# 1 47.3461 29.7742 11.2242 5.5148 12.0226 11.8644
# 2 29.7742 86.5963 7.4223 1.1974 10.8891 -3.6106
# 3 11.2242 7.4223 97.5119 -10.3797 9.9499 -2.5373
# 4 5.5148 1.1974 -10.3797 33.3789 18.3912 2.4340
# 5 12.0226 10.8891 9.9499 18.3912 21.1064 4.8004
# 6 11.8644 -3.6106 -2.5373 2.4340 4.8004 17.1505
#
#
#
# Elastic Compliance Matrix: (Units=1/GPa)
#
#
# Indices 1 2 3 4 5 6 
#
# 1 0.039625 -0.013909 -0.004120 -0.002796 -0.004344 -0.029337
# 2 -0.013909 0.018652 0.003388 0.010379 -0.016235 0.017121
# 3 -0.004120 0.003388 0.015181 0.018127 -0.024659 0.010139
# 4 -0.002796 0.010379 0.018127 0.083704 -0.089805 0.020058
# 5 -0.004344 -0.016235 -0.024659 -0.089805 0.156066 -0.034998
# 6 -0.029337 0.017121 0.010139 0.020058 -0.034998 0.090656
#
#
# Mechanical properties :
#
#
# Convention : Reuss Voigt Hill
#
# Bulk Modulus (GPa) = 22.63707 36.47732 29.55720
# Shear Modulus (GPa) = 11.16342 26.52941 18.84642
#
# Velocity S-wave (km/s) = 2.37214 3.65683 3.08216
# Velocity P-wave (km/s) = 4.34893 6.01803 5.25023
#
# Compressibility (1/GPa) = 0.04417532
#
# Stress axis : x y z
#
# Youngs Moduli (GPa) = 25.23645 53.61452 65.87156
#
# Poissons Ratio (x) = 0.74575 0.27140
# Poissons Ratio (y) = 0.35102 -0.22319
# Poissons Ratio (z) = 0.10398 -0.18166
#
# Static dielectric constant tensor:
#      x y z
#    x 1.673430 0.032720 0.002580 
#    y 0.032720 1.715440 0.015570 
#    z 0.002580 0.015570 1.679210 
# 
# From -- ./inp_files/123622.got.cif
#   From: 2010.05.17/outbox.cif.g08.bks.cpg/sg2_62_cif.got.tgz:123622.got - 2010.06.03 11:33:40.
