data_PCOD9023293
_publ_section_title
;
Structure prediction by ZEFSAII (Michael W. Deem and Ramdas Pophale) SiO2 
 PCOD9023293
Probable space group: P -1
;
_chemical_formula_sum "Si O2"
_cell_formula_units_Z 14
_cell_length_a 5.417180
_cell_length_b 5.064418
_cell_length_c 24.750069
_cell_angle_alpha 100.746261
_cell_angle_beta 128.381537
_cell_angle_gamma 81.512503
_cell_volume 522.493993
_symmetry_space_group_name_H-M "P -1"
_symmetry_group_IT_number 2
_symmetry_cell_setting 'triclinic'
loop_
_space_group_symop_operation_xyz
x,y,z
-x,-y,-z
loop_
_atom_site_type_symbol
_atom_site_label
_atom_site_fract_x
_atom_site_fract_y
_atom_site_fract_z
Si Si1 0.736669 0.541053 0.824732
Si Si2 0.786135 0.793289 0.546969
Si Si3 0.220392 0.596009 0.287583
Si Si4 0.368857 0.766808 0.090972
Si Si5 0.600896 0.356610 0.420732
Si Si6 0.214691 0.803843 0.958430
Si Si7 0.821910 0.070162 0.224504
O O1 0.687571 0.352357 0.759832
O O2 0.649819 0.420884 0.866505
O O3 0.494690 0.789836 0.789269
O O4 0.096508 0.624821 0.886224
O O5 0.740338 0.519593 0.496230
O O6 0.717849 0.746670 0.598987
O O7 0.139037 0.853552 0.577402
O O8 0.500000 0.000000 0.500000
O O9 0.497240 0.558958 0.366630
O O10 0.051788 0.310636 0.253625
O O11 0.975367 0.840702 0.274729
O O12 0.693677 0.920476 0.147821
O O13 0.294454 0.639186 0.018047
O O14 0.093407 0.999184 0.067429
O O15 0.500000 0.000000 0.000000
#
# Coordination Sequence:
#
# PCOD9023293 Si02
#       7
#     2   2   2   2   2   2   2
#     4  11  25  44  70  99 142 184 242 301 373 439
#     4  10  22  47  74 110 149 194 242 305 356 436
#     4  12  28  44  73 105 141 194 237 295 365 441
#     4  10  22  42  66  97 135 183 237 305 364 435
#     4  10  25  43  72 111 147 193 248 297 366 433
#     4  10  22  39  67  97 133 184 236 302 370 440
#     4  11  26  47  67 100 143 183 240 298 359 439
#
# _framework density 26.794571000000001
#
# number of rings (size 3 to 8) (size 9 to 14) (size 15 to 20)
#    0.000    1.429    1.429    1.714   10.000    0.571 
#    0.000    0.000    0.000    0.000    0.000    0.000 
#    0.000    0.000    0.000    0.000    0.000    0.000 
#
# Total GULP energy -78322.703439 kJ/mol
# GULP energy per Si atom -5594.478817 kJ/mol
# Density = 2.673359 g / cm^3
# Si number density = 26.794571 Si / 1000 Ang^3
#
#
#
# Elastic Constant Matrix: (Units=GPa)
#
#
# Indices 1 2 3 4 5 6 
#
# 1 138.3694 37.3330 50.6718 -13.2377 -11.5083 -9.7638
# 2 37.3330 100.4997 26.2462 -19.7656 5.0479 2.3571
# 3 50.6718 26.2462 124.9557 -22.1224 -12.7240 -4.1845
# 4 -13.2377 -19.7656 -22.1224 54.5807 -3.6563 13.7590
# 5 -11.5083 5.0479 -12.7240 -3.6563 34.1223 -11.4566
# 6 -9.7638 2.3571 -4.1845 13.7590 -11.4566 49.2873
#
#
#
# Elastic Compliance Matrix: (Units=1/GPa)
#
#
# Indices 1 2 3 4 5 6 
#
# 1 0.009557 -0.003130 -0.002845 -0.000423 0.003497 0.002732
# 2 -0.003130 0.012461 -0.001193 0.003838 -0.004051 -0.003330
# 3 -0.002845 -0.001193 0.010348 0.003236 0.003518 0.000286
# 4 -0.000423 0.003838 0.003236 0.022510 0.000868 -0.006075
# 5 0.003497 -0.004051 0.003518 0.000868 0.035584 0.009214
# 6 0.002732 -0.003330 0.000286 -0.006075 0.009214 0.024852
#
#
# Mechanical properties :
#
#
# Convention : Reuss Voigt Hill
#
# Bulk Modulus (GPa) = 55.46403 65.81408 60.63905
# Shear Modulus (GPa) = 36.85796 44.23633 40.54714
#
# Velocity S-wave (km/s) = 3.71290 4.06759 3.89428
# Velocity P-wave (km/s) = 6.25504 6.83200 6.54987
#
# Compressibility (1/GPa) = 0.01802970
#
# Stress axis : x y z
#
# Youngs Moduli (GPa) = 104.63903 80.25139 96.63839
#
# Poissons Ratio (x) = 0.25119 0.27497
# Poissons Ratio (y) = 0.32752 0.11524
# Poissons Ratio (z) = 0.29773 0.09570
#
# Static dielectric constant tensor:
#      x y z
#    x 2.213090 0.034150 0.001520 
#    y 0.034150 2.155480 0.037020 
#    z 0.001520 0.037020 2.063220 
# 
# From -- ./inp_files/14389.got.cif
#   From: 2010.05.17/outbox.cif.g08.bks.cpg/sg2_8_cif.got.tgz:14389.got - 2010.06.03 11:33:40.
