data_PCOD9023649
_publ_section_title
;
Structure prediction by ZEFSAII (Michael W. Deem and Ramdas Pophale) SiO2 
 PCOD9023649
Probable space group: P -1
;
_chemical_formula_sum "Si O2"
_cell_formula_units_Z 16
_cell_length_a 13.551440
_cell_length_b 8.887524
_cell_length_c 5.367773
_cell_angle_alpha 101.045175
_cell_angle_beta 85.787350
_cell_angle_gamma 108.651751
_cell_volume 601.136324
_symmetry_space_group_name_H-M "P -1"
_symmetry_group_IT_number 2
_symmetry_cell_setting 'triclinic'
loop_
_space_group_symop_operation_xyz
x,y,z
-x,-y,-z
loop_
_atom_site_type_symbol
_atom_site_label
_atom_site_fract_x
_atom_site_fract_y
_atom_site_fract_z
Si Si1 0.590128 0.583658 0.709105
Si Si2 0.882757 0.330969 0.711128
Si Si3 0.716211 0.900487 0.179961
Si Si4 0.669351 0.054122 0.727528
Si Si5 0.955032 0.085517 0.319063
Si Si6 0.735395 0.589349 0.275815
Si Si7 0.938821 0.666845 0.964512
Si Si8 0.574392 0.297859 0.001263
O O1 0.500000 0.500000 0.500000
O O2 0.700133 0.640063 0.563263
O O3 0.586149 0.430128 0.827647
O O4 0.536291 0.712773 0.862481
O O5 0.765825 0.216613 0.710724
O O6 0.937589 0.250359 0.475638
O O7 0.891193 0.516349 0.741723
O O8 0.948778 0.328150 0.948116
O O9 0.656449 0.951461 0.441989
O O10 0.838069 0.978117 0.249199
O O11 0.696338 0.707353 0.133790
O O12 0.702933 0.975780 0.941280
O O13 0.579725 0.129231 0.847224
O O14 0.039245 0.160064 0.112213
O O15 0.000000 0.000000 0.500000
O O16 0.855021 0.629351 0.192551
O O17 0.671528 0.399392 0.190875
#
# Coordination Sequence:
#
# PCOD9023649 Si02
#       8
#     2   2   2   2   2   2   2   2
#     4   9  22  44  71 102 132 165 233 287 345 411
#     4  10  22  40  59  94 132 177 231 288 321 401
#     4  11  27  43  65 100 151 179 233 280 348 410
#     4  11  24  46  68 103 138 192 223 288 345 411
#     4  11  24  40  61  89 138 191 226 281 339 402
#     4  11  24  40  69 101 133 182 228 287 336 415
#     4  11  22  39  64  92 132 176 241 275 339 386
#     4  10  22  44  77  98 130 177 229 284 348 414
#
# _framework density 26.616258999999999
#
# number of rings (size 3 to 8) (size 9 to 14) (size 15 to 20)
#    0.000    1.500    2.500    1.125    8.750    2.000 
#    2.250    1.250    0.000    0.000    0.000    0.000 
#    0.000    0.000    0.000    0.000    0.000    0.000 
#
# Total GULP energy -89557.560739 kJ/mol
# GULP energy per Si atom -5597.347546 kJ/mol
# Density = 2.655568 g / cm^3
# Si number density = 26.616259 Si / 1000 Ang^3
#
#
#
# Elastic Constant Matrix: (Units=GPa)
#
#
# Indices 1 2 3 4 5 6 
#
# 1 91.5885 20.6496 11.9117 -9.9222 -20.5816 1.5773
# 2 20.6496 97.2510 18.8370 8.2980 -12.1288 11.7342
# 3 11.9117 18.8370 83.2720 -4.9492 -34.7946 -12.5252
# 4 -9.9222 8.2980 -4.9492 48.4131 -5.2148 -8.7325
# 5 -20.5816 -12.1288 -34.7946 -5.2148 47.6028 5.3755
# 6 1.5773 11.7342 -12.5252 -8.7325 5.3755 41.6511
#
#
#
# Elastic Compliance Matrix: (Units=1/GPa)
#
#
# Indices 1 2 3 4 5 6 
#
# 1 0.013289 -0.002833 0.001998 0.004317 0.006854 0.000916
# 2 -0.002833 0.012527 -0.003732 -0.004137 -0.000612 -0.005333
# 3 0.001998 -0.003732 0.019850 0.005760 0.014341 0.006302
# 4 0.004317 -0.004137 0.005760 0.024858 0.006950 0.007049
# 5 0.006854 -0.000612 0.014341 0.006950 0.034926 0.001175
# 6 0.000916 -0.005333 0.006302 0.007049 0.001175 0.028698
#
#
# Mechanical properties :
#
#
# Convention : Reuss Voigt Hill
#
# Bulk Modulus (GPa) = 27.37309 41.65647 34.51478
# Shear Modulus (GPa) = 32.16259 42.24761 37.20510
#
# Velocity S-wave (km/s) = 3.47995 3.98840 3.74282
# Velocity P-wave (km/s) = 5.14329 6.07408 5.62796
#
# Compressibility (1/GPa) = 0.03653223
#
# Stress axis : x y z
#
# Youngs Moduli (GPa) = 75.24825 79.82616 50.37805
#
# Poissons Ratio (x) = 0.22614 -0.10066
# Poissons Ratio (y) = 0.21317 0.18803
# Poissons Ratio (z) = -0.15035 0.29794
#
# Static dielectric constant tensor:
#      x y z
#    x 2.043760 0.002250 0.028040 
#    y 0.002250 2.080650 0.068660 
#    z 0.028040 0.068660 2.303190 
# 
# From -- ./inp_files/38021.got.cif
#   From: 2010.05.17/outbox.cif.g08.bks.cpg/sg2_20_cif.got.tgz:38021.got - 2010.06.03 11:33:40.
