data_PCOD9023840
_publ_section_title
;
Structure prediction by ZEFSAII (Michael W. Deem and Ramdas Pophale) SiO2 
 PCOD9023840
Probable space group: P -1
;
_chemical_formula_sum "Si O2"
_cell_formula_units_Z 13
_cell_length_a 16.596625
_cell_length_b 5.077158
_cell_length_c 8.260462
_cell_angle_alpha 81.515930
_cell_angle_beta 139.079402
_cell_angle_gamma 93.018742
_cell_volume 449.074501
_symmetry_space_group_name_H-M "P -1"
_symmetry_group_IT_number 2
_symmetry_cell_setting 'triclinic'
loop_
_space_group_symop_operation_xyz
x,y,z
-x,-y,-z
loop_
_atom_site_type_symbol
_atom_site_label
_atom_site_fract_x
_atom_site_fract_y
_atom_site_fract_z
Si Si1 0.959499 0.487244 0.130729
Si Si2 0.666493 0.487746 0.713958
Si Si3 0.722509 0.041528 0.083384
Si Si4 0.392861 0.302816 0.837572
Si Si5 0.636927 0.030001 0.488983
Si Si6 0.000000 0.000000 0.500000
Si Si7 0.181707 0.749568 0.455082
O O1 0.041317 0.723334 0.291793
O O2 0.001550 0.248612 0.342147
O O3 0.000000 0.500000 0.000000
O O4 0.813045 0.502320 0.910142
O O5 0.620759 0.798233 0.613723
O O6 0.606323 0.319579 0.495609
O O7 0.657919 0.291201 0.868158
O O8 0.856781 0.946916 0.227538
O O9 0.759043 0.148370 0.303369
O O10 0.636763 0.814343 0.020823
O O11 0.416086 0.085663 0.747362
O O12 0.261306 0.466254 0.575348
O O13 0.500000 0.500000 0.000000
O O14 0.780938 0.062508 0.650610
#
# Coordination Sequence:
#
# PCOD9023840 Si02
#       7
#     2   2   2   2   2   1   2
#     4  11  21  38  66 103 142 194 228 285 358 430
#     4  11  25  42  69 106 144 185 225 295 362 435
#     4  10  25  41  71 102 147 184 235 293 361 425
#     4  11  24  48  75  98 136 191 246 297 352 417
#     4  11  23  45  69 102 142 179 243 288 352 436
#     4  10  22  40  62 102 148 186 230 288 348 440
#     4  11  23  44  69 103 142 185 245 290 350 434
#
# _framework density 28.948426999999999
#
# number of rings (size 3 to 8) (size 9 to 14) (size 15 to 20)
#    0.000    1.231    4.615    0.000    4.308    8.000 
#    0.000    1.538    0.000    0.000    0.000    0.000 
#    0.000    0.000    0.000    0.000    0.000    0.000 
#
# Total GULP energy -72527.936230 kJ/mol
# GULP energy per Si atom -5579.072018 kJ/mol
# Density = 2.888254 g / cm^3
# Si number density = 28.948427 Si / 1000 Ang^3
#
#
#
# Elastic Constant Matrix: (Units=GPa)
#
#
# Indices 1 2 3 4 5 6 
#
# 1 112.1038 56.8653 36.0120 -4.0245 26.6403 48.7734
# 2 56.8653 182.9953 46.5853 10.9299 6.5256 40.8677
# 3 36.0120 46.5853 101.7103 1.1830 9.0382 25.2027
# 4 -4.0245 10.9299 1.1830 55.0405 19.0940 -1.3808
# 5 26.6403 6.5256 9.0382 19.0940 56.8032 -1.5857
# 6 48.7734 40.8677 25.2027 -1.3808 -1.5857 72.2015
#
#
#
# Elastic Compliance Matrix: (Units=1/GPa)
#
#
# Indices 1 2 3 4 5 6 
#
# 1 0.017647 -0.002798 -0.001728 0.004976 -0.009627 -0.009850
# 2 -0.002798 0.007276 -0.002074 -0.002160 0.001490 -0.001513
# 3 -0.001728 -0.002074 0.011936 0.000335 -0.001014 -0.001841
# 4 0.004976 -0.002160 0.000335 0.022260 -0.009678 -0.002042
# 5 -0.009627 0.001490 -0.001014 -0.009678 0.025542 0.006390
# 6 -0.009850 -0.001513 -0.001841 -0.002042 0.006390 0.022104
#
#
# Mechanical properties :
#
#
# Convention : Reuss Voigt Hill
#
# Bulk Modulus (GPa) = 42.26919 75.08165 58.67542
# Shear Modulus (GPa) = 39.10803 53.96550 46.53677
#
# Velocity S-wave (km/s) = 3.67952 4.32232 4.01381
# Velocity P-wave (km/s) = 5.71709 7.13460 6.46481
#
# Compressibility (1/GPa) = 0.02365789
#
# Stress axis : x y z
#
# Youngs Moduli (GPa) = 56.66826 137.44214 83.77886
#
# Poissons Ratio (x) = 0.38453 0.14479
# Poissons Ratio (y) = 0.15855 0.17378
# Poissons Ratio (z) = 0.09794 0.28509
#
# Static dielectric constant tensor:
#      x y z
#    x 2.284340 -0.116310 0.048490 
#    y -0.116310 2.227770 -0.078750 
#    z 0.048490 -0.078750 2.107060 
# 
# From -- ./inp_files/20046.got.cif
#   From: 2010.05.17/outbox.cif.g08.bks.cpg/sg2_11_cif.got.tgz:20046.got - 2010.06.03 11:33:40.
