data_PCOD9023940
_publ_section_title
;
Structure prediction by ZEFSAII (Michael W. Deem and Ramdas Pophale) SiO2 
 PCOD9023940
Probable space group: P -1
;
_chemical_formula_sum "Si O2"
_cell_formula_units_Z 13
_cell_length_a 8.822771
_cell_length_b 11.148901
_cell_length_c 11.119381
_cell_angle_alpha 64.125955
_cell_angle_beta 48.029920
_cell_angle_gamma 101.291266
_cell_volume 500.892276
_symmetry_space_group_name_H-M "P -1"
_symmetry_group_IT_number 2
_symmetry_cell_setting 'triclinic'
loop_
_space_group_symop_operation_xyz
x,y,z
-x,-y,-z
loop_
_atom_site_type_symbol
_atom_site_label
_atom_site_fract_x
_atom_site_fract_y
_atom_site_fract_z
Si Si1 0.192033 0.861004 0.650364
Si Si2 0.499318 0.925183 0.218394
Si Si3 0.682221 0.797593 0.554247
Si Si4 0.517320 0.665720 0.437621
Si Si5 0.932174 0.382656 0.782471
Si Si6 0.898576 0.619613 0.557810
Si Si7 0.000000 0.500000 0.000000
O O1 0.278833 0.851687 0.477593
O O2 0.978673 0.654905 0.915799
O O3 0.500000 0.000000 0.500000
O O4 0.108338 0.975885 0.632358
O O5 0.618065 0.831926 0.221760
O O6 0.260929 0.806564 0.289460
O O7 0.733815 0.157156 0.998714
O O8 0.700143 0.777286 0.411481
O O9 0.766146 0.701026 0.616035
O O10 0.341304 0.678227 0.802175
O O11 0.500000 0.500000 0.500000
O O12 0.158899 0.523307 0.711813
O O13 0.792233 0.453431 0.778028
O O14 0.151477 0.452920 0.521125
#
# Coordination Sequence:
#
# PCOD9023940 Si02
#       7
#     2   2   2   2   2   2   1
#     4  10  22  40  62  92 125 164 213 262 308 371
#     4  11  23  42  65  93 127 170 209 260 322 378
#     4  11  23  41  65  96 127 164 216 264 310 375
#     4  11  22  40  64  95 127 164 217 262 313 374
#     4  10  23  42  66  90 134 170 203 258 322 377
#     4  10  23  43  61  96 132 163 209 260 317 385
#     4  10  22  42  66  88 128 170 206 264 316 364
#
# _framework density 25.953685
#
# number of rings (size 3 to 8) (size 9 to 14) (size 15 to 20)
#    0.000    1.538    4.615    0.462    4.308    2.462 
#    2.769    1.538    0.000    0.000    0.000    0.000 
#    0.000    0.000    0.000    0.000    0.000    0.000 
#
# Total GULP energy -72413.985031 kJ/mol
# GULP energy per Si atom -5570.306541 kJ/mol
# Density = 2.589461 g / cm^3
# Si number density = 25.953685 Si / 1000 Ang^3
#
#
#
# Elastic Constant Matrix: (Units=GPa)
#
#
# Indices 1 2 3 4 5 6 
#
# 1 111.1403 24.2618 34.7098 -27.4756 29.6723 -36.6338
# 2 24.2618 110.4039 39.7777 -53.5939 25.6809 -37.3263
# 3 34.7098 39.7777 148.4712 -62.8119 31.2106 -24.4915
# 4 -27.4756 -53.5939 -62.8119 66.0693 -15.2720 17.9889
# 5 29.6723 25.6809 31.2106 -15.2720 34.6029 -18.4960
# 6 -36.6338 -37.3263 -24.4915 17.9889 -18.4960 62.0243
#
#
#
# Elastic Compliance Matrix: (Units=1/GPa)
#
#
# Indices 1 2 3 4 5 6 
#
# 1 0.014081 0.004069 0.001604 0.006568 -0.010192 0.006454
# 2 0.004069 0.020544 0.004884 0.018298 -0.010681 0.008203
# 3 0.001604 0.004884 0.013725 0.014863 -0.009695 0.002104
# 4 0.006568 0.018298 0.014863 0.042932 -0.010979 0.005034
# 5 -0.010192 -0.010681 -0.009695 -0.010979 0.050520 0.001974
# 6 0.006454 0.008203 0.002104 0.005034 0.001974 0.024831
#
#
# Mechanical properties :
#
#
# Convention : Reuss Voigt Hill
#
# Bulk Modulus (GPa) = 14.39594 63.05711 38.72652
# Shear Modulus (GPa) = 29.64311 50.62370 40.13341
#
# Velocity S-wave (km/s) = 3.38324 4.42128 3.93663
# Velocity P-wave (km/s) = 4.56296 7.10017 5.96796
#
# Compressibility (1/GPa) = 0.06946404
#
# Stress axis : x y z
#
# Youngs Moduli (GPa) = 71.01904 48.67554 72.85995
#
# Poissons Ratio (x) = -0.19806 -0.11685
# Poissons Ratio (y) = -0.28898 -0.35587
# Poissons Ratio (z) = -0.11390 -0.23775
#
# Static dielectric constant tensor:
#      x y z
#    x 1.986660 0.057840 0.284090 
#    y 0.057840 2.195730 0.211950 
#    z 0.284090 0.211950 1.832140 
# 
# From -- ./inp_files/55034.got.cif
#   From: 2010.05.17/outbox.cif.g08.bks.cpg/sg2_28_cif.got.tgz:55034.got - 2010.06.03 11:33:40.
