data_PCOD9023973
_publ_section_title
;
Structure prediction by ZEFSAII (Michael W. Deem and Ramdas Pophale) SiO2 
 PCOD9023973
Probable space group: P -1
;
_chemical_formula_sum "Si O2"
_cell_formula_units_Z 16
_cell_length_a 6.201161
_cell_length_b 11.641629
_cell_length_c 15.279596
_cell_angle_alpha 129.107707
_cell_angle_beta 108.021369
_cell_angle_gamma 89.079839
_cell_volume 789.604663
_symmetry_space_group_name_H-M "P -1"
_symmetry_group_IT_number 2
_symmetry_cell_setting 'triclinic'
loop_
_space_group_symop_operation_xyz
x,y,z
-x,-y,-z
loop_
_atom_site_type_symbol
_atom_site_label
_atom_site_fract_x
_atom_site_fract_y
_atom_site_fract_z
Si Si1 0.556583 0.657040 0.179410
Si Si2 0.771250 0.075190 0.035412
Si Si3 0.647765 0.851376 0.615723
Si Si4 0.844647 0.345446 0.515929
Si Si5 0.834170 0.857756 0.460116
Si Si6 0.166950 0.384818 0.967844
Si Si7 0.984490 0.306515 0.325339
Si Si8 0.249898 0.840681 0.120724
O O1 0.641067 0.760186 0.323642
O O2 0.402002 0.484265 0.091358
O O3 0.402358 0.739738 0.138563
O O4 0.771662 0.647990 0.139570
O O5 0.871070 0.188676 0.180930
O O6 0.731117 0.156093 0.979011
O O7 0.500000 0.000000 0.000000
O O8 0.000000 0.000000 0.000000
O O9 0.401322 0.735976 0.514208
O O10 0.736745 0.918058 0.564425
O O11 0.808561 0.753152 0.632916
O O12 0.653091 0.990361 0.748201
O O13 0.824004 0.317772 0.394838
O O14 0.025059 0.260796 0.541559
O O15 0.925544 0.526055 0.623316
O O16 0.000000 0.000000 0.500000
O O17 0.000000 0.500000 0.000000
O O18 0.020765 0.231394 0.921197
#
# Coordination Sequence:
#
# PCOD9023973 Si02
#       8
#     2   2   2   2   2   2   2   2
#     4  10  22  40  62  93 131 172 218 277 342 419
#     4  12  27  46  70 105 140 182 235 291 348 415
#     4  11  22  41  65  93 130 171 223 275 343 407
#     4  10  23  42  66  95 131 177 223 285 345 410
#     4  11  24  39  61  96 130 168 222 276 340 410
#     4   9  21  40  61  89 127 169 220 271 340 406
#     4  10  23  44  66  97 132 174 228 283 346 412
#     4  11  23  39  67  94 129 177 218 283 343 413
#
# _framework density 20.263303000000001
#
# number of rings (size 3 to 8) (size 9 to 14) (size 15 to 20)
#    0.000    1.500    1.250    2.625    1.750   10.000 
#    0.000    0.000    0.000    0.000    0.000    0.000 
#    0.000    0.000    0.000    0.000    0.000    0.000 
#
# Total GULP energy -89205.456727 kJ/mol
# GULP energy per Si atom -5575.341045 kJ/mol
# Density = 2.021718 g / cm^3
# Si number density = 20.263303 Si / 1000 Ang^3
#
#
#
# Elastic Constant Matrix: (Units=GPa)
#
#
# Indices 1 2 3 4 5 6 
#
# 1 76.8984 25.0964 16.4537 0.4801 8.6692 11.3386
# 2 25.0964 85.3291 19.2987 1.7572 17.8856 7.5846
# 3 16.4537 19.2987 69.0154 -6.2670 26.1247 -19.7618
# 4 0.4801 1.7572 -6.2670 32.6987 -8.4570 3.9054
# 5 8.6692 17.8856 26.1247 -8.4570 12.9968 15.8372
# 6 11.3386 7.5846 -19.7618 3.9054 15.8372 21.5863
#
#
#
# Elastic Compliance Matrix: (Units=1/GPa)
#
#
# Indices 1 2 3 4 5 6 
#
# 1 0.014734 -0.002567 0.000312 -0.002268 -0.008615 0.000179
# 2 -0.002567 0.014533 -0.004702 -0.001365 -0.001888 -0.006430
# 3 0.000312 -0.004702 0.003081 0.008887 0.024175 -0.015036
# 4 -0.002268 -0.001365 0.008887 0.029502 -0.006805 0.009462
# 5 -0.008615 -0.001888 0.024175 -0.006805 -0.023846 0.046047
# 6 0.000179 -0.006430 -0.015036 0.009462 0.046047 -0.000769
#
#
# Mechanical properties :
#
#
# Convention : Reuss Voigt Hill
#
# Bulk Modulus (GPa) = 54.25279 39.21562 46.73421
# Shear Modulus (GPa) = 87.26569 24.81598 56.04084
#
# Velocity S-wave (km/s) = 6.56958 3.50333 5.26463
# Velocity P-wave (km/s) = 9.18574 5.97992 7.75040
#
# Compressibility (1/GPa) = 0.01843223
#
# Stress axis : x y z
#
# Youngs Moduli (GPa) = 67.86824 68.80685 324.61331
#
# Poissons Ratio (x) = 0.17666 -0.10114
# Poissons Ratio (y) = 0.17425 1.52641
# Poissons Ratio (z) = -0.02115 0.32355
#
# Static dielectric constant tensor:
#      x y z
#    x 1.805100 -0.002580 0.000900 
#    y -0.002580 1.697530 0.017920 
#    z 0.000900 0.017920 1.685120 
# 
# From -- ./inp_files/68519.got.cif
#   From: 2010.05.17/outbox.cif.g08.bks.cpg/sg2_35_cif.got.tgz:68519.got - 2010.06.03 11:33:40.
