data_PCOD9023832
_publ_section_title
;
Structure prediction by ZEFSAII (Michael W. Deem and Ramdas Pophale) SiO2 
 PCOD9023832
Probable space group: P -1
;
_chemical_formula_sum "Si O2"
_cell_formula_units_Z 13
_cell_length_a 6.293835
_cell_length_b 9.450617
_cell_length_c 11.829150
_cell_angle_alpha 107.293096
_cell_angle_beta 115.449859
_cell_angle_gamma 94.480116
_cell_volume 589.064494
_symmetry_space_group_name_H-M "P -1"
_symmetry_group_IT_number 2
_symmetry_cell_setting 'triclinic'
loop_
_space_group_symop_operation_xyz
x,y,z
-x,-y,-z
loop_
_atom_site_type_symbol
_atom_site_label
_atom_site_fract_x
_atom_site_fract_y
_atom_site_fract_z
Si Si1 0.464346 0.359144 0.872519
Si Si2 0.386159 0.516454 0.306347
Si Si3 0.073462 0.712499 0.361934
Si Si4 0.815521 0.827264 0.798637
Si Si5 0.170791 0.225025 0.468949
Si Si6 0.659514 0.082235 0.950199
Si Si7 0.500000 0.000000 0.500000
O O1 0.604844 0.421544 0.804625
O O2 0.554300 0.219287 0.912490
O O3 0.183095 0.303397 0.760166
O O4 0.500000 0.500000 0.000000
O O5 0.159443 0.557320 0.327065
O O6 0.357699 0.337051 0.254934
O O7 0.628005 0.614154 0.444218
O O8 0.043129 0.751486 0.495294
O O9 0.283182 0.846988 0.393838
O O10 0.886723 0.827106 0.684105
O O11 0.676590 0.957713 0.828425
O O12 0.062455 0.853310 0.931981
O O13 0.298811 0.097320 0.516215
O O14 0.500000 0.000000 0.000000
#
# Coordination Sequence:
#
# PCOD9023832 Si02
#       7
#     2   2   2   2   2   2   1
#     4  11  24  44  72  98 136 179 228 277 334 409
#     4  10  23  44  68 101 131 174 231 277 335 396
#     4  10  23  40  68 101 132 174 228 276 339 397
#     4  11  25  44  67  96 142 176 223 281 332 402
#     4  10  23  40  69  98 133 175 222 280 338 393
#     4  11  27  43  65 101 135 184 223 274 341 396
#     4  10  22  40  62 100 132 170 222 274 332 400
#
# _framework density 22.06889
#
# number of rings (size 3 to 8) (size 9 to 14) (size 15 to 20)
#    0.000    1.538    0.000    2.769    8.615    8.000 
#    0.000    0.000    0.000    0.000    0.000    0.000 
#    0.000    0.000    0.000    0.000    0.000    0.000 
#
# Total GULP energy -72490.723744 kJ/mol
# GULP energy per Si atom -5576.209519 kJ/mol
# Density = 2.201866 g / cm^3
# Si number density = 22.068890 Si / 1000 Ang^3
#
#
#
# Elastic Constant Matrix: (Units=GPa)
#
#
# Indices 1 2 3 4 5 6 
#
# 1 58.7097 33.7122 30.0650 -2.7437 -18.5734 -20.9468
# 2 33.7122 129.0299 50.8978 20.1685 -13.7116 -28.5858
# 3 30.0650 50.8978 107.7015 14.6641 -33.7475 -13.6079
# 4 -2.7437 20.1685 14.6641 37.5829 0.6308 -4.7511
# 5 -18.5734 -13.7116 -33.7475 0.6308 30.6928 9.2859
# 6 -20.9468 -28.5858 -13.6079 -4.7511 9.2859 25.1049
#
#
#
# Elastic Compliance Matrix: (Units=1/GPa)
#
#
# Indices 1 2 3 4 5 6 
#
# 1 0.029453 -0.002631 -0.003340 0.007072 0.007256 0.018424
# 2 -0.002631 0.012840 -0.004819 -0.003778 -0.004312 0.010693
# 3 -0.003340 -0.004819 0.018026 -0.005759 0.017612 -0.006108
# 4 0.007072 -0.003778 -0.005759 0.032396 -0.006531 0.007025
# 5 0.007256 -0.004312 0.017612 -0.006531 0.058196 -0.012071
# 6 0.018424 0.010693 -0.006108 0.007025 -0.012071 0.069864
#
#
# Mechanical properties :
#
#
# Convention : Reuss Voigt Hill
#
# Bulk Modulus (GPa) = 25.81404 58.31013 42.06209
# Shear Modulus (GPa) = 19.58723 30.72720 25.15722
#
# Velocity S-wave (km/s) = 2.98241 3.73544 3.37996
# Velocity P-wave (km/s) = 4.85614 6.71446 5.85944
#
# Compressibility (1/GPa) = 0.03873861
#
# Stress axis : x y z
#
# Youngs Moduli (GPa) = 33.95199 77.88346 55.47621
#
# Poissons Ratio (x) = 0.20488 0.18530
# Poissons Ratio (y) = 0.08931 0.26736
# Poissons Ratio (z) = 0.11341 0.37534
#
# Static dielectric constant tensor:
#      x y z
#    x 1.774980 0.013860 -0.021490 
#    y 0.013860 1.816990 -0.033990 
#    z -0.021490 -0.033990 1.830330 
# 
# From -- ./inp_files/23478.got.cif
#   From: 2010.05.17/outbox.cif.g08.bks.cpg/sg2_12_cif.got.tgz:23478.got - 2010.06.03 11:33:40.
