data_PCOD9023821
_publ_section_title
;
Structure prediction by ZEFSAII (Michael W. Deem and Ramdas Pophale) SiO2 
 PCOD9023821
Probable space group: P -1
;
_chemical_formula_sum "Si O2"
_cell_formula_units_Z 16
_cell_length_a 7.934037
_cell_length_b 5.346998
_cell_length_c 28.123480
_cell_angle_alpha 93.597686
_cell_angle_beta 32.542635
_cell_angle_gamma 95.154705
_cell_volume 639.012057
_symmetry_space_group_name_H-M "P -1"
_symmetry_group_IT_number 2
_symmetry_cell_setting 'triclinic'
loop_
_space_group_symop_operation_xyz
x,y,z
-x,-y,-z
loop_
_atom_site_type_symbol
_atom_site_label
_atom_site_fract_x
_atom_site_fract_y
_atom_site_fract_z
Si Si1 0.657082 0.557298 0.885552
Si Si2 0.138279 0.258891 0.720578
Si Si3 0.290338 0.332866 0.421318
Si Si4 0.752057 0.732391 0.676767
Si Si5 0.186160 0.762027 0.941841
Si Si6 0.049888 0.450265 0.091308
Si Si7 0.363570 0.190291 0.768600
Si Si8 0.644632 0.093505 0.416432
O O1 0.513453 0.770773 0.891395
O O2 0.910849 0.645788 0.865759
O O3 0.801810 0.362569 0.813285
O O4 0.375529 0.439998 0.984780
O O5 0.385308 0.498974 0.660464
O O6 0.241299 0.126482 0.743398
O O7 0.186223 0.100334 0.660281
O O8 0.202973 0.211049 0.389819
O O9 0.370615 0.180285 0.447721
O O10 0.069410 0.715278 0.631527
O O11 0.564122 0.460216 0.721355
O O12 0.000000 0.500000 0.500000
O O13 0.575499 0.980461 0.735105
O O14 0.198579 0.710154 0.882915
O O15 0.000000 0.500000 0.000000
O O16 0.000000 0.000000 0.000000
O O17 0.936376 0.731795 0.127845
O O18 0.500000 0.000000 0.500000
#
# Coordination Sequence:
#
# PCOD9023821 Si02
#       8
#     2   2   2   2   2   2   2   2
#     4   9  20  42  67 100 137 187 233 296 338 419
#     4  10  23  46  71 100 145 183 243 290 367 424
#     4  11  26  48  72 102 146 189 239 302 369 446
#     4  11  26  45  73 104 149 188 241 295 366 423
#     4  10  22  40  61  96 134 177 229 280 340 398
#     4   9  20  41  69 100 141 187 239 281 349 409
#     4  10  23  46  71 104 147 195 235 297 351 430
#     4  12  28  44  75 107 138 188 241 301 373 442
#
# _framework density 25.038653
#
# number of rings (size 3 to 8) (size 9 to 14) (size 15 to 20)
#    0.000    1.750    1.250    0.750    7.000    4.500 
#    6.750    3.750    0.000    0.000    0.000    0.000 
#    0.000    0.000    0.000    0.000    0.000    0.000 
#
# Total GULP energy -89411.417651 kJ/mol
# GULP energy per Si atom -5588.213603 kJ/mol
# Density = 2.498166 g / cm^3
# Si number density = 25.038653 Si / 1000 Ang^3
#
#
#
# Elastic Constant Matrix: (Units=GPa)
#
#
# Indices 1 2 3 4 5 6 
#
# 1 176.3408 43.0969 45.8916 25.8093 19.0999 -4.6807
# 2 43.0969 98.3484 54.5021 9.0177 4.4244 -14.7068
# 3 45.8916 54.5021 163.6761 24.8917 19.0566 -10.3642
# 4 25.8093 9.0177 24.8917 45.7630 1.1777 -6.6539
# 5 19.0999 4.4244 19.0566 1.1777 41.4617 11.3687
# 6 -4.6807 -14.7068 -10.3642 -6.6539 11.3687 31.1377
#
#
#
# Elastic Compliance Matrix: (Units=1/GPa)
#
#
# Indices 1 2 3 4 5 6 
#
# 1 0.007158 -0.002505 -0.000342 -0.003270 -0.002809 0.000106
# 2 -0.002505 0.014071 -0.003868 0.001522 -0.000076 0.005335
# 3 -0.000342 -0.003868 0.008536 -0.003361 -0.003694 0.001594
# 4 -0.003270 0.001522 -0.003361 0.025819 0.000986 0.004266
# 5 -0.002809 -0.000076 -0.003694 0.000986 0.030555 -0.012633
# 6 0.000106 0.005335 0.001594 0.004266 -0.012633 0.040705
#
#
# Mechanical properties :
#
#
# Convention : Reuss Voigt Hill
#
# Bulk Modulus (GPa) = 61.21939 80.59405 70.90672
# Shear Modulus (GPa) = 34.31306 43.33079 38.82192
#
# Velocity S-wave (km/s) = 3.70591 4.16451 3.94188
# Velocity P-wave (km/s) = 6.54330 7.44190 7.00702
#
# Compressibility (1/GPa) = 0.01633469
#
# Stress axis : x y z
#
# Youngs Moduli (GPa) = 139.71146 71.06938 117.15718
#
# Poissons Ratio (x) = 0.17804 0.04003
# Poissons Ratio (y) = 0.35000 0.45314
# Poissons Ratio (z) = 0.04774 0.27488
#
# Static dielectric constant tensor:
#      x y z
#    x 2.055630 -0.003670 -0.011620 
#    y -0.003670 2.077270 -0.086970 
#    z -0.011620 -0.086970 2.088050 
# 
# From -- ./inp_files/622222.got.cif
#   From: 2010.05.17/outbox.cif.g08.bks.cpg/sg2_312_cif.got.tgz:622222.got - 2010.06.03 11:33:40.
