data_PCOD9023989
_publ_section_title
;
Structure prediction by ZEFSAII (Michael W. Deem and Ramdas Pophale) SiO2 
 PCOD9023989
Probable space group: P -1
;
_chemical_formula_sum "Si O2"
_cell_formula_units_Z 15
_cell_length_a 11.635252
_cell_length_b 6.785336
_cell_length_c 8.844502
_cell_angle_alpha 79.530245
_cell_angle_beta 94.885401
_cell_angle_gamma 114.356814
_cell_volume 625.484725
_symmetry_space_group_name_H-M "P -1"
_symmetry_group_IT_number 2
_symmetry_cell_setting 'triclinic'
loop_
_space_group_symop_operation_xyz
x,y,z
-x,-y,-z
loop_
_atom_site_type_symbol
_atom_site_label
_atom_site_fract_x
_atom_site_fract_y
_atom_site_fract_z
Si Si1 0.873709 0.226629 0.806129
Si Si2 0.440361 0.245293 0.500083
Si Si3 0.693079 0.058146 0.053217
Si Si4 0.000000 0.500000 0.000000
Si Si5 0.775914 0.795707 0.316997
Si Si6 0.057201 0.150409 0.242949
Si Si7 0.490794 0.064471 0.236568
Si Si8 0.867776 0.513821 0.527886
O O1 0.007641 0.421006 0.829516
O O2 0.804671 0.302267 0.657809
O O3 0.873828 0.997446 0.793765
O O4 0.826688 0.230420 0.976638
O O5 0.500000 0.500000 0.500000
O O6 0.297770 0.154763 0.557762
O O7 0.459983 0.212756 0.331908
O O8 0.508656 0.132732 0.631331
O O9 0.706376 0.847130 0.156925
O O10 0.626063 0.151764 0.154691
O O11 0.608843 0.000095 0.901555
O O12 0.942257 0.676782 0.904959
O O13 0.785219 0.564513 0.383170
O O14 0.916630 0.975657 0.287580
O O15 0.106766 0.282987 0.384004
O O16 0.000000 0.500000 0.500000
#
# Coordination Sequence:
#
# PCOD9023989 Si02
#       8
#     2   2   2   1   2   2   2   2
#     4  11  23  41  65  95 138 181 218 279 332 405
#     4  10  23  45  71 100 130 172 226 283 334 413
#     4  10  22  42  72  96 134 180 217 282 346 393
#     4  10  22  40  62  94 134 170 228 266 330 396
#     4  11  23  43  67  99 135 181 226 271 344 396
#     4  11  23  41  64  96 138 178 225 277 327 402
#     4   9  22  47  68  97 132 172 224 283 347 392
#     4  11  25  41  63  99 137 184 229 270 326 411
#
# _framework density 23.981400000000001
#
# number of rings (size 3 to 8) (size 9 to 14) (size 15 to 20)
#    0.000    1.600    2.667    0.800    3.733    0.000 
#    7.200    7.333    0.000    0.000    0.000    0.000 
#    0.000    0.000    0.000    0.000    0.000    0.000 
#
# Total GULP energy -83564.342784 kJ/mol
# GULP energy per Si atom -5570.956186 kJ/mol
# Density = 2.392682 g / cm^3
# Si number density = 23.981400 Si / 1000 Ang^3
#
#
#
# Elastic Constant Matrix: (Units=GPa)
#
#
# Indices 1 2 3 4 5 6 
#
# 1 90.4864 14.0470 54.7383 -3.4973 -5.3272 -21.9578
# 2 14.0470 112.0223 45.5645 -2.8249 -0.4466 -35.6215
# 3 54.7383 45.5645 160.8395 -9.2636 -5.9627 -24.5375
# 4 -3.4973 -2.8249 -9.2636 37.3960 -12.0748 5.4244
# 5 -5.3272 -0.4466 -5.9627 -12.0748 48.4736 -5.3003
# 6 -21.9578 -35.6215 -24.5375 5.4244 -5.3003 27.1434
#
#
#
# Elastic Compliance Matrix: (Units=1/GPa)
#
#
# Indices 1 2 3 4 5 6 
#
# 1 0.017511 0.005325 -0.004695 -0.000664 0.003162 0.017660
# 2 0.005325 0.017539 -0.002869 -0.001709 0.002769 0.025613
# 3 -0.004695 -0.002869 0.008806 0.001821 0.001020 0.000233
# 4 -0.000664 -0.001709 0.001821 0.030100 0.007001 -0.005782
# 5 0.003162 0.002769 0.001020 0.007001 0.024010 0.010402
# 6 0.017660 0.025613 0.000233 -0.005782 0.010402 0.088138
#
#
# Mechanical properties :
#
#
# Convention : Reuss Voigt Hill
#
# Bulk Modulus (GPa) = 25.39490 65.78310 45.58900
# Shear Modulus (GPa) = 24.54514 39.20248 31.87381
#
# Velocity S-wave (km/s) = 3.20270 4.04753 3.64965
# Velocity P-wave (km/s) = 4.92837 7.02380 6.06723
#
# Compressibility (1/GPa) = 0.03937798
#
# Stress axis : x y z
#
# Youngs Moduli (GPa) = 57.10810 57.01710 113.55648
#
# Poissons Ratio (x) = -0.30363 0.53313
# Poissons Ratio (y) = -0.30412 0.32581
# Poissons Ratio (z) = 0.26811 0.16359
#
# Static dielectric constant tensor:
#      x y z
#    x 1.703340 -0.287500 -0.034080 
#    y -0.287500 1.618520 0.000270 
#    z -0.034080 0.000270 2.019370 
# 
# From -- ./inp_files/229612.got.cif
#   From: 2010.05.17/outbox.cif.g08.bks.cpg/sg2_115_cif.got.tgz:229612.got - 2010.06.03 11:33:40.
