data_PCOD9023458
_publ_section_title
;
Structure prediction by ZEFSAII (Michael W. Deem and Ramdas Pophale) SiO2 
 PCOD9023458
Probable space group: P -1
;
_chemical_formula_sum "Si O2"
_cell_formula_units_Z 12
_cell_length_a 13.520704
_cell_length_b 5.289238
_cell_length_c 27.413860
_cell_angle_alpha 72.113921
_cell_angle_beta 16.146904
_cell_angle_gamma 74.326548
_cell_volume 516.567999
_symmetry_space_group_name_H-M "P -1"
_symmetry_group_IT_number 2
_symmetry_cell_setting 'triclinic'
loop_
_space_group_symop_operation_xyz
x,y,z
-x,-y,-z
loop_
_atom_site_type_symbol
_atom_site_label
_atom_site_fract_x
_atom_site_fract_y
_atom_site_fract_z
Si Si1 0.240436 0.755565 0.393216
Si Si2 0.577260 0.032063 0.801534
Si Si3 0.205950 0.138746 0.066146
Si Si4 0.616324 0.282760 0.401828
Si Si5 0.804023 0.374344 0.833232
Si Si6 0.947376 0.467026 0.408645
O O1 0.326523 0.669814 0.412334
O O2 0.000000 0.500000 0.500000
O O3 0.520112 0.869338 0.212504
O O4 0.000000 0.000000 0.500000
O O5 0.784531 0.763332 0.716381
O O6 0.266116 0.027650 0.990026
O O7 0.860514 0.271259 0.671838
O O8 0.579525 0.307052 0.893860
O O9 0.856083 0.278409 0.238797
O O10 0.158975 0.905256 0.141876
O O11 0.273940 0.426665 0.537752
O O12 0.500000 0.000000 0.500000
O O13 0.856974 0.439273 0.319057
O O14 0.500000 0.500000 0.000000
#
# Coordination Sequence:
#
# PCOD9023458 Si02
#       6
#     2   2   2   2   2   2
#     4   8  16  37  61  93 123 158 208 261 314 381
#     4  10  22  39  69  93 122 169 216 260 316 385
#     4  10  23  41  62  89 123 174 219 256 314 388
#     4  11  26  41  61  94 133 171 211 269 325 371
#     4   9  22  41  60  81 129 171 219 254 313 386
#     4  10  23  39  66  96 128 163 212 268 322 370
#
# _framework density 23.230243000000002
#
# number of rings (size 3 to 8) (size 9 to 14) (size 15 to 20)
#    0.000    2.333    0.000    0.000   14.000    0.667 
#    0.000    1.667    0.000    1.000    0.000    0.000 
#    0.000    0.000    0.000    0.000    0.000    0.000 
#
# Total GULP energy -66804.623531 kJ/mol
# GULP energy per Si atom -5567.051961 kJ/mol
# Density = 2.317737 g / cm^3
# Si number density = 23.230243 Si / 1000 Ang^3
#
#
#
# Elastic Constant Matrix: (Units=GPa)
#
#
# Indices 1 2 3 4 5 6 
#
# 1 59.2930 38.2536 21.7187 -15.6447 12.7116 5.4395
# 2 38.2536 136.4209 22.2138 -15.4793 -4.0405 10.7558
# 3 21.7187 22.2138 90.2007 -2.5843 0.8000 4.2200
# 4 -15.6447 -15.4793 -2.5843 39.4395 -3.4276 4.5454
# 5 12.7116 -4.0405 0.8000 -3.4276 50.7359 -10.3607
# 6 5.4395 10.7558 4.2200 4.5454 -10.3607 36.1435
#
#
#
# Elastic Compliance Matrix: (Units=1/GPa)
#
#
# Indices 1 2 3 4 5 6 
#
# 1 0.026171 -0.005567 -0.004413 0.007826 -0.007397 -0.004871
# 2 -0.005567 0.009413 -0.000873 0.001775 0.001968 -0.001521
# 3 -0.004413 -0.000873 0.012330 -0.001204 0.000729 -0.000155
# 4 0.007826 0.001775 -0.001204 0.029637 -0.000934 -0.005560
# 5 -0.007397 0.001968 0.000729 -0.000934 0.023113 0.007185
# 6 -0.004871 -0.001521 -0.000155 -0.005560 0.007185 0.031630
#
#
# Mechanical properties :
#
#
# Convention : Reuss Voigt Hill
#
# Bulk Modulus (GPa) = 38.15589 50.03187 44.09388
# Shear Modulus (GPa) = 30.72457 38.84570 34.78514
#
# Velocity S-wave (km/s) = 3.64072 4.09370 3.87383
# Velocity P-wave (km/s) = 5.84242 6.62786 6.24750
#
# Compressibility (1/GPa) = 0.02620828
#
# Stress axis : x y z
#
# Youngs Moduli (GPa) = 38.21034 106.23521 81.10132
#
# Poissons Ratio (x) = 0.59142 0.35788
# Poissons Ratio (y) = 0.21272 0.07081
# Poissons Ratio (z) = 0.16861 0.09276
#
# Static dielectric constant tensor:
#      x y z
#    x 1.881570 -0.009260 0.100280 
#    y -0.009260 1.978620 -0.083070 
#    z 0.100280 -0.083070 2.133830 
# 
# From -- ./inp_files/79115.got.cif
#   From: 2010.05.17/outbox.cif.g08.bks.cpg/sg2_40_cif.got.tgz:79115.got - 2010.06.03 11:33:40.
