data_PCOD9023868
_publ_section_title
;
Structure prediction by ZEFSAII (Michael W. Deem and Ramdas Pophale) SiO2 
 PCOD9023868
Probable space group: P -1
;
_chemical_formula_sum "Si O2"
_cell_formula_units_Z 10
_cell_length_a 13.175615
_cell_length_b 13.422987
_cell_length_c 10.804776
_cell_angle_alpha 147.545421
_cell_angle_beta 147.150244
_cell_angle_gamma 31.165687
_cell_volume 480.338496
_symmetry_space_group_name_H-M "P -1"
_symmetry_group_IT_number 2
_symmetry_cell_setting 'triclinic'
loop_
_space_group_symop_operation_xyz
x,y,z
-x,-y,-z
loop_
_atom_site_type_symbol
_atom_site_label
_atom_site_fract_x
_atom_site_fract_y
_atom_site_fract_z
Si Si1 0.202005 0.649005 0.601192
Si Si2 0.217379 0.153320 0.482127
Si Si3 0.445252 0.726868 0.124194
Si Si4 0.554304 0.672044 0.677905
Si Si5 0.217088 0.130155 0.736276
O O1 0.351591 0.414353 0.453148
O O2 0.035452 0.683438 0.577854
O O3 0.035611 0.780279 0.456906
O O4 0.350097 0.735578 0.899140
O O5 0.341159 0.253975 0.644315
O O6 0.311049 0.095313 0.656686
O O7 0.270493 0.934022 0.238987
O O8 0.500000 0.500000 0.000000
O O9 0.500000 0.500000 0.500000
O O10 0.340760 0.905028 0.696500
O O11 0.729728 0.704237 0.967395
#
# Coordination Sequence:
#
# PCOD9023868 Si02
#       5
#     2   2   2   2   2
#     4  10  22  40  62  88 122 160 198 240 306 352
#     4   9  22  40  57  88 123 154 197 246 293 354
#     4  11  21  39  64  88 119 157 201 246 293 353
#     4  11  21  39  64  88 119 157 201 246 293 353
#     4   9  22  40  57  88 123 154 197 246 293 354
#
# _framework density 20.818650999999999
#
# number of rings (size 3 to 8) (size 9 to 14) (size 15 to 20)
#    1.200    0.800    0.000    3.600    0.000    1.600 
#    0.000   12.000    0.000    0.000    0.000    0.000 
#    0.000    0.000    0.000    0.000    0.000    0.000 
#
# Total GULP energy -55720.529509 kJ/mol
# GULP energy per Si atom -5572.052951 kJ/mol
# Density = 2.077127 g / cm^3
# Si number density = 20.818651 Si / 1000 Ang^3
#
#
#
# Elastic Constant Matrix: (Units=GPa)
#
#
# Indices 1 2 3 4 5 6 
#
# 1 40.4879 27.5602 32.3689 17.5205 -0.0342 -6.1459
# 2 27.5602 72.5547 48.1114 13.8266 19.3160 -6.4422
# 3 32.3689 48.1114 146.0576 24.1757 -18.5818 -8.1353
# 4 17.5205 13.8266 24.1757 33.7270 -3.1032 2.4090
# 5 -0.0342 19.3160 -18.5818 -3.1032 39.5586 9.7137
# 6 -6.1459 -6.4422 -8.1353 2.4090 9.7137 28.7691
#
#
#
# Elastic Compliance Matrix: (Units=1/GPa)
#
#
# Indices 1 2 3 4 5 6 
#
# 1 0.042150 -0.011099 -0.002505 -0.015899 0.001394 0.006671
# 2 -0.011099 0.032401 -0.010091 -0.003156 -0.023315 0.010167
# 3 -0.002505 -0.010091 0.012357 -0.002173 0.011278 -0.002926
# 4 -0.015899 -0.003156 -0.002173 0.042087 0.006359 -0.010389
# 5 0.001394 -0.023315 0.011278 0.006359 0.046906 -0.018104
# 6 0.006671 0.010167 -0.002926 -0.010389 -0.018104 0.044617
#
#
# Mechanical properties :
#
#
# Convention : Reuss Voigt Hill
#
# Bulk Modulus (GPa) = 25.30397 52.79790 39.05094
# Shear Modulus (GPa) = 17.78852 30.48159 24.13505
#
# Velocity S-wave (km/s) = 2.92627 3.83057 3.40854
# Velocity P-wave (km/s) = 4.85781 6.70673 5.85570
#
# Compressibility (1/GPa) = 0.03951949
#
# Stress axis : x y z
#
# Youngs Moduli (GPa) = 23.72478 30.86323 80.92573
#
# Poissons Ratio (x) = 0.34255 0.20269
# Poissons Ratio (y) = 0.26332 0.81660
# Poissons Ratio (z) = 0.05942 0.31143
#
# Static dielectric constant tensor:
#      x y z
#    x 1.777070 -0.003480 -0.008260 
#    y -0.003480 1.754600 -0.035600 
#    z -0.008260 -0.035600 1.721220 
# 
# From -- ./inp_files/2772.got.cif
#   From: 2010.05.17/outbox.cif.g08.bks.cpg/sg2_2_cif.got.tgz:2772.got - 2010.06.03 11:33:40.
