data_PCOD9023196
_publ_section_title
;
Structure prediction by ZEFSAII (Michael W. Deem and Ramdas Pophale) SiO2 
 PCOD9023196
Probable space group: P -1
;
_chemical_formula_sum "Si O2"
_cell_formula_units_Z 15
_cell_length_a 12.335938
_cell_length_b 12.627347
_cell_length_c 9.198533
_cell_angle_alpha 91.559864
_cell_angle_beta 144.216998
_cell_angle_gamma 107.207296
_cell_volume 702.789974
_symmetry_space_group_name_H-M "P -1"
_symmetry_group_IT_number 2
_symmetry_cell_setting 'triclinic'
loop_
_space_group_symop_operation_xyz
x,y,z
-x,-y,-z
loop_
_atom_site_type_symbol
_atom_site_label
_atom_site_fract_x
_atom_site_fract_y
_atom_site_fract_z
Si Si1 0.093224 0.515752 0.767088
Si Si2 0.282366 0.388480 0.338475
Si Si3 0.559696 0.191585 0.883270
Si Si4 0.294914 0.183576 0.878943
Si Si5 0.000000 0.500000 0.000000
Si Si6 0.156659 0.129105 0.255872
Si Si7 0.551451 0.542992 0.892026
Si Si8 0.874748 0.088907 0.221980
O O1 0.000000 0.500000 0.500000
O O2 0.274754 0.665276 0.982492
O O3 0.960125 0.482021 0.771993
O O4 0.222928 0.445267 0.904262
O O5 0.500000 0.500000 0.500000
O O6 0.083161 0.403564 0.086202
O O7 0.244225 0.253858 0.260200
O O8 0.356304 0.426996 0.586617
O O9 0.449577 0.192234 0.915251
O O10 0.359074 0.128967 0.548548
O O11 0.695925 0.125771 0.043035
O O12 0.059150 0.147496 0.552682
O O13 0.240157 0.062379 0.907366
O O14 0.414079 0.321125 0.085290
O O15 0.013014 0.139800 0.226580
O O16 0.000000 0.000000 0.000000
O O17 0.500000 0.500000 0.000000
#
# Coordination Sequence:
#
# PCOD9023196 Si02
#       8
#     2   2   2   2   1   2   2   2
#     4  12  24  42  72 105 143 190 240 298 365 436
#     4  12  25  47  68  98 144 183 233 301 357 429
#     4  11  21  45  64  97 136 180 236 295 355 427
#     4  10  22  39  66  99 133 176 229 292 356 434
#     4  12  26  44  68 106 146 186 244 296 358 438
#     4  11  25  44  68  93 135 185 234 293 363 423
#     4  12  21  42  69  98 137 183 232 291 363 421
#     4  10  22  41  64  96 136 172 231 293 351 428
#
# _framework density 21.343502999999998
#
# number of rings (size 3 to 8) (size 9 to 14) (size 15 to 20)
#    0.000    0.800    4.000    3.600    1.867    0.533 
#    2.400    0.000    0.000    0.000    0.000    0.000 
#    0.000    0.000    0.000    0.000    0.000    0.000 
#
# Total GULP energy -83551.138762 kJ/mol
# GULP energy per Si atom -5570.075917 kJ/mol
# Density = 2.129492 g / cm^3
# Si number density = 21.343503 Si / 1000 Ang^3
#
#
#
# Elastic Constant Matrix: (Units=GPa)
#
#
# Indices 1 2 3 4 5 6 
#
# 1 78.6036 40.8869 33.5411 -15.1232 -1.6212 -10.8813
# 2 40.8869 139.7156 45.9505 13.5205 11.9859 -19.9968
# 3 33.5411 45.9505 108.6009 -0.7874 -5.6148 -21.1506
# 4 -15.1232 13.5205 -0.7874 46.2943 -9.8050 6.9093
# 5 -1.6212 11.9859 -5.6148 -9.8050 35.1235 -13.8487
# 6 -10.8813 -19.9968 -21.1506 6.9093 -13.8487 38.7400
#
#
#
# Elastic Compliance Matrix: (Units=1/GPa)
#
#
# Indices 1 2 3 4 5 6 
#
# 1 0.018851 -0.005712 -0.002857 0.008721 0.005231 0.001101
# 2 -0.005712 0.011189 -0.002992 -0.006654 -0.005761 0.001665
# 3 -0.002857 -0.002992 0.012959 0.000369 0.005707 0.006703
# 4 0.008721 -0.006654 0.000369 0.028842 0.009832 -0.002412
# 5 0.005231 -0.005761 0.005707 0.009832 0.039904 0.014122
# 6 0.001101 0.001665 0.006703 -0.002412 0.014122 0.036120
#
#
# Mechanical properties :
#
#
# Convention : Reuss Voigt Hill
#
# Bulk Modulus (GPa) = 50.30854 63.07524 56.69189
# Shear Modulus (GPa) = 28.15105 37.80101 32.97603
#
# Velocity S-wave (km/s) = 3.63568 4.21298 3.93493
# Velocity P-wave (km/s) = 6.42233 7.29947 6.87490
#
# Compressibility (1/GPa) = 0.01987734
#
# Stress axis : x y z
#
# Youngs Moduli (GPa) = 53.04849 89.36965 77.16352
#
# Poissons Ratio (x) = 0.51049 0.22045
# Poissons Ratio (y) = 0.30302 0.23088
# Poissons Ratio (z) = 0.15156 0.26740
#
# Static dielectric constant tensor:
#      x y z
#    x 1.806330 0.062260 -0.009040 
#    y 0.062260 1.847150 -0.013460 
#    z -0.009040 -0.013460 1.791840 
# 
# From -- ./inp_files/258758.got.cif
#   From: 2010.05.17/outbox.cif.g08.bks.cpg/sg2_130_cif.got.tgz:258758.got - 2010.06.03 11:33:40.
