data_PCOD9023182
_publ_section_title
;
Structure prediction by ZEFSAII (Michael W. Deem and Ramdas Pophale) SiO2 
 PCOD9023182
Probable space group: P -1
;
_chemical_formula_sum "Si O2"
_cell_formula_units_Z 16
_cell_length_a 11.519026
_cell_length_b 5.480310
_cell_length_c 23.699283
_cell_angle_alpha 65.396065
_cell_angle_beta 32.937336
_cell_angle_gamma 55.273257
_cell_volume 662.144678
_symmetry_space_group_name_H-M "P -1"
_symmetry_group_IT_number 2
_symmetry_cell_setting 'triclinic'
loop_
_space_group_symop_operation_xyz
x,y,z
-x,-y,-z
loop_
_atom_site_type_symbol
_atom_site_label
_atom_site_fract_x
_atom_site_fract_y
_atom_site_fract_z
Si Si1 0.233177 0.063438 0.597491
Si Si2 0.610540 0.145379 0.625853
Si Si3 0.152918 0.653394 0.953016
Si Si4 0.476822 0.748661 0.071143
Si Si5 0.931313 0.783713 0.738418
Si Si6 0.656136 0.259501 0.245483
Si Si7 0.001839 0.685850 0.593858
Si Si8 0.946962 0.244536 0.814580
O O1 0.103446 0.328816 0.579906
O O2 0.109724 0.155637 0.700331
O O3 0.500000 0.000000 0.500000
O O4 0.185028 0.784970 0.630187
O O5 0.456337 0.448412 0.696374
O O6 0.772419 0.238748 0.509743
O O7 0.464694 0.970485 0.677938
O O8 0.806762 0.892705 0.609885
O O9 0.287570 0.479139 0.971443
O O10 0.342466 0.643078 0.829020
O O11 0.000000 0.500000 0.000000
O O12 0.000000 0.000000 0.000000
O O13 0.325769 0.635170 0.103966
O O14 0.284306 0.913371 0.182954
O O15 0.500000 0.000000 0.000000
O O16 0.879237 0.739235 0.699819
O O17 0.960637 0.544475 0.797830
O O18 0.934291 0.043520 0.167554
#
# Coordination Sequence:
#
# PCOD9023182 Si02
#       8
#     2   2   2   2   2   2   2   2
#     4  10  22  39  66  97 145 186 251 293 356 421
#     4  11  27  42  72 101 145 198 233 305 355 439
#     4  12  29  50  78 111 146 190 243 307 376 439
#     4  11  26  47  77 102 146 188 246 305 375 443
#     4  10  24  41  71  99 145 184 249 297 367 425
#     4  12  27  47  74 104 151 183 250 292 374 425
#     4  10  24  41  64 102 139 190 250 285 367 427
#     4  10  25  41  69 106 137 193 239 300 366 434
#
# _framework density 24.163902
#
# number of rings (size 3 to 8) (size 9 to 14) (size 15 to 20)
#    0.000    1.250    0.000    3.000   19.250    2.500 
#    0.000    0.000    0.000    0.000    0.000    0.000 
#    0.000    0.000    0.000    0.000    0.000    0.000 
#
# Total GULP energy -89343.274393 kJ/mol
# GULP energy per Si atom -5583.954650 kJ/mol
# Density = 2.410890 g / cm^3
# Si number density = 24.163902 Si / 1000 Ang^3
#
#
#
# Elastic Constant Matrix: (Units=GPa)
#
#
# Indices 1 2 3 4 5 6 
#
# 1 80.1641 60.4565 40.2972 4.4301 -14.1410 -15.0635
# 2 60.4565 146.7478 36.0525 -3.7450 -20.7480 -16.5794
# 3 40.2972 36.0525 88.9344 -3.2270 -3.0633 2.5484
# 4 4.4301 -3.7450 -3.2270 44.1699 4.2781 -1.4195
# 5 -14.1410 -20.7480 -3.0633 4.2781 46.5878 -1.1897
# 6 -15.0635 -16.5794 2.5484 -1.4195 -1.1897 46.5045
#
#
#
# Elastic Compliance Matrix: (Units=1/GPa)
#
#
# Indices 1 2 3 4 5 6 
#
# 1 0.023538 -0.006548 -0.008167 -0.003733 0.004181 0.005731
# 2 -0.006548 0.010377 -0.001158 0.001267 0.002486 0.001745
# 3 -0.008167 -0.001158 0.015519 0.001947 -0.002253 -0.003907
# 4 -0.003733 0.001267 0.001947 0.023509 -0.002605 -0.000213
# 5 0.004181 0.002486 -0.002253 -0.002605 0.024006 0.002899
# 6 0.005731 0.001745 -0.003907 -0.000213 0.002899 0.024263
#
#
# Mechanical properties :
#
#
# Convention : Reuss Voigt Hill
#
# Bulk Modulus (GPa) = 56.53105 65.49542 61.01324
# Shear Modulus (GPa) = 31.47498 39.38844 35.43171
#
# Velocity S-wave (km/s) = 3.61302 4.04177 3.83339
# Velocity P-wave (km/s) = 6.39146 6.99605 6.70058
#
# Compressibility (1/GPa) = 0.01768939
#
# Stress axis : x y z
#
# Youngs Moduli (GPa) = 42.48383 96.36346 64.43557
#
# Poissons Ratio (x) = 0.63094 0.52624
# Poissons Ratio (y) = 0.27816 0.07464
# Poissons Ratio (z) = 0.34696 0.11163
#
# Static dielectric constant tensor:
#      x y z
#    x 2.037650 0.080330 -0.042040 
#    y 0.080330 2.076990 -0.022940 
#    z -0.042040 -0.022940 1.964610 
# 
# From -- ./inp_files/352489.got.cif
#   From: 2010.05.17/outbox.cif.g08.bks.cpg/sg2_177_cif.got.tgz:352489.got - 2010.06.03 11:33:40.
