data_PCOD9023214
_publ_section_title
;
Structure prediction by ZEFSAII (Michael W. Deem and Ramdas Pophale) SiO2 
 PCOD9023214
Probable space group: P -1
;
_chemical_formula_sum "Si O2"
_cell_formula_units_Z 16
_cell_length_a 20.479874
_cell_length_b 8.184774
_cell_length_c 5.368016
_cell_angle_alpha 81.513307
_cell_angle_beta 48.772916
_cell_angle_gamma 65.899263
_cell_volume 607.996090
_symmetry_space_group_name_H-M "P -1"
_symmetry_group_IT_number 2
_symmetry_cell_setting 'triclinic'
loop_
_space_group_symop_operation_xyz
x,y,z
-x,-y,-z
loop_
_atom_site_type_symbol
_atom_site_label
_atom_site_fract_x
_atom_site_fract_y
_atom_site_fract_z
Si Si1 0.009464 0.654943 0.275104
Si Si2 0.171948 0.035426 0.396342
Si Si3 0.540435 0.249151 0.762244
Si Si4 0.706401 0.855393 0.311838
Si Si5 0.288291 0.716343 0.493977
Si Si6 0.872535 0.238561 0.722623
Si Si7 0.447351 0.214603 0.522271
Si Si8 0.795877 0.528087 0.488163
O O1 0.030348 0.789414 0.382376
O O2 0.000000 0.500000 0.500000
O O3 0.915055 0.781344 0.329998
O O4 0.104107 0.563219 0.893466
O O5 0.262927 0.899761 0.355640
O O6 0.125692 0.894079 0.473735
O O7 0.213990 0.104376 0.043067
O O8 0.609323 0.349699 0.619521
O O9 0.472449 0.307008 0.678023
O O10 0.618771 0.044138 0.556214
O O11 0.488539 0.245830 0.149946
O O12 0.661537 0.750656 0.266906
O O13 0.746789 0.735163 0.482793
O O14 0.274897 0.563023 0.400368
O O15 0.203904 0.775320 0.892945
O O16 0.828816 0.447605 0.694772
O O17 0.500000 0.000000 0.500000
#
# Coordination Sequence:
#
# PCOD9023214 Si02
#       8
#     2   2   2   2   2   2   2   2
#     4  11  23  41  62  97 131 168 219 274 335 381
#     4  11  22  40  67  90 129 176 228 265 323 403
#     4  11  22  43  71  98 133 173 230 278 334 405
#     4  11  21  42  66 100 127 173 221 276 343 388
#     4  10  22  41  66  94 126 181 218 271 328 403
#     4  10  23  42  61  90 130 175 219 268 325 401
#     4  10  22  39  67 103 134 168 221 289 332 401
#     4  10  24  43  62  94 138 170 215 280 333 396
#
# _framework density 26.315961999999999
#
# number of rings (size 3 to 8) (size 9 to 14) (size 15 to 20)
#    0.000    1.500    2.500    3.375    1.750    7.000 
#   13.500    1.250    0.000    0.000    0.000    0.000 
#    0.000    0.000    0.000    0.000    0.000    0.000 
#
# Total GULP energy -89613.567896 kJ/mol
# GULP energy per Si atom -5600.847994 kJ/mol
# Density = 2.625607 g / cm^3
# Si number density = 26.315962 Si / 1000 Ang^3
#
#
#
# Elastic Constant Matrix: (Units=GPa)
#
#
# Indices 1 2 3 4 5 6 
#
# 1 126.8243 -4.5489 24.0371 -5.1571 -15.7453 9.1322
# 2 -4.5489 90.0226 32.2966 4.5769 -13.1268 -12.6546
# 3 24.0371 32.2966 80.5648 -7.4018 -7.6155 4.4688
# 4 -5.1571 4.5769 -7.4018 41.5189 -3.7114 -4.4794
# 5 -15.7453 -13.1268 -7.6155 -3.7114 30.8990 -10.0321
# 6 9.1322 -12.6546 4.4688 -4.4794 -10.0321 35.6966
#
#
#
# Elastic Compliance Matrix: (Units=1/GPa)
#
#
# Indices 1 2 3 4 5 6 
#
# 1 0.009212 0.002370 -0.003159 0.000828 0.005163 0.000434
# 2 0.002370 0.016272 -0.006939 -0.001019 0.009029 0.008440
# 3 -0.003159 -0.006939 0.016469 0.002780 -0.001383 -0.003753
# 4 0.000828 -0.001019 0.002780 0.025637 0.004951 0.003687
# 5 0.005163 0.009029 -0.001383 0.004951 0.043964 0.015030
# 6 0.000434 0.008440 -0.003753 0.003687 0.015030 0.036051
#
#
# Mechanical properties :
#
#
# Convention : Reuss Voigt Hill
#
# Bulk Modulus (GPa) = 37.73629 44.55348 41.14488
# Shear Modulus (GPa) = 29.08793 37.99804 33.54299
#
# Velocity S-wave (km/s) = 3.32826 3.80401 3.57406
# Velocity P-wave (km/s) = 5.39820 6.02171 5.71846
#
# Compressibility (1/GPa) = 0.02649969
#
# Stress axis : x y z
#
# Youngs Moduli (GPa) = 108.55351 61.45422 60.71918
#
# Poissons Ratio (x) = -0.14568 0.19179
# Poissons Ratio (y) = -0.25733 0.42132
# Poissons Ratio (z) = 0.34289 0.42642
#
# Static dielectric constant tensor:
#      x y z
#    x 2.139780 0.056780 0.027640 
#    y 0.056780 2.058510 0.029890 
#    z 0.027640 0.029890 1.995400 
# 
# From -- ./inp_files/116882.got.cif
#   From: 2010.05.17/outbox.cif.g08.bks.cpg/sg2_59_cif.got.tgz:116882.got - 2010.06.03 11:33:40.
