data_PCOD9023098
_publ_section_title
;
Structure prediction by ZEFSAII (Michael W. Deem and Ramdas Pophale) SiO2 
 PCOD9023098
Probable space group: P -1
;
_chemical_formula_sum "Si O2"
_cell_formula_units_Z 16
_cell_length_a 16.213750
_cell_length_b 10.120049
_cell_length_c 14.293697
_cell_angle_alpha 136.723059
_cell_angle_beta 28.255111
_cell_angle_gamma 125.583916
_cell_volume 748.272527
_symmetry_space_group_name_H-M "P -1"
_symmetry_group_IT_number 2
_symmetry_cell_setting 'triclinic'
loop_
_space_group_symop_operation_xyz
x,y,z
-x,-y,-z
loop_
_atom_site_type_symbol
_atom_site_label
_atom_site_fract_x
_atom_site_fract_y
_atom_site_fract_z
Si Si1 0.771705 0.473351 0.639779
Si Si2 0.508586 0.660175 0.855577
Si Si3 0.323728 0.196839 0.570085
Si Si4 0.194737 0.547327 0.994309
Si Si5 0.065689 0.172509 0.270489
Si Si6 0.800854 0.619618 0.401376
Si Si7 0.699304 0.176661 0.689486
Si Si8 0.276281 0.744623 0.817575
O O1 0.644310 0.493377 0.689226
O O2 0.821225 0.684303 0.719243
O O3 0.679509 0.396088 0.782335
O O4 0.952310 0.308940 0.373803
O O5 0.338436 0.589481 0.946122
O O6 0.633120 0.718564 0.680538
O O7 0.428215 0.823055 0.095793
O O8 0.231952 0.317334 0.811105
O O9 0.206873 0.270264 0.633287
O O10 0.514373 0.257239 0.398031
O O11 0.341741 0.964565 0.425252
O O12 0.230780 0.659215 0.919682
O O13 0.989148 0.612650 0.258483
O O14 0.909973 0.127292 0.471740
O O15 0.176172 0.967414 0.022140
O O16 0.775348 0.401596 0.284421
#
# Coordination Sequence:
#
# PCOD9023098 Si02
#       8
#     2   2   2   2   2   2   2   2
#     4   9  22  42  63  88 126 170 209 258 304 371
#     4  12  23  41  61 100 128 159 208 263 316 359
#     4  11  20  42  64  93 124 172 206 250 309 384
#     4  11  23  40  66  92 133 163 200 260 319 368
#     4   9  20  40  68  90 115 175 216 247 304 375
#     4  11  23  39  65  92 134 161 202 259 317 371
#     4  10  22  39  66  88 124 166 215 248 304 376
#     4  11  19  41  65  93 123 168 213 247 308 388
#
# _framework density 21.382584000000001
#
# number of rings (size 3 to 8) (size 9 to 14) (size 15 to 20)
#    0.750    0.750    2.500    4.875    1.750    0.500 
#    2.250    2.500    2.750    0.000    0.000    0.000 
#    0.000    0.000    0.000    0.000    0.000    0.000 
#
# Total GULP energy -89249.236734 kJ/mol
# GULP energy per Si atom -5578.077296 kJ/mol
# Density = 2.133392 g / cm^3
# Si number density = 21.382584 Si / 1000 Ang^3
#
#
#
# Elastic Constant Matrix: (Units=GPa)
#
#
# Indices 1 2 3 4 5 6 
#
# 1 68.5329 8.1867 7.7586 -13.2268 -31.0470 10.3735
# 2 8.1867 89.1464 26.1262 -2.3137 -10.4403 15.2350
# 3 7.7586 26.1262 77.1804 -4.4511 -24.5963 7.6304
# 4 -13.2268 -2.3137 -4.4511 21.9287 5.5844 -20.5748
# 5 -31.0470 -10.4403 -24.5963 5.5844 27.9809 -11.6955
# 6 10.3735 15.2350 7.6304 -20.5748 -11.6955 13.5718
#
#
#
# Elastic Compliance Matrix: (Units=1/GPa)
#
#
# Indices 1 2 3 4 5 6 
#
# 1 0.027972 0.003508 0.007443 -0.017618 0.029555 -0.030742
# 2 0.003508 0.010694 -0.001559 0.011763 0.009137 0.011896
# 3 0.007443 -0.001559 0.020366 -0.013274 0.020920 -0.017484
# 4 -0.017618 0.011763 -0.013274 -0.025484 -0.054174 -0.077593
# 5 0.029555 0.009137 0.020920 -0.054174 0.075288 -0.061857
# 6 -0.030742 0.011896 -0.017484 -0.077593 -0.061857 -0.077280
#
#
# Mechanical properties :
#
#
# Convention : Reuss Voigt Hill
#
# Bulk Modulus (GPa) = 12.85077 35.44475 24.14776
# Shear Modulus (GPa) = 129.15969 25.54882 77.35426
#
# Velocity S-wave (km/s) = 7.78044 3.46040 6.02120
# Velocity P-wave (km/s) = 9.31325 5.70774 7.72383
#
# Compressibility (1/GPa) = 0.07781635
#
# Stress axis : x y z
#
# Youngs Moduli (GPa) = 35.75000 93.50628 49.10099
#
# Poissons Ratio (x) = -0.32800 -0.36544
# Poissons Ratio (y) = -0.12540 0.07653
# Poissons Ratio (z) = -0.26607 0.14574
#
# Static dielectric constant tensor:
#      x y z
#    x 1.771670 -0.011840 -0.003440 
#    y -0.011840 1.802520 -0.011700 
#    z -0.003440 -0.011700 1.822170 
# 
# From -- ./inp_files/532712.got.cif
#   From: 2010.05.17/outbox.cif.g08.bks.cpg/sg2_267_cif.got.tgz:532712.got - 2010.06.03 11:33:40.
