data_PCOD9023192
_publ_section_title
;
Structure prediction by ZEFSAII (Michael W. Deem and Ramdas Pophale) SiO2 
 PCOD9023192
Probable space group: P -1
;
_chemical_formula_sum "Si O2"
_cell_formula_units_Z 16
_cell_length_a 11.787632
_cell_length_b 8.352617
_cell_length_c 11.586292
_cell_angle_alpha 110.260815
_cell_angle_beta 56.322460
_cell_angle_gamma 128.292869
_cell_volume 745.060342
_symmetry_space_group_name_H-M "P -1"
_symmetry_group_IT_number 2
_symmetry_cell_setting 'triclinic'
loop_
_space_group_symop_operation_xyz
x,y,z
-x,-y,-z
loop_
_atom_site_type_symbol
_atom_site_label
_atom_site_fract_x
_atom_site_fract_y
_atom_site_fract_z
Si Si1 0.806393 0.625032 0.240691
Si Si2 0.627431 0.039663 0.221541
Si Si3 0.049827 0.370974 0.318769
Si Si4 0.532641 0.725168 0.715743
Si Si5 0.879000 0.968273 0.457927
Si Si6 0.394318 0.560559 0.284227
Si Si7 0.227943 0.622237 0.598917
Si Si8 0.008310 0.802345 0.950591
O O1 0.611404 0.483288 0.313067
O O2 0.871336 0.833227 0.321680
O O3 0.847989 0.502105 0.272184
O O4 0.879057 0.653302 0.081051
O O5 0.541524 0.130071 0.214193
O O6 0.661735 0.146554 0.356815
O O7 0.808921 0.122675 0.096120
O O8 0.530545 0.794368 0.230007
O O9 0.237825 0.495635 0.277523
O O10 0.931955 0.453014 0.404805
O O11 0.031245 0.292323 0.177954
O O12 0.951456 0.183589 0.413667
O O13 0.699716 0.857314 0.584904
O O14 0.568439 0.619053 0.777621
O O15 0.000000 0.000000 0.500000
O O16 0.337993 0.571086 0.449229
O O17 0.000000 0.000000 0.000000
#
# Coordination Sequence:
#
# PCOD9023192 Si02
#       8
#     2   2   2   2   2   2   2   2
#     4  11  23  41  69  93 128 173 222 270 326 392
#     4  10  25  40  66 103 132 174 226 276 325 403
#     4  11  24  40  66  96 133 180 221 271 332 397
#     4  11  24  40  69 102 133 171 222 273 339 395
#     4  12  22  41  65 100 133 164 215 273 337 397
#     4  12  22  42  65  99 139 171 216 280 343 389
#     4  10  22  39  66  99 130 172 220 278 336 395
#     4  11  23  46  70  94 133 182 230 269 323 398
#
# _framework density 21.474771
#
# number of rings (size 3 to 8) (size 9 to 14) (size 15 to 20)
#    0.000    1.000    3.750    2.625    3.500    5.500 
#    0.000    3.750    0.000    6.750    0.000    0.000 
#    0.000    0.000    0.000    0.000    0.000    0.000 
#
# Total GULP energy -89193.673306 kJ/mol
# GULP energy per Si atom -5574.604582 kJ/mol
# Density = 2.142589 g / cm^3
# Si number density = 21.474771 Si / 1000 Ang^3
#
#
#
# Elastic Constant Matrix: (Units=GPa)
#
#
# Indices 1 2 3 4 5 6 
#
# 1 139.3134 32.6468 36.7569 -16.0216 -9.2673 2.6387
# 2 32.6468 95.1740 32.8520 -17.4476 -1.6454 10.2673
# 3 36.7569 32.8520 69.2376 -16.3634 -3.3149 3.8879
# 4 -16.0216 -17.4476 -16.3634 20.6289 -9.6724 -10.7826
# 5 -9.2673 -1.6454 -3.3149 -9.6724 29.9983 -4.0169
# 6 2.6387 10.2673 3.8879 -10.7826 -4.0169 29.7727
#
#
#
# Elastic Compliance Matrix: (Units=1/GPa)
#
#
# Indices 1 2 3 4 5 6 
#
# 1 0.009488 -0.001029 -0.002076 0.010177 0.006509 0.004349
# 2 -0.001029 0.013926 -0.003749 0.009072 0.002883 -0.000547
# 3 -0.002076 -0.003749 0.022433 0.021487 0.009581 0.007622
# 4 0.010177 0.009072 0.021487 0.132343 0.055187 0.048539
# 5 0.006509 0.002883 0.009581 0.055187 0.057698 0.024949
# 6 0.004349 -0.000547 0.007622 0.048539 0.024949 0.053341
#
#
# Mechanical properties :
#
#
# Convention : Reuss Voigt Hill
#
# Bulk Modulus (GPa) = 31.11471 56.47071 43.79271
# Shear Modulus (GPa) = 15.94137 29.51127 22.72632
#
# Velocity S-wave (km/s) = 2.72753 3.71108 3.25665
# Velocity P-wave (km/s) = 4.94365 6.68702 5.88030
#
# Compressibility (1/GPa) = 0.03213914
#
# Stress axis : x y z
#
# Youngs Moduli (GPa) = 105.39710 71.80874 44.57748
#
# Poissons Ratio (x) = 0.07388 0.09255
# Poissons Ratio (y) = 0.10844 0.16710
# Poissons Ratio (z) = 0.21883 0.26918
#
# Static dielectric constant tensor:
#      x y z
#    x 1.384940 -0.812530 -0.237800 
#    y -0.812530 0.960190 -0.248680 
#    z -0.237800 -0.248680 1.675460 
# 
# From -- ./inp_files/415147.got.cif
#   From: 2010.05.17/outbox.cif.g08.bks.cpg/sg2_208_cif.got.tgz:415147.got - 2010.06.03 11:33:40.
