data_PCOD9023375
_publ_section_title
;
Structure prediction by ZEFSAII (Michael W. Deem and Ramdas Pophale) SiO2 
 PCOD9023375
Probable space group: P -1
;
_chemical_formula_sum "Si O2"
_cell_formula_units_Z 14
_cell_length_a 13.835448
_cell_length_b 7.278274
_cell_length_c 11.382961
_cell_angle_alpha 112.662419
_cell_angle_beta 125.946390
_cell_angle_gamma 36.880240
_cell_volume 548.471799
_symmetry_space_group_name_H-M "P -1"
_symmetry_group_IT_number 2
_symmetry_cell_setting 'triclinic'
loop_
_space_group_symop_operation_xyz
x,y,z
-x,-y,-z
loop_
_atom_site_type_symbol
_atom_site_label
_atom_site_fract_x
_atom_site_fract_y
_atom_site_fract_z
Si Si1 0.298562 0.654432 0.049753
Si Si2 0.469907 0.118537 0.374729
Si Si3 0.142766 0.947541 0.668602
Si Si4 0.896539 0.994422 0.792414
Si Si5 0.064471 0.486768 0.171759
Si Si6 0.464582 0.295621 0.864350
Si Si7 0.175851 0.118775 0.510266
O O1 0.367212 0.777237 0.076156
O O2 0.281509 0.686047 0.186561
O O3 0.428539 0.340177 0.988956
O O4 0.085191 0.874849 0.921630
O O5 0.517924 0.929161 0.246264
O O6 0.637186 0.059699 0.469438
O O7 0.500000 0.000000 0.500000
O O8 0.247223 0.393039 0.273606
O O9 0.240636 0.954455 0.640334
O O10 0.067376 0.205886 0.769197
O O11 0.285367 0.626028 0.758194
O O12 0.000000 0.000000 0.500000
O O13 0.911433 0.752134 0.798858
O O14 0.893438 0.968509 0.645228
O O15 0.000000 0.500000 0.000000
O O16 0.000000 0.500000 0.500000
#
# Coordination Sequence:
#
# PCOD9023375 Si02
#       7
#     2   2   2   2   2   2   2
#     4  10  22  39  68  93 134 175 220 283 351 412
#     4  12  23  46  74  98 139 188 235 282 352 428
#     4  12  26  44  68 102 145 178 234 295 349 412
#     4  11  21  42  65  96 133 179 229 277 346 417
#     4  12  26  44  69 105 143 185 233 292 351 416
#     4  11  23  42  67 101 132 176 230 284 351 411
#     4  12  23  43  71 101 130 187 236 282 345 422
#
# _framework density 25.525469000000001
#
# number of rings (size 3 to 8) (size 9 to 14) (size 15 to 20)
#    0.000    0.571    4.286    4.286    2.000    2.286 
#    0.000    6.429    0.000    0.000    0.000    0.000 
#    0.000    0.000    0.000    0.000    0.000    0.000 
#
# Total GULP energy -78225.183171 kJ/mol
# GULP energy per Si atom -5587.513084 kJ/mol
# Density = 2.546737 g / cm^3
# Si number density = 25.525469 Si / 1000 Ang^3
#
#
#
# Elastic Constant Matrix: (Units=GPa)
#
#
# Indices 1 2 3 4 5 6 
#
# 1 114.6459 28.8715 21.9507 -11.2556 -3.3205 -37.9461
# 2 28.8715 79.5652 28.9471 12.8319 -9.6684 -31.7113
# 3 21.9507 28.9471 141.1162 17.8620 2.3061 -25.5208
# 4 -11.2556 12.8319 17.8620 46.5734 -21.1752 2.0469
# 5 -3.3205 -9.6684 2.3061 -21.1752 56.6501 7.1615
# 6 -37.9461 -31.7113 -25.5208 2.0469 7.1615 43.4120
#
#
#
# Elastic Compliance Matrix: (Units=1/GPa)
#
#
# Indices 1 2 3 4 5 6 
#
# 1 0.012650 -0.000980 -0.000417 0.003322 0.000589 0.009843
# 2 -0.000980 0.019396 -0.000598 -0.006288 -0.000765 0.013383
# 3 -0.000417 -0.000598 0.008874 -0.004918 -0.002976 0.005139
# 4 0.003322 -0.006288 -0.004918 0.031813 0.012237 -0.008099
# 5 0.000589 -0.000765 -0.002976 0.012237 0.023031 -0.006170
# 6 0.009843 0.013383 0.005139 -0.008099 -0.006170 0.045835
#
#
# Mechanical properties :
#
#
# Convention : Reuss Voigt Hill
#
# Bulk Modulus (GPa) = 27.07668 54.98511 41.03089
# Shear Modulus (GPa) = 31.66559 46.36429 39.01494
#
# Velocity S-wave (km/s) = 3.52596 4.26654 3.91381
# Velocity P-wave (km/s) = 5.21606 6.77194 6.04427
#
# Compressibility (1/GPa) = 0.03693214
#
# Stress axis : x y z
#
# Youngs Moduli (GPa) = 79.05077 51.55571 112.68446
#
# Poissons Ratio (x) = 0.05053 0.04696
# Poissons Ratio (y) = 0.07747 0.06734
# Poissons Ratio (z) = 0.03295 0.03081
#
# Static dielectric constant tensor:
#      x y z
#    x 2.073800 0.047140 0.036570 
#    y 0.047140 1.824560 -0.024630 
#    z 0.036570 -0.024630 2.060940 
# 
# From -- ./inp_files/175478.got.cif
#   From: 2010.05.17/outbox.cif.g08.bks.cpg/sg2_88_cif.got.tgz:175478.got - 2010.06.03 11:33:40.
