data_PCOD9023739
_publ_section_title
;
Structure prediction by ZEFSAII (Michael W. Deem and Ramdas Pophale) SiO2 
 PCOD9023739
Probable space group: P -1
;
_chemical_formula_sum "Si O2"
_cell_formula_units_Z 14
_cell_length_a 17.388661
_cell_length_b 15.927208
_cell_length_c 5.389745
_cell_angle_alpha 84.469961
_cell_angle_beta 90.543671
_cell_angle_gamma 155.528404
_cell_volume 604.286165
_symmetry_space_group_name_H-M "P -1"
_symmetry_group_IT_number 2
_symmetry_cell_setting 'triclinic'
loop_
_space_group_symop_operation_xyz
x,y,z
-x,-y,-z
loop_
_atom_site_type_symbol
_atom_site_label
_atom_site_fract_x
_atom_site_fract_y
_atom_site_fract_z
Si Si1 0.215618 0.677275 0.656327
Si Si2 0.125675 0.295000 0.680936
Si Si3 0.818410 0.487054 0.665348
Si Si4 0.489969 0.087817 0.074600
Si Si5 0.692535 0.674186 0.098780
Si Si6 0.119960 0.740076 0.914589
Si Si7 0.969900 0.070361 0.225464
O O1 0.162130 0.590020 0.411319
O O2 0.414571 0.831577 0.679677
O O3 0.216625 0.774772 0.705844
O O4 0.055794 0.478517 0.886678
O O5 0.192484 0.455421 0.567450
O O6 0.014933 0.149975 0.476312
O O7 0.001502 0.164759 0.964163
O O8 0.297253 0.402837 0.722259
O O9 0.009624 0.697626 0.761617
O O10 0.631382 0.292885 0.878515
O O11 0.500000 0.000000 0.000000
O O12 0.281890 0.914864 0.073161
O O13 0.861854 0.829119 0.858329
O O14 0.500000 0.500000 0.000000
O O15 0.770577 0.825090 0.240624
#
# Coordination Sequence:
#
# PCOD9023739 Si02
#       7
#     2   2   2   2   2   2   2
#     4   9  19  35  57  77 109 147 198 244 298 356
#     4  10  22  40  61  87 129 159 194 253 301 348
#     4  11  22  35  57  81 117 153 199 250 300 351
#     4   9  20  36  53  79 109 147 193 251 300 354
#     4   9  20  39  68  93 118 160 200 240 289 368
#     4   9  19  35  54  80 106 149 195 246 299 358
#     4   9  21  41  60  90 124 156 199 237 300 360
#
# _framework density 23.167831
#
# number of rings (size 3 to 8) (size 9 to 14) (size 15 to 20)
#    0.857    1.714    0.000    1.714    4.000    4.000 
#    2.571    1.429    0.000    0.000    0.000    0.000 
#    0.000    0.000    0.000    0.000    0.000    0.000 
#
# Total GULP energy -77993.275311 kJ/mol
# GULP energy per Si atom -5570.948237 kJ/mol
# Density = 2.311510 g / cm^3
# Si number density = 23.167831 Si / 1000 Ang^3
#
#
#
# Elastic Constant Matrix: (Units=GPa)
#
#
# Indices 1 2 3 4 5 6 
#
# 1 59.9434 51.8147 41.0783 4.5423 20.3119 -0.2101
# 2 51.8147 115.0241 43.1734 24.3052 20.1066 30.2965
# 3 41.0783 43.1734 104.5850 13.7436 14.4846 4.0578
# 4 4.5423 24.3052 13.7436 49.2080 -10.5787 7.2461
# 5 20.3119 20.1066 14.4846 -10.5787 49.2362 11.7494
# 6 -0.2101 30.2965 4.0578 7.2461 11.7494 34.3998
#
#
#
# Elastic Compliance Matrix: (Units=1/GPa)
#
#
# Indices 1 2 3 4 5 6 
#
# 1 0.046061 -0.022538 -0.008372 0.002841 -0.012653 0.024842
# 2 -0.022538 0.025831 -0.000455 -0.006653 0.002796 -0.022388
# 3 -0.008372 -0.000455 0.013562 -0.002937 -0.000904 -0.000323
# 4 0.002841 -0.006653 -0.002937 0.026352 0.008612 -0.002269
# 5 -0.012653 0.002796 -0.000904 0.008612 0.029960 -0.014480
# 6 0.024842 -0.022388 -0.000323 -0.002269 -0.014480 0.054401
#
#
# Mechanical properties :
#
#
# Convention : Reuss Voigt Hill
#
# Bulk Modulus (GPa) = 44.00963 61.29837 52.65400
# Shear Modulus (GPa) = 18.76367 36.13454 27.44910
#
# Velocity S-wave (km/s) = 2.84897 3.95357 3.44582
# Velocity P-wave (km/s) = 5.46437 6.88163 6.21354
#
# Compressibility (1/GPa) = 0.02272230
#
# Stress axis : x y z
#
# Youngs Moduli (GPa) = 21.71030 38.71272 73.73756
#
# Poissons Ratio (x) = 0.87252 0.61736
# Poissons Ratio (y) = 0.48931 0.03356
# Poissons Ratio (z) = 0.18177 0.01762
#
# Static dielectric constant tensor:
#      x y z
#    x 1.921790 -0.019760 0.009170 
#    y -0.019760 1.901640 0.018250 
#    z 0.009170 0.018250 1.909670 
# 
# From -- ./inp_files/120050.got.cif
#   From: 2010.05.17/outbox.cif.g08.bks.cpg/sg2_61_cif.got.tgz:120050.got - 2010.06.03 11:33:40.
