data_PCOD9023330
_publ_section_title
;
Structure prediction by ZEFSAII (Michael W. Deem and Ramdas Pophale) SiO2 
 PCOD9023330
Probable space group: P -1
;
_chemical_formula_sum "Si O2"
_cell_formula_units_Z 16
_cell_length_a 10.185446
_cell_length_b 22.034801
_cell_length_c 11.038560
_cell_angle_alpha 32.137251
_cell_angle_beta 40.525867
_cell_angle_gamma 31.855101
_cell_volume 688.124237
_symmetry_space_group_name_H-M "P -1"
_symmetry_group_IT_number 2
_symmetry_cell_setting 'triclinic'
loop_
_space_group_symop_operation_xyz
x,y,z
-x,-y,-z
loop_
_atom_site_type_symbol
_atom_site_label
_atom_site_fract_x
_atom_site_fract_y
_atom_site_fract_z
Si Si1 0.990624 0.414787 0.263368
Si Si2 0.144367 0.440683 0.626326
Si Si3 0.294556 0.886467 0.993975
Si Si4 0.660828 0.348326 0.482661
Si Si5 0.683877 0.982871 0.016007
Si Si6 0.492192 0.887312 0.615808
Si Si7 0.879371 0.817889 0.957854
Si Si8 0.036036 0.890066 0.504627
O O1 0.236593 0.250373 0.379519
O O2 0.967174 0.481501 0.298264
O O3 0.751117 0.419027 0.385351
O O4 0.000000 0.500000 0.000000
O O5 0.400608 0.429724 0.453908
O O6 0.000000 0.500000 0.500000
O O7 0.157569 0.297830 0.866421
O O8 0.370763 0.751359 0.243233
O O9 0.345008 0.979752 0.884440
O O10 0.406351 0.831488 0.877435
O O11 0.000000 0.000000 0.000000
O O12 0.888637 0.241873 0.410732
O O13 0.781007 0.069654 0.738266
O O14 0.892757 0.824941 0.083060
O O15 0.399781 0.036110 0.105502
O O16 0.500000 0.000000 0.500000
O O17 0.250775 0.976788 0.546236
O O18 0.055966 0.836054 0.719204
#
# Coordination Sequence:
#
# PCOD9023330 Si02
#       8
#     2   2   2   2   2   2   2   2
#     4  12  27  49  76 106 148 201 247 307 379 448
#     4  12  28  50  70 102 151 203 251 299 371 460
#     4  11  19  38  67 106 139 173 230 310 369 422
#     4  11  23  46  74 103 144 194 252 303 373 440
#     4  10  22  39  68 101 138 183 228 293 373 429
#     4  12  23  39  70 110 140 176 244 312 360 433
#     4  11  23  43  70  96 143 192 235 298 362 437
#     4  11  21  42  71 107 142 176 238 319 368 423
#
# _framework density 23.251615000000001
#
# number of rings (size 3 to 8) (size 9 to 14) (size 15 to 20)
#    0.000    0.750    6.250    3.000    0.000    4.000 
#    4.500    1.250    0.000    0.000    0.000    0.000 
#    0.000    0.000    0.000    0.000    0.000    0.000 
#
# Total GULP energy -89128.091084 kJ/mol
# GULP energy per Si atom -5570.505693 kJ/mol
# Density = 2.319869 g / cm^3
# Si number density = 23.251615 Si / 1000 Ang^3
#
#
#
# Elastic Constant Matrix: (Units=GPa)
#
#
# Indices 1 2 3 4 5 6 
#
# 1 121.0866 41.2303 37.7920 -1.4781 -6.1746 11.7565
# 2 41.2303 106.8850 39.1068 4.1701 3.7085 24.0450
# 3 37.7920 39.1068 58.6774 4.7082 2.4539 10.1714
# 4 -1.4781 4.1701 4.7082 26.4658 7.2056 -1.4302
# 5 -6.1746 3.7085 2.4539 7.2056 37.2329 1.2152
# 6 11.7565 24.0450 10.1714 -1.4302 1.2152 51.9068
#
#
#
# Elastic Compliance Matrix: (Units=1/GPa)
#
#
# Indices 1 2 3 4 5 6 
#
# 1 0.010952 -0.002169 -0.005745 0.001368 0.002158 -0.000363
# 2 -0.002169 0.013816 -0.006895 -0.001066 -0.000926 -0.004565
# 3 -0.005745 -0.006895 0.025781 -0.003510 -0.001265 -0.000624
# 4 0.001368 -0.001066 -0.003510 0.040785 -0.007399 0.002169
# 5 0.002158 -0.000926 -0.001265 -0.007399 0.028846 -0.000691
# 6 -0.000363 -0.004565 -0.000624 0.002169 -0.000691 0.021660
#
#
# Mechanical properties :
#
#
# Convention : Reuss Voigt Hill
#
# Bulk Modulus (GPa) = 47.77964 58.10081 52.94023
# Shear Modulus (GPa) = 28.02098 34.35576 31.18837
#
# Velocity S-wave (km/s) = 3.47525 3.84808 3.66641
# Velocity P-wave (km/s) = 6.05778 6.69221 6.38289
#
# Compressibility (1/GPa) = 0.02092942
#
# Stress axis : x y z
#
# Youngs Moduli (GPa) = 91.30444 72.37845 38.78842
#
# Poissons Ratio (x) = 0.15702 0.22285
# Poissons Ratio (y) = 0.19807 0.26746
# Poissons Ratio (z) = 0.52458 0.49907
#
# Static dielectric constant tensor:
#      x y z
#    x 1.977870 -0.120820 0.128950 
#    y -0.120820 1.647170 0.085370 
#    z 0.128950 0.085370 1.999310 
# 
# From -- ./inp_files/439085.got.cif
#   From: 2010.05.17/outbox.cif.g08.bks.cpg/sg2_220_cif.got.tgz:439085.got - 2010.06.03 11:33:40.
