data_PCOD9023826
_publ_section_title
;
Structure prediction by ZEFSAII (Michael W. Deem and Ramdas Pophale) SiO2 
 PCOD9023826
Probable space group: P -1
;
_chemical_formula_sum "Si O2"
_cell_formula_units_Z 14
_cell_length_a 9.810552
_cell_length_b 16.504463
_cell_length_c 9.023232
_cell_angle_alpha 45.951644
_cell_angle_beta 137.022306
_cell_angle_gamma 144.104572
_cell_volume 564.398832
_symmetry_space_group_name_H-M "P -1"
_symmetry_group_IT_number 2
_symmetry_cell_setting 'triclinic'
loop_
_space_group_symop_operation_xyz
x,y,z
-x,-y,-z
loop_
_atom_site_type_symbol
_atom_site_label
_atom_site_fract_x
_atom_site_fract_y
_atom_site_fract_z
Si Si1 0.241199 0.518517 0.600839
Si Si2 0.033065 0.223064 0.892047
Si Si3 0.541805 0.126898 0.462015
Si Si4 0.437773 0.102273 0.880903
Si Si5 0.759248 0.841254 0.616348
Si Si6 0.764269 0.415599 0.809959
Si Si7 0.376076 0.209817 0.972488
O O1 0.237202 0.394792 0.828275
O O2 0.499907 0.677133 0.627655
O O3 0.208022 0.498716 0.421263
O O4 0.000000 0.500000 0.500000
O O5 0.131277 0.171723 0.908001
O O6 0.774132 0.190266 0.676167
O O7 0.039457 0.167617 0.129033
O O8 0.296019 0.071813 0.432405
O O9 0.500000 0.000000 0.500000
O O10 0.562779 0.233636 0.221951
O O11 0.247997 0.108899 0.616287
O O12 0.700205 0.267331 0.884739
O O13 0.343448 0.090959 0.988637
O O14 0.500000 0.000000 0.000000
O O15 0.515584 0.347894 0.801319
O O16 0.000000 0.500000 0.000000
#
# Coordination Sequence:
#
# PCOD9023826 Si02
#       7
#     2   2   2   2   2   2   2
#     4  11  21  39  64  92 128 165 212 261 323 369
#     4  11  23  39  64  93 130 164 211 270 311 380
#     4  11  22  40  67  88 125 173 210 259 321 377
#     4   9  19  40  65  92 126 167 212 265 314 380
#     4  10  22  40  61  98 122 164 215 259 320 381
#     4   9  20  37  62  93 125 167 216 254 317 386
#     4   9  22  39  61  93 125 164 219 255 320 384
#
# _framework density 24.805153000000001
#
# number of rings (size 3 to 8) (size 9 to 14) (size 15 to 20)
#    0.857    1.143    1.429    2.143    2.000    2.857 
#    0.000    2.857    0.000    3.429    0.000    0.000 
#    0.000    0.000    0.000    0.000    0.000    0.000 
#
# Total GULP energy -78230.215853 kJ/mol
# GULP energy per Si atom -5587.872561 kJ/mol
# Density = 2.474870 g / cm^3
# Si number density = 24.805153 Si / 1000 Ang^3
#
#
#
# Elastic Constant Matrix: (Units=GPa)
#
#
# Indices 1 2 3 4 5 6 
#
# 1 113.8528 8.0484 63.8558 -1.7741 -6.1100 -0.5059
# 2 8.0484 77.4871 33.5362 6.3977 7.4376 -12.3272
# 3 63.8558 33.5362 196.5652 12.7610 -22.3618 1.4015
# 4 -1.7741 6.3977 12.7610 49.6882 5.2570 -1.4757
# 5 -6.1100 7.4376 -22.3618 5.2570 46.0161 -5.5212
# 6 -0.5059 -12.3272 1.4015 -1.4757 -5.5212 36.9180
#
#
#
# Elastic Compliance Matrix: (Units=1/GPa)
#
#
# Indices 1 2 3 4 5 6 
#
# 1 0.010854 0.000517 -0.003772 0.001364 -0.000579 0.000432
# 2 0.000517 0.015339 -0.003151 -0.000658 -0.003299 0.004729
# 3 -0.003772 -0.003151 0.007415 -0.002056 0.003738 -0.000909
# 4 0.001364 -0.000658 -0.002056 0.021122 -0.003094 0.000259
# 5 -0.000579 -0.003299 0.003738 -0.003094 0.024635 0.002309
# 6 0.000432 0.004729 -0.000909 0.000259 0.002309 0.029062
#
#
# Mechanical properties :
#
#
# Convention : Reuss Voigt Hill
#
# Bulk Modulus (GPa) = 48.08584 66.53176 57.30880
# Shear Modulus (GPa) = 39.01011 45.35544 42.18278
#
# Velocity S-wave (km/s) = 3.96998 4.28070 4.12826
# Velocity P-wave (km/s) = 6.35939 7.16327 6.77327
#
# Compressibility (1/GPa) = 0.02079614
#
# Stress axis : x y z
#
# Youngs Moduli (GPa) = 92.12963 65.19404 134.85315
#
# Poissons Ratio (x) = -0.03369 0.50863
# Poissons Ratio (y) = -0.04761 0.42495
# Poissons Ratio (z) = 0.34749 0.20544
#
# Static dielectric constant tensor:
#      x y z
#    x 1.962070 0.042600 -0.026120 
#    y 0.042600 2.084380 -0.036940 
#    z -0.026120 -0.036940 1.975170 
# 
# From -- ./inp_files/278868.got.cif
#   From: 2010.05.17/outbox.cif.g08.bks.cpg/sg2_140_cif.got.tgz:278868.got - 2010.06.03 11:33:40.
