data_PCOD9023892
_publ_section_title
;
Structure prediction by ZEFSAII (Michael W. Deem and Ramdas Pophale) SiO2 
 PCOD9023892
Probable space group: P -1
;
_chemical_formula_sum "Si O2"
_cell_formula_units_Z 16
_cell_length_a 12.843613
_cell_length_b 14.055420
_cell_length_c 11.275187
_cell_angle_alpha 125.175583
_cell_angle_beta 136.873680
_cell_angle_gamma 31.262868
_cell_volume 715.525115
_symmetry_space_group_name_H-M "P -1"
_symmetry_group_IT_number 2
_symmetry_cell_setting 'triclinic'
loop_
_space_group_symop_operation_xyz
x,y,z
-x,-y,-z
loop_
_atom_site_type_symbol
_atom_site_label
_atom_site_fract_x
_atom_site_fract_y
_atom_site_fract_z
Si Si1 0.987818 0.868179 0.835004
Si Si2 0.508280 0.290620 0.683235
Si Si3 0.116329 0.553262 0.168767
Si Si4 0.398713 0.619344 0.833285
Si Si5 0.640544 0.212540 0.459009
Si Si6 0.060145 0.791901 0.447237
Si Si7 0.248083 0.218944 0.425428
Si Si8 0.063560 0.666608 0.954276
O O1 0.212878 0.782076 0.888785
O O2 0.934627 0.769192 0.663913
O O3 0.027088 0.811831 0.964083
O O4 0.755440 0.084630 0.783665
O O5 0.455827 0.451989 0.795939
O O6 0.548513 0.272137 0.560438
O O7 0.301428 0.320828 0.573032
O O8 0.401967 0.363519 0.288355
O O9 0.032454 0.674452 0.301707
O O10 0.045144 0.674018 0.083601
O O11 0.000000 0.500000 0.000000
O O12 0.252984 0.697084 0.644710
O O13 0.655534 0.532178 0.979879
O O14 0.817273 0.212205 0.564494
O O15 0.806248 0.000808 0.422150
O O16 0.500000 0.000000 0.500000
O O17 0.141002 0.286500 0.250127
#
# Coordination Sequence:
#
# PCOD9023892 Si02
#       8
#     2   2   2   2   2   2   2   2
#     4   9  22  40  59  88 128 158 200 258 312 364
#     4  11  20  37  67  88 117 166 206 251 310 370
#     4  12  24  42  67  93 131 166 208 262 316 376
#     4  12  21  38  66  93 122 158 216 259 305 373
#     4  11  22  41  66  91 126 164 215 259 310 373
#     4  11  24  40  64  97 123 171 212 258 316 368
#     4   8  19  40  59  84 121 164 197 241 312 367
#     4  10  22  40  62  89 130 160 202 262 310 367
#
# _framework density 22.361201000000001
#
# number of rings (size 3 to 8) (size 9 to 14) (size 15 to 20)
#    0.750    0.750    3.750    2.250    0.000    1.500 
#    0.000    1.250    0.000    0.000    0.000    0.000 
#    0.000    0.000    0.000    0.000    0.000    0.000 
#
# Total GULP energy -89220.686734 kJ/mol
# GULP energy per Si atom -5576.292921 kJ/mol
# Density = 2.231031 g / cm^3
# Si number density = 22.361201 Si / 1000 Ang^3
#
#
#
# Elastic Constant Matrix: (Units=GPa)
#
#
# Indices 1 2 3 4 5 6 
#
# 1 45.3580 -0.0082 15.6557 6.0331 -10.6376 3.3245
# 2 -0.0082 98.5943 50.8169 -8.1823 -0.4804 1.8880
# 3 15.6557 50.8169 111.9888 -10.9626 -6.1533 -0.9020
# 4 6.0331 -8.1823 -10.9626 41.2611 21.7494 -1.4244
# 5 -10.6376 -0.4804 -6.1533 21.7494 26.4832 -8.1233
# 6 3.3245 1.8880 -0.9020 -1.4244 -8.1233 25.1484
#
#
#
# Elastic Compliance Matrix: (Units=1/GPa)
#
#
# Indices 1 2 3 4 5 6 
#
# 1 0.034911 0.001075 -0.005831 -0.024206 0.034011 0.004710
# 2 0.001075 0.013654 -0.006302 0.002831 -0.003872 -0.002484
# 3 -0.005831 -0.006302 0.012903 0.004613 -0.002934 0.001020
# 4 -0.024206 0.002831 0.004613 0.063316 -0.064969 -0.014247
# 5 0.034011 -0.003872 -0.002934 -0.064969 0.112745 0.028428
# 6 0.004710 -0.002484 0.001020 -0.014247 0.028428 0.047740
#
#
# Mechanical properties :
#
#
# Convention : Reuss Voigt Hill
#
# Bulk Modulus (GPa) = 25.41161 43.20776 34.30969
# Shear Modulus (GPa) = 15.60053 31.21033 23.40543
#
# Velocity S-wave (km/s) = 2.64419 3.74001 3.23878
# Velocity P-wave (km/s) = 4.55095 6.16561 5.41876
#
# Compressibility (1/GPa) = 0.03935209
#
# Stress axis : x y z
#
# Youngs Moduli (GPa) = 28.64463 73.23676 77.50324
#
# Poissons Ratio (x) = -0.07872 0.45192
# Poissons Ratio (y) = -0.03079 0.48841
# Poissons Ratio (z) = 0.16703 0.46152
#
# Static dielectric constant tensor:
#      x y z
#    x 1.855760 0.036850 0.040510 
#    y 0.036850 1.804920 0.014130 
#    z 0.040510 0.014130 1.931090 
# 
# From -- ./inp_files/455008.got.cif
#   From: 2010.05.17/outbox.cif.g08.bks.cpg/sg2_228_cif.got.tgz:455008.got - 2010.06.03 11:33:40.
