data_PCOD9023844
_publ_section_title
;
Structure prediction by ZEFSAII (Michael W. Deem and Ramdas Pophale) SiO2 
 PCOD9023844
Probable space group: P -1
;
_chemical_formula_sum "Si O2"
_cell_formula_units_Z 11
_cell_length_a 12.597730
_cell_length_b 4.869636
_cell_length_c 11.581335
_cell_angle_alpha 84.685809
_cell_angle_beta 35.990271
_cell_angle_gamma 91.453266
_cell_volume 409.560125
_symmetry_space_group_name_H-M "P -1"
_symmetry_group_IT_number 2
_symmetry_cell_setting 'triclinic'
loop_
_space_group_symop_operation_xyz
x,y,z
-x,-y,-z
loop_
_atom_site_type_symbol
_atom_site_label
_atom_site_fract_x
_atom_site_fract_y
_atom_site_fract_z
Si Si1 0.162199 0.004783 0.448340
Si Si2 0.500000 0.000000 0.500000
Si Si3 0.203427 0.384170 0.791854
Si Si4 0.582176 0.429249 0.806657
Si Si5 0.962666 0.016599 0.847869
Si Si6 0.380997 0.755755 0.808605
O O1 0.246816 0.328010 0.376610
O O2 0.055880 0.901060 0.662385
O O3 0.329653 0.850416 0.267032
O O4 0.000000 0.000000 0.500000
O O5 0.374425 0.231960 0.636022
O O6 0.449118 0.032347 0.398641
O O7 0.086795 0.290332 0.784873
O O8 0.293667 0.687719 0.754668
O O9 0.076878 0.227596 0.011622
O O10 0.436512 0.494323 0.835304
O O11 0.500000 0.500000 0.000000
O O12 0.767882 0.116173 0.993656
#
# Coordination Sequence:
#
# PCOD9023844 Si02
#       6
#     2   1   2   2   2   2
#     4  12  28  50  79 109 149 194 253 314 377 448
#     4  10  22  40  62 104 138 190 248 290 364 430
#     4  10  22  40  68  99 149 192 245 300 367 443
#     4  12  29  49  79 111 148 197 253 311 378 446
#     4  10  24  42  67 106 143 191 250 296 377 434
#     4  11  24  42  73 101 152 195 250 305 370 440
#
# _framework density 26.858083000000001
#
# number of rings (size 3 to 8) (size 9 to 14) (size 15 to 20)
#    0.000    1.091    0.000    4.364   12.727    0.000 
#    3.273    0.000    0.000    0.000    0.000    0.000 
#    0.000    0.000    0.000    0.000    0.000    0.000 
#
# Total GULP energy -61380.334473 kJ/mol
# GULP energy per Si atom -5580.030407 kJ/mol
# Density = 2.679695 g / cm^3
# Si number density = 26.858083 Si / 1000 Ang^3
#
#
#
# Elastic Constant Matrix: (Units=GPa)
#
#
# Indices 1 2 3 4 5 6 
#
# 1 118.2921 23.8927 45.0424 5.3172 2.5784 -12.1677
# 2 23.8927 100.1347 5.0388 15.9486 -0.8121 4.6192
# 3 45.0424 5.0388 168.3417 27.0613 32.8994 -12.7499
# 4 5.3172 15.9486 27.0613 50.0859 -1.7864 -7.6930
# 5 2.5784 -0.8121 32.8994 -1.7864 33.6143 -0.9085
# 6 -12.1677 4.6192 -12.7499 -7.6930 -0.9085 36.8165
#
#
#
# Elastic Compliance Matrix: (Units=1/GPa)
#
#
# Indices 1 2 3 4 5 6 
#
# 1 0.010458 -0.002797 -0.003327 0.002157 0.002586 0.003170
# 2 -0.002797 0.011429 0.001058 -0.004395 -0.000858 -0.002931
# 3 -0.003327 0.001058 0.009535 -0.005357 -0.009317 0.000721
# 4 0.002157 -0.004395 -0.005357 0.024996 0.006430 0.004791
# 5 0.002586 -0.000858 -0.009317 0.006430 0.038992 0.000042
# 6 0.003170 -0.002931 0.000721 0.004791 0.000042 0.029829
#
#
# Mechanical properties :
#
#
# Convention : Reuss Voigt Hill
#
# Bulk Modulus (GPa) = 46.96502 59.41292 53.18897
# Shear Modulus (GPa) = 35.09619 44.95632 40.02625
#
# Velocity S-wave (km/s) = 3.61879 4.09571 3.86461
# Velocity P-wave (km/s) = 5.91483 6.67349 6.30558
#
# Compressibility (1/GPa) = 0.02129244
#
# Stress axis : x y z
#
# Youngs Moduli (GPa) = 95.62158 87.49793 104.87320
#
# Poissons Ratio (x) = 0.24470 0.34887
# Poissons Ratio (y) = 0.26742 -0.11100
# Poissons Ratio (z) = 0.31809 -0.09261
#
# Static dielectric constant tensor:
#      x y z
#    x 2.145370 -0.249530 0.345770 
#    y -0.249530 1.443080 0.722450 
#    z 0.345770 0.722450 1.100250 
# 
# From -- ./inp_files/129645.got.cif
#   From: 2010.05.17/outbox.cif.g08.bks.cpg/sg2_65_cif.got.tgz:129645.got - 2010.06.03 11:33:40.
