data_PCOD9023744
_publ_section_title
;
Structure prediction by ZEFSAII (Michael W. Deem and Ramdas Pophale) SiO2 
 PCOD9023744
Probable space group: P -1
;
_chemical_formula_sum "Si O2"
_cell_formula_units_Z 12
_cell_length_a 8.896591
_cell_length_b 12.112140
_cell_length_c 7.701905
_cell_angle_alpha 76.552361
_cell_angle_beta 88.668694
_cell_angle_gamma 36.729548
_cell_volume 463.343531
_symmetry_space_group_name_H-M "P -1"
_symmetry_group_IT_number 2
_symmetry_cell_setting 'triclinic'
loop_
_space_group_symop_operation_xyz
x,y,z
-x,-y,-z
loop_
_atom_site_type_symbol
_atom_site_label
_atom_site_fract_x
_atom_site_fract_y
_atom_site_fract_z
Si Si1 0.780166 0.558209 0.392839
Si Si2 0.758752 0.387524 0.703861
Si Si3 0.628689 0.234417 0.915243
Si Si4 0.638873 0.023570 0.557769
Si Si5 0.257319 0.832746 0.675429
Si Si6 0.225831 0.109356 0.031724
O O1 0.837327 0.395556 0.517058
O O2 0.676837 0.604575 0.181833
O O3 0.531798 0.778469 0.402051
O O4 0.000000 0.500000 0.500000
O O5 0.722180 0.275728 0.766451
O O6 0.476507 0.617332 0.663954
O O7 0.971352 0.307522 0.861814
O O8 0.758503 0.032413 0.966385
O O9 0.716582 0.221519 0.106758
O O10 0.685771 0.067906 0.367332
O O11 0.500000 0.000000 0.500000
O O12 0.816505 0.865844 0.767979
O O13 0.000000 0.000000 0.500000
O O14 0.500000 0.000000 0.000000
#
# Coordination Sequence:
#
# PCOD9023744 Si02
#       6
#     2   2   2   2   2   2
#     4  10  23  41  63  94 127 165 213 261 316 378
#     4  11  23  41  65  93 127 167 214 265 319 380
#     4  11  23  41  65  95 128 169 213 265 319 381
#     4  10  22  40  61  88 124 165 207 259 314 372
#     4  11  25  43  62  92 130 169 214 264 317 376
#     4  11  23  42  66  96 128 167 214 264 321 383
#
# _framework density 25.898710000000001
#
# number of rings (size 3 to 8) (size 9 to 14) (size 15 to 20)
#    0.000    1.333    0.000    5.500    0.000    6.667 
#    0.000    4.167    0.000    0.000    0.000    0.000 
#    0.000    0.000    0.000    0.000    0.000    0.000 
#
# Total GULP energy -66880.034584 kJ/mol
# GULP energy per Si atom -5573.336215 kJ/mol
# Density = 2.583976 g / cm^3
# Si number density = 25.898710 Si / 1000 Ang^3
#
#
#
# Elastic Constant Matrix: (Units=GPa)
#
#
# Indices 1 2 3 4 5 6 
#
# 1 146.1269 18.2319 36.7217 -17.6554 0.0835 12.6560
# 2 18.2319 58.6660 26.8212 -23.5162 5.4554 3.1657
# 3 36.7217 26.8212 197.5148 -13.1952 30.6623 -17.5798
# 4 -17.6554 -23.5162 -13.1952 41.5497 -2.2040 4.5091
# 5 0.0835 5.4554 30.6623 -2.2040 61.6372 -16.4853
# 6 12.6560 3.1657 -17.5798 4.5091 -16.4853 32.9826
#
#
#
# Elastic Compliance Matrix: (Units=1/GPa)
#
#
# Indices 1 2 3 4 5 6 
#
# 1 0.008061 -0.000178 -0.001613 0.003288 -0.000286 -0.004528
# 2 -0.000178 0.024215 -0.002614 0.013397 -0.002112 -0.006536
# 3 -0.001613 -0.002614 0.006284 -0.000634 -0.002036 0.003289
# 4 0.003288 0.013397 -0.000634 0.033660 -0.001932 -0.008453
# 5 -0.000286 -0.002112 -0.002036 -0.001932 0.019876 0.009426
# 6 -0.004528 -0.006536 0.003289 -0.008453 0.009426 0.040304
#
#
# Mechanical properties :
#
#
# Convention : Reuss Voigt Hill
#
# Bulk Modulus (GPa) = 33.61523 62.87303 48.24413
# Shear Modulus (GPa) = 33.08455 48.60276 40.84366
#
# Velocity S-wave (km/s) = 3.57803 4.33673 3.97552
# Velocity P-wave (km/s) = 5.48429 7.02890 6.30408
#
# Compressibility (1/GPa) = 0.02974842
#
# Stress axis : x y z
#
# Youngs Moduli (GPa) = 124.05858 41.29622 159.12930
#
# Poissons Ratio (x) = 0.00737 0.25673
# Poissons Ratio (y) = 0.02214 0.41597
# Poissons Ratio (z) = 0.20015 0.10795
#
# Static dielectric constant tensor:
#      x y z
#    x 1.864000 -0.102190 0.033450 
#    y -0.102190 2.139920 0.050300 
#    z 0.033450 0.050300 2.210350 
# 
# From -- ./inp_files/159250.got.cif
#   From: 2010.05.17/outbox.cif.g08.bks.cpg/sg2_80_cif.got.tgz:159250.got - 2010.06.03 11:33:40.
