data_PCOD9023476
_publ_section_title
;
Structure prediction by ZEFSAII (Michael W. Deem and Ramdas Pophale) SiO2 
 PCOD9023476
Probable space group: P -1
;
_chemical_formula_sum "Si O2"
_cell_formula_units_Z 14
_cell_length_a 12.023167
_cell_length_b 12.526870
_cell_length_c 5.621142
_cell_angle_alpha 64.200211
_cell_angle_beta 66.167116
_cell_angle_gamma 46.173155
_cell_volume 542.981191
_symmetry_space_group_name_H-M "P -1"
_symmetry_group_IT_number 2
_symmetry_cell_setting 'triclinic'
loop_
_space_group_symop_operation_xyz
x,y,z
-x,-y,-z
loop_
_atom_site_type_symbol
_atom_site_label
_atom_site_fract_x
_atom_site_fract_y
_atom_site_fract_z
Si Si1 0.767637 0.549900 0.669258
Si Si2 0.373709 0.574910 0.240817
Si Si3 0.531652 0.877584 0.398155
Si Si4 0.941870 0.621542 0.686967
Si Si5 0.377047 0.750559 0.458461
Si Si6 0.956362 0.087972 0.201167
Si Si7 0.847167 0.791902 0.090543
O O1 0.765398 0.411387 0.775787
O O2 0.608770 0.719768 0.629464
O O3 0.851408 0.552067 0.822281
O O4 0.878378 0.516620 0.385784
O O5 0.334978 0.719754 0.266450
O O6 0.456676 0.423456 0.485256
O O7 0.500000 0.500000 0.000000
O O8 0.408599 0.871890 0.357604
O O9 0.665882 0.861573 0.147497
O O10 0.500000 0.000000 0.500000
O O11 0.882665 0.725757 0.398159
O O12 0.915100 0.704960 0.866479
O O13 0.235095 0.794648 0.710238
O O14 0.000000 0.000000 0.500000
O O15 0.072484 0.129223 0.053285
O O16 0.000000 0.000000 0.000000
#
# Coordination Sequence:
#
# PCOD9023476 Si02
#       7
#     2   2   2   2   2   2   2
#     4   9  21  39  63 100 136 171 229 280 349 401
#     4  10  22  39  69  98 135 176 227 291 354 413
#     4  10  22  44  66  97 141 185 231 276 340 420
#     4  10  22  41  68 100 132 173 221 297 342 409
#     4  10  24  44  67 101 136 183 232 289 349 412
#     4  12  27  46  71 100 140 187 238 286 342 419
#     4  11  24  43  71  97 136 177 232 282 352 399
#
# _framework density 25.783581999999999
#
# number of rings (size 3 to 8) (size 9 to 14) (size 15 to 20)
#    0.000    1.714    0.000    2.571    6.000    6.286 
#    0.000    3.571    0.000    0.000    0.000    0.000 
#    0.000    0.000    0.000    0.000    0.000    0.000 
#
# Total GULP energy -77938.629779 kJ/mol
# GULP energy per Si atom -5567.044984 kJ/mol
# Density = 2.572490 g / cm^3
# Si number density = 25.783582 Si / 1000 Ang^3
#
#
#
# Elastic Constant Matrix: (Units=GPa)
#
#
# Indices 1 2 3 4 5 6 
#
# 1 218.1906 82.1885 62.6950 11.4869 -9.7285 81.8213
# 2 82.1885 96.7709 54.0307 35.4757 14.0030 42.1502
# 3 62.6950 54.0307 127.6598 3.7280 19.3377 40.8870
# 4 11.4869 35.4757 3.7280 49.1441 15.8941 17.7585
# 5 -9.7285 14.0030 19.3377 15.8941 40.3195 15.2146
# 6 81.8213 42.1502 40.8870 17.7585 15.2146 68.5104
#
#
#
# Elastic Compliance Matrix: (Units=1/GPa)
#
#
# Indices 1 2 3 4 5 6 
#
# 1 0.012980 -0.008057 -0.000097 0.004763 0.009302 -0.013788
# 2 -0.008057 0.026824 -0.007379 -0.017186 -0.001847 0.002388
# 3 -0.000097 -0.007379 0.012756 0.007375 -0.005074 -0.003742
# 4 0.004763 -0.017186 0.007375 0.036252 -0.008018 -0.007133
# 5 0.009302 -0.001847 -0.005074 -0.008018 0.038330 -0.013379
# 6 -0.013788 0.002388 -0.003742 -0.007133 -0.013379 0.036647
#
#
# Mechanical properties :
#
#
# Convention : Reuss Voigt Hill
#
# Bulk Modulus (GPa) = 46.52477 93.38334 69.95405
# Shear Modulus (GPa) = 24.74996 47.84196 36.29596
#
# Velocity S-wave (km/s) = 3.10161 4.31225 3.75602
# Velocity P-wave (km/s) = 5.55969 7.81606 6.78236
#
# Compressibility (1/GPa) = 0.02149393
#
# Stress axis : x y z
#
# Youngs Moduli (GPa) = 77.04001 37.27997 78.39613
#
# Poissons Ratio (x) = 0.30036 0.00759
# Poissons Ratio (y) = 0.62070 0.57852
# Poissons Ratio (z) = 0.00746 0.27510
#
# Static dielectric constant tensor:
#      x y z
#    x 2.254090 -0.118000 0.009700 
#    y -0.118000 2.269560 -0.218260 
#    z 0.009700 -0.218260 1.989070 
# 
# From -- ./inp_files/69671.got.cif
#   From: 2010.05.17/outbox.cif.g08.bks.cpg/sg2_35_cif.got.tgz:69671.got - 2010.06.03 11:33:40.
