data_PCOD9023719
_publ_section_title
;
Structure prediction by ZEFSAII (Michael W. Deem and Ramdas Pophale) SiO2 
 PCOD9023719
Probable space group: P -1
;
_chemical_formula_sum "Si O2"
_cell_formula_units_Z 13
_cell_length_a 5.132157
_cell_length_b 8.576183
_cell_length_c 15.344013
_cell_angle_alpha 49.676382
_cell_angle_beta 114.852648
_cell_angle_gamma 112.892018
_cell_volume 460.475951
_symmetry_space_group_name_H-M "P -1"
_symmetry_group_IT_number 2
_symmetry_cell_setting 'triclinic'
loop_
_space_group_symop_operation_xyz
x,y,z
-x,-y,-z
loop_
_atom_site_type_symbol
_atom_site_label
_atom_site_fract_x
_atom_site_fract_y
_atom_site_fract_z
Si Si1 0.500000 0.000000 0.500000
Si Si2 0.386851 0.526915 0.691592
Si Si3 0.323213 0.837605 0.102737
Si Si4 0.923932 0.226326 0.653275
Si Si5 0.574037 0.383608 0.140471
Si Si6 0.059089 0.116935 0.104761
Si Si7 0.259069 0.025561 0.643781
O O1 0.463145 0.247657 0.397435
O O2 0.710494 0.033058 0.430302
O O3 0.594684 0.358404 0.766457
O O4 0.094573 0.450250 0.621786
O O5 0.331517 0.501953 0.797555
O O6 0.226445 0.994410 0.102373
O O7 0.086679 0.738660 0.031854
O O8 0.500000 0.000000 0.000000
O O9 0.991888 0.133066 0.601935
O O10 0.095712 0.081266 0.791468
O O11 0.580157 0.175994 0.643890
O O12 0.252040 0.248602 0.156397
O O13 0.747109 0.190927 0.226535
O O14 0.500000 0.500000 0.000000
#
# Coordination Sequence:
#
# PCOD9023719 Si02
#       7
#     1   2   2   2   2   2   2
#     4  10  26  52  70 108 144 186 238 296 356 430
#     4  11  23  42  71 100 144 187 239 290 359 418
#     4  11  21  39  70 101 134 190 235 296 350 425
#     4  11  23  45  75 105 135 188 238 300 349 430
#     4  10  22  40  61 102 143 188 226 296 359 429
#     4  10  23  39  65 103 143 176 240 291 359 426
#     4  10  25  49  74 102 143 183 243 293 359 418
#
# _framework density 28.231656999999998
#
# number of rings (size 3 to 8) (size 9 to 14) (size 15 to 20)
#    0.000    1.538    1.538    2.769    4.308    2.462 
#    5.538    6.154    0.000    0.000    0.000    0.000 
#    0.000    0.000    0.000    0.000    0.000    0.000 
#
# Total GULP energy -72371.702757 kJ/mol
# GULP energy per Si atom -5567.054058 kJ/mol
# Density = 2.816740 g / cm^3
# Si number density = 28.231657 Si / 1000 Ang^3
#
#
#
# Elastic Constant Matrix: (Units=GPa)
#
#
# Indices 1 2 3 4 5 6 
#
# 1 62.8406 -7.4869 13.1698 -14.0791 -10.2282 -26.1077
# 2 -7.4869 101.1241 18.9915 8.9915 -2.5388 -11.0409
# 3 13.1698 18.9915 162.8520 -20.8355 -3.1204 -13.5974
# 4 -14.0791 8.9915 -20.8355 63.8977 -6.2294 -5.0426
# 5 -10.2282 -2.5388 -3.1204 -6.2294 31.3661 10.1017
# 6 -26.1077 -11.0409 -13.5974 -5.0426 10.1017 30.8379
#
#
#
# Elastic Compliance Matrix: (Units=1/GPa)
#
#
# Indices 1 2 3 4 5 6 
#
# 1 0.030466 0.004518 0.000534 0.008764 0.003051 0.028080
# 2 0.004518 0.011267 -0.001118 -0.000391 -0.000174 0.007359
# 3 0.000534 -0.001118 0.006882 0.002814 0.000207 0.003478
# 4 0.008764 -0.000391 0.002814 0.019741 0.003625 0.010561
# 5 0.003051 -0.000174 0.000207 0.003625 0.036412 -0.008723
# 6 0.028080 0.007359 0.003478 0.010561 -0.008723 0.064953
#
#
# Mechanical properties :
#
#
# Convention : Reuss Voigt Hill
#
# Bulk Modulus (GPa) = 17.70444 41.79616 29.75030
# Shear Modulus (GPa) = 27.67306 45.36314 36.51810
#
# Velocity S-wave (km/s) = 3.13423 4.01286 3.60045
# Velocity P-wave (km/s) = 4.40257 6.02558 5.27685
#
# Compressibility (1/GPa) = 0.05648301
#
# Stress axis : x y z
#
# Youngs Moduli (GPa) = 32.82361 88.75275 145.30288
#
# Poissons Ratio (x) = -0.40103 -0.07753
# Poissons Ratio (y) = -0.14831 0.16248
# Poissons Ratio (z) = -0.01751 0.09924
#
# Static dielectric constant tensor:
#      x y z
#    x 2.320340 -0.093710 -0.112570 
#    y -0.093710 1.680870 -0.244540 
#    z -0.112570 -0.244540 2.168900 
# 
# From -- ./inp_files/546444.got.cif
#   From: 2010.05.17/outbox.cif.g08.bks.cpg/sg2_274_cif.got.tgz:546444.got - 2010.06.03 11:33:40.
