data_PCOD9023750
_publ_section_title
;
Structure prediction by ZEFSAII (Michael W. Deem and Ramdas Pophale) SiO2 
 PCOD9023750
Probable space group: P -1
;
_chemical_formula_sum "Si O2"
_cell_formula_units_Z 16
_cell_length_a 26.520403
_cell_length_b 5.294905
_cell_length_c 5.040337
_cell_angle_alpha 95.824090
_cell_angle_beta 71.629527
_cell_angle_gamma 80.481375
_cell_volume 653.481280
_symmetry_space_group_name_H-M "P -1"
_symmetry_group_IT_number 2
_symmetry_cell_setting 'triclinic'
loop_
_space_group_symop_operation_xyz
x,y,z
-x,-y,-z
loop_
_atom_site_type_symbol
_atom_site_label
_atom_site_fract_x
_atom_site_fract_y
_atom_site_fract_z
Si Si1 0.149885 0.609029 0.076728
Si Si2 0.886615 0.827072 0.613575
Si Si3 0.720062 0.174260 0.819007
Si Si4 0.058229 0.385795 0.010479
Si Si5 0.535069 0.128400 0.161865
Si Si6 0.245496 0.387382 0.489981
Si Si7 0.663066 0.389005 0.447144
Si Si8 0.563444 0.622358 0.279565
O O1 0.247706 0.599298 0.279169
O O2 0.147242 0.895714 0.215554
O O3 0.093246 0.607066 0.015465
O O4 0.198252 0.497278 0.785549
O O5 0.907300 0.811246 0.279448
O O6 0.854229 0.600318 0.708854
O O7 0.937989 0.749929 0.722964
O O8 0.669371 0.249919 0.705759
O O9 0.753280 0.895840 0.651582
O O10 0.698356 0.196990 0.153847
O O11 0.000000 0.500000 0.000000
O O12 0.555827 0.386870 0.076022
O O13 0.494327 0.248531 0.479994
O O14 0.579950 0.875916 0.149597
O O15 0.500000 0.000000 0.000000
O O16 0.303084 0.384940 0.542727
O O17 0.605487 0.498743 0.423106
#
# Coordination Sequence:
#
# PCOD9023750 Si02
#       8
#     2   2   2   2   2   2   2   2
#     4  10  24  42  66  93 127 167 211 263 316 374
#     4  10  24  40  65  93 125 169 210 260 314 374
#     4  10  25  40  66  91 128 162 211 257 315 373
#     4  10  24  42  64  94 130 168 213 260 314 376
#     4  10  22  40  61  89 122 159 201 253 304 366
#     4  10  24  44  65  95 127 165 211 263 316 373
#     4  10  26  41  66  94 126 166 210 259 312 376
#     4  10  23  38  61  89 121 158 207 246 308 367
#
# _framework density 24.484252000000001
#
# number of rings (size 3 to 8) (size 9 to 14) (size 15 to 20)
#    1.500    0.500    0.000    1.500    7.000    4.000 
#    0.000    0.000    0.000    0.000    0.000    0.000 
#    0.000    0.000    0.000    0.000    0.000    0.000 
#
# Total GULP energy -89383.358255 kJ/mol
# GULP energy per Si atom -5586.459891 kJ/mol
# Density = 2.442853 g / cm^3
# Si number density = 24.484252 Si / 1000 Ang^3
#
#
#
# Elastic Constant Matrix: (Units=GPa)
#
#
# Indices 1 2 3 4 5 6 
#
# 1 83.3105 27.0521 1.0825 7.1932 13.0157 -7.6803
# 2 27.0521 132.3513 29.6558 43.7834 9.9850 7.4394
# 3 1.0825 29.6558 87.4923 8.9188 9.0058 21.3173
# 4 7.1932 43.7834 8.9188 39.6959 -1.9132 10.8830
# 5 13.0157 9.9850 9.0058 -1.9132 38.0480 -5.7987
# 6 -7.6803 7.4394 21.3173 10.8830 -5.7987 24.7133
#
#
#
# Elastic Compliance Matrix: (Units=1/GPa)
#
#
# Indices 1 2 3 4 5 6 
#
# 1 0.013884 -0.002384 -0.000060 -0.001378 -0.003434 0.004885
# 2 -0.002384 0.013961 -0.004153 -0.015501 -0.001879 0.005024
# 3 -0.000060 -0.004153 0.016968 0.005162 -0.005222 -0.016903
# 4 -0.001378 -0.015501 0.005162 0.047080 0.002585 -0.020341
# 5 -0.003434 -0.001879 -0.005222 0.002585 0.030857 0.010105
# 6 0.004885 0.005024 -0.016903 -0.020341 0.010105 0.066378
#
#
# Mechanical properties :
#
#
# Convention : Reuss Voigt Hill
#
# Bulk Modulus (GPa) = 31.62739 46.52609 39.07674
# Shear Modulus (GPa) = 23.48937 36.84901 30.16919
#
# Velocity S-wave (km/s) = 3.10072 3.88365 3.51406
# Velocity P-wave (km/s) = 5.07590 6.25732 5.69732
#
# Compressibility (1/GPa) = 0.03161817
#
# Stress axis : x y z
#
# Youngs Moduli (GPa) = 72.02484 71.62836 58.93500
#
# Poissons Ratio (x) = 0.17078 0.00353
# Poissons Ratio (y) = 0.17172 0.24477
# Poissons Ratio (z) = 0.00432 0.29749
#
# Static dielectric constant tensor:
#      x y z
#    x 2.019350 0.014670 0.057850 
#    y 0.014670 1.962460 -0.039030 
#    z 0.057850 -0.039030 1.893340 
# 
# From -- ./inp_files/13225.got.cif
#   From: 2010.05.17/outbox.cif.g08.bks.cpg/sg2_7_cif.got.tgz:13225.got - 2010.06.03 11:33:40.
