data_PCOD9023278
_publ_section_title
;
Structure prediction by ZEFSAII (Michael W. Deem and Ramdas Pophale) SiO2 
 PCOD9023278
Probable space group: P -1
;
_chemical_formula_sum "Si O2"
_cell_formula_units_Z 15
_cell_length_a 17.018931
_cell_length_b 8.567324
_cell_length_c 10.739725
_cell_angle_alpha 123.904613
_cell_angle_beta 146.745483
_cell_angle_gamma 50.082420
_cell_volume 657.749170
_symmetry_space_group_name_H-M "P -1"
_symmetry_group_IT_number 2
_symmetry_cell_setting 'triclinic'
loop_
_space_group_symop_operation_xyz
x,y,z
-x,-y,-z
loop_
_atom_site_type_symbol
_atom_site_label
_atom_site_fract_x
_atom_site_fract_y
_atom_site_fract_z
Si Si1 0.206071 0.960428 0.754029
Si Si2 0.154393 0.585960 0.612354
Si Si3 0.444985 0.183616 0.785584
Si Si4 0.823495 0.804626 0.925334
Si Si5 0.777237 0.011085 0.489150
Si Si6 0.500000 0.000000 0.500000
Si Si7 0.827149 0.381660 0.799481
Si Si8 0.063681 0.660135 0.806746
O O1 0.135466 0.790668 0.607292
O O2 0.169551 0.054444 0.610621
O O3 0.392870 0.843983 0.950451
O O4 0.167705 0.108148 0.887817
O O5 0.319903 0.412661 0.720982
O O6 0.148572 0.619285 0.768343
O O7 0.026349 0.493584 0.368472
O O8 0.363322 0.053187 0.691893
O O9 0.480857 0.096043 0.656060
O O10 0.689139 0.964934 0.737308
O O11 0.767085 0.615850 0.781712
O O12 0.992520 0.719875 0.050141
O O13 0.924944 0.882116 0.712895
O O14 0.742062 0.247783 0.566666
O O15 0.828437 0.368265 0.944257
#
# Coordination Sequence:
#
# PCOD9023278 Si02
#       8
#     2   2   2   2   2   1   2   2
#     4  11  24  41  65  96 131 173 222 265 331 392
#     4  10  22  39  67  96 123 177 213 272 326 394
#     4  10  23  43  66  92 131 173 217 272 323 397
#     4  10  24  41  67  98 134 172 219 274 322 394
#     4  11  24  41  67  96 132 172 218 275 329 381
#     4  10  22  46  66  88 136 174 208 266 340 372
#     4  11  24  41  67  99 130 173 223 269 328 389
#     4  10  23  40  64  96 136 162 217 278 327 384
#
# _framework density 22.805046000000001
#
# number of rings (size 3 to 8) (size 9 to 14) (size 15 to 20)
#    0.000    1.600    0.000    3.600   11.200    3.200 
#    0.000    2.667    0.000    0.000    0.000    0.000 
#    0.000    0.000    0.000    0.000    0.000    0.000 
#
# Total GULP energy -83746.042367 kJ/mol
# GULP energy per Si atom -5583.069491 kJ/mol
# Density = 2.275314 g / cm^3
# Si number density = 22.805046 Si / 1000 Ang^3
#
#
#
# Elastic Constant Matrix: (Units=GPa)
#
#
# Indices 1 2 3 4 5 6 
#
# 1 69.2465 15.3689 4.4319 -0.0393 0.8486 -7.3842
# 2 15.3689 57.9805 -0.1491 30.1863 9.8579 5.9603
# 3 4.4319 -0.1491 54.6478 5.0262 -6.8716 0.1353
# 4 -0.0393 30.1863 5.0262 33.3651 1.3018 4.2575
# 5 0.8486 9.8579 -6.8716 1.3018 31.1181 0.6241
# 6 -7.3842 5.9603 0.1353 4.2575 0.6241 24.4358
#
#
#
# Elastic Compliance Matrix: (Units=1/GPa)
#
#
# Indices 1 2 3 4 5 6 
#
# 1 0.017430 -0.009988 -0.002016 0.008502 0.001764 0.006188
# 2 -0.009988 0.041511 0.002996 -0.036780 -0.010548 -0.006482
# 3 -0.002016 0.002996 0.019457 -0.005717 0.003653 -0.000545
# 4 0.008502 -0.036780 -0.005717 0.063793 0.007483 0.000266
# 5 0.001764 -0.010548 0.003653 0.007483 0.035905 0.000865
# 6 0.006188 -0.006482 -0.000545 0.000266 0.000865 0.044309
#
#
# Mechanical properties :
#
#
# Convention : Reuss Voigt Hill
#
# Bulk Modulus (GPa) = 16.56134 24.57537 20.56835
# Shear Modulus (GPa) = 19.19024 28.59866 23.89445
#
# Velocity S-wave (km/s) = 2.90399 3.54510 3.24044
# Velocity P-wave (km/s) = 4.30374 5.24944 4.79994
#
# Compressibility (1/GPa) = 0.06038159
#
# Stress axis : x y z
#
# Youngs Moduli (GPa) = 57.37224 24.09005 51.39504
#
# Poissons Ratio (x) = 0.24061 0.10363
# Poissons Ratio (y) = 0.57302 -0.15397
# Poissons Ratio (z) = 0.11568 -0.07217
#
# Static dielectric constant tensor:
#      x y z
#    x 1.806210 0.002920 0.024280 
#    y 0.002920 1.917200 -0.035540 
#    z 0.024280 -0.035540 1.821500 
# 
# From -- ./inp_files/178126.got.cif
#   From: 2010.05.17/outbox.cif.g08.bks.cpg/sg2_90_cif.got.tgz:178126.got - 2010.06.03 11:33:40.
