data_PCOD9023704
_publ_section_title
;
Structure prediction by ZEFSAII (Michael W. Deem and Ramdas Pophale) SiO2 
 PCOD9023704
Probable space group: P -1
;
_chemical_formula_sum "Si O2"
_cell_formula_units_Z 16
_cell_length_a 8.930728
_cell_length_b 12.180773
_cell_length_c 18.974466
_cell_angle_alpha 140.236776
_cell_angle_beta 135.175995
_cell_angle_gamma 76.043740
_cell_volume 687.258596
_symmetry_space_group_name_H-M "P -1"
_symmetry_group_IT_number 2
_symmetry_cell_setting 'triclinic'
loop_
_space_group_symop_operation_xyz
x,y,z
-x,-y,-z
loop_
_atom_site_type_symbol
_atom_site_label
_atom_site_fract_x
_atom_site_fract_y
_atom_site_fract_z
Si Si1 0.156441 0.669187 0.258111
Si Si2 0.104818 0.277171 0.208704
Si Si3 0.790247 0.006380 0.672696
Si Si4 0.479446 0.032663 0.091305
Si Si5 0.816075 0.748386 0.281894
Si Si6 0.601358 0.746486 0.063445
Si Si7 0.368828 0.701568 0.598871
Si Si8 0.188572 0.841341 0.096567
O O1 0.213038 0.810817 0.276955
O O2 0.907702 0.396731 0.026248
O O3 0.030116 0.728552 0.305104
O O4 0.467034 0.761282 0.430263
O O5 0.152354 0.479629 0.367811
O O6 0.372933 0.296896 0.310712
O O7 0.012796 0.252506 0.085432
O O8 0.827748 0.044745 0.038824
O O9 0.071022 0.073118 0.765995
O O10 0.849007 0.054769 0.798568
O O11 0.468334 0.844866 0.035896
O O12 0.693897 0.266092 0.326521
O O13 0.500000 0.000000 0.000000
O O14 0.631321 0.737532 0.152791
O O15 0.606051 0.530461 0.157659
O O16 0.000000 0.000000 0.500000
O O17 0.495019 0.935254 0.715200
#
# Coordination Sequence:
#
# PCOD9023704 Si02
#       8
#     2   2   2   2   2   2   2   2
#     4  10  22  40  60  94 126 163 214 256 323 381
#     4  10  23  42  64  93 123 165 218 263 318 383
#     4  10  23  38  60  93 132 161 205 268 318 384
#     4  11  24  41  68  93 133 171 214 266 327 388
#     4  10  22  42  65  88 128 171 208 263 319 393
#     4  10  24  40  61  97 130 162 216 263 326 380
#     4  10  23  43  65  92 123 164 217 269 316 378
#     4  11  20  36  66  90 119 163 208 261 315 372
#
# _framework density 23.280902000000001
#
# number of rings (size 3 to 8) (size 9 to 14) (size 15 to 20)
#    0.000    1.750    0.000    4.125    3.500   10.500 
#    0.000    0.000    0.000    0.000    0.000    0.000 
#    0.000    0.000    0.000    0.000    0.000    0.000 
#
# Total GULP energy -89240.121094 kJ/mol
# GULP energy per Si atom -5577.507568 kJ/mol
# Density = 2.322791 g / cm^3
# Si number density = 23.280902 Si / 1000 Ang^3
#
#
#
# Elastic Constant Matrix: (Units=GPa)
#
#
# Indices 1 2 3 4 5 6 
#
# 1 86.8310 27.9711 32.8456 -12.5753 2.8593 9.8517
# 2 27.9711 63.4298 24.4611 -6.2238 -11.7628 4.3112
# 3 32.8456 24.4611 133.6482 6.2366 -15.7729 -3.9286
# 4 -12.5753 -6.2238 6.2366 39.6147 -1.0184 -2.2314
# 5 2.8593 -11.7628 -15.7729 -1.0184 42.9269 -6.7843
# 6 9.8517 4.3112 -3.9286 -2.2314 -6.7843 31.2351
#
#
#
# Elastic Compliance Matrix: (Units=1/GPa)
#
#
# Indices 1 2 3 4 5 6 
#
# 1 0.016281 -0.005769 -0.003891 0.004436 -0.004870 -0.005569
# 2 -0.005769 0.020122 -0.001715 0.001743 0.005326 0.000108
# 3 -0.003891 -0.001715 0.009411 -0.002708 0.003698 0.003257
# 4 0.004436 0.001743 -0.002708 0.027343 -0.000174 -0.000065
# 5 -0.004870 0.005326 0.003698 -0.000174 0.027579 0.007244
# 6 -0.005569 0.000108 0.003257 -0.000065 0.007244 0.035735
#
#
# Mechanical properties :
#
#
# Convention : Reuss Voigt Hill
#
# Bulk Modulus (GPa) = 43.35416 50.49607 46.92512
# Shear Modulus (GPa) = 29.95656 35.99743 32.97700
#
# Velocity S-wave (km/s) = 3.59101 3.93647 3.76770
# Velocity P-wave (km/s) = 5.98803 6.51138 6.25518
#
# Compressibility (1/GPa) = 0.02306583
#
# Stress axis : x y z
#
# Youngs Moduli (GPa) = 61.42012 49.69688 106.25962
#
# Poissons Ratio (x) = 0.28668 0.41345
# Poissons Ratio (y) = 0.35430 0.18221
# Poissons Ratio (z) = 0.23898 0.08522
#
# Static dielectric constant tensor:
#      x y z
#    x 1.925460 -0.030770 0.012040 
#    y -0.030770 1.916660 0.026990 
#    z 0.012040 0.026990 1.963620 
# 
# From -- ./inp_files/560062.got.cif
#   From: 2010.05.17/outbox.cif.g08.bks.cpg/sg2_281_cif.got.tgz:560062.got - 2010.06.03 11:33:40.
