data_PCOD9023615
_publ_section_title
;
Structure prediction by ZEFSAII (Michael W. Deem and Ramdas Pophale) SiO2 
 PCOD9023615
Probable space group: P -1
;
_chemical_formula_sum "Si O2"
_cell_formula_units_Z 10
_cell_length_a 13.272424
_cell_length_b 8.510144
_cell_length_c 10.785062
_cell_angle_alpha 90.672186
_cell_angle_beta 54.675319
_cell_angle_gamma 140.388969
_cell_volume 349.865879
_symmetry_space_group_name_H-M "P -1"
_symmetry_group_IT_number 2
_symmetry_cell_setting 'triclinic'
loop_
_space_group_symop_operation_xyz
x,y,z
-x,-y,-z
loop_
_atom_site_type_symbol
_atom_site_label
_atom_site_fract_x
_atom_site_fract_y
_atom_site_fract_z
Si Si1 0.705507 0.880830 0.285377
Si Si2 0.420346 0.962975 0.693474
Si Si3 0.240913 0.390106 0.241897
Si Si4 0.257086 0.217904 0.983277
Si Si5 0.194619 0.882042 0.519220
O O1 0.500000 0.500000 0.500000
O O2 0.073815 0.927020 0.986359
O O3 0.869265 0.166146 0.289014
O O4 0.446235 0.697432 0.401061
O O5 0.622183 0.068856 0.628413
O O6 0.500000 0.000000 0.500000
O O7 0.000000 0.500000 0.000000
O O8 0.620780 0.788739 0.023741
O O9 0.168241 0.233881 0.155663
O O10 0.000000 0.000000 0.500000
O O11 0.159517 0.477848 0.298222
O O12 0.547616 0.674101 0.711834
#
# Coordination Sequence:
#
# PCOD9023615 Si02
#       5
#     2   2   2   2   2
#     4   9  19  38  59  94 117 152 201 254 292 352
#     4  10  22  40  58  89 127 162 193 243 310 364
#     4   9  18  34  54  82 115 155 197 237 300 354
#     4   9  18  34  58  83 116 152 198 246 291 352
#     4   9  19  34  57  83 116 156 193 239 299 361
#
# _framework density 28.582381000000002
#
# number of rings (size 3 to 8) (size 9 to 14) (size 15 to 20)
#    0.000    2.800    0.000    0.000    5.600    0.800 
#   21.600    1.000    0.000   10.800    0.000    0.000 
#    0.000    0.000    0.000    0.000    0.000    0.000 
#
# Total GULP energy -55683.011748 kJ/mol
# GULP energy per Si atom -5568.301175 kJ/mol
# Density = 2.851733 g / cm^3
# Si number density = 28.582381 Si / 1000 Ang^3
#
#
#
# Elastic Constant Matrix: (Units=GPa)
#
#
# Indices 1 2 3 4 5 6 
#
# 1 296.1557 45.8387 80.9139 22.1081 -73.7054 -47.1914
# 2 45.8387 91.2761 43.5999 37.7477 3.3519 10.6234
# 3 80.9139 43.5999 156.4416 50.4350 11.7681 20.1422
# 4 22.1081 37.7477 50.4350 45.2948 1.1497 8.7083
# 5 -73.7054 3.3519 11.7681 1.1497 87.3178 20.3832
# 6 -47.1914 10.6234 20.1422 8.7083 20.3832 41.3053
#
#
#
# Elastic Compliance Matrix: (Units=1/GPa)
#
#
# Indices 1 2 3 4 5 6 
#
# 1 0.008570 -0.004569 -0.006415 0.004651 0.005822 0.010241
# 2 -0.004569 0.019236 0.003310 -0.016100 -0.003245 -0.006786
# 3 -0.006415 0.003310 0.015093 -0.014379 -0.005048 -0.010018
# 4 0.004651 -0.016100 -0.014379 0.048374 0.004952 0.003824
# 5 0.005822 -0.003245 -0.005048 0.004952 0.016985 0.000523
# 6 0.010241 -0.006786 -0.010018 0.003824 0.000523 0.041477
#
#
# Mechanical properties :
#
#
# Convention : Reuss Voigt Hill
#
# Bulk Modulus (GPa) = 36.29597 98.28648 67.29122
# Shear Modulus (GPa) = 28.69164 59.68496 44.18830
#
# Velocity S-wave (km/s) = 3.17175 4.57461 3.93618
# Velocity P-wave (km/s) = 5.11269 7.89712 6.65222
#
# Compressibility (1/GPa) = 0.02755127
#
# Stress axis : x y z
#
# Youngs Moduli (GPa) = 116.68326 51.98563 66.25632
#
# Poissons Ratio (x) = 0.23751 0.42506
# Poissons Ratio (y) = 0.53309 -0.21931
# Poissons Ratio (z) = 0.74856 -0.17208
#
# Static dielectric constant tensor:
#      x y z
#    x 2.384890 -0.086440 -0.106390 
#    y -0.086440 2.384860 -0.126200 
#    z -0.106390 -0.126200 2.456700 
# 
# From -- ./inp_files/417067.got.cif
#   From: 2010.05.17/outbox.cif.g08.bks.cpg/sg2_209_cif.got.tgz:417067.got - 2010.06.03 11:33:40.
