data_PCOD9023611
_publ_section_title
;
Structure prediction by ZEFSAII (Michael W. Deem and Ramdas Pophale) SiO2 
 PCOD9023611
Probable space group: P -1
;
_chemical_formula_sum "Si O2"
_cell_formula_units_Z 14
_cell_length_a 5.225547
_cell_length_b 15.988895
_cell_length_c 12.992518
_cell_angle_alpha 37.491776
_cell_angle_beta 86.284748
_cell_angle_gamma 103.486388
_cell_volume 582.440958
_symmetry_space_group_name_H-M "P -1"
_symmetry_group_IT_number 2
_symmetry_cell_setting 'triclinic'
loop_
_space_group_symop_operation_xyz
x,y,z
-x,-y,-z
loop_
_atom_site_type_symbol
_atom_site_label
_atom_site_fract_x
_atom_site_fract_y
_atom_site_fract_z
Si Si1 0.100556 0.869980 0.377077
Si Si2 0.212874 0.162342 0.387850
Si Si3 0.847237 0.599942 0.088990
Si Si4 0.849726 0.108772 0.877972
Si Si5 0.491069 0.765121 0.982677
Si Si6 0.167042 0.687936 0.731747
Si Si7 0.327521 0.390558 0.704942
O O1 0.059182 0.823818 0.305230
O O2 0.203678 0.767157 0.541319
O O3 0.329010 0.050987 0.197173
O O4 0.834003 0.855355 0.469232
O O5 0.544276 0.213960 0.306486
O O6 0.099094 0.287520 0.244319
O O7 0.000000 0.000000 0.500000
O O8 0.660342 0.690126 0.985793
O O9 0.851600 0.477235 0.128821
O O10 0.716655 0.521661 0.280933
O O11 0.178372 0.716071 0.993339
O O12 0.016654 0.253359 0.809650
O O13 0.500000 0.000000 0.000000
O O14 0.000000 0.000000 0.000000
O O15 0.501360 0.694361 0.163775
O O16 0.500000 0.500000 0.500000
#
# Coordination Sequence:
#
# PCOD9023611 Si02
#       7
#     2   2   2   2   2   2   2
#     4  10  25  38  69  89 127 168 219 262 321 364
#     4  10  23  42  69  99 122 155 214 273 326 381
#     4  10  22  40  58  88 128 165 209 251 322 377
#     4  12  25  41  59  92 133 174 223 262 310 378
#     4  10  22  40  58  87 126 172 206 260 311 375
#     4  10  23  38  70  92 124 159 214 258 324 380
#     4  10  25  37  62  86 133 173 223 259 317 371
#
# _framework density 24.036771999999999
#
# number of rings (size 3 to 8) (size 9 to 14) (size 15 to 20)
#    1.714    0.000    1.429    2.143    8.000    0.571 
#    0.000    0.000    0.000    5.143    0.000    0.000 
#    0.000    0.000    0.000    0.000    0.000    0.000 
#
# Total GULP energy -78179.572808 kJ/mol
# GULP energy per Si atom -5584.255201 kJ/mol
# Density = 2.398206 g / cm^3
# Si number density = 24.036772 Si / 1000 Ang^3
#
#
#
# Elastic Constant Matrix: (Units=GPa)
#
#
# Indices 1 2 3 4 5 6 
#
# 1 81.6783 -8.8624 -18.3834 22.1801 3.6530 1.7715
# 2 -8.8624 89.0337 1.1143 11.3896 -1.4441 -20.3877
# 3 -18.3834 1.1143 85.0888 16.0321 13.1849 -5.2733
# 4 22.1801 11.3896 16.0321 41.6871 -4.2417 0.4353
# 5 3.6530 -1.4441 13.1849 -4.2417 30.5167 -2.0015
# 6 1.7715 -20.3877 -5.2733 0.4353 -2.0015 31.0065
#
#
#
# Elastic Compliance Matrix: (Units=1/GPa)
#
#
# Indices 1 2 3 4 5 6 
#
# 1 0.018985 0.004267 0.008269 -0.015248 -0.007576 0.002853
# 2 0.004267 0.014896 0.003057 -0.007779 -0.001547 0.010080
# 3 0.008269 0.003057 0.017794 -0.013148 -0.010092 0.004097
# 4 -0.015248 -0.007779 -0.013148 0.040607 0.012372 -0.006251
# 5 -0.007576 -0.001547 -0.010092 0.012372 0.039688 0.000088
# 6 0.002853 0.010080 0.004097 -0.006251 0.000088 0.039507
#
#
# Mechanical properties :
#
#
# Convention : Reuss Voigt Hill
#
# Bulk Modulus (GPa) = 12.06822 22.61533 17.34178
# Shear Modulus (GPa) = 29.77766 39.43756 34.60761
#
# Velocity S-wave (km/s) = 3.52353 4.05497 3.79856
# Velocity P-wave (km/s) = 4.64600 5.59936 5.14481
#
# Compressibility (1/GPa) = 0.08286227
#
# Stress axis : x y z
#
# Youngs Moduli (GPa) = 52.67326 67.13014 56.19874
#
# Poissons Ratio (x) = -0.28645 -0.46473
# Poissons Ratio (y) = -0.22476 -0.17179
# Poissons Ratio (z) = -0.43558 -0.20520
#
# Static dielectric constant tensor:
#      x y z
#    x 1.911860 -0.057690 -0.053160 
#    y -0.057690 1.892870 -0.024000 
#    z -0.053160 -0.024000 1.819940 
# 
# From -- ./inp_files/483524.got.cif
#   From: 2010.05.17/outbox.cif.g08.bks.cpg/sg2_242_cif.got.tgz:483524.got - 2010.06.03 11:33:40.
