data_PCOD9023597
_publ_section_title
;
Structure prediction by ZEFSAII (Michael W. Deem and Ramdas Pophale) SiO2 
 PCOD9023597
Probable space group: P -1
;
_chemical_formula_sum "Si O2"
_cell_formula_units_Z 12
_cell_length_a 9.487748
_cell_length_b 7.646876
_cell_length_c 7.617069
_cell_angle_alpha 105.104177
_cell_angle_beta 77.712547
_cell_angle_gamma 103.615036
_cell_volume 511.745000
_symmetry_space_group_name_H-M "P -1"
_symmetry_group_IT_number 2
_symmetry_cell_setting 'triclinic'
loop_
_space_group_symop_operation_xyz
x,y,z
-x,-y,-z
loop_
_atom_site_type_symbol
_atom_site_label
_atom_site_fract_x
_atom_site_fract_y
_atom_site_fract_z
Si Si1 0.081866 0.700759 0.959769
Si Si2 0.078495 0.841151 0.371800
Si Si3 0.628720 0.351799 0.994767
Si Si4 0.582371 0.025597 0.669558
Si Si5 0.584986 0.615589 0.664106
Si Si6 0.124576 0.450576 0.296820
O O1 0.062130 0.831914 0.161875
O O2 0.994772 0.710667 0.804382
O O3 0.000000 0.500000 0.000000
O O4 0.256931 0.709684 0.907559
O O5 0.045695 0.628012 0.394107
O O6 0.247262 0.900076 0.394684
O O7 0.000000 0.000000 0.500000
O O8 0.514493 0.447548 0.154581
O O9 0.750479 0.472903 0.867751
O O10 0.547268 0.177175 0.856457
O O11 0.573862 0.828235 0.707443
O O12 0.500000 0.000000 0.500000
O O13 0.500000 0.500000 0.500000
O O14 0.756606 0.601385 0.612999
#
# Coordination Sequence:
#
# PCOD9023597 Si02
#       6
#     2   2   2   2   2   2
#     4   7  15  33  56  79 106 142 183 221 270 330
#     4   9  18  35  57  80 109 146 183 225 274 327
#     4   9  19  38  58  79 113 150 182 225 277 332
#     4  10  22  40  57  81 113 149 188 227 276 334
#     4  12  23  35  55  86 115 146 187 232 275 326
#     4   9  19  37  58  83 110 145 185 226 275 329
#
# _framework density 23.449179000000001
#
# number of rings (size 3 to 8) (size 9 to 14) (size 15 to 20)
#    0.000    3.333    0.000    3.000    0.000    5.333 
#    0.000   10.000    0.000    0.000    0.000    0.000 
#    0.000    0.000    0.000    0.000    0.000    0.000 
#
# Total GULP energy -66897.432310 kJ/mol
# GULP energy per Si atom -5574.786026 kJ/mol
# Density = 2.339581 g / cm^3
# Si number density = 23.449179 Si / 1000 Ang^3
#
#
#
# Elastic Constant Matrix: (Units=GPa)
#
#
# Indices 1 2 3 4 5 6 
#
# 1 146.8984 9.6012 93.1492 33.6804 14.9338 -15.8027
# 2 9.6012 60.2972 2.8993 10.7320 2.7287 -4.1620
# 3 93.1492 2.8993 139.9680 35.6443 24.8173 -10.3783
# 4 33.6804 10.7320 35.6443 28.4193 -0.4105 1.9862
# 5 14.9338 2.7287 24.8173 -0.4105 57.4877 9.9653
# 6 -15.8027 -4.1620 -10.3783 1.9862 9.9653 27.2710
#
#
#
# Elastic Compliance Matrix: (Units=1/GPa)
#
#
# Indices 1 2 3 4 5 6 
#
# 1 0.013644 0.000506 -0.005537 -0.009980 -0.002556 0.007537
# 2 0.000506 0.019391 0.003949 -0.013440 -0.004107 0.007235
# 3 -0.005537 0.003949 0.016960 -0.016857 -0.007549 0.007835
# 4 -0.009980 -0.013440 -0.016857 0.075229 0.015443 -0.025372
# 5 -0.002556 -0.004107 -0.007549 0.015443 0.024215 -0.014954
# 6 0.007537 0.007235 0.007835 -0.025372 -0.014954 0.052435
#
#
# Mechanical properties :
#
#
# Convention : Reuss Voigt Hill
#
# Bulk Modulus (GPa) = 20.90702 62.05147 41.47924
# Shear Modulus (GPa) = 22.72889 38.73652 30.73271
#
# Velocity S-wave (km/s) = 3.11671 4.06881 3.62416
# Velocity P-wave (km/s) = 4.67836 6.97088 5.93634
#
# Compressibility (1/GPa) = 0.04783083
#
# Stress axis : x y z
#
# Youngs Moduli (GPa) = 73.28969 51.56907 58.96170
#
# Poissons Ratio (x) = -0.02608 0.32650
# Poissons Ratio (y) = -0.03707 -0.23284
# Poissons Ratio (z) = 0.40584 -0.20364
#
# Static dielectric constant tensor:
#      x y z
#    x 1.957090 -0.061080 0.002150 
#    y -0.061080 2.072330 -0.179810 
#    z 0.002150 -0.179810 2.025350 
# 
# From -- ./inp_files/160176.got.cif
#   From: 2010.05.17/outbox.cif.g08.bks.cpg/sg2_81_cif.got.tgz:160176.got - 2010.06.03 11:33:40.
