data_PCOD9023477
_publ_section_title
;
Structure prediction by ZEFSAII (Michael W. Deem and Ramdas Pophale) SiO2 
 PCOD9023477
Probable space group: P -1
;
_chemical_formula_sum "Si O2"
_cell_formula_units_Z 14
_cell_length_a 11.493789
_cell_length_b 11.418216
_cell_length_c 10.709267
_cell_angle_alpha 52.576520
_cell_angle_beta 40.758012
_cell_angle_gamma 42.158742
_cell_volume 612.437488
_symmetry_space_group_name_H-M "P -1"
_symmetry_group_IT_number 2
_symmetry_cell_setting 'triclinic'
loop_
_space_group_symop_operation_xyz
x,y,z
-x,-y,-z
loop_
_atom_site_type_symbol
_atom_site_label
_atom_site_fract_x
_atom_site_fract_y
_atom_site_fract_z
Si Si1 0.989690 0.014396 0.210375
Si Si2 0.689680 0.694884 0.407461
Si Si3 0.116882 0.504893 0.027067
Si Si4 0.696791 0.020706 0.225586
Si Si5 0.719711 0.655482 0.762574
Si Si6 0.141367 0.626271 0.347441
Si Si7 0.658790 0.331569 0.393140
O O1 0.124021 0.806880 0.265823
O O2 0.135300 0.048066 0.981009
O O3 0.803672 0.046480 0.243568
O O4 0.888493 0.142124 0.329627
O O5 0.712462 0.537566 0.575002
O O6 0.492975 0.741286 0.452928
O O7 0.911592 0.611468 0.212199
O O8 0.651922 0.869501 0.385155
O O9 0.264017 0.337603 0.105800
O O10 0.261747 0.580406 0.827893
O O11 0.000000 0.500000 0.000000
O O12 0.498605 0.197227 0.215831
O O13 0.777739 0.461621 0.797458
O O14 0.906795 0.667866 0.539284
O O15 0.500000 0.500000 0.500000
#
# Coordination Sequence:
#
# PCOD9023477 Si02
#       7
#     2   2   2   2   2   2   2
#     4  11  24  40  67 105 143 171 233 281 344 411
#     4  11  23  44  74  98 143 176 227 283 347 408
#     4  11  23  45  68  98 135 182 233 282 337 403
#     4  11  23  41  68 107 138 179 218 291 351 406
#     4  10  22  39  69  98 140 176 227 277 355 405
#     4  10  22  40  67 106 132 177 223 287 344 415
#     4  12  25  43  72  97 130 196 232 273 343 407
#
# _framework density 22.859477999999999
#
# number of rings (size 3 to 8) (size 9 to 14) (size 15 to 20)
#    0.000    1.143    2.857    4.286    4.000    2.286 
#    0.000    1.429    6.286    0.000    0.000    0.000 
#    0.000    0.000    0.000    0.000    0.000    0.000 
#
# Total GULP energy -77951.802175 kJ/mol
# GULP energy per Si atom -5567.985870 kJ/mol
# Density = 2.280745 g / cm^3
# Si number density = 22.859478 Si / 1000 Ang^3
#
#
#
# Elastic Constant Matrix: (Units=GPa)
#
#
# Indices 1 2 3 4 5 6 
#
# 1 41.1104 35.6484 18.2333 -4.8626 6.3096 -4.8383
# 2 35.6484 134.9697 32.0691 -5.2224 21.3975 8.8029
# 3 18.2333 32.0691 88.2145 -1.8386 -3.0346 5.6683
# 4 -4.8626 -5.2224 -1.8386 43.4475 3.8211 1.9292
# 5 6.3096 21.3975 -3.0346 3.8211 34.1211 2.4793
# 6 -4.8383 8.8029 5.6683 1.9292 2.4793 30.0542
#
#
#
# Elastic Compliance Matrix: (Units=1/GPa)
#
#
# Indices 1 2 3 4 5 6 
#
# 1 0.035488 -0.008245 -0.004966 0.002611 -0.002789 0.009127
# 2 -0.008245 0.011320 -0.002339 0.001002 -0.005618 -0.003803
# 3 -0.004966 -0.002339 0.013525 -0.000472 0.003855 -0.002953
# 4 0.002611 0.001002 -0.000472 0.023783 -0.003744 -0.001002
# 5 -0.002789 -0.005618 0.003855 -0.003744 0.034262 -0.002117
# 6 0.009127 -0.003803 -0.002953 -0.001002 -0.002117 0.036652
#
#
# Mechanical properties :
#
#
# Convention : Reuss Voigt Hill
#
# Bulk Modulus (GPa) = 34.20776 48.46626 41.33701
# Shear Modulus (GPa) = 25.52651 33.41415 29.47033
#
# Velocity S-wave (km/s) = 3.34529 3.82739 3.59443
# Velocity P-wave (km/s) = 5.46975 6.38590 5.94550
#
# Compressibility (1/GPa) = 0.02923313
#
# Stress axis : x y z
#
# Youngs Moduli (GPa) = 28.17849 88.33859 73.93607
#
# Poissons Ratio (x) = 0.72839 0.36714
# Poissons Ratio (y) = 0.23235 0.17294
# Poissons Ratio (z) = 0.13992 0.20662
#
# Static dielectric constant tensor:
#      x y z
#    x 1.971840 0.007560 0.032930 
#    y 0.007560 1.909710 0.024510 
#    z 0.032930 0.024510 1.864950 
# 
# From -- ./inp_files/425219.got.cif
#   From: 2010.05.17/outbox.cif.g08.bks.cpg/sg2_213_cif.got.tgz:425219.got - 2010.06.03 11:33:40.
