data_PCOD9023721
_publ_section_title
;
Structure prediction by ZEFSAII (Michael W. Deem and Ramdas Pophale) SiO2 
 PCOD9023721
Probable space group: P -1
;
_chemical_formula_sum "Si O2"
_cell_formula_units_Z 14
_cell_length_a 11.331222
_cell_length_b 14.640723
_cell_length_c 5.452456
_cell_angle_alpha 54.855598
_cell_angle_beta 56.487253
_cell_angle_gamma 60.064751
_cell_volume 594.515211
_symmetry_space_group_name_H-M "P -1"
_symmetry_group_IT_number 2
_symmetry_cell_setting 'triclinic'
loop_
_space_group_symop_operation_xyz
x,y,z
-x,-y,-z
loop_
_atom_site_type_symbol
_atom_site_label
_atom_site_fract_x
_atom_site_fract_y
_atom_site_fract_z
Si Si1 0.554062 0.172018 0.261338
Si Si2 0.222977 0.450850 0.787148
Si Si3 0.035641 0.591402 0.140146
Si Si4 0.614731 0.807886 0.061239
Si Si5 0.922136 0.840815 0.815257
Si Si6 0.128335 0.940024 0.124380
Si Si7 0.568620 0.436020 0.776665
O O1 0.481913 0.158572 0.629967
O O2 0.463883 0.141502 0.179790
O O3 0.721927 0.102469 0.130709
O O4 0.555903 0.305992 0.014603
O O5 0.348172 0.331814 0.795144
O O6 0.265783 0.548533 0.424699
O O7 0.081017 0.407034 0.949120
O O8 0.193024 0.521337 0.966295
O O9 0.000000 0.500000 0.500000
O O10 0.987869 0.723480 0.078805
O O11 0.772021 0.834678 0.865074
O O12 0.063347 0.844725 0.482889
O O13 0.869459 0.959965 0.838939
O O14 0.000000 0.000000 0.000000
O O15 0.500000 0.500000 0.500000
O O16 0.500000 0.500000 0.000000
#
# Coordination Sequence:
#
# PCOD9023721 Si02
#       7
#     2   2   2   2   2   2   2
#     4  12  26  47  73 111 147 196 249 308 379 436
#     4  10  22  40  61 105 143 186 237 290 367 439
#     4  10  23  40  73 104 143 191 236 298 368 448
#     4  11  26  45  76 108 147 186 246 314 372 441
#     4  10  26  49  73 107 147 196 257 306 367 448
#     4  11  28  51  75 102 147 203 253 310 368 445
#     4  12  23  40  66 102 144 188 230 294 361 441
#
# _framework density 23.548598999999999
#
# number of rings (size 3 to 8) (size 9 to 14) (size 15 to 20)
#    0.000    1.143    2.857    0.857   12.000    4.571 
#    0.000    0.000    0.000    0.000    0.000    0.000 
#    0.000    0.000    0.000    0.000    0.000    0.000 
#
# Total GULP energy -78076.260006 kJ/mol
# GULP energy per Si atom -5576.875715 kJ/mol
# Density = 2.349500 g / cm^3
# Si number density = 23.548599 Si / 1000 Ang^3
#
#
#
# Elastic Constant Matrix: (Units=GPa)
#
#
# Indices 1 2 3 4 5 6 
#
# 1 104.3260 50.4854 19.9624 9.0204 -3.8858 7.7394
# 2 50.4854 106.2688 55.0539 28.3281 -7.0227 -14.5939
# 3 19.9624 55.0539 97.1362 23.7791 -5.8128 -3.6545
# 4 9.0204 28.3281 23.7791 49.2276 -0.1332 -10.1106
# 5 -3.8858 -7.0227 -5.8128 -0.1332 36.2761 -6.2050
# 6 7.7394 -14.5939 -3.6545 -10.1106 -6.2050 28.2096
#
#
#
# Elastic Compliance Matrix: (Units=1/GPa)
#
#
# Indices 1 2 3 4 5 6 
#
# 1 0.014131 -0.008854 0.001732 -0.000095 -0.001390 -0.008573
# 2 -0.008854 0.020828 -0.008364 -0.003947 0.003700 0.011520
# 3 0.001732 -0.008364 0.015481 -0.003822 0.000333 -0.004093
# 4 -0.000095 -0.003947 -0.003822 0.025827 -0.000143 0.006714
# 5 -0.001390 0.003700 0.000333 -0.000143 0.029695 0.008819
# 6 -0.008573 0.011520 -0.004093 0.006714 0.008819 0.047577
#
#
# Mechanical properties :
#
#
# Convention : Reuss Voigt Hill
#
# Bulk Modulus (GPa) = 51.36838 62.08160 56.72499
# Shear Modulus (GPa) = 26.17769 34.89130 30.53449
#
# Velocity S-wave (km/s) = 3.33775 3.85343 3.60482
# Velocity P-wave (km/s) = 6.05931 6.79845 6.43949
#
# Compressibility (1/GPa) = 0.01946723
#
# Stress axis : x y z
#
# Youngs Moduli (GPa) = 70.76526 48.01119 64.59512
#
# Poissons Ratio (x) = 0.42511 -0.11187
# Poissons Ratio (y) = 0.62658 0.54029
# Poissons Ratio (z) = -0.12256 0.40158
#
# Static dielectric constant tensor:
#      x y z
#    x 2.157590 0.133260 -0.043680 
#    y 0.133260 2.049690 -0.096660 
#    z -0.043680 -0.096660 2.018320 
# 
# From -- ./inp_files/92286.got.cif
#   From: 2010.05.17/outbox.cif.g08.bks.cpg/sg2_47_cif.got.tgz:92286.got - 2010.06.03 11:33:40.
