data_PCOD9023062
_publ_section_title
;
Structure prediction by ZEFSAII (Michael W. Deem and Ramdas Pophale) SiO2 
 PCOD9023062
Probable space group: P -1
;
_chemical_formula_sum "Si O2"
_cell_formula_units_Z 12
_cell_length_a 9.855506
_cell_length_b 15.219844
_cell_length_c 5.410898
_cell_angle_alpha 114.894838
_cell_angle_beta 82.119485
_cell_angle_gamma 135.207769
_cell_volume 501.828831
_symmetry_space_group_name_H-M "P -1"
_symmetry_group_IT_number 2
_symmetry_cell_setting 'triclinic'
loop_
_space_group_symop_operation_xyz
x,y,z
-x,-y,-z
loop_
_atom_site_type_symbol
_atom_site_label
_atom_site_fract_x
_atom_site_fract_y
_atom_site_fract_z
Si Si1 0.876868 0.108027 0.234281
Si Si2 0.947921 0.349095 0.571163
Si Si3 0.213653 0.549448 0.142502
Si Si4 0.920490 0.852370 0.282331
Si Si5 0.387079 0.532643 0.455834
Si Si6 0.578927 0.778559 0.010066
O O1 0.813370 0.187214 0.362733
O O2 0.035893 0.179387 0.507675
O O3 0.707244 0.940779 0.129117
O O4 0.966153 0.132878 0.969040
O O5 0.842687 0.395791 0.582137
O O6 0.165821 0.433925 0.508996
O O7 0.011485 0.405689 0.903849
O O8 0.328162 0.512464 0.163093
O O9 0.368268 0.682405 0.081650
O O10 0.704021 0.766144 0.128759
O O11 0.000000 0.000000 0.500000
O O12 0.500000 0.500000 0.500000
O O13 0.526863 0.696407 0.673830
#
# Coordination Sequence:
#
# PCOD9023062 Si02
#       6
#     2   2   2   2   2   2
#     4  11  24  41  70 101 134 183 223 283 341 406
#     4  10  24  44  64  95 134 185 229 270 347 407
#     4  10  24  44  65  91 139 181 225 282 336 412
#     4  10  22  39  65  99 143 171 219 277 349 396
#     4  11  24  39  68  96 132 171 233 282 343 402
#     4  10  23  38  63  99 130 171 225 282 342 399
#
# _framework density 23.912535999999999
#
# number of rings (size 3 to 8) (size 9 to 14) (size 15 to 20)
#    0.000    1.667    0.000    3.500   14.000    2.000 
#    0.000    0.833    0.000    0.000    0.000    0.000 
#    0.000    0.000    0.000    0.000    0.000    0.000 
#
# Total GULP energy -66906.710434 kJ/mol
# GULP energy per Si atom -5575.559203 kJ/mol
# Density = 2.385811 g / cm^3
# Si number density = 23.912536 Si / 1000 Ang^3
#
#
#
# Elastic Constant Matrix: (Units=GPa)
#
#
# Indices 1 2 3 4 5 6 
#
# 1 108.7149 33.4254 27.1576 4.0387 -4.1012 -14.9457
# 2 33.4254 94.2111 34.1045 13.3981 -15.6507 -1.2746
# 3 27.1576 34.1045 105.1404 9.2544 -3.9936 -14.7796
# 4 4.0387 13.3981 9.2544 41.2231 -2.5520 -5.0127
# 5 -4.1012 -15.6507 -3.9936 -2.5520 45.4981 5.7988
# 6 -14.9457 -1.2746 -14.7796 -5.0127 5.7988 35.6905
#
#
#
# Elastic Compliance Matrix: (Units=1/GPa)
#
#
# Indices 1 2 3 4 5 6 
#
# 1 0.011173 -0.003752 -0.001170 0.000858 -0.000889 0.004325
# 2 -0.003752 0.014564 -0.003801 -0.003700 0.004627 -0.003897
# 3 -0.001170 -0.003801 0.011679 -0.000815 -0.000976 0.004255
# 4 0.000858 -0.003700 -0.000815 0.025979 -0.000266 0.003582
# 5 -0.000889 0.004627 -0.000976 -0.000266 0.023969 -0.004543
# 6 0.004325 -0.003897 0.004255 0.003582 -0.004543 0.032694
#
#
# Mechanical properties :
#
#
# Convention : Reuss Voigt Hill
#
# Bulk Modulus (GPa) = 50.07692 55.27128 52.67410
# Shear Modulus (GPa) = 34.68339 38.70762 36.69550
#
# Velocity S-wave (km/s) = 3.81258 4.02769 3.92161
# Velocity P-wave (km/s) = 6.35360 6.69282 6.52541
#
# Compressibility (1/GPa) = 0.01996928
#
# Stress axis : x y z
#
# Youngs Moduli (GPa) = 89.49755 68.66362 85.62257
#
# Poissons Ratio (x) = 0.25762 0.10021
# Poissons Ratio (y) = 0.33578 0.32548
# Poissons Ratio (z) = 0.10475 0.26101
#
# Static dielectric constant tensor:
#      x y z
#    x 1.986410 -0.017520 0.017680 
#    y -0.017520 1.927920 -0.087220 
#    z 0.017680 -0.087220 2.012810 
# 
# From -- ./inp_files/40216.got.cif
#   From: 2010.05.17/outbox.cif.g08.bks.cpg/sg2_21_cif.got.tgz:40216.got - 2010.06.03 11:33:40.
