data_PCOD9023977
_publ_section_title
;
Structure prediction by ZEFSAII (Michael W. Deem and Ramdas Pophale) SiO2 
 PCOD9023977
Probable space group: P -1
;
_chemical_formula_sum "Si O2"
_cell_formula_units_Z 16
_cell_length_a 10.400233
_cell_length_b 14.935699
_cell_length_c 10.052142
_cell_angle_alpha 114.380397
_cell_angle_beta 51.184611
_cell_angle_gamma 146.628748
_cell_volume 646.525654
_symmetry_space_group_name_H-M "P -1"
_symmetry_group_IT_number 2
_symmetry_cell_setting 'triclinic'
loop_
_space_group_symop_operation_xyz
x,y,z
-x,-y,-z
loop_
_atom_site_type_symbol
_atom_site_label
_atom_site_fract_x
_atom_site_fract_y
_atom_site_fract_z
Si Si1 0.333777 0.176572 0.017222
Si Si2 0.676387 0.498512 0.315960
Si Si3 0.219292 0.696893 0.005829
Si Si4 0.632890 0.620019 0.200612
Si Si5 0.267021 0.158337 0.516344
Si Si6 0.823996 0.486972 0.697985
Si Si7 0.051785 0.864324 0.852574
Si Si8 0.337866 0.820575 0.717638
O O1 0.559383 0.315346 0.842861
O O2 0.164554 0.006155 0.957681
O O3 0.508180 0.217191 0.049993
O O4 0.115013 0.160711 0.172657
O O5 0.500000 0.500000 0.500000
O O6 0.650947 0.522016 0.195279
O O7 0.515402 0.324801 0.364515
O O8 0.014751 0.659587 0.216157
O O9 0.317214 0.810081 0.885809
O O10 0.000000 0.500000 0.000000
O O11 0.757550 0.768130 0.308209
O O12 0.313775 0.496713 0.297014
O O13 0.807169 0.698439 0.000512
O O14 0.401847 0.122018 0.459507
O O15 0.000000 0.000000 0.500000
O O16 0.000000 0.500000 0.500000
O O17 0.052432 0.628069 0.743120
O O18 0.302112 0.905810 0.714778
#
# Coordination Sequence:
#
# PCOD9023977 Si02
#       8
#     2   2   2   2   2   2   2   2
#     4  10  24  43  67  92 136 172 209 269 337 381
#     4  10  22  40  62  93 132 172 215 259 326 390
#     4  12  22  39  70  99 127 166 222 269 320 379
#     4  10  22  41  66  90 128 176 214 264 327 388
#     4  11  24  41  61  96 138 168 212 268 330 388
#     4  11  22  43  68  89 130 175 219 264 321 389
#     4  10  24  44  66  98 129 167 221 268 333 386
#     4  12  24  43  68 100 125 168 227 274 313 391
#
# _framework density 24.747662999999999
#
# number of rings (size 3 to 8) (size 9 to 14) (size 15 to 20)
#    0.000    1.250    5.000    0.000    3.500    5.500 
#    0.000    0.625    0.000    0.000    0.000    0.000 
#    0.000    0.000    0.000    0.000    0.000    0.000 
#
# Total GULP energy -89358.806761 kJ/mol
# GULP energy per Si atom -5584.925423 kJ/mol
# Density = 2.469134 g / cm^3
# Si number density = 24.747663 Si / 1000 Ang^3
#
#
#
# Elastic Constant Matrix: (Units=GPa)
#
#
# Indices 1 2 3 4 5 6 
#
# 1 162.6613 30.7753 32.9037 -2.7421 -50.6596 19.4584
# 2 30.7753 44.9420 16.1788 -6.7899 -10.0850 13.8770
# 3 32.9037 16.1788 96.8487 7.3562 -17.9405 -1.5134
# 4 -2.7421 -6.7899 7.3562 20.8087 -5.9142 -3.1705
# 5 -50.6596 -10.0850 -17.9405 -5.9142 47.5849 0.0376
# 6 19.4584 13.8770 -1.5134 -3.1705 0.0376 36.5306
#
#
#
# Elastic Compliance Matrix: (Units=1/GPa)
#
#
# Indices 1 2 3 4 5 6 
#
# 1 0.011003 -0.002476 -0.001631 0.003640 0.011030 -0.004683
# 2 -0.002476 0.031102 -0.004682 0.011007 0.003566 -0.009738
# 3 -0.001631 -0.004682 0.012342 -0.005338 0.001259 0.002694
# 4 0.003640 0.011007 -0.005338 0.057008 0.011282 -0.001405
# 5 0.011030 0.003566 0.001259 0.011282 0.035396 -0.006235
# 6 -0.004683 -0.009738 0.002694 -0.001405 -0.006235 0.033564
#
#
# Mechanical properties :
#
#
# Convention : Reuss Voigt Hill
#
# Bulk Modulus (GPa) = 27.12293 51.57419 39.34856
# Shear Modulus (GPa) = 23.77738 35.95779 29.86759
#
# Velocity S-wave (km/s) = 3.10303 3.81593 3.47779
# Velocity P-wave (km/s) = 4.88078 6.34826 5.66226
#
# Compressibility (1/GPa) = 0.03686918
#
# Stress axis : x y z
#
# Youngs Moduli (GPa) = 90.88329 32.15199 81.02149
#
# Poissons Ratio (x) = 0.07962 0.13214
# Poissons Ratio (y) = 0.22506 0.37935
# Poissons Ratio (z) = 0.14822 0.15054
#
# Static dielectric constant tensor:
#      x y z
#    x 2.082910 -0.019800 -0.025730 
#    y -0.019800 1.951810 0.081590 
#    z -0.025730 0.081590 2.058690 
# 
# From -- ./inp_files/399259.got.cif
#   From: 2010.05.17/outbox.cif.g08.bks.cpg/sg2_200_cif.got.tgz:399259.got - 2010.06.03 11:33:40.
