data_PCOD9023661
_publ_section_title
;
Structure prediction by ZEFSAII (Michael W. Deem and Ramdas Pophale) SiO2 
 PCOD9023661
Probable space group: P -1
;
_chemical_formula_sum "Si O2"
_cell_formula_units_Z 16
_cell_length_a 22.415706
_cell_length_b 26.253739
_cell_length_c 6.693784
_cell_angle_alpha 65.000079
_cell_angle_beta 61.761132
_cell_angle_gamma 12.980579
_cell_volume 764.680114
_symmetry_space_group_name_H-M "P -1"
_symmetry_group_IT_number 2
_symmetry_cell_setting 'triclinic'
loop_
_space_group_symop_operation_xyz
x,y,z
-x,-y,-z
loop_
_atom_site_type_symbol
_atom_site_label
_atom_site_fract_x
_atom_site_fract_y
_atom_site_fract_z
Si Si1 0.601175 0.981711 0.134391
Si Si2 0.100817 0.226215 0.379319
Si Si3 0.366510 0.466688 0.620948
Si Si4 0.712244 0.120953 0.966688
Si Si5 0.671528 0.253701 0.099861
Si Si6 0.674635 0.400137 0.246299
Si Si7 0.948494 0.634392 0.481714
Si Si8 0.447720 0.879314 0.726215
O O1 0.620859 0.027274 0.128685
O O2 0.292983 0.207017 0.292978
O O3 0.811047 0.772315 0.272316
O O4 0.687202 0.916519 0.877295
O O5 0.868339 0.381128 0.365028
O O6 0.980548 0.371317 0.472730
O O7 0.263790 0.051825 0.551828
O O8 0.541226 0.357273 0.353656
O O9 0.245875 0.609722 0.728217
O O10 0.569605 0.263652 0.763650
O O11 0.627378 0.228219 0.109720
O O12 0.615550 0.134982 0.118872
O O13 0.044837 0.853660 0.857274
O O14 0.514401 0.424913 0.924911
O O15 0.000000 0.000000 0.000000
O O16 0.500000 0.500000 0.500000
O O17 0.226422 0.377297 0.416525
#
# Coordination Sequence:
#
# PCOD9023661 Si02
#       8
#     2   2   2   2   2   2   2   2
#     4  10  22  40  60  85 119 155 193 241 293 345
#     4  11  23  38  60  89 117 152 198 241 288 347
#     4  11  24  41  61  87 120 156 194 239 291 345
#     4  11  24  41  61  87 120 156 194 239 291 345
#     4  11  24  41  62  89 119 153 195 240 289 346
#     4  11  24  41  62  89 119 153 195 240 289 346
#     4  10  22  40  60  85 119 155 193 241 293 345
#     4  11  23  38  60  89 117 152 198 241 288 347
#
# _framework density 20.923781000000002
#
# number of rings (size 3 to 8) (size 9 to 14) (size 15 to 20)
#    0.000    1.250    0.000    5.250    0.000   15.500 
#    0.000    0.000    0.000    0.000    0.000    0.000 
#    0.000    0.000    0.000    0.000    0.000    0.000 
#
# Total GULP energy -89577.551849 kJ/mol
# GULP energy per Si atom -5598.596991 kJ/mol
# Density = 2.087616 g / cm^3
# Si number density = 20.923781 Si / 1000 Ang^3
#
#
#
# Elastic Constant Matrix: (Units=GPa)
#
#
# Indices 1 2 3 4 5 6 
#
# 1 57.6005 5.2659 6.9656 -18.3230 -4.3483 -5.4667
# 2 5.2659 86.0498 4.8803 -3.7198 13.2753 4.1962
# 3 6.9656 4.8803 86.0588 -2.0912 4.5839 13.6789
# 4 -18.3230 -3.7198 -2.0912 24.5358 -2.6412 -2.9918
# 5 -4.3483 13.2753 4.5839 -2.6412 30.2315 1.2289
# 6 -5.4667 4.1962 13.6789 -2.9918 1.2289 29.5079
#
#
#
# Elastic Compliance Matrix: (Units=1/GPa)
#
#
# Indices 1 2 3 4 5 6 
#
# 1 0.025639 -0.001910 -0.003130 0.020291 0.006438 0.008262
# 2 -0.001910 0.012713 0.000049 -0.000362 -0.005816 -0.001979
# 3 -0.003130 0.000049 0.013015 -0.002300 -0.002372 -0.006754
# 4 0.020291 -0.000362 -0.002300 0.057794 0.008053 0.010401
# 5 0.006438 -0.005816 -0.002372 0.008053 0.037525 0.002373
# 6 0.008262 -0.001979 -0.006754 0.010401 0.002373 0.039788
#
#
# Mechanical properties :
#
#
# Convention : Reuss Voigt Hill
#
# Bulk Modulus (GPa) = 24.16361 29.32585 26.74473
# Shear Modulus (GPa) = 23.78116 31.02818 27.40467
#
# Velocity S-wave (km/s) = 3.37495 3.85504 3.62296
# Velocity P-wave (km/s) = 5.17306 5.81903 5.50553
#
# Compressibility (1/GPa) = 0.04138455
#
# Stress axis : x y z
#
# Youngs Moduli (GPa) = 39.00344 78.65694 76.83707
#
# Poissons Ratio (x) = 0.15027 0.24049
# Poissons Ratio (y) = 0.07451 -0.00378
# Poissons Ratio (z) = 0.12208 -0.00387
#
# Static dielectric constant tensor:
#      x y z
#    x 1.770480 -0.007220 -0.009640 
#    y -0.007220 1.709730 0.020320 
#    z -0.009640 0.020320 1.708120 
# 
# From -- ./inp_files/127837.got.cif
#   From: 2010.05.17/outbox.cif.g08.bks.cpg/sg2_64_cif.got.tgz:127837.got - 2010.06.03 11:33:40.
