data_PCOD9023730
_publ_section_title
;
Structure prediction by ZEFSAII (Michael W. Deem and Ramdas Pophale) SiO2 
 PCOD9023730
Probable space group: P -1
;
_chemical_formula_sum "Si O2"
_cell_formula_units_Z 14
_cell_length_a 28.897534
_cell_length_b 15.658847
_cell_length_c 15.764534
_cell_angle_alpha 161.954181
_cell_angle_beta 161.729861
_cell_angle_gamma 18.827723
_cell_volume 618.967904
_symmetry_space_group_name_H-M "P -1"
_symmetry_group_IT_number 2
_symmetry_cell_setting 'triclinic'
loop_
_space_group_symop_operation_xyz
x,y,z
-x,-y,-z
loop_
_atom_site_type_symbol
_atom_site_label
_atom_site_fract_x
_atom_site_fract_y
_atom_site_fract_z
Si Si1 0.366511 0.451947 0.778115
Si Si2 0.534537 0.193413 0.590260
Si Si3 0.357358 0.100132 0.681912
Si Si4 0.208371 0.521404 0.239655
Si Si5 0.380639 0.373572 0.218735
Si Si6 0.001193 0.856726 0.459718
Si Si7 0.827245 0.301412 0.984262
O O1 0.185280 0.611015 0.572499
O O2 0.431160 0.087746 0.553758
O O3 0.500000 0.500000 0.000000
O O4 0.370201 0.620414 0.032618
O O5 0.346121 0.437569 0.474116
O O6 0.588534 0.002955 0.416392
O O7 0.513132 0.990231 0.914523
O O8 0.288557 0.862914 0.363121
O O9 0.221416 0.446801 0.788068
O O10 0.300810 0.505310 0.296404
O O11 0.062461 0.858569 0.317641
O O12 0.127110 0.288529 0.889891
O O13 0.500000 0.500000 0.500000
O O14 0.225403 0.485330 0.990028
O O15 0.000000 0.000000 0.500000
O O16 0.000000 0.000000 0.000000
#
# Coordination Sequence:
#
# PCOD9023730 Si02
#       7
#     2   2   2   2   2   2   2
#     4  12  25  43  67  96 132 175 219 275 342 407
#     4  11  23  42  66  94 126 169 223 271 324 405
#     4  10  22  40  61  85 122 167 209 259 323 389
#     4  11  24  43  70 100 133 178 227 279 339 401
#     4   9  22  42  66  95 131 175 224 274 333 404
#     4  12  26  45  67  98 137 176 221 281 340 401
#     4  11  22  37  60  90 124 162 208 267 324 379
#
# _framework density 22.618296999999998
#
# number of rings (size 3 to 8) (size 9 to 14) (size 15 to 20)
#    0.000    1.143    0.000    6.000    0.000   11.429 
#    0.000    0.000    0.000    0.000    0.000    0.000 
#    0.000    0.000    0.000    0.000    0.000    0.000 
#
# Total GULP energy -78109.932674 kJ/mol
# GULP energy per Si atom -5579.280905 kJ/mol
# Density = 2.256682 g / cm^3
# Si number density = 22.618297 Si / 1000 Ang^3
#
#
#
# Elastic Constant Matrix: (Units=GPa)
#
#
# Indices 1 2 3 4 5 6 
#
# 1 121.5433 31.7886 21.0747 -0.9052 10.0189 -1.4474
# 2 31.7886 130.0308 -0.7637 -24.9185 -14.7939 -7.8186
# 3 21.0747 -0.7637 73.3623 4.8562 3.0127 8.5927
# 4 -0.9052 -24.9185 4.8562 47.1303 1.7730 -7.7614
# 5 10.0189 -14.7939 3.0127 1.7730 36.9823 5.5632
# 6 -1.4474 -7.8186 8.5927 -7.7614 5.5632 32.2713
#
#
#
# Elastic Compliance Matrix: (Units=1/GPa)
#
#
# Indices 1 2 3 4 5 6 
#
# 1 0.009777 -0.002923 -0.002742 -0.000786 -0.003693 0.000908
# 2 -0.002923 0.010130 0.000058 0.005624 0.004126 0.002949
# 3 -0.002742 0.000058 0.015120 -0.002379 0.000366 -0.004770
# 4 -0.000786 0.005624 -0.002379 0.025751 0.000201 0.008119
# 5 -0.003693 0.004126 0.000366 0.000201 0.030320 -0.004442
# 6 0.000908 0.002949 -0.004770 0.008119 -0.004442 0.035731
#
#
# Mechanical properties :
#
#
# Convention : Reuss Voigt Hill
#
# Bulk Modulus (GPa) = 41.99143 47.68174 44.83658
# Shear Modulus (GPa) = 34.25145 41.46590 37.85868
#
# Velocity S-wave (km/s) = 3.89565 4.28634 4.09566
# Velocity P-wave (km/s) = 6.23221 6.75453 6.49862
#
# Compressibility (1/GPa) = 0.02381438
#
# Stress axis : x y z
#
# Youngs Moduli (GPa) = 102.28469 98.71848 66.13607
#
# Poissons Ratio (x) = 0.28851 0.18132
# Poissons Ratio (y) = 0.29893 -0.00383
# Poissons Ratio (z) = 0.28042 -0.00571
#
# Static dielectric constant tensor:
#      x y z
#    x 1.917670 0.029040 -0.063530 
#    y 0.029040 1.880770 -0.071330 
#    z -0.063530 -0.071330 1.866520 
# 
# From -- ./inp_files/135656.got.cif
#   From: 2010.05.17/outbox.cif.g08.bks.cpg/sg2_68_cif.got.tgz:135656.got - 2010.06.03 11:33:40.
