data_PCOD9023749
_publ_section_title
;
Structure prediction by ZEFSAII (Michael W. Deem and Ramdas Pophale) SiO2 
 PCOD9023749
Probable space group: P -1
;
_chemical_formula_sum "Si O2"
_cell_formula_units_Z 10
_cell_length_a 5.037053
_cell_length_b 5.178493
_cell_length_c 16.526182
_cell_angle_alpha 85.290179
_cell_angle_beta 117.004058
_cell_angle_gamma 90.004289
_cell_volume 382.443350
_symmetry_space_group_name_H-M "P -1"
_symmetry_group_IT_number 2
_symmetry_cell_setting 'triclinic'
loop_
_space_group_symop_operation_xyz
x,y,z
-x,-y,-z
loop_
_atom_site_type_symbol
_atom_site_label
_atom_site_fract_x
_atom_site_fract_y
_atom_site_fract_z
Si Si1 0.301767 0.050149 0.726819
Si Si2 0.312515 0.385696 0.577070
Si Si3 0.872210 0.310782 0.055840
Si Si4 0.233353 0.207794 0.894751
Si Si5 0.644234 0.868045 0.634685
O O1 0.293212 0.323975 0.671683
O O2 0.095370 0.501622 0.866751
O O3 0.325073 0.097277 0.823424
O O4 0.983520 0.930966 0.668447
O O5 0.423181 0.104806 0.566417
O O6 0.000000 0.500000 0.500000
O O7 0.558966 0.595572 0.594849
O O8 0.976270 0.010235 0.090745
O O9 0.529500 0.255386 0.986890
O O10 0.000000 0.500000 0.000000
O O11 0.555684 0.886038 0.717706
#
# Coordination Sequence:
#
# PCOD9023749 Si02
#       5
#     2   2   2   2   2
#     4  10  26  41  66  96 130 168 216 259 320 375
#     4  10  24  44  67  96 130 168 212 263 317 378
#     4  10  22  40  61  89 121 163 207 257 314 366
#     4  10  23  38  61  89 123 161 210 256 308 375
#     4  10  25  40  65  94 128 168 213 261 317 374
#
# _framework density 26.147663999999999
#
# number of rings (size 3 to 8) (size 9 to 14) (size 15 to 20)
#    1.200    0.800    0.000    1.200    8.400    3.200 
#    0.000    0.000    0.000    0.000    0.000    0.000 
#    0.000    0.000    0.000    0.000    0.000    0.000 
#
# Total GULP energy -55881.097965 kJ/mol
# GULP energy per Si atom -5588.109796 kJ/mol
# Density = 2.608815 g / cm^3
# Si number density = 26.147664 Si / 1000 Ang^3
#
#
#
# Elastic Constant Matrix: (Units=GPa)
#
#
# Indices 1 2 3 4 5 6 
#
# 1 100.7616 43.9850 11.0055 -8.6090 2.2733 19.1033
# 2 43.9850 218.3037 30.5032 8.5070 0.8538 26.2125
# 3 11.0055 30.5032 60.9833 2.2275 -13.6205 -0.1606
# 4 -8.6090 8.5070 2.2275 22.7631 0.7360 -5.1144
# 5 2.2733 0.8538 -13.6205 0.7360 48.3352 -1.4388
# 6 19.1033 26.2125 -0.1606 -5.1144 -1.4388 44.0028
#
#
#
# Elastic Compliance Matrix: (Units=1/GPa)
#
#
# Indices 1 2 3 4 5 6 
#
# 1 0.012059 -0.001949 -0.001644 0.004685 -0.001174 -0.003574
# 2 -0.001949 0.005841 -0.002634 -0.003323 -0.000794 -0.003055
# 3 -0.001644 -0.002634 0.019325 -0.001172 0.005659 0.002402
# 4 0.004685 -0.003323 -0.001172 0.048335 -0.001063 0.005524
# 5 -0.001174 -0.000794 0.005659 -0.001063 0.022417 0.001613
# 6 -0.003574 -0.003055 0.002402 0.005524 0.001613 0.026801
#
#
# Mechanical properties :
#
#
# Convention : Reuss Voigt Hill
#
# Bulk Modulus (GPa) = 40.36918 61.22623 50.79770
# Shear Modulus (GPa) = 32.15667 42.65720 37.40694
#
# Velocity S-wave (km/s) = 3.51067 4.04344 3.78644
# Velocity P-wave (km/s) = 5.64850 6.72797 6.21173
#
# Compressibility (1/GPa) = 0.02477137
#
# Stress axis : x y z
#
# Youngs Moduli (GPa) = 82.92493 171.20649 51.74604
#
# Poissons Ratio (x) = 0.33364 0.08508
# Poissons Ratio (y) = 0.16160 0.13629
# Poissons Ratio (z) = 0.13635 0.45094
#
# Static dielectric constant tensor:
#      x y z
#    x 2.046250 -0.080110 -0.075840 
#    y -0.080110 2.060640 -0.078350 
#    z -0.075840 -0.078350 2.166700 
# 
# From -- ./inp_files/101819.got.cif
#   From: 2010.05.17/outbox.cif.g08.bks.cpg/sg2_51_cif.got.tgz:101819.got - 2010.06.03 11:33:40.
