data_PCOD9023257
_publ_section_title
;
Structure prediction by ZEFSAII (Michael W. Deem and Ramdas Pophale) SiO2 
 PCOD9023257
Probable space group: P -1
;
_chemical_formula_sum "Si O2"
_cell_formula_units_Z 14
_cell_length_a 4.864149
_cell_length_b 6.821227
_cell_length_c 21.800419
_cell_angle_alpha 131.484150
_cell_angle_beta 82.359932
_cell_angle_gamma 107.183948
_cell_volume 515.689500
_symmetry_space_group_name_H-M "P -1"
_symmetry_group_IT_number 2
_symmetry_cell_setting 'triclinic'
loop_
_space_group_symop_operation_xyz
x,y,z
-x,-y,-z
loop_
_atom_site_type_symbol
_atom_site_label
_atom_site_fract_x
_atom_site_fract_y
_atom_site_fract_z
Si Si1 0.160100 0.169902 0.373268
Si Si2 0.763670 0.422511 0.359837
Si Si3 0.555911 0.610806 0.108653
Si Si4 0.081925 0.718764 0.937758
Si Si5 0.389043 0.669709 0.258127
Si Si6 0.125532 0.813479 0.820501
Si Si7 0.690218 0.074327 0.569734
O O1 0.888714 0.249244 0.370582
O O2 0.436285 0.386103 0.380631
O O3 0.176336 0.865614 0.291224
O O4 0.225591 0.162093 0.442153
O O5 0.754653 0.291860 0.265496
O O6 0.003921 0.708771 0.407379
O O7 0.213301 0.517722 0.089550
O O8 0.579036 0.701490 0.198471
O O9 0.674476 0.348110 0.042001
O O10 0.756611 0.862252 0.118169
O O11 0.196026 0.717771 0.864763
O O12 0.000000 0.000000 0.000000
O O13 0.213969 0.352784 0.206055
O O14 0.484585 0.787089 0.347231
O O15 0.500000 0.000000 0.500000
#
# Coordination Sequence:
#
# PCOD9023257 Si02
#       7
#     2   2   2   2   2   2   2
#     4  10  23  40  62  92 130 159 217 266 312 367
#     4  11  23  40  65  93 125 168 215 266 313 371
#     4  11  23  42  69  91 128 168 211 261 310 374
#     4  11  27  45  64  98 132 162 207 260 316 385
#     4   8  20  40  60  98 124 163 216 267 300 374
#     4  10  22  39  67  94 122 168 210 256 319 367
#     4   9  21  42  63  94 133 172 212 263 323 376
#
# _framework density 27.148118
#
# number of rings (size 3 to 8) (size 9 to 14) (size 15 to 20)
#    0.857    1.143    1.429    0.429    4.000    9.143 
#    0.000    1.429    0.000    0.000    0.000    0.000 
#    0.000    0.000    0.000    0.000    0.000    0.000 
#
# Total GULP energy -78326.898501 kJ/mol
# GULP energy per Si atom -5594.778464 kJ/mol
# Density = 2.708633 g / cm^3
# Si number density = 27.148118 Si / 1000 Ang^3
#
#
#
# Elastic Constant Matrix: (Units=GPa)
#
#
# Indices 1 2 3 4 5 6 
#
# 1 103.1646 28.2647 11.0099 0.9742 -4.5052 -2.2330
# 2 28.2647 176.6252 30.9528 7.6860 7.3052 23.8455
# 3 11.0099 30.9528 70.2273 -6.8402 9.7217 -1.6979
# 4 0.9742 7.6860 -6.8402 38.9132 -1.6209 8.3306
# 5 -4.5052 7.3052 9.7217 -1.6209 28.6702 3.7653
# 6 -2.2330 23.8455 -1.6979 8.3306 3.7653 36.8393
#
#
#
# Elastic Compliance Matrix: (Units=1/GPa)
#
#
# Indices 1 2 3 4 5 6 
#
# 1 0.010435 -0.001753 -0.001173 -0.000362 0.002258 0.001564
# 2 -0.001753 0.007154 -0.003008 -0.000933 -0.000526 -0.004611
# 3 -0.001173 -0.003008 0.016818 0.002812 -0.005298 0.002557
# 4 -0.000362 -0.000933 0.002812 0.027671 0.001541 -0.005703
# 5 0.002258 -0.000526 -0.005298 0.001541 0.037774 -0.003976
# 6 0.001564 -0.004611 0.002557 -0.005703 -0.003976 0.032038
#
#
# Mechanical properties :
#
#
# Convention : Reuss Voigt Hill
#
# Bulk Modulus (GPa) = 44.36857 54.49688 49.43273
# Shear Modulus (GPa) = 33.05310 39.53719 36.29514
#
# Velocity S-wave (km/s) = 3.49307 3.82036 3.66037
# Velocity P-wave (km/s) = 5.71378 6.29108 6.00937
#
# Compressibility (1/GPa) = 0.02253847
#
# Stress axis : x y z
#
# Youngs Moduli (GPa) = 95.83455 139.77761 59.45931
#
# Poissons Ratio (x) = 0.24503 0.06976
# Poissons Ratio (y) = 0.16800 0.17885
# Poissons Ratio (z) = 0.11244 0.42045
#
# Static dielectric constant tensor:
#      x y z
#    x 2.071390 -0.043670 -0.046340 
#    y -0.043670 2.093290 0.041930 
#    z -0.046340 0.041930 2.229290 
# 
# From -- ./inp_files/615043.got.cif
#   From: 2010.05.17/outbox.cif.g08.bks.cpg/sg2_308_cif.got.tgz:615043.got - 2010.06.03 11:33:40.
