data_PCOD9023529
_publ_section_title
;
Structure prediction by ZEFSAII (Michael W. Deem and Ramdas Pophale) SiO2 
 PCOD9023529
Probable space group: P -1
;
_chemical_formula_sum "Si O2"
_cell_formula_units_Z 16
_cell_length_a 8.553058
_cell_length_b 7.875149
_cell_length_c 11.562294
_cell_angle_alpha 114.702602
_cell_angle_beta 91.083985
_cell_angle_gamma 112.056384
_cell_volume 641.287404
_symmetry_space_group_name_H-M "P -1"
_symmetry_group_IT_number 2
_symmetry_cell_setting 'triclinic'
loop_
_space_group_symop_operation_xyz
x,y,z
-x,-y,-z
loop_
_atom_site_type_symbol
_atom_site_label
_atom_site_fract_x
_atom_site_fract_y
_atom_site_fract_z
Si Si1 0.517429 0.254286 0.981793
Si Si2 0.213879 0.480918 0.248650
Si Si3 0.794024 0.643121 0.035208
Si Si4 0.441357 0.173932 0.598260
Si Si5 0.282164 0.242303 0.398347
Si Si6 0.467002 0.807048 0.779515
Si Si7 0.913704 0.397941 0.348915
Si Si8 0.092702 0.016156 0.697789
O O1 0.715980 0.402459 0.998061
O O2 0.466453 0.020686 0.880111
O O3 0.373922 0.310358 0.937709
O O4 0.499485 0.283359 0.126634
O O5 0.159685 0.338212 0.093752
O O6 0.394199 0.674886 0.283314
O O7 0.252175 0.389145 0.343588
O O8 0.051111 0.529710 0.292277
O O9 0.919149 0.804393 0.172828
O O10 0.402434 0.300783 0.529704
O O11 0.263648 0.081688 0.641258
O O12 0.500000 0.000000 0.500000
O O13 0.379366 0.139099 0.292252
O O14 0.091542 0.095527 0.398892
O O15 0.284457 0.644600 0.679599
O O16 0.000000 0.500000 0.500000
O O17 0.902388 0.167076 0.274532
#
# Coordination Sequence:
#
# PCOD9023529 Si02
#       8
#     2   2   2   2   2   2   2   2
#     4  10  22  39  70  98 138 177 228 277 343 407
#     4  11  25  44  71 100 133 184 230 273 344 411
#     4  11  22  44  69 101 137 177 225 287 345 402
#     4  12  25  45  72  99 138 181 224 289 336 399
#     4  11  25  43  68 101 135 180 230 272 341 412
#     4  11  22  43  67 102 135 180 225 284 336 404
#     4  11  24  45  68  99 139 181 229 277 336 407
#     4  11  25  45  70 100 138 182 225 281 340 408
#
# _framework density 24.949812999999999
#
# number of rings (size 3 to 8) (size 9 to 14) (size 15 to 20)
#    0.000    1.000    2.500    4.500    1.750    5.000 
#    4.500    1.250    0.000    0.000    0.000    0.000 
#    0.000    0.000    0.000    0.000    0.000    0.000 
#
# Total GULP energy -89370.014728 kJ/mol
# GULP energy per Si atom -5585.625920 kJ/mol
# Density = 2.489303 g / cm^3
# Si number density = 24.949813 Si / 1000 Ang^3
#
#
#
# Elastic Constant Matrix: (Units=GPa)
#
#
# Indices 1 2 3 4 5 6 
#
# 1 102.0716 27.1913 37.6018 3.2963 -13.1166 33.2643
# 2 27.1913 61.7153 23.6021 -6.4685 4.2059 22.2507
# 3 37.6018 23.6021 97.8710 5.7256 -12.2096 13.8143
# 4 3.2963 -6.4685 5.7256 34.7399 8.9922 -2.8803
# 5 -13.1166 4.2059 -12.2096 8.9922 34.1752 -10.0911
# 6 33.2643 22.2507 13.8143 -2.8803 -10.0911 42.7482
#
#
#
# Elastic Compliance Matrix: (Units=1/GPa)
#
#
# Indices 1 2 3 4 5 6 
#
# 1 0.015092 -0.002763 -0.003343 -0.002929 0.003146 -0.008680
# 2 -0.002763 0.025166 -0.005286 0.007844 -0.011483 -0.011423
# 3 -0.003343 -0.005286 0.013465 -0.004243 0.005918 0.002113
# 4 -0.002929 0.007844 -0.004243 0.034498 -0.013033 -0.001184
# 5 0.003146 -0.011483 0.005918 -0.013033 0.040464 0.010290
# 6 -0.008680 -0.011423 0.002113 -0.001184 0.010290 0.037759
#
#
# Mechanical properties :
#
#
# Convention : Reuss Voigt Hill
#
# Bulk Modulus (GPa) = 32.32260 48.71646 40.51953
# Shear Modulus (GPa) = 25.05736 33.88350 29.47043
#
# Velocity S-wave (km/s) = 3.17252 3.68919 3.44057
# Velocity P-wave (km/s) = 5.13839 6.14126 5.66207
#
# Compressibility (1/GPa) = 0.03093810
#
# Stress axis : x y z
#
# Youngs Moduli (GPa) = 66.25875 39.73692 74.26584
#
# Poissons Ratio (x) = 0.10979 0.24828
# Poissons Ratio (y) = 0.18306 0.39260
# Poissons Ratio (z) = 0.22151 0.21007
#
# Static dielectric constant tensor:
#      x y z
#    x 2.001550 -0.007400 0.003040 
#    y -0.007400 2.091650 0.007130 
#    z 0.003040 0.007130 1.959560 
# 
# From -- ./inp_files/208834.got.cif
#   From: 2010.05.17/outbox.cif.g08.bks.cpg/sg2_105_cif.got.tgz:208834.got - 2010.06.03 11:33:40.
