data_PCOD9023981
_publ_section_title
;
Structure prediction by ZEFSAII (Michael W. Deem and Ramdas Pophale) SiO2 
 PCOD9023981
Probable space group: P -1
;
_chemical_formula_sum "Si O2"
_cell_formula_units_Z 14
_cell_length_a 7.837269
_cell_length_b 15.054904
_cell_length_c 11.477796
_cell_angle_alpha 152.163041
_cell_angle_beta 76.603478
_cell_angle_gamma 106.526779
_cell_volume 605.657947
_symmetry_space_group_name_H-M "P -1"
_symmetry_group_IT_number 2
_symmetry_cell_setting 'triclinic'
loop_
_space_group_symop_operation_xyz
x,y,z
-x,-y,-z
loop_
_atom_site_type_symbol
_atom_site_label
_atom_site_fract_x
_atom_site_fract_y
_atom_site_fract_z
Si Si1 0.617385 0.706096 0.908241
Si Si2 0.345259 0.363719 0.543459
Si Si3 0.526111 0.994933 0.849938
Si Si4 0.820373 0.241843 0.485286
Si Si5 0.912259 0.667059 0.263142
Si Si6 0.913840 0.674377 0.666878
Si Si7 0.674257 0.614206 0.037299
O O1 0.546115 0.475081 0.638271
O O2 0.816180 0.766272 0.894025
O O3 0.619820 0.738991 0.083872
O O4 0.469046 0.795679 0.962850
O O5 0.328609 0.142973 0.334932
O O6 0.230603 0.446147 0.754055
O O7 0.255150 0.378191 0.451940
O O8 0.365928 0.886196 0.668032
O O9 0.500000 0.000000 0.000000
O O10 0.939345 0.198069 0.526115
O O11 0.937641 0.225633 0.331326
O O12 0.776894 0.454107 0.773579
O O13 0.801328 0.735774 0.254102
O O14 0.000000 0.500000 0.000000
O O15 0.000000 0.500000 0.500000
O O16 0.500000 0.500000 0.000000
#
# Coordination Sequence:
#
# PCOD9023981 Si02
#       7
#     2   2   2   2   2   2   2
#     4  12  24  39  69  97 129 177 224 259 336 397
#     4  11  22  44  65  94 136 169 219 280 318 398
#     4  12  25  42  64  99 136 177 219 265 336 402
#     4  10  22  40  62  93 136 165 213 283 324 382
#     4   9  20  39  71  92 123 179 216 267 339 371
#     4  11  21  37  65  95 128 173 212 271 340 385
#     4  11  19  40  69  92 125 174 223 270 321 387
#
# _framework density 23.115356999999999
#
# number of rings (size 3 to 8) (size 9 to 14) (size 15 to 20)
#    0.000    1.143    5.714    0.429    2.000    0.571 
#    0.000    3.571    0.000    0.000    0.000    0.000 
#    0.000    0.000    0.000    0.000    0.000    0.000 
#
# Total GULP energy -77953.919499 kJ/mol
# GULP energy per Si atom -5568.137107 kJ/mol
# Density = 2.306275 g / cm^3
# Si number density = 23.115357 Si / 1000 Ang^3
#
#
#
# Elastic Constant Matrix: (Units=GPa)
#
#
# Indices 1 2 3 4 5 6 
#
# 1 105.7488 37.1044 13.8732 -6.4143 0.6848 -38.4083
# 2 37.1044 125.5284 26.9456 -26.4407 -12.8361 -32.4447
# 3 13.8732 26.9456 39.4450 -7.1716 -8.9435 -2.0284
# 4 -6.4143 -26.4407 -7.1716 33.3808 -4.0719 -6.0912
# 5 0.6848 -12.8361 -8.9435 -4.0719 37.9330 -14.4128
# 6 -38.4083 -32.4447 -2.0284 -6.0912 -14.4128 60.1662
#
#
#
# Elastic Compliance Matrix: (Units=1/GPa)
#
#
# Indices 1 2 3 4 5 6 
#
# 1 0.013648 0.000714 -0.003011 0.004896 0.003759 0.010392
# 2 0.000714 0.017291 -0.005690 0.016591 0.011616 0.014050
# 3 -0.003011 -0.005690 0.031577 0.001808 0.004781 -0.002597
# 4 0.004896 0.016591 0.001808 0.050859 0.019778 0.022020
# 5 0.003759 0.011616 0.004781 0.019778 0.041353 0.020734
# 6 0.010392 0.014050 -0.002597 0.022020 0.020734 0.037940
#
#
# Mechanical properties :
#
#
# Convention : Reuss Voigt Hill
#
# Bulk Modulus (GPa) = 21.48617 47.39648 34.44133
# Shear Modulus (GPa) = 22.30599 39.14928 30.72764
#
# Velocity S-wave (km/s) = 3.10979 4.11986 3.64994
# Velocity P-wave (km/s) = 4.71273 6.57114 5.71794
#
# Compressibility (1/GPa) = 0.04654156
#
# Stress axis : x y z
#
# Youngs Moduli (GPa) = 73.27093 57.83443 31.66897
#
# Poissons Ratio (x) = -0.04128 0.09535
# Poissons Ratio (y) = -0.05230 0.18019
# Poissons Ratio (z) = 0.22061 0.32907
#
# Static dielectric constant tensor:
#      x y z
#    x 1.961750 0.060760 -0.080790 
#    y 0.060760 2.063650 -0.015620 
#    z -0.080790 -0.015620 2.014850 
# 
# From -- ./inp_files/353295.got.cif
#   From: 2010.05.17/outbox.cif.g08.bks.cpg/sg2_177_cif.got.tgz:353295.got - 2010.06.03 11:33:40.
