data_PCOD9023856
_publ_section_title
;
Structure prediction by ZEFSAII (Michael W. Deem and Ramdas Pophale) SiO2 
 PCOD9023856
Probable space group: P -1
;
_chemical_formula_sum "Si O2"
_cell_formula_units_Z 14
_cell_length_a 19.586068
_cell_length_b 10.936023
_cell_length_c 26.272638
_cell_angle_alpha 158.639642
_cell_angle_beta 160.109896
_cell_angle_gamma 23.451298
_cell_volume 656.779888
_symmetry_space_group_name_H-M "P -1"
_symmetry_group_IT_number 2
_symmetry_cell_setting 'triclinic'
loop_
_space_group_symop_operation_xyz
x,y,z
-x,-y,-z
loop_
_atom_site_type_symbol
_atom_site_label
_atom_site_fract_x
_atom_site_fract_y
_atom_site_fract_z
Si Si1 0.249540 0.789771 0.091526
Si Si2 0.194318 0.917884 0.257347
Si Si3 0.523987 0.729434 0.035125
Si Si4 0.545409 0.910391 0.415767
Si Si5 0.802980 0.604634 0.273055
Si Si6 0.778932 0.697060 0.025595
Si Si7 0.058939 0.740226 0.592001
O O1 0.402555 0.005508 0.301604
O O2 0.322510 0.609447 0.018946
O O3 0.284642 0.479719 0.038018
O O4 0.000000 0.000000 0.000000
O O5 0.373522 0.921568 0.343260
O O6 0.312036 0.867519 0.375205
O O7 0.112079 0.611630 0.058906
O O8 0.009266 0.296563 0.276333
O O9 0.657881 0.823091 0.210435
O O10 0.335845 0.607204 0.878999
O O11 0.420618 0.040008 0.042976
O O12 0.716825 0.516927 0.373605
O O13 0.887410 0.818312 0.456808
O O14 0.916370 0.924300 0.231909
O O15 0.000000 0.500000 0.500000
#
# Coordination Sequence:
#
# PCOD9023856 Si02
#       7
#     2   2   2   2   2   2   2
#     4  11  22  39  64  90 123 161 203 253 306 359
#     4   9  20  36  59  87 117 158 200 246 298 357
#     4  11  21  38  63  90 121 161 203 249 302 360
#     4   9  18  36  60  81 119 158 197 243 304 352
#     4  10  22  40  62  86 128 164 196 248 310 357
#     4  11  22  38  65  91 120 159 210 250 296 366
#     4  11  20  39  63  90 120 163 203 249 303 360
#
# _framework density 21.316123000000001
#
# number of rings (size 3 to 8) (size 9 to 14) (size 15 to 20)
#    0.000    1.714    2.857    2.143    2.000    0.571 
#    2.571    0.714    0.000    3.429    0.000    0.000 
#    0.000    0.000    0.000    0.000    0.000    0.000 
#
# Total GULP energy -78107.674319 kJ/mol
# GULP energy per Si atom -5579.119594 kJ/mol
# Density = 2.126761 g / cm^3
# Si number density = 21.316123 Si / 1000 Ang^3
#
#
#
# Elastic Constant Matrix: (Units=GPa)
#
#
# Indices 1 2 3 4 5 6 
#
# 1 54.2413 8.8166 21.1047 -7.3505 -5.5880 23.1396
# 2 8.8166 41.2408 22.7579 -18.7474 -4.0285 27.2679
# 3 21.1047 22.7579 175.5770 -7.9901 -45.1405 18.8332
# 4 -7.3505 -18.7474 -7.9901 39.5545 2.7778 -13.6428
# 5 -5.5880 -4.0285 -45.1405 2.7778 38.6660 -15.0039
# 6 23.1396 27.2679 18.8332 -13.6428 -15.0039 -5.8268
#
#
#
# Elastic Compliance Matrix: (Units=1/GPa)
#
#
# Indices 1 2 3 4 5 6 
#
# 1 0.016668 -0.008140 -0.000804 0.002116 0.004223 0.009672
# 2 -0.008140 0.022077 -0.001913 0.014499 0.004914 0.018206
# 3 -0.000804 -0.001913 0.008508 -0.001127 0.008344 -0.003490
# 4 0.002116 0.014499 -0.001127 0.032609 -0.001647 0.000504
# 5 0.004223 0.004914 0.008344 -0.001647 0.032131 -0.012146
# 6 0.009672 0.018206 -0.003490 0.000504 -0.012146 -0.029198
#
#
# Mechanical properties :
#
#
# Convention : Reuss Voigt Hill
#
# Bulk Modulus (GPa) = 39.15392 41.82416 40.48904
# Shear Modulus (GPa) = 44.23905 29.03740 36.63822
#
# Velocity S-wave (km/s) = 4.56058 3.69484 4.15034
# Velocity P-wave (km/s) = 6.79264 6.15353 6.48097
#
# Compressibility (1/GPa) = 0.02554023
#
# Stress axis : x y z
#
# Youngs Moduli (GPa) = 59.99553 45.29598 117.53004
#
# Poissons Ratio (x) = 0.36871 0.09446
# Poissons Ratio (y) = 0.48836 0.22482
# Poissons Ratio (z) = 0.04822 0.08665
#
# Static dielectric constant tensor:
#      x y z
#    x 1.768750 0.004320 -0.025510 
#    y 0.004320 1.764770 -0.010080 
#    z -0.025510 -0.010080 1.873900 
# 
# From -- ./inp_files/467004.got.cif
#   From: 2010.05.17/outbox.cif.g08.bks.cpg/sg2_234_cif.got.tgz:467004.got - 2010.06.03 11:33:40.
