data_PCOD9023291
_publ_section_title
;
Structure prediction by ZEFSAII (Michael W. Deem and Ramdas Pophale) SiO2 
 PCOD9023291
Probable space group: P -1
;
_chemical_formula_sum "Si O2"
_cell_formula_units_Z 16
_cell_length_a 20.813309
_cell_length_b 8.109753
_cell_length_c 6.078825
_cell_angle_alpha 121.390482
_cell_angle_beta 124.101106
_cell_angle_gamma 55.644059
_cell_volume 669.289970
_symmetry_space_group_name_H-M "P -1"
_symmetry_group_IT_number 2
_symmetry_cell_setting 'triclinic'
loop_
_space_group_symop_operation_xyz
x,y,z
-x,-y,-z
loop_
_atom_site_type_symbol
_atom_site_label
_atom_site_fract_x
_atom_site_fract_y
_atom_site_fract_z
Si Si1 0.149435 0.554908 0.513205
Si Si2 0.595013 0.752521 0.773961
Si Si3 0.412365 0.984701 0.677611
Si Si4 0.573488 0.387674 0.236446
Si Si5 0.997452 0.165381 0.797636
Si Si6 0.240206 0.829747 0.657500
Si Si7 0.867822 0.166810 0.930970
Si Si8 0.729253 0.840942 0.788479
O O1 0.054330 0.619159 0.281494
O O2 0.188665 0.714559 0.600577
O O3 0.207605 0.334565 0.370000
O O4 0.147819 0.623002 0.811448
O O5 0.500635 0.929263 0.685947
O O6 0.580535 0.544915 0.544836
O O7 0.668644 0.761621 0.765076
O O8 0.615640 0.795191 0.092957
O O9 0.429624 0.810719 0.778548
O O10 0.338789 0.989903 0.380773
O O11 0.661759 0.303978 0.222488
O O12 0.500000 0.500000 0.000000
O O13 0.935457 0.165734 0.876921
O O14 0.000000 0.000000 0.500000
O O15 0.089347 0.050608 0.001781
O O16 0.212544 0.835185 0.354598
O O17 0.225121 0.053924 0.888213
#
# Coordination Sequence:
#
# PCOD9023291 Si02
#       8
#     2   2   2   2   2   2   2   2
#     4  10  22  39  67  97 133 175 215 266 333 393
#     4  11  25  44  66  90 127 175 226 276 340 390
#     4  11  27  42  66  93 126 176 227 282 337 393
#     4  12  26  45  66  91 128 171 227 278 337 395
#     4   8  16  37  67 101 129 170 213 262 321 388
#     4  11  24  40  64  95 133 171 221 278 329 386
#     4   9  19  38  68  96 132 170 218 262 320 398
#     4  12  25  42  65  95 138 171 224 280 332 394
#
# _framework density 23.905930000000001
#
# number of rings (size 3 to 8) (size 9 to 14) (size 15 to 20)
#    0.000    1.500    2.500    1.500    7.000    0.000 
#    0.000    0.625    0.000   25.500    0.000    0.000 
#    0.000    0.000    0.000    0.000    0.000    0.000 
#
# Total GULP energy -89340.305133 kJ/mol
# GULP energy per Si atom -5583.769071 kJ/mol
# Density = 2.385152 g / cm^3
# Si number density = 23.905930 Si / 1000 Ang^3
#
#
#
# Elastic Constant Matrix: (Units=GPa)
#
#
# Indices 1 2 3 4 5 6 
#
# 1 59.0968 6.7061 19.3605 15.5643 -6.3434 -15.3647
# 2 6.7061 65.5954 49.0101 11.0420 10.1071 -29.8288
# 3 19.3605 49.0101 149.6591 19.3756 5.6496 -21.0198
# 4 15.5643 11.0420 19.3756 49.7368 -9.6606 0.7238
# 5 -6.3434 10.1071 5.6496 -9.6606 34.8075 12.3293
# 6 -15.3647 -29.8288 -21.0198 0.7238 12.3293 40.1102
#
#
#
# Elastic Compliance Matrix: (Units=1/GPa)
#
#
# Indices 1 2 3 4 5 6 
#
# 1 0.023063 0.010441 -0.002233 -0.010430 -0.007735 0.017995
# 2 0.010441 0.049455 -0.007198 -0.018604 -0.033306 0.047580
# 3 -0.002233 -0.007198 0.009273 -0.001228 0.000345 -0.001433
# 4 -0.010430 -0.018604 -0.001228 0.032604 0.021885 -0.025790
# 5 -0.007735 -0.033306 0.000345 0.021885 0.059372 -0.046196
# 6 0.017995 0.047580 -0.001433 -0.025790 -0.046196 0.081123
#
#
# Mechanical properties :
#
#
# Convention : Reuss Voigt Hill
#
# Bulk Modulus (GPa) = 11.93150 47.16717 29.54933
# Shear Modulus (GPa) = 17.80582 38.21588 28.01085
#
# Velocity S-wave (km/s) = 2.73212 4.00258 3.42674
# Velocity P-wave (km/s) = 3.86710 6.41358 5.29568
#
# Compressibility (1/GPa) = 0.08381175
#
# Stress axis : x y z
#
# Youngs Moduli (GPa) = 43.35898 20.22025 107.84545
#
# Poissons Ratio (x) = -0.21112 0.24083
# Poissons Ratio (y) = -0.45271 0.77624
# Poissons Ratio (z) = 0.09683 0.14554
#
# Static dielectric constant tensor:
#      x y z
#    x 1.947350 0.007190 -0.015370 
#    y 0.007190 1.983160 -0.035870 
#    z -0.015370 -0.035870 1.959870 
# 
# From -- ./inp_files/122716.got.cif
#   From: 2010.05.17/outbox.cif.g08.bks.cpg/sg2_62_cif.got.tgz:122716.got - 2010.06.03 11:33:40.
