data_PCOD9023831
_publ_section_title
;
Structure prediction by ZEFSAII (Michael W. Deem and Ramdas Pophale) SiO2 
 PCOD9023831
Probable space group: P -1
;
_chemical_formula_sum "Si O2"
_cell_formula_units_Z 16
_cell_length_a 21.031855
_cell_length_b 9.610073
_cell_length_c 6.742280
_cell_angle_alpha 44.632602
_cell_angle_beta 67.298944
_cell_angle_gamma 56.171996
_cell_volume 795.201436
_symmetry_space_group_name_H-M "P -1"
_symmetry_group_IT_number 2
_symmetry_cell_setting 'triclinic'
loop_
_space_group_symop_operation_xyz
x,y,z
-x,-y,-z
loop_
_atom_site_type_symbol
_atom_site_label
_atom_site_fract_x
_atom_site_fract_y
_atom_site_fract_z
Si Si1 0.696557 0.105862 0.388509
Si Si2 0.130603 0.011834 0.825846
Si Si3 0.328438 0.582526 0.548892
Si Si4 0.660626 0.699248 0.795819
Si Si5 0.904192 0.630097 0.184366
Si Si6 0.035089 0.145116 0.425235
Si Si7 0.420213 0.495906 0.141889
Si Si8 0.792711 0.429368 0.601382
O O1 0.784885 0.021320 0.306865
O O2 0.686271 0.202209 0.524837
O O3 0.666522 0.923104 0.591529
O O4 0.645076 0.297924 0.104370
O O5 0.091149 0.244176 0.750573
O O6 0.081444 0.014412 0.692540
O O7 0.144195 0.805903 0.160030
O O8 0.397998 0.515401 0.379276
O O9 0.256408 0.609111 0.474614
O O10 0.341592 0.403489 0.884726
O O11 0.590479 0.706581 0.739554
O O12 0.736660 0.542571 0.739339
O O13 0.828275 0.591477 0.322161
O O14 0.970393 0.384598 0.324353
O O15 0.909755 0.787963 0.845800
O O16 0.000000 0.000000 0.500000
O O17 0.500000 0.500000 0.000000
#
# Coordination Sequence:
#
# PCOD9023831 Si02
#       8
#     2   2   2   2   2   2   2   2
#     4  11  23  40  66 101 126 168 220 264 321 380
#     4  12  24  42  67  93 130 165 215 275 320 386
#     4  10  22  40  63  96 132 164 213 266 319 375
#     4  10  22  40  62 100 130 164 218 264 317 386
#     4  11  26  43  66  93 128 173 215 266 333 386
#     4  11  28  47  63  95 130 173 220 265 331 392
#     4  10  23  45  66  95 139 175 210 260 323 383
#     4  11  23  40  66  96 127 168 211 270 329 376
#
# _framework density 20.120685999999999
#
# number of rings (size 3 to 8) (size 9 to 14) (size 15 to 20)
#    0.000    1.250    5.000    1.125    5.250    8.500 
#    0.000    1.250    0.000    0.000    0.000    0.000 
#    0.000    0.000    0.000    0.000    0.000    0.000 
#
# Total GULP energy -89393.483500 kJ/mol
# GULP energy per Si atom -5587.092719 kJ/mol
# Density = 2.007489 g / cm^3
# Si number density = 20.120686 Si / 1000 Ang^3
#
#
#
# Elastic Constant Matrix: (Units=GPa)
#
#
# Indices 1 2 3 4 5 6 
#
# 1 67.2021 48.0074 38.4843 8.1102 -23.9354 18.0123
# 2 48.0074 91.5312 59.1183 13.8643 -15.5805 33.8862
# 3 38.4843 59.1183 93.1537 18.8477 -25.9198 12.2730
# 4 8.1102 13.8643 18.8477 33.8297 9.4681 -8.4392
# 5 -23.9354 -15.5805 -25.9198 9.4681 30.8027 -6.2964
# 6 18.0123 33.8862 12.2730 -8.4392 -6.2964 34.2675
#
#
#
# Elastic Compliance Matrix: (Units=1/GPa)
#
#
# Indices 1 2 3 4 5 6 
#
# 1 0.034088 -0.011036 0.005375 -0.016678 0.028979 -0.007712
# 2 -0.011036 0.038641 -0.014783 -0.011429 -0.004234 -0.030708
# 3 0.005375 -0.014783 0.028926 -0.018464 0.027096 0.001865
# 4 -0.016678 -0.011429 -0.018464 0.070994 -0.048909 0.035179
# 5 0.028979 -0.004234 0.027096 -0.048909 0.087249 -0.016764
# 6 -0.007712 -0.030708 0.001865 0.035179 -0.016764 0.068518
#
#
# Mechanical properties :
#
#
# Convention : Reuss Voigt Hill
#
# Bulk Modulus (GPa) = 16.45658 60.34522 38.40090
# Shear Modulus (GPa) = 12.83506 26.86513 19.85010
#
# Velocity S-wave (km/s) = 2.52842 3.65800 3.14435
# Velocity P-wave (km/s) = 4.08908 6.92084 5.68413
#
# Compressibility (1/GPa) = 0.06076597
#
# Stress axis : x y z
#
# Youngs Moduli (GPa) = 29.33622 25.87939 34.57131
#
# Poissons Ratio (x) = 0.28561 -0.18583
# Poissons Ratio (y) = 0.32376 0.51108
# Poissons Ratio (z) = -0.15769 0.38258
#
# Static dielectric constant tensor:
#      x y z
#    x 1.694890 -0.012880 -0.019440 
#    y -0.012880 1.739880 0.001450 
#    z -0.019440 0.001450 1.704700 
# 
# From -- ./inp_files/48451.got.cif
#   From: 2010.05.17/outbox.cif.g08.bks.cpg/sg2_25_cif.got.tgz:48451.got - 2010.06.03 11:33:40.
