data_PCOD9023349
_publ_section_title
;
Structure prediction by ZEFSAII (Michael W. Deem and Ramdas Pophale) SiO2 
 PCOD9023349
Probable space group: P -1
;
_chemical_formula_sum "Si O2"
_cell_formula_units_Z 16
_cell_length_a 17.979042
_cell_length_b 15.846917
_cell_length_c 10.467860
_cell_angle_alpha 145.958787
_cell_angle_beta 36.802017
_cell_angle_gamma 156.485317
_cell_volume 654.858323
_symmetry_space_group_name_H-M "P -1"
_symmetry_group_IT_number 2
_symmetry_cell_setting 'triclinic'
loop_
_space_group_symop_operation_xyz
x,y,z
-x,-y,-z
loop_
_atom_site_type_symbol
_atom_site_label
_atom_site_fract_x
_atom_site_fract_y
_atom_site_fract_z
Si Si1 0.223510 0.210351 0.108317
Si Si2 0.735594 0.280594 0.840071
Si Si3 0.079301 0.278778 0.015138
Si Si4 0.564195 0.123893 0.433136
Si Si5 0.479416 0.707238 0.689187
Si Si6 0.788058 0.800494 0.481115
Si Si7 0.932927 0.628025 0.555860
Si Si8 0.583968 0.720128 0.287547
O O1 0.117946 0.274343 0.338483
O O2 0.436180 0.446161 0.151765
O O3 0.227915 0.168183 0.898504
O O4 0.128044 0.988236 0.037830
O O5 0.863963 0.251047 0.609935
O O6 0.543994 0.078752 0.771859
O O7 0.860852 0.525954 0.908698
O O8 0.653574 0.271386 0.072538
O O9 0.200799 0.256644 0.751966
O O10 0.094403 0.349285 0.229235
O O11 0.785285 0.354872 0.398055
O O12 0.486028 0.221551 0.646216
O O13 0.500000 0.000000 0.500000
O O14 0.662241 0.836563 0.689094
O O15 0.337784 0.435374 0.563861
O O16 0.560305 0.781231 0.529451
O O17 0.000000 0.000000 0.500000
#
# Coordination Sequence:
#
# PCOD9023349 Si02
#       8
#     2   2   2   2   2   2   2   2
#     4  10  22  39  68 104 130 174 224 286 345 394
#     4  11  25  42  66  99 135 186 219 279 335 414
#     4  11  21  38  67  96 129 170 223 282 332 397
#     4  11  24  43  66  97 139 178 229 286 339 402
#     4  10  23  44  63  96 140 179 228 269 340 413
#     4  10  22  41  67  98 133 180 223 280 336 407
#     4  11  23  41  65 101 134 175 225 280 345 400
#     4  10  22  43  68  99 139 180 224 286 342 403
#
# _framework density 24.432766999999998
#
# number of rings (size 3 to 8) (size 9 to 14) (size 15 to 20)
#    0.000    1.500    1.250    3.000    1.750    3.500 
#    2.250    2.500    0.000    0.000    0.000    0.000 
#    0.000    0.000    0.000    0.000    0.000    0.000 
#
# Total GULP energy -89349.513494 kJ/mol
# GULP energy per Si atom -5584.344593 kJ/mol
# Density = 2.437716 g / cm^3
# Si number density = 24.432767 Si / 1000 Ang^3
#
#
#
# Elastic Constant Matrix: (Units=GPa)
#
#
# Indices 1 2 3 4 5 6 
#
# 1 50.4507 35.8027 33.4353 -12.3605 3.6971 0.5597
# 2 35.8027 179.0949 25.1722 2.9030 7.4323 -7.3088
# 3 33.4353 25.1722 136.8596 -37.8302 0.3091 -2.6161
# 4 -12.3605 2.9030 -37.8302 40.0165 1.4706 -5.8998
# 5 3.6971 7.4323 0.3091 1.4706 18.4139 -7.6457
# 6 0.5597 -7.3088 -2.6161 -5.8998 -7.6457 35.8416
#
#
#
# Elastic Compliance Matrix: (Units=1/GPa)
#
#
# Indices 1 2 3 4 5 6 
#
# 1 0.027844 -0.004858 -0.004737 0.004345 -0.004757 -0.002071
# 2 -0.004858 0.006782 -0.000749 -0.002548 -0.001248 0.000719
# 3 -0.004737 -0.000749 0.011307 0.009616 0.001385 0.002625
# 4 0.004345 -0.002548 0.009616 0.036513 -0.000415 0.006036
# 5 -0.004757 -0.001248 0.001385 -0.000415 0.061129 0.012893
# 6 -0.002071 0.000719 0.002625 0.006036 0.012893 0.032015
#
#
# Mechanical properties :
#
#
# Convention : Reuss Voigt Hill
#
# Bulk Modulus (GPa) = 39.60931 61.69175 50.65053
# Shear Modulus (GPa) = 24.42696 36.98738 30.70717
#
# Velocity S-wave (km/s) = 3.16533 3.89504 3.54899
# Velocity P-wave (km/s) = 5.44113 6.74780 6.12938
#
# Compressibility (1/GPa) = 0.02524659
#
# Stress axis : x y z
#
# Youngs Moduli (GPa) = 35.91427 147.44025 88.44210
#
# Poissons Ratio (x) = 0.71627 0.41894
# Poissons Ratio (y) = 0.17447 0.06620
# Poissons Ratio (z) = 0.17012 0.11036
#
# Static dielectric constant tensor:
#      x y z
#    x 2.027220 0.025850 0.051780 
#    y 0.025850 1.947680 -0.015230 
#    z 0.051780 -0.015230 2.063890 
# 
# From -- ./inp_files/472467.got.cif
#   From: 2010.05.17/outbox.cif.g08.bks.cpg/sg2_237_cif.got.tgz:472467.got - 2010.06.03 11:33:40.
