data_PCOD9023707
_publ_section_title
;
Structure prediction by ZEFSAII (Michael W. Deem and Ramdas Pophale) SiO2 
 PCOD9023707
Probable space group: P -1
;
_chemical_formula_sum "Si O2"
_cell_formula_units_Z 13
_cell_length_a 15.448424
_cell_length_b 6.530820
_cell_length_c 16.368148
_cell_angle_alpha 68.156545
_cell_angle_beta 156.056093
_cell_angle_gamma 120.682628
_cell_volume 554.947826
_symmetry_space_group_name_H-M "P -1"
_symmetry_group_IT_number 2
_symmetry_cell_setting 'triclinic'
loop_
_space_group_symop_operation_xyz
x,y,z
-x,-y,-z
loop_
_atom_site_type_symbol
_atom_site_label
_atom_site_fract_x
_atom_site_fract_y
_atom_site_fract_z
Si Si1 0.574267 0.309386 0.960398
Si Si2 0.638915 0.410294 0.569734
Si Si3 0.232799 0.967908 0.184114
Si Si4 0.020076 0.833129 0.726077
Si Si5 0.247728 0.768867 0.709312
Si Si6 0.621798 0.820358 0.897172
Si Si7 0.000000 0.000000 0.500000
O O1 0.645245 0.340275 0.112939
O O2 0.778950 0.261342 0.101618
O O3 0.563339 0.538182 0.875219
O O4 0.322914 0.055287 0.773118
O O5 0.500000 0.500000 0.500000
O O6 0.449321 0.188051 0.385125
O O7 0.803940 0.630750 0.620239
O O8 0.786596 0.291899 0.763274
O O9 0.296196 0.013903 0.136701
O O10 0.000000 0.000000 0.000000
O O11 0.957304 0.896784 0.575006
O O12 0.157555 0.073084 0.865102
O O13 0.395504 0.822405 0.746936
O O14 0.974629 0.707596 0.484735
#
# Coordination Sequence:
#
# PCOD9023707 Si02
#       7
#     2   2   2   2   2   2   1
#     4   9  19  39  61  88 130 171 217 270 321 402
#     4  11  26  46  71 100 139 179 229 286 346 411
#     4  11  26  46  69 105 134 176 234 288 342 407
#     4  10  23  42  64  95 134 178 216 275 339 397
#     4   9  20  37  59  91 129 173 216 264 332 389
#     4  11  22  39  68  94 126 174 228 271 333 403
#     4  10  22  40  60  94 140 168 216 268 326 402
#
# _framework density 23.425623000000002
#
# number of rings (size 3 to 8) (size 9 to 14) (size 15 to 20)
#    0.000    1.846    0.000    3.231    4.308    4.923 
#    0.000    2.308    0.000    0.000    0.000    0.000 
#    0.000    0.000    0.000    0.000    0.000    0.000 
#
# Total GULP energy -72600.306007 kJ/mol
# GULP energy per Si atom -5584.638924 kJ/mol
# Density = 2.337231 g / cm^3
# Si number density = 23.425623 Si / 1000 Ang^3
#
#
#
# Elastic Constant Matrix: (Units=GPa)
#
#
# Indices 1 2 3 4 5 6 
#
# 1 169.5220 38.4128 42.4499 -15.7937 3.9339 38.0298
# 2 38.4128 89.1857 22.0077 -19.8715 7.9741 30.4500
# 3 42.4499 22.0077 86.7200 -12.2163 4.9550 19.4347
# 4 -15.7937 -19.8715 -12.2163 42.7142 2.5212 4.8238
# 5 3.9339 7.9741 4.9550 2.5212 42.6481 -4.3412
# 6 38.0298 30.4500 19.4347 4.8238 -4.3412 42.5773
#
#
#
# Elastic Compliance Matrix: (Units=1/GPa)
#
#
# Indices 1 2 3 4 5 6 
#
# 1 0.008330 0.000360 -0.001909 0.003630 -0.001582 -0.007399
# 2 0.000360 0.019790 0.000550 0.011747 -0.006191 -0.016688
# 3 -0.001909 0.000550 0.014462 0.004517 -0.002490 -0.006055
# 4 0.003630 0.011747 0.004517 0.033982 -0.006924 -0.018261
# 5 -0.001582 -0.006191 -0.002490 -0.006924 0.026515 0.010465
# 6 -0.007399 -0.016688 -0.006055 -0.018261 0.010465 0.047930
#
#
# Mechanical properties :
#
#
# Convention : Reuss Voigt Hill
#
# Bulk Modulus (GPa) = 24.64039 61.24095 42.94067
# Shear Modulus (GPa) = 30.02362 41.75839 35.89100
#
# Velocity S-wave (km/s) = 3.58391 4.22666 3.91848
# Velocity P-wave (km/s) = 5.25997 7.07241 6.23243
#
# Compressibility (1/GPa) = 0.04058377
#
# Stress axis : x y z
#
# Youngs Moduli (GPa) = 120.04439 50.52945 69.14741
#
# Poissons Ratio (x) = -0.01817 0.13200
# Poissons Ratio (y) = -0.04317 -0.03803
# Poissons Ratio (z) = 0.22917 -0.02779
#
# Static dielectric constant tensor:
#      x y z
#    x 1.880560 -0.202850 0.020750 
#    y -0.202850 2.155170 0.082400 
#    z 0.020750 0.082400 1.997570 
# 
# From -- ./inp_files/33163.got.cif
#   From: 2010.05.17/outbox.cif.g08.bks.cpg/sg2_17_cif.got.tgz:33163.got - 2010.06.03 11:33:40.
