data_PCOD9023925
_publ_section_title
;
Structure prediction by ZEFSAII (Michael W. Deem and Ramdas Pophale) SiO2 
 PCOD9023925
Probable space group: P -1
;
_chemical_formula_sum "Si O2"
_cell_formula_units_Z 14
_cell_length_a 7.830743
_cell_length_b 8.217733
_cell_length_c 17.600917
_cell_angle_alpha 52.604355
_cell_angle_beta 97.640851
_cell_angle_gamma 128.813987
_cell_volume 642.560871
_symmetry_space_group_name_H-M "P -1"
_symmetry_group_IT_number 2
_symmetry_cell_setting 'triclinic'
loop_
_space_group_symop_operation_xyz
x,y,z
-x,-y,-z
loop_
_atom_site_type_symbol
_atom_site_label
_atom_site_fract_x
_atom_site_fract_y
_atom_site_fract_z
Si Si1 0.901578 0.277073 0.676782
Si Si2 0.841104 0.909228 0.443588
Si Si3 0.042111 0.435402 0.937203
Si Si4 0.586261 0.852284 0.083728
Si Si5 0.670586 0.353193 0.513294
Si Si6 0.464277 0.359541 0.117837
Si Si7 0.843565 0.501473 0.758584
O O1 0.743083 0.228681 0.609498
O O2 0.903127 0.429362 0.705930
O O3 0.167385 0.500117 0.593996
O O4 0.777271 0.965549 0.787411
O O5 0.746538 0.618455 0.488801
O O6 0.610674 0.861987 0.457734
O O7 0.000000 0.000000 0.500000
O O8 0.024916 0.173861 0.324407
O O9 0.313423 0.614055 0.880126
O O10 0.938599 0.473504 0.848647
O O11 0.000000 0.500000 0.000000
O O12 0.871755 0.095127 0.030166
O O13 0.497450 0.575470 0.115727
O O14 0.444727 0.729330 0.189246
O O15 0.500000 0.000000 0.000000
O O16 0.500000 0.500000 0.000000
#
# Coordination Sequence:
#
# PCOD9023925 Si02
#       7
#     2   2   2   2   2   2   2
#     4  11  23  44  66  99 134 179 229 282 344 410
#     4  11  22  44  67 102 135 179 231 276 343 413
#     4  11  23  42  65  96 136 179 226 279 340 408
#     4  10  22  40  62  91 127 168 220 275 336 401
#     4  10  24  44  68  96 140 181 226 284 339 407
#     4  12  23  41  65  95 132 173 229 280 341 412
#     4  11  22  42  67  96 133 178 222 282 343 400
#
# _framework density 21.787818999999999
#
# number of rings (size 3 to 8) (size 9 to 14) (size 15 to 20)
#    0.000    1.143    1.429    6.429    0.000    0.571 
#    7.714    0.000    0.000    0.000    0.000    0.000 
#    0.000    0.000    0.000    0.000    0.000    0.000 
#
# Total GULP energy -78111.219000 kJ/mol
# GULP energy per Si atom -5579.372786 kJ/mol
# Density = 2.173823 g / cm^3
# Si number density = 21.787819 Si / 1000 Ang^3
#
#
#
# Elastic Constant Matrix: (Units=GPa)
#
#
# Indices 1 2 3 4 5 6 
#
# 1 34.6304 -8.5154 15.4906 8.4143 -10.6452 1.6285
# 2 -8.5154 59.1435 18.8514 -2.0734 2.5417 -8.5713
# 3 15.4906 18.8514 127.9886 -8.6355 -6.5547 8.3060
# 4 8.4143 -2.0734 -8.6355 42.8745 -9.3023 -3.2299
# 5 -10.6452 2.5417 -6.5547 -9.3023 34.6238 0.7109
# 6 1.6285 -8.5713 8.3060 -3.2299 0.7109 34.5117
#
#
#
# Elastic Compliance Matrix: (Units=1/GPa)
#
#
# Indices 1 2 3 4 5 6 
#
# 1 0.036934 0.006557 -0.005468 -0.006229 0.008156 0.000451
# 2 0.006557 0.019994 -0.004191 -0.000871 -0.000594 0.005596
# 3 -0.005468 -0.004191 0.009533 0.002849 0.001255 -0.002836
# 4 -0.006229 -0.000871 0.002849 0.026460 0.005761 0.001749
# 5 0.008156 -0.000594 0.001255 0.005761 0.033239 -0.000980
# 6 0.000451 0.005596 -0.002836 0.001749 -0.000980 0.031211
#
#
# Mechanical properties :
#
#
# Convention : Reuss Voigt Hill
#
# Bulk Modulus (GPa) = 16.59552 30.37951 23.48752
# Shear Modulus (GPa) = 27.22443 35.46441 31.34442
#
# Velocity S-wave (km/s) = 3.53870 4.03887 3.79703
# Velocity P-wave (km/s) = 4.93254 5.97692 5.47967
#
# Compressibility (1/GPa) = 0.06025723
#
# Stress axis : x y z
#
# Youngs Moduli (GPa) = 27.07538 50.01557 104.90108
#
# Poissons Ratio (x) = -0.32795 0.57357
# Poissons Ratio (y) = -0.17753 0.43962
# Poissons Ratio (z) = 0.14804 0.20961
#
# Static dielectric constant tensor:
#      x y z
#    x 1.621050 -0.027770 -0.060540 
#    y -0.027770 1.759140 -0.093000 
#    z -0.060540 -0.093000 1.678400 
# 
# From -- ./inp_files/177177.got.cif
#   From: 2010.05.17/outbox.cif.g08.bks.cpg/sg2_89_cif.got.tgz:177177.got - 2010.06.03 11:33:40.
