data_PCOD9023015
_publ_section_title
;
Structure prediction by ZEFSAII (Michael W. Deem and Ramdas Pophale) SiO2 
 PCOD9023015
Probable space group: P -1
;
_chemical_formula_sum "Si O2"
_cell_formula_units_Z 12
_cell_length_a 9.156706
_cell_length_b 5.384478
_cell_length_c 18.515110
_cell_angle_alpha 117.108283
_cell_angle_beta 133.872362
_cell_angle_gamma 85.461686
_cell_volume 544.482252
_symmetry_space_group_name_H-M "P -1"
_symmetry_group_IT_number 2
_symmetry_cell_setting 'triclinic'
loop_
_space_group_symop_operation_xyz
x,y,z
-x,-y,-z
loop_
_atom_site_type_symbol
_atom_site_label
_atom_site_fract_x
_atom_site_fract_y
_atom_site_fract_z
Si Si1 0.589284 0.961727 0.272648
Si Si2 0.100046 0.865175 0.080183
Si Si3 0.176058 0.951433 0.499638
Si Si4 0.993785 0.255704 0.362940
Si Si5 0.413511 0.556308 0.900898
Si Si6 0.150968 0.927302 0.866504
O O1 0.358225 0.969018 0.173811
O O2 0.613885 0.680894 0.202550
O O3 0.608962 0.933194 0.361619
O O4 0.794938 0.236141 0.346731
O O5 0.038093 0.006499 0.149216
O O6 0.000000 0.500000 0.000000
O O7 0.000000 0.000000 0.000000
O O8 0.113430 0.595662 0.422900
O O9 0.151710 0.123285 0.442256
O O10 0.000000 0.000000 0.500000
O O11 0.882760 0.056671 0.228711
O O12 0.194472 0.619802 0.846978
O O13 0.500000 0.500000 0.000000
O O14 0.624540 0.848235 0.990262
#
# Coordination Sequence:
#
# PCOD9023015 Si02
#       6
#     2   2   2   2   2   2
#     4  11  22  43  68  94 133 170 215 268 321 381
#     4  12  28  43  62  98 139 170 207 260 333 389
#     4  10  22  39  65  97 122 164 221 269 311 366
#     4  11  23  40  68  94 124 166 222 266 310 375
#     4  11  21  38  66  94 125 172 217 263 320 374
#     4  11  24  39  64  95 131 166 216 267 318 384
#
# _framework density 22.039286000000001
#
# number of rings (size 3 to 8) (size 9 to 14) (size 15 to 20)
#    0.000    1.000    3.333    5.000    2.333    4.000 
#    0.000    1.667    0.000    0.000    0.000    1.167 
#    0.000    0.000    0.000    0.000    0.000    0.000 
#
# Total GULP energy -66997.408555 kJ/mol
# GULP energy per Si atom -5583.117380 kJ/mol
# Density = 2.198912 g / cm^3
# Si number density = 22.039286 Si / 1000 Ang^3
#
#
#
# Elastic Constant Matrix: (Units=GPa)
#
#
# Indices 1 2 3 4 5 6 
#
# 1 77.1469 31.1241 14.5812 -4.5922 -3.7201 -20.0485
# 2 31.1241 157.0647 63.7498 -20.4457 -3.9251 -14.3907
# 3 14.5812 63.7498 120.3860 -15.5572 -11.9020 -7.5940
# 4 -4.5922 -20.4457 -15.5572 44.6435 -3.7605 -6.4395
# 5 -3.7201 -3.9251 -11.9020 -3.7605 27.9520 -5.0126
# 6 -20.0485 -14.3907 -7.5940 -6.4395 -5.0126 26.7059
#
#
#
# Elastic Compliance Matrix: (Units=1/GPa)
#
#
# Indices 1 2 3 4 5 6 
#
# 1 0.017862 -0.001892 0.000806 0.003827 0.005586 0.014590
# 2 -0.001892 0.009027 -0.003930 0.003046 0.000312 0.003119
# 3 0.000806 -0.003930 0.011484 0.003267 0.005526 0.003578
# 4 0.003827 0.003046 0.003267 0.028042 0.008578 0.013815
# 5 0.005586 0.000312 0.005526 0.008578 0.042951 0.016063
# 6 0.014590 0.003119 0.003578 0.013815 0.016063 0.057442
#
#
# Mechanical properties :
#
#
# Convention : Reuss Voigt Hill
#
# Bulk Modulus (GPa) = 35.28495 63.72310 49.50403
# Shear Modulus (GPa) = 26.84028 36.20312 31.52170
#
# Velocity S-wave (km/s) = 3.49354 4.05737 3.78597
# Velocity P-wave (km/s) = 5.68488 7.13624 6.45150
#
# Compressibility (1/GPa) = 0.02834069
#
# Stress axis : x y z
#
# Youngs Moduli (GPa) = 55.98470 110.78019 87.07593
#
# Poissons Ratio (x) = 0.20960 -0.07014
# Poissons Ratio (y) = 0.10593 0.34218
# Poissons Ratio (z) = -0.04510 0.43534
#
# Static dielectric constant tensor:
#      x y z
#    x 2.155980 0.144780 -0.205610 
#    y 0.144780 1.971820 -0.031330 
#    z -0.205610 -0.031330 2.026390 
# 
# From -- ./inp_files/59387.got.cif
#   From: 2010.05.17/outbox.cif.g08.bks.cpg/sg2_30_cif.got.tgz:59387.got - 2010.06.03 11:33:40.
