data_PCOD9023254
_publ_section_title
;
Structure prediction by ZEFSAII (Michael W. Deem and Ramdas Pophale) SiO2 
 PCOD9023254
Probable space group: P -1
;
_chemical_formula_sum "Si O2"
_cell_formula_units_Z 14
_cell_length_a 8.964149
_cell_length_b 17.284226
_cell_length_c 16.087806
_cell_angle_alpha 146.700174
_cell_angle_beta 30.001866
_cell_angle_gamma 149.964170
_cell_volume 585.793580
_symmetry_space_group_name_H-M "P -1"
_symmetry_group_IT_number 2
_symmetry_cell_setting 'triclinic'
loop_
_space_group_symop_operation_xyz
x,y,z
-x,-y,-z
loop_
_atom_site_type_symbol
_atom_site_label
_atom_site_fract_x
_atom_site_fract_y
_atom_site_fract_z
Si Si1 0.065895 0.514154 0.578625
Si Si2 0.296644 0.013178 0.689217
Si Si3 0.460651 0.848221 0.776046
Si Si4 0.504914 0.178692 0.072221
Si Si5 0.778694 0.531633 0.255157
Si Si6 0.379855 0.628900 0.187004
Si Si7 0.925863 0.115629 0.584346
O O1 0.179929 0.697112 0.720223
O O2 0.391486 0.494065 0.427200
O O3 0.000000 0.500000 0.500000
O O4 0.733416 0.382821 0.673294
O O5 0.329836 0.189110 0.816922
O O6 0.531288 0.029899 0.669547
O O7 0.500000 0.000000 0.500000
O O8 0.900501 0.878667 0.775442
O O9 0.371045 0.810549 0.882418
O O10 0.823618 0.854884 0.589514
O O11 0.515540 0.026545 0.890172
O O12 0.719091 0.361154 0.094996
O O13 0.038767 0.578487 0.250086
O O14 0.944419 0.703488 0.280014
O O15 0.500000 0.500000 0.000000
O O16 0.000000 0.000000 0.500000
#
# Coordination Sequence:
#
# PCOD9023254 Si02
#       7
#     2   2   2   2   2   2   2
#     4  11  23  43  67  98 136 184 229 277 340 411
#     4  11  22  36  64 100 124 171 222 278 319 397
#     4  10  22  39  67  93 134 176 211 280 335 392
#     4  11  21  40  67 100 128 166 232 272 329 394
#     4  10  23  42  70  95 130 186 226 272 330 420
#     4  11  23  41  68 100 135 171 232 282 331 397
#     4  10  23  43  62  92 136 173 220 276 334 397
#
# _framework density 23.899204999999998
#
# number of rings (size 3 to 8) (size 9 to 14) (size 15 to 20)
#    0.000    1.429    2.857    2.143    4.000    4.571 
#    0.000    7.143    0.000    0.000    0.000    0.000 
#    0.000    0.000    0.000    0.000    0.000    0.000 
#
# Total GULP energy -78319.870464 kJ/mol
# GULP energy per Si atom -5594.276462 kJ/mol
# Density = 2.384481 g / cm^3
# Si number density = 23.899205 Si / 1000 Ang^3
#
#
#
# Elastic Constant Matrix: (Units=GPa)
#
#
# Indices 1 2 3 4 5 6 
#
# 1 83.4241 62.7973 42.5961 5.2953 -13.3641 -3.5491
# 2 62.7973 124.7902 41.0307 46.0991 -10.9992 5.6123
# 3 42.5961 41.0307 119.3283 30.9655 -8.7288 -2.5582
# 4 5.2953 46.0991 30.9655 59.0595 -3.0233 -9.2082
# 5 -13.3641 -10.9992 -8.7288 -3.0233 34.5104 6.0281
# 6 -3.5491 5.6123 -2.5582 -9.2082 6.0281 28.5836
#
#
#
# Elastic Compliance Matrix: (Units=1/GPa)
#
#
# Indices 1 2 3 4 5 6 
#
# 1 0.032456 -0.021367 -0.009137 0.020813 0.002913 0.013498
# 2 -0.021367 0.027015 0.004324 -0.023775 0.002084 -0.015669
# 3 -0.009137 0.004324 0.012678 -0.009812 0.000921 -0.004204
# 4 0.020813 -0.023775 -0.009812 0.041828 -0.001871 0.020244
# 5 0.002913 0.002084 0.000921 -0.001871 0.032121 -0.007342
# 6 0.013498 -0.015669 -0.004204 0.020244 -0.007342 0.047431
#
#
# Mechanical properties :
#
#
# Convention : Reuss Voigt Hill
#
# Bulk Modulus (GPa) = 50.53141 68.93233 59.73187
# Shear Modulus (GPa) = 19.80303 36.50526 28.15414
#
# Velocity S-wave (km/s) = 2.88167 3.91252 3.43598
# Velocity P-wave (km/s) = 5.67992 7.02254 6.38661
#
# Compressibility (1/GPa) = 0.01978967
#
# Stress axis : x y z
#
# Youngs Moduli (GPa) = 30.81066 37.01628 78.87434
#
# Poissons Ratio (x) = 0.79094 0.72068
# Poissons Ratio (y) = 0.65834 -0.34107
# Poissons Ratio (z) = 0.28152 -0.16007
#
# Static dielectric constant tensor:
#      x y z
#    x 1.886540 -0.019110 0.019450 
#    y -0.019110 1.931210 0.024460 
#    z 0.019450 0.024460 1.932280 
# 
# From -- ./inp_files/216703.got.cif
#   From: 2010.05.17/outbox.cif.g08.bks.cpg/sg2_109_cif.got.tgz:216703.got - 2010.06.03 11:33:40.
