data_PCOD9023506
_publ_section_title
;
Structure prediction by ZEFSAII (Michael W. Deem and Ramdas Pophale) SiO2 
 PCOD9023506
Probable space group: P -1
;
_chemical_formula_sum "Si O2"
_cell_formula_units_Z 16
_cell_length_a 25.176487
_cell_length_b 12.329439
_cell_length_c 5.560813
_cell_angle_alpha 48.692728
_cell_angle_beta 58.409228
_cell_angle_gamma 30.090325
_cell_volume 644.946250
_symmetry_space_group_name_H-M "P -1"
_symmetry_group_IT_number 2
_symmetry_cell_setting 'triclinic'
loop_
_space_group_symop_operation_xyz
x,y,z
-x,-y,-z
loop_
_atom_site_type_symbol
_atom_site_label
_atom_site_fract_x
_atom_site_fract_y
_atom_site_fract_z
Si Si1 0.720873 0.854748 0.130581
Si Si2 0.538173 0.251783 0.594658
Si Si3 0.471064 0.920144 0.522210
Si Si4 0.920577 0.024293 0.751364
Si Si5 0.644682 0.433355 0.122881
Si Si6 0.127052 0.499134 0.092204
Si Si7 0.816539 0.300931 0.108029
Si Si8 0.265593 0.982391 0.744024
O O1 0.755608 0.940103 0.042818
O O2 0.653492 0.882123 0.430332
O O3 0.818540 0.588508 0.170227
O O4 0.628884 0.057665 0.860524
O O5 0.516117 0.134091 0.710072
O O6 0.427213 0.513126 0.584942
O O7 0.606885 0.218223 0.296279
O O8 0.500000 0.000000 0.500000
O O9 0.557393 0.643220 0.826976
O O10 0.843209 0.163254 0.497116
O O11 0.000000 0.000000 0.500000
O O12 0.999698 0.739421 0.018024
O O13 0.880721 0.144791 0.936115
O O14 0.699168 0.468145 0.066742
O O15 0.735350 0.168516 0.163845
O O16 0.184247 0.247894 0.423311
O O17 0.162032 0.573068 0.055854
#
# Coordination Sequence:
#
# PCOD9023506 Si02
#       8
#     2   2   2   2   2   2   2   2
#     4   9  21  36  61  91 117 166 224 256 318 395
#     4   9  21  40  60  85 126 174 219 258 321 388
#     4  10  23  35  57  89 132 164 210 269 330 381
#     4  10  23  45  70 101 131 167 220 275 335 398
#     4  11  25  39  62  90 135 172 213 278 324 387
#     4  10  22  39  70  89 124 166 215 274 324 397
#     4  11  26  42  70 104 130 168 222 275 339 385
#     4  10  22  41  61  93 125 174 225 256 327 394
#
# _framework density 24.808268000000002
#
# number of rings (size 3 to 8) (size 9 to 14) (size 15 to 20)
#    0.000    2.000    0.000    1.875   14.000    7.500 
#    0.000    1.250    0.000    0.000    0.000    0.000 
#    0.000    0.000    0.000    0.000    0.000    0.000 
#
# Total GULP energy -89189.897576 kJ/mol
# GULP energy per Si atom -5574.368598 kJ/mol
# Density = 2.475180 g / cm^3
# Si number density = 24.808268 Si / 1000 Ang^3
#
#
#
# Elastic Constant Matrix: (Units=GPa)
#
#
# Indices 1 2 3 4 5 6 
#
# 1 70.0331 -1.8102 15.1887 3.4777 8.2109 34.6966
# 2 -1.8102 133.2858 31.7308 13.6394 6.0532 35.8134
# 3 15.1887 31.7308 73.9196 -17.0693 22.7645 17.2944
# 4 3.4777 13.6394 -17.0693 42.4385 5.7623 3.6909
# 5 8.2109 6.0532 22.7645 5.7623 34.0202 -1.1208
# 6 34.6966 35.8134 17.2944 3.6909 -1.1208 44.4032
#
#
#
# Elastic Compliance Matrix: (Units=1/GPa)
#
#
# Indices 1 2 3 4 5 6 
#
# 1 0.032618 0.010273 -0.000566 -0.001903 -0.010108 -0.033650
# 2 0.010273 0.014070 -0.005233 -0.005859 -0.001045 -0.016876
# 3 -0.000566 -0.005233 0.027987 0.016506 -0.020724 -0.008133
# 4 -0.001903 -0.005859 0.016506 0.034653 -0.015528 -0.003489
# 5 -0.010108 -0.001045 -0.020724 -0.015528 0.049154 0.019344
# 6 -0.033650 -0.016876 -0.008133 -0.003489 0.019344 0.066373
#
#
# Mechanical properties :
#
#
# Convention : Reuss Voigt Hill
#
# Bulk Modulus (GPa) = 11.95832 40.82856 26.39344
# Shear Modulus (GPa) = 20.51011 39.64766 30.07889
#
# Velocity S-wave (km/s) = 2.87844 4.00204 3.48581
# Velocity P-wave (km/s) = 3.98472 6.15211 5.18297
#
# Compressibility (1/GPa) = 0.08362379
#
# Stress axis : x y z
#
# Youngs Moduli (GPa) = 30.65774 71.07474 35.73026
#
# Poissons Ratio (x) = -0.73016 0.02022
# Poissons Ratio (y) = -0.31495 0.18698
# Poissons Ratio (z) = 0.01735 0.37195
#
# Static dielectric constant tensor:
#      x y z
#    x 2.040180 0.051170 -0.065440 
#    y 0.051170 2.035760 0.072470 
#    z -0.065440 0.072470 2.184910 
# 
# From -- ./inp_files/80170.got.cif
#   From: 2010.05.17/outbox.cif.g08.bks.cpg/sg2_41_cif.got.tgz:80170.got - 2010.06.03 11:33:40.
