data_PCOD9023324
_publ_section_title
;
Structure prediction by ZEFSAII (Michael W. Deem and Ramdas Pophale) SiO2 
 PCOD9023324
Probable space group: P -1
;
_chemical_formula_sum "Si O2"
_cell_formula_units_Z 12
_cell_length_a 11.071166
_cell_length_b 5.433735
_cell_length_c 15.027982
_cell_angle_alpha 68.193043
_cell_angle_beta 145.476017
_cell_angle_gamma 120.829192
_cell_volume 437.574351
_symmetry_space_group_name_H-M "P -1"
_symmetry_group_IT_number 2
_symmetry_cell_setting 'triclinic'
loop_
_space_group_symop_operation_xyz
x,y,z
-x,-y,-z
loop_
_atom_site_type_symbol
_atom_site_label
_atom_site_fract_x
_atom_site_fract_y
_atom_site_fract_z
Si Si1 0.746384 0.265063 0.907119
Si Si2 0.339301 0.013294 0.273684
Si Si3 0.974396 0.430873 0.202216
Si Si4 0.736725 0.868714 0.321446
Si Si5 0.704966 0.477395 0.185300
Si Si6 0.699556 0.815277 0.586684
O O1 0.704340 0.978371 0.859321
O O2 0.499809 0.304331 0.739879
O O3 0.775835 0.271504 0.031332
O O4 0.000000 0.500000 0.000000
O O5 0.595698 0.036050 0.453502
O O6 0.171776 0.684518 0.236380
O O7 0.257865 0.157900 0.284814
O O8 0.916266 0.584583 0.229610
O O9 0.081447 0.202994 0.326643
O O10 0.729468 0.650279 0.267488
O O11 0.684619 0.151208 0.229444
O O12 0.000000 0.000000 0.500000
O O13 0.500000 0.500000 0.000000
O O14 0.500000 0.500000 0.500000
#
# Coordination Sequence:
#
# PCOD9023324 Si02
#       6
#     2   2   2   2   2   2
#     4  10  23  47  69 109 150 197 254 320 391 467
#     4   9  20  38  64  98 143 188 241 313 385 457
#     4  10  22  39  68 100 138 194 255 305 382 458
#     4  12  29  52  80 120 157 208 266 332 400 467
#     4  12  27  51  81 111 158 212 269 325 392 483
#     4   9  19  36  59  97 134 187 240 301 379 451
#
# _framework density 27.423912000000001
#
# number of rings (size 3 to 8) (size 9 to 14) (size 15 to 20)
#    0.000    1.667    1.667    1.000    4.667    3.333 
#    9.000    0.000    0.000    0.000    0.000    0.000 
#    0.000    0.000    0.000    0.000    0.000    0.000 
#
# Total GULP energy -66989.084894 kJ/mol
# GULP energy per Si atom -5582.423741 kJ/mol
# Density = 2.736149 g / cm^3
# Si number density = 27.423912 Si / 1000 Ang^3
#
#
#
# Elastic Constant Matrix: (Units=GPa)
#
#
# Indices 1 2 3 4 5 6 
#
# 1 160.9746 45.5461 64.9183 17.5980 3.6410 -48.4932
# 2 45.5461 106.5911 54.2489 3.3660 -7.7700 -31.3232
# 3 64.9183 54.2489 168.7251 19.9068 18.0505 -19.3415
# 4 17.5980 3.3660 19.9068 46.4658 -15.9905 -6.0767
# 5 3.6410 -7.7700 18.0505 -15.9905 52.1905 11.5044
# 6 -48.4932 -31.3232 -19.3415 -6.0767 11.5044 65.6112
#
#
#
# Elastic Compliance Matrix: (Units=1/GPa)
#
#
# Indices 1 2 3 4 5 6 
#
# 1 0.009550 -0.001411 -0.001969 -0.002695 -0.002335 0.005964
# 2 -0.001411 0.013319 -0.004046 0.003027 0.003576 0.003776
# 3 -0.001969 -0.004046 0.009015 -0.004552 -0.004914 -0.000290
# 4 -0.002695 0.003027 -0.004552 0.027909 0.011037 -0.001239
# 5 -0.002335 0.003576 -0.004914 0.011037 0.026042 -0.005011
# 6 0.005964 0.003776 -0.000290 -0.001239 -0.005011 0.022131
#
#
# Mechanical properties :
#
#
# Convention : Reuss Voigt Hill
#
# Bulk Modulus (GPa) = 58.71821 85.07972 71.89897
# Shear Modulus (GPa) = 38.91244 50.95867 44.93555
#
# Velocity S-wave (km/s) = 3.77095 4.31534 4.05230
# Velocity P-wave (km/s) = 6.35750 7.47802 6.94041
#
# Compressibility (1/GPa) = 0.01703049
#
# Stress axis : x y z
#
# Youngs Moduli (GPa) = 104.71740 75.08324 110.92632
#
# Poissons Ratio (x) = 0.10593 0.21844
# Poissons Ratio (y) = 0.14774 0.44883
# Poissons Ratio (z) = 0.20621 0.30380
#
# Static dielectric constant tensor:
#      x y z
#    x 2.264340 0.130890 0.044970 
#    y 0.130890 2.216280 0.016230 
#    z 0.044970 0.016230 2.255550 
# 
# From -- ./inp_files/564139.got.cif
#   From: 2010.05.17/outbox.cif.g08.bks.cpg/sg2_283_cif.got.tgz:564139.got - 2010.06.03 11:33:40.
