data_PCOD9023304
_publ_section_title
;
Structure prediction by ZEFSAII (Michael W. Deem and Ramdas Pophale) SiO2 
 PCOD9023304
Probable space group: P -1
;
_chemical_formula_sum "Si O2"
_cell_formula_units_Z 14
_cell_length_a 20.580927
_cell_length_b 11.789055
_cell_length_c 11.604307
_cell_angle_alpha 48.618659
_cell_angle_beta 38.274394
_cell_angle_gamma 21.637047
_cell_volume 613.315844
_symmetry_space_group_name_H-M "P -1"
_symmetry_group_IT_number 2
_symmetry_cell_setting 'triclinic'
loop_
_space_group_symop_operation_xyz
x,y,z
-x,-y,-z
loop_
_atom_site_type_symbol
_atom_site_label
_atom_site_fract_x
_atom_site_fract_y
_atom_site_fract_z
Si Si1 0.028060 0.922339 0.882172
Si Si2 0.041808 0.382990 0.684871
Si Si3 0.477529 0.157006 0.278807
Si Si4 0.721715 0.544874 0.418040
Si Si5 0.119035 0.163987 0.968636
Si Si6 0.853967 0.452993 0.701582
Si Si7 0.481408 0.370242 0.538452
O O1 0.995105 0.120162 0.728092
O O2 0.279473 0.539016 0.771932
O O3 0.843586 0.038287 0.019068
O O4 0.000000 0.000000 0.000000
O O5 0.031635 0.380086 0.839047
O O6 0.043545 0.550697 0.523215
O O7 0.858419 0.520933 0.776657
O O8 0.274824 0.012602 0.560071
O O9 0.282382 0.453607 0.440270
O O10 0.388826 0.276122 0.193446
O O11 0.541823 0.902402 0.390024
O O12 0.683175 0.000986 0.133095
O O13 0.629634 0.506118 0.517657
O O14 0.945269 0.325749 0.197373
O O15 0.500000 0.500000 0.500000
#
# Coordination Sequence:
#
# PCOD9023304 Si02
#       7
#     2   2   2   2   2   2   2
#     4  11  23  41  63  97 133 171 218 271 324 394
#     4  11  21  42  69  96 129 173 222 270 320 391
#     4  11  21  41  65  94 139 170 216 268 330 386
#     4  10  22  39  67  98 127 180 219 261 323 402
#     4  11  22  41  71  93 128 178 227 258 324 398
#     4  11  23  39  66  99 133 170 213 278 332 371
#     4  11  19  38  68  93 123 177 218 256 326 390
#
# _framework density 22.826737999999999
#
# number of rings (size 3 to 8) (size 9 to 14) (size 15 to 20)
#    0.000    1.143    5.714    1.286    0.000    0.571 
#    0.000    8.571    0.000    0.000    0.000    0.000 
#    0.000    0.000    0.000    0.000    0.000    0.000 
#
# Total GULP energy -78059.754708 kJ/mol
# GULP energy per Si atom -5575.696765 kJ/mol
# Density = 2.277478 g / cm^3
# Si number density = 22.826738 Si / 1000 Ang^3
#
#
#
# Elastic Constant Matrix: (Units=GPa)
#
#
# Indices 1 2 3 4 5 6 
#
# 1 191.9440 27.2454 40.2770 9.9197 -36.7749 -19.2258
# 2 27.2454 48.6582 17.3214 -14.7109 -5.7103 -2.2762
# 3 40.2770 17.3214 79.6581 -6.1364 -14.0655 -10.7706
# 4 9.9197 -14.7109 -6.1364 25.8747 13.1841 -8.2722
# 5 -36.7749 -5.7103 -14.0655 13.1841 32.9774 0.0793
# 6 -19.2258 -2.2762 -10.7706 -8.2722 0.0793 40.9835
#
#
#
# Elastic Compliance Matrix: (Units=1/GPa)
#
#
# Indices 1 2 3 4 5 6 
#
# 1 0.011429 -0.009366 -0.001997 -0.019193 0.017944 0.000408
# 2 -0.009366 0.035025 -0.003200 0.033668 -0.019214 0.003543
# 3 -0.001997 -0.003200 0.015396 0.002198 0.002899 0.003369
# 4 -0.019193 0.033668 0.002198 0.097135 -0.053501 0.013153
# 5 0.017944 -0.019214 0.002899 -0.053501 0.069639 -0.002821
# 6 0.000408 0.003543 0.003369 0.013153 -0.002821 0.028334
#
#
# Mechanical properties :
#
#
# Convention : Reuss Voigt Hill
#
# Bulk Modulus (GPa) = 30.55972 54.43866 42.49919
# Shear Modulus (GPa) = 16.83543 35.66158 26.24850
#
# Velocity S-wave (km/s) = 2.71870 3.95685 3.39470
# Velocity P-wave (km/s) = 4.82409 6.69148 5.83300
#
# Compressibility (1/GPa) = 0.03272281
#
# Stress axis : x y z
#
# Youngs Moduli (GPa) = 87.49653 28.55100 64.95181
#
# Poissons Ratio (x) = 0.26742 0.12972
# Poissons Ratio (y) = 0.81952 0.20786
# Poissons Ratio (z) = 0.17474 0.09137
#
# Static dielectric constant tensor:
#      x y z
#    x 1.946170 0.006700 -0.015150 
#    y 0.006700 1.893520 0.039210 
#    z -0.015150 0.039210 1.892950 
# 
# From -- ./inp_files/471158.got.cif
#   From: 2010.05.17/outbox.cif.g08.bks.cpg/sg2_236_cif.got.tgz:471158.got - 2010.06.03 11:33:40.
