data_PCOD9023247
_publ_section_title
;
Structure prediction by ZEFSAII (Michael W. Deem and Ramdas Pophale) SiO2 
 PCOD9023247
Probable space group: P -1
;
_chemical_formula_sum "Si O2"
_cell_formula_units_Z 14
_cell_length_a 18.429613
_cell_length_b 7.373971
_cell_length_c 11.485125
_cell_angle_alpha 106.419185
_cell_angle_beta 39.650611
_cell_angle_gamma 138.396153
_cell_volume 477.570633
_symmetry_space_group_name_H-M "P -1"
_symmetry_group_IT_number 2
_symmetry_cell_setting 'triclinic'
loop_
_space_group_symop_operation_xyz
x,y,z
-x,-y,-z
loop_
_atom_site_type_symbol
_atom_site_label
_atom_site_fract_x
_atom_site_fract_y
_atom_site_fract_z
Si Si1 0.257478 0.059450 0.758071
Si Si2 0.079622 0.154244 0.081318
Si Si3 0.512003 0.216527 0.870398
Si Si4 0.851706 0.524690 0.652096
Si Si5 0.449146 0.982675 0.427571
Si Si6 0.188838 0.912349 0.494250
Si Si7 0.688101 0.759586 0.026121
O O1 0.500000 0.500000 0.500000
O O2 0.062508 0.940887 0.983397
O O3 0.249235 0.852467 0.660856
O O4 0.289924 0.068071 0.857991
O O5 0.319547 0.589752 0.827858
O O6 0.117798 0.110830 0.154350
O O7 0.904666 0.073208 0.293496
O O8 0.728648 0.525545 0.745071
O O9 0.374412 0.202969 0.999595
O O10 0.596065 0.246819 0.650210
O O11 0.329319 0.822368 0.093090
O O12 0.872655 0.396237 0.500001
O O13 0.083962 0.850788 0.495058
O O14 0.500000 0.000000 0.500000
O O15 0.456457 0.307694 0.243092
#
# Coordination Sequence:
#
# PCOD9023247 Si02
#       7
#     2   2   2   2   2   2   2
#     4   8  18  34  61  92 120 163 202 247 314 369
#     4   9  20  40  64  92 130 162 204 258 312 373
#     4  11  22  41  67  91 128 168 210 254 321 367
#     4  10  25  42  63  92 124 170 211 263 310 370
#     4  11  17  35  69  92 123 171 205 251 309 381
#     4  11  22  44  65  91 123 168 212 261 314 364
#     4  10  22  39  67  93 125 164 209 256 314 377
#
# _framework density 29.315035000000002
#
# number of rings (size 3 to 8) (size 9 to 14) (size 15 to 20)
#    0.857    1.143    2.857    0.857    2.000    1.143 
#    5.143    2.857    0.000    4.286    0.000    0.000 
#    0.000    0.000    0.000    0.000    0.000    0.000 
#
# Total GULP energy -78330.525168 kJ/mol
# GULP energy per Si atom -5595.037512 kJ/mol
# Density = 2.924831 g / cm^3
# Si number density = 29.315035 Si / 1000 Ang^3
#
#
#
# Elastic Constant Matrix: (Units=GPa)
#
#
# Indices 1 2 3 4 5 6 
#
# 1 193.5014 13.2399 52.4829 6.9218 -1.8018 -29.7339
# 2 13.2399 63.3932 38.6759 20.5210 -4.4547 8.4270
# 3 52.4829 38.6759 119.9948 39.8542 -20.2452 2.3503
# 4 6.9218 20.5210 39.8542 66.4615 -4.1325 -3.5898
# 5 -1.8018 -4.4547 -20.2452 -4.1325 54.7359 17.4110
# 6 -29.7339 8.4270 2.3503 -3.5898 17.4110 53.6264
#
#
#
# Elastic Compliance Matrix: (Units=1/GPa)
#
#
# Indices 1 2 3 4 5 6 
#
# 1 0.007039 -0.000468 -0.004186 0.002026 -0.002864 0.005225
# 2 -0.000468 0.020650 -0.005127 -0.003411 0.000699 -0.003735
# 3 -0.004186 -0.005127 0.015248 -0.006999 0.006022 -0.004608
# 4 0.002026 -0.003411 -0.006999 0.020148 -0.002602 0.004159
# 5 -0.002864 0.000699 0.006022 -0.002602 0.023355 -0.009719
# 6 0.005225 -0.003735 -0.004608 0.004159 -0.009719 0.025768
#
#
# Mechanical properties :
#
#
# Convention : Reuss Voigt Hill
#
# Bulk Modulus (GPa) = 42.78105 65.07632 53.92869
# Shear Modulus (GPa) = 35.82628 53.13080 44.47854
#
# Velocity S-wave (km/s) = 3.49967 4.26186 3.89943
# Velocity P-wave (km/s) = 5.56376 6.81653 6.22176
#
# Compressibility (1/GPa) = 0.02337483
#
# Stress axis : x y z
#
# Youngs Moduli (GPa) = 142.06104 48.42583 65.58163
#
# Poissons Ratio (x) = 0.02265 0.27456
# Poissons Ratio (y) = 0.06644 0.33625
# Poissons Ratio (z) = 0.59473 0.24829
#
# Static dielectric constant tensor:
#      x y z
#    x 2.328350 -0.039210 0.109470 
#    y -0.039210 2.301520 0.056220 
#    z 0.109470 0.056220 2.287480 
# 
# From -- ./inp_files/469437.got.cif
#   From: 2010.05.17/outbox.cif.g08.bks.cpg/sg2_235_cif.got.tgz:469437.got - 2010.06.03 11:33:40.
