data_PCOD9023185
_publ_section_title
;
Structure prediction by ZEFSAII (Michael W. Deem and Ramdas Pophale) SiO2 
 PCOD9023185
Probable space group: P -1
;
_chemical_formula_sum "Si O2"
_cell_formula_units_Z 16
_cell_length_a 6.755397
_cell_length_b 11.104438
_cell_length_c 12.191741
_cell_angle_alpha 94.143628
_cell_angle_beta 61.815520
_cell_angle_gamma 110.365574
_cell_volume 751.024049
_symmetry_space_group_name_H-M "P -1"
_symmetry_group_IT_number 2
_symmetry_cell_setting 'triclinic'
loop_
_space_group_symop_operation_xyz
x,y,z
-x,-y,-z
loop_
_atom_site_type_symbol
_atom_site_label
_atom_site_fract_x
_atom_site_fract_y
_atom_site_fract_z
Si Si1 0.702886 0.726790 0.301459
Si Si2 0.885290 0.850143 0.050862
Si Si3 0.960464 0.538158 0.205761
Si Si4 0.727000 0.150757 0.352020
Si Si5 0.773087 0.280191 0.112251
Si Si6 0.480078 0.641967 0.007727
Si Si7 0.831228 0.943101 0.436570
Si Si8 0.185483 0.598891 0.537388
O O1 0.724545 0.823063 0.200975
O O2 0.805249 0.623147 0.219035
O O3 0.857493 0.816928 0.365145
O O4 0.442346 0.651799 0.414481
O O5 0.712413 0.755356 0.999786
O O6 0.103710 0.796582 0.001087
O O7 0.000000 0.000000 0.000000
O O8 0.939091 0.422091 0.120668
O O9 0.837525 0.477017 0.347821
O O10 0.241554 0.623858 0.141762
O O11 0.721560 0.196479 0.231825
O O12 0.446633 0.099015 0.455973
O O13 0.861734 0.273797 0.402370
O O14 0.850552 0.048564 0.343847
O O15 0.573533 0.312669 0.095793
O O16 0.500000 0.500000 0.000000
O O17 0.000000 0.000000 0.500000
O O18 0.000000 0.500000 0.500000
#
# Coordination Sequence:
#
# PCOD9023185 Si02
#       8
#     2   2   2   2   2   2   2   2
#     4  11  23  43  66 100 140 176 225 290 343 410
#     4  12  26  44  68 101 144 182 231 287 347 418
#     4  11  22  43  68 100 136 175 231 292 342 412
#     4   9  22  42  63  94 132 173 222 284 331 413
#     4  11  23  44  66  99 140 176 231 286 346 409
#     4  12  24  44  74  99 136 192 234 284 356 414
#     4  10  22  43  68  92 130 179 226 275 348 407
#     4  10  22  39  66  98 131 174 224 283 344 405
#
# _framework density 21.304243
#
# number of rings (size 3 to 8) (size 9 to 14) (size 15 to 20)
#    0.000    1.250    2.500    3.000    1.750    2.500 
#    4.500    0.000    0.000    0.000    0.000    0.000 
#    0.000    0.000    0.000    0.000    0.000    0.000 
#
# Total GULP energy -89243.857545 kJ/mol
# GULP energy per Si atom -5577.741097 kJ/mol
# Density = 2.125575 g / cm^3
# Si number density = 21.304243 Si / 1000 Ang^3
#
#
#
# Elastic Constant Matrix: (Units=GPa)
#
#
# Indices 1 2 3 4 5 6 
#
# 1 70.2000 48.5387 14.4517 -4.0070 20.3845 3.7220
# 2 48.5387 137.2198 36.8853 -10.6063 13.2642 5.5056
# 3 14.4517 36.8853 102.4300 -26.3556 9.4733 -9.2105
# 4 -4.0070 -10.6063 -26.3556 37.0898 0.6318 5.2591
# 5 20.3845 13.2642 9.4733 0.6318 31.3172 5.6144
# 6 3.7220 5.5056 -9.2105 5.2591 5.6144 38.9237
#
#
#
# Elastic Compliance Matrix: (Units=1/GPa)
#
#
# Indices 1 2 3 4 5 6 
#
# 1 0.022375 -0.006902 0.000781 0.001117 -0.012007 0.000602
# 2 -0.006902 0.010511 -0.002993 0.000362 0.001255 -0.001765
# 3 0.000781 -0.002993 0.013564 0.008512 -0.004052 0.002993
# 4 0.001117 0.000362 0.008512 0.033602 -0.003749 -0.002143
# 5 -0.012007 0.001255 -0.004052 -0.003749 0.041497 -0.005467
# 6 0.000602 -0.001765 0.002993 -0.002143 -0.005467 0.027670
#
#
# Mechanical properties :
#
#
# Convention : Reuss Voigt Hill
#
# Bulk Modulus (GPa) = 35.43262 56.62237 46.02749
# Shear Modulus (GPa) = 28.27196 35.46441 31.86819
#
# Velocity S-wave (km/s) = 3.64683 4.08446 3.87183
# Velocity P-wave (km/s) = 5.86518 6.99138 6.45290
#
# Compressibility (1/GPa) = 0.02822258
#
# Stress axis : x y z
#
# Youngs Moduli (GPa) = 44.69308 95.13964 73.72289
#
# Poissons Ratio (x) = 0.65662 -0.05755
# Poissons Ratio (y) = 0.30845 0.22064
# Poissons Ratio (z) = -0.03489 0.28473
#
# Static dielectric constant tensor:
#      x y z
#    x 1.712250 0.019920 -0.062010 
#    y 0.019920 1.755200 0.044760 
#    z -0.062010 0.044760 1.736270 
# 
# From -- ./inp_files/364466.got.cif
#   From: 2010.05.17/outbox.cif.g08.bks.cpg/sg2_183_cif.got.tgz:364466.got - 2010.06.03 11:33:40.
