data_PCOD9023466
_publ_section_title
;
Structure prediction by ZEFSAII (Michael W. Deem and Ramdas Pophale) SiO2 
 PCOD9023466
Probable space group: P -1
;
_chemical_formula_sum "Si O2"
_cell_formula_units_Z 14
_cell_length_a 12.677355
_cell_length_b 4.967114
_cell_length_c 13.823585
_cell_angle_alpha 97.179885
_cell_angle_beta 43.560878
_cell_angle_gamma 84.609379
_cell_volume 573.076329
_symmetry_space_group_name_H-M "P -1"
_symmetry_group_IT_number 2
_symmetry_cell_setting 'triclinic'
loop_
_space_group_symop_operation_xyz
x,y,z
-x,-y,-z
loop_
_atom_site_type_symbol
_atom_site_label
_atom_site_fract_x
_atom_site_fract_y
_atom_site_fract_z
Si Si1 0.352630 0.777229 0.097151
Si Si2 0.201162 0.312418 0.116383
Si Si3 0.451627 0.293805 0.665076
Si Si4 0.002650 0.273043 0.070158
Si Si5 0.308937 0.823650 0.681581
Si Si6 0.086008 0.585328 0.540551
Si Si7 0.294384 0.981713 0.364389
O O1 0.231349 0.617386 0.124183
O O2 0.308956 0.914421 0.237792
O O3 0.500000 0.500000 0.000000
O O4 0.656697 0.953904 0.953517
O O5 0.149542 0.262927 0.041206
O O6 0.049156 0.331051 0.285988
O O7 0.380102 0.626267 0.717356
O O8 0.581830 0.231812 0.488964
O O9 0.543446 0.174726 0.695881
O O10 0.318768 0.133188 0.719090
O O11 0.848021 0.278058 0.239621
O O12 0.000000 0.500000 0.000000
O O13 0.000000 0.000000 0.000000
O O14 0.157606 0.844497 0.485226
O O15 0.000000 0.500000 0.500000
O O16 0.765363 0.689367 0.554214
#
# Coordination Sequence:
#
# PCOD9023466 Si02
#       7
#     2   2   2   2   2   2   2
#     4  12  26  44  66  97 141 179 223 271 339 423
#     4  12  26  46  70  99 134 180 226 292 342 395
#     4  10  22  39  69  96 134 172 217 283 347 398
#     4  12  27  46  70  99 135 185 239 283 339 413
#     4  10  22  43  63  97 131 171 226 284 338 394
#     4  12  22  41  70  99 138 170 223 284 340 407
#     4  12  23  40  66 105 134 178 221 272 349 417
#
# _framework density 24.429552999999999
#
# number of rings (size 3 to 8) (size 9 to 14) (size 15 to 20)
#    0.000    0.571    2.857    5.143    0.000    6.857 
#    0.000    0.000    0.000    0.000    0.000    0.000 
#    0.000    0.000    0.000    0.000    0.000    0.000 
#
# Total GULP energy -78310.733980 kJ/mol
# GULP energy per Si atom -5593.623856 kJ/mol
# Density = 2.437395 g / cm^3
# Si number density = 24.429553 Si / 1000 Ang^3
#
#
#
# Elastic Constant Matrix: (Units=GPa)
#
#
# Indices 1 2 3 4 5 6 
#
# 1 107.2533 21.4727 5.7599 -4.4087 18.2601 -5.2179
# 2 21.4727 146.7983 28.2107 -7.7363 11.4879 4.9883
# 3 5.7599 28.2107 58.5703 5.5356 0.1568 10.1379
# 4 -4.4087 -7.7363 5.5356 35.0800 2.8872 -12.2862
# 5 18.2601 11.4879 0.1568 2.8872 37.9560 -7.7936
# 6 -5.2179 4.9883 10.1379 -12.2862 -7.7936 38.5880
#
#
#
# Elastic Compliance Matrix: (Units=1/GPa)
#
#
# Indices 1 2 3 4 5 6 
#
# 1 0.010520 -0.000908 -0.001073 0.002231 -0.004623 0.001598
# 2 -0.000908 0.008016 -0.004061 0.002574 -0.002106 0.000302
# 3 -0.001073 -0.004061 0.021037 -0.006934 0.000705 -0.007212
# 4 0.002231 0.002574 -0.006934 0.035001 -0.001909 0.012549
# 5 -0.004623 -0.002106 0.000705 -0.001909 0.030375 0.004989
# 6 0.001598 0.000302 -0.007212 0.012549 0.004989 0.032990
#
#
# Mechanical properties :
#
#
# Convention : Reuss Voigt Hill
#
# Bulk Modulus (GPa) = 36.37792 47.05650 41.71721
# Shear Modulus (GPa) = 31.41032 39.47004 35.44018
#
# Velocity S-wave (km/s) = 3.58963 4.02390 3.81295
# Velocity P-wave (km/s) = 5.66602 6.39476 6.04139
#
# Compressibility (1/GPa) = 0.02748920
#
# Stress axis : x y z
#
# Youngs Moduli (GPa) = 95.06041 124.75816 47.53529
#
# Poissons Ratio (x) = 0.11322 0.05098
# Poissons Ratio (y) = 0.08627 0.19306
# Poissons Ratio (z) = 0.10196 0.50669
#
# Static dielectric constant tensor:
#      x y z
#    x 2.027120 -0.074700 -0.189490 
#    y -0.074700 1.881760 0.022180 
#    z -0.189490 0.022180 2.449700 
# 
# From -- ./inp_files/410410.got.cif
#   From: 2010.05.17/outbox.cif.g08.bks.cpg/sg2_206_cif.got.tgz:410410.got - 2010.06.03 11:33:40.
