data_PCOD9023732
_publ_section_title
;
Structure prediction by ZEFSAII (Michael W. Deem and Ramdas Pophale) SiO2 
 PCOD9023732
Probable space group: P -1
;
_chemical_formula_sum "Si O2"
_cell_formula_units_Z 12
_cell_length_a 19.237404
_cell_length_b 5.619760
_cell_length_c 5.223691
_cell_angle_alpha 120.032296
_cell_angle_beta 76.498680
_cell_angle_gamma 104.301935
_cell_volume 469.681829
_symmetry_space_group_name_H-M "P -1"
_symmetry_group_IT_number 2
_symmetry_cell_setting 'triclinic'
loop_
_space_group_symop_operation_xyz
x,y,z
-x,-y,-z
loop_
_atom_site_type_symbol
_atom_site_label
_atom_site_fract_x
_atom_site_fract_y
_atom_site_fract_z
Si Si1 0.337079 0.317035 0.376826
Si Si2 0.914836 0.245926 0.270523
Si Si3 0.299934 0.860530 0.806541
Si Si4 0.523580 0.839021 0.642577
Si Si5 0.943127 0.834621 0.650949
Si Si6 0.784674 0.080908 0.600919
O O1 0.389319 0.148662 0.401508
O O2 0.337127 0.175093 0.020030
O O3 0.253335 0.233476 0.485553
O O4 0.354368 0.643249 0.586192
O O5 0.902785 0.559291 0.405204
O O6 0.869257 0.143986 0.507503
O O7 0.001922 0.265200 0.236348
O O8 0.894562 0.020090 0.946237
O O9 0.251031 0.775675 0.056900
O O10 0.248872 0.845486 0.599006
O O11 0.500000 0.500000 0.500000
O O12 0.500000 0.000000 0.500000
O O13 0.500000 0.000000 0.000000
O O14 0.000000 0.000000 0.500000
#
# Coordination Sequence:
#
# PCOD9023732 Si02
#       6
#     2   2   2   2   2   2
#     4  10  26  44  71  97 142 170 232 276 343 403
#     4  10  23  38  61  91 121 162 219 265 327 398
#     4  10  25  40  68  95 135 172 217 279 337 403
#     4  12  28  47  76 109 144 195 239 295 356 430
#     4  10  22  40  61  86 124 164 211 269 326 392
#     4  10  26  41  68  97 131 173 222 275 340 396
#
# _framework density 25.549215
#
# number of rings (size 3 to 8) (size 9 to 14) (size 15 to 20)
#    1.000    0.667    0.000    2.000   11.667    1.333 
#    0.000    0.000    0.000    0.000    0.000    0.000 
#    0.000    0.000    0.000    0.000    0.000    0.000 
#
# Total GULP energy -66943.666224 kJ/mol
# GULP energy per Si atom -5578.638852 kJ/mol
# Density = 2.549106 g / cm^3
# Si number density = 25.549215 Si / 1000 Ang^3
#
#
#
# Elastic Constant Matrix: (Units=GPa)
#
#
# Indices 1 2 3 4 5 6 
#
# 1 108.0528 15.9961 27.3209 -2.6496 -7.7841 -13.1732
# 2 15.9961 99.1755 77.0543 18.6473 -1.5261 6.2658
# 3 27.3209 77.0543 226.5321 26.8284 -13.1795 -21.6866
# 4 -2.6496 18.6473 26.8284 53.3130 -11.4787 5.9728
# 5 -7.7841 -1.5261 -13.1795 -11.4787 27.8774 -11.6858
# 6 -13.1732 6.2658 -21.6866 5.9728 -11.6858 44.2708
#
#
#
# Elastic Compliance Matrix: (Units=1/GPa)
#
#
# Indices 1 2 3 4 5 6 
#
# 1 0.010627 -0.002360 0.000070 0.002011 0.005696 0.004763
# 2 -0.002360 0.016007 -0.005846 -0.003473 -0.006999 -0.007211
# 3 0.000070 -0.005846 0.007423 -0.001237 0.005227 0.006031
# 4 0.002011 -0.003473 -0.001237 0.022662 0.009039 -0.000187
# 5 0.005696 -0.006999 0.005227 0.009039 0.050554 0.017371
# 6 0.004763 -0.007211 0.006031 -0.000187 0.017371 0.032591
#
#
# Mechanical properties :
#
#
# Convention : Reuss Voigt Hill
#
# Bulk Modulus (GPa) = 56.22980 74.94479 65.58729
# Shear Modulus (GPa) = 30.85239 45.98483 38.41861
#
# Velocity S-wave (km/s) = 3.47878 4.24707 3.88198
# Velocity P-wave (km/s) = 6.17997 7.31077 6.76902
#
# Compressibility (1/GPa) = 0.01778417
#
# Stress axis : x y z
#
# Youngs Moduli (GPa) = 94.10351 62.47305 134.72545
#
# Poissons Ratio (x) = 0.14743 -0.00946
# Poissons Ratio (y) = 0.22208 0.78764
# Poissons Ratio (z) = -0.00661 0.36523
#
# Static dielectric constant tensor:
#      x y z
#    x 2.172510 -0.020790 -0.004370 
#    y -0.020790 2.047090 0.042150 
#    z -0.004370 0.042150 2.053400 
# 
# From -- ./inp_files/120801.got.cif
#   From: 2010.05.17/outbox.cif.g08.bks.cpg/sg2_61_cif.got.tgz:120801.got - 2010.06.03 11:33:40.
