data_PCOD9023968
_publ_section_title
;
Structure prediction by ZEFSAII (Michael W. Deem and Ramdas Pophale) SiO2 
 PCOD9023968
Probable space group: P -1
;
_chemical_formula_sum "Si O2"
_cell_formula_units_Z 16
_cell_length_a 15.032367
_cell_length_b 6.477692
_cell_length_c 8.654350
_cell_angle_alpha 99.399256
_cell_angle_beta 60.461315
_cell_angle_gamma 96.427368
_cell_volume 722.855243
_symmetry_space_group_name_H-M "P -1"
_symmetry_group_IT_number 2
_symmetry_cell_setting 'triclinic'
loop_
_space_group_symop_operation_xyz
x,y,z
-x,-y,-z
loop_
_atom_site_type_symbol
_atom_site_label
_atom_site_fract_x
_atom_site_fract_y
_atom_site_fract_z
Si Si1 0.993225 0.741775 0.503328
Si Si2 0.455210 0.172127 0.948582
Si Si3 0.141256 0.356027 0.899233
Si Si4 0.344111 0.541883 0.212285
Si Si5 0.063870 0.035136 0.709072
Si Si6 0.183018 0.706636 0.137681
Si Si7 0.226772 0.694275 0.623068
Si Si8 0.707213 0.993636 0.164074
O O1 0.979292 0.871795 0.688621
O O2 0.106561 0.789381 0.341130
O O3 0.000000 0.500000 0.500000
O O4 0.920269 0.811268 0.435062
O O5 0.549592 0.327297 0.842120
O O6 0.396203 0.075716 0.841281
O O7 0.372505 0.304670 0.128456
O O8 0.500000 0.000000 0.000000
O O9 0.174089 0.518681 0.755880
O O10 0.054965 0.193564 0.881275
O O11 0.233931 0.206453 0.847084
O O12 0.124934 0.512401 0.074945
O O13 0.282866 0.622841 0.125957
O O14 0.274556 0.582446 0.423332
O O15 0.150205 0.873745 0.658807
O O16 0.218917 0.883077 0.007067
O O17 0.308566 0.832299 0.669924
#
# Coordination Sequence:
#
# PCOD9023968 Si02
#       8
#     2   2   2   2   2   2   2   2
#     4  11  24  41  64  97 131 161 211 268 310 371
#     4  11  23  41  64  96 129 159 213 266 308 376
#     4  10  22  41  65  91 130 170 209 257 312 380
#     4  11  23  39  66  95 124 167 211 259 315 372
#     4  10  22  40  62  93 128 163 208 259 309 371
#     4  11  22  41  66  92 124 170 212 254 317 375
#     4  10  22  41  64  94 131 169 210 257 317 371
#     4  10  22  41  64  93 127 169 211 256 316 378
#
# _framework density 22.134446000000001
#
# number of rings (size 3 to 8) (size 9 to 14) (size 15 to 20)
#    0.000    1.500    3.750    0.750    0.000    6.000 
#    0.000    7.500    0.000    0.000    0.000    0.000 
#    0.000    0.000    0.000    0.000    0.000    0.000 
#
# Total GULP energy -89332.480039 kJ/mol
# GULP energy per Si atom -5583.280002 kJ/mol
# Density = 2.208407 g / cm^3
# Si number density = 22.134446 Si / 1000 Ang^3
#
#
#
# Elastic Constant Matrix: (Units=GPa)
#
#
# Indices 1 2 3 4 5 6 
#
# 1 102.9878 57.2362 22.3925 7.3728 31.4538 -6.3155
# 2 57.2362 141.8067 26.9269 -1.9297 18.6295 -16.3664
# 3 22.3925 26.9269 60.2708 5.2440 13.2316 -2.5617
# 4 7.3728 -1.9297 5.2440 33.5556 2.6093 10.7630
# 5 31.4538 18.6295 13.2316 2.6093 34.7313 9.1011
# 6 -6.3155 -16.3664 -2.5617 10.7630 9.1011 48.3793
#
#
#
# Elastic Compliance Matrix: (Units=1/GPa)
#
#
# Indices 1 2 3 4 5 6 
#
# 1 0.017085 -0.004552 -0.000818 -0.004157 -0.013484 0.004109
# 2 -0.004552 0.009785 -0.002478 0.001224 -0.000926 0.002487
# 3 -0.000818 -0.002478 0.019598 -0.003184 -0.005646 0.001863
# 4 -0.004157 0.001224 -0.003184 0.033714 0.004030 -0.008556
# 5 -0.013484 -0.000926 -0.005646 0.004030 0.046498 -0.012016
# 6 0.004109 0.002487 0.001863 -0.008556 -0.012016 0.026310
#
#
# Mechanical properties :
#
#
# Convention : Reuss Voigt Hill
#
# Bulk Modulus (GPa) = 32.49503 57.57517 45.03510
# Shear Modulus (GPa) = 27.94206 36.56723 32.25465
#
# Velocity S-wave (km/s) = 3.55685 4.06895 3.82149
# Velocity P-wave (km/s) = 5.61969 6.93853 6.31364
#
# Compressibility (1/GPa) = 0.03077394
#
# Stress axis : x y z
#
# Youngs Moduli (GPa) = 58.53070 102.19956 51.02476
#
# Poissons Ratio (x) = 0.46517 0.04171
# Poissons Ratio (y) = 0.26641 0.12644
# Poissons Ratio (z) = 0.04785 0.25325
#
# Static dielectric constant tensor:
#      x y z
#    x 1.846180 0.029960 0.051830 
#    y 0.029960 1.834050 -0.005660 
#    z 0.051830 -0.005660 1.809280 
# 
# From -- ./inp_files/52506.got.cif
#   From: 2010.05.17/outbox.cif.g08.bks.cpg/sg2_27_cif.got.tgz:52506.got - 2010.06.03 11:33:40.
