data_PCOD9023385
_publ_section_title
;
Structure prediction by ZEFSAII (Michael W. Deem and Ramdas Pophale) SiO2 
 PCOD9023385
Probable space group: P -1
;
_chemical_formula_sum "Si O2"
_cell_formula_units_Z 16
_cell_length_a 11.657901
_cell_length_b 14.018430
_cell_length_c 9.099012
_cell_angle_alpha 59.322265
_cell_angle_beta 74.539895
_cell_angle_gamma 122.292671
_cell_volume 725.277364
_symmetry_space_group_name_H-M "P -1"
_symmetry_group_IT_number 2
_symmetry_cell_setting 'triclinic'
loop_
_space_group_symop_operation_xyz
x,y,z
-x,-y,-z
loop_
_atom_site_type_symbol
_atom_site_label
_atom_site_fract_x
_atom_site_fract_y
_atom_site_fract_z
Si Si1 0.220024 0.563724 0.805565
Si Si2 0.142153 0.451063 0.256184
Si Si3 0.562294 0.519822 0.798783
Si Si4 0.351559 0.195541 0.612525
Si Si5 0.705582 0.702142 0.199681
Si Si6 0.270296 0.763603 0.130806
Si Si7 0.707308 0.163524 0.602773
Si Si8 0.941549 0.210066 0.987667
O O1 0.410935 0.649838 0.593773
O O2 0.240889 0.707524 0.641160
O O3 0.222289 0.541525 0.994701
O O4 0.024449 0.358766 0.962198
O O5 0.284279 0.466217 0.266072
O O6 0.158127 0.573171 0.253356
O O7 0.907669 0.239792 0.486431
O O8 0.673458 0.712031 0.545289
O O9 0.360879 0.341144 0.912835
O O10 0.500000 0.500000 0.000000
O O11 0.266568 0.161458 0.830227
O O12 0.244167 0.007532 0.730887
O O13 0.500000 0.500000 0.500000
O O14 0.882627 0.747992 0.132294
O O15 0.307216 0.783714 0.276421
O O16 0.140343 0.775516 0.127965
O O17 0.490148 0.942196 0.837187
#
# Coordination Sequence:
#
# PCOD9023385 Si02
#       8
#     2   2   2   2   2   2   2   2
#     4  12  24  45  68  99 139 177 224 276 335 403
#     4  12  26  44  71  96 138 182 219 274 344 397
#     4  11  23  46  67  98 138 176 218 274 337 391
#     4  11  24  43  69  98 133 178 222 277 326 403
#     4  10  22  39  68  95 130 174 220 270 323 400
#     4  11  27  43  71 103 131 175 226 286 331 394
#     4  11  26  45  67 103 136 172 229 278 332 404
#     4  12  23  43  72  97 134 177 224 272 343 385
#
# _framework density 22.060528000000001
#
# number of rings (size 3 to 8) (size 9 to 14) (size 15 to 20)
#    0.000    0.750    6.250    1.125    5.250    1.500 
#    2.250    1.250    0.000    0.000    0.000    0.000 
#    0.000    0.000    0.000    0.000    0.000    0.000 
#
# Total GULP energy -89440.820242 kJ/mol
# GULP energy per Si atom -5590.051265 kJ/mol
# Density = 2.201032 g / cm^3
# Si number density = 22.060528 Si / 1000 Ang^3
#
#
#
# Elastic Constant Matrix: (Units=GPa)
#
#
# Indices 1 2 3 4 5 6 
#
# 1 133.8684 5.6410 23.7163 -4.1866 -11.0029 6.6831
# 2 5.6410 47.1716 37.9525 -6.8533 1.5207 13.8670
# 3 23.7163 37.9525 55.3309 -9.8179 3.6858 3.2377
# 4 -4.1866 -6.8533 -9.8179 40.0173 1.0192 -1.0684
# 5 -11.0029 1.5207 3.6858 1.0192 39.0950 1.8058
# 6 6.6831 13.8670 3.2377 -1.0684 1.8058 25.9834
#
#
#
# Elastic Compliance Matrix: (Units=1/GPa)
#
#
# Indices 1 2 3 4 5 6 
#
# 1 0.009380 0.008070 -0.009487 -0.000208 0.003493 -0.005789
# 2 0.008070 0.070220 -0.050124 -0.000477 0.005836 -0.033731
# 3 -0.009487 -0.050124 0.056570 0.005097 -0.007242 0.022854
# 4 -0.000208 -0.000477 0.005097 0.026190 -0.001242 0.000836
# 5 0.003493 0.005836 -0.007242 -0.001242 0.027284 -0.005058
# 6 -0.005789 -0.033731 0.022854 0.000836 -0.005058 0.055515
#
#
# Mechanical properties :
#
#
# Convention : Reuss Voigt Hill
#
# Bulk Modulus (GPa) = 30.22179 41.22117 35.72148
# Shear Modulus (GPa) = 13.91710 32.28988 23.10349
#
# Velocity S-wave (km/s) = 2.51442 3.82998 3.23968
# Velocity P-wave (km/s) = 4.70733 6.18743 5.49742
#
# Compressibility (1/GPa) = 0.03308871
#
# Stress axis : x y z
#
# Youngs Moduli (GPa) = 106.60694 14.24087 17.67729
#
# Poissons Ratio (x) = -0.11492 0.16770
# Poissons Ratio (y) = -0.86029 0.88606
# Poissons Ratio (z) = 1.01134 0.71381
#
# Static dielectric constant tensor:
#      x y z
#    x 1.840050 0.025530 -0.021310 
#    y 0.025530 1.959120 0.032070 
#    z -0.021310 0.032070 1.830420 
# 
# From -- ./inp_files/272143.got.cif
#   From: 2010.05.17/outbox.cif.g08.bks.cpg/sg2_137_cif.got.tgz:272143.got - 2010.06.03 11:33:40.
