data_PCOD9023512
_publ_section_title
;
Structure prediction by ZEFSAII (Michael W. Deem and Ramdas Pophale) SiO2 
 PCOD9023512
Probable space group: P -1
;
_chemical_formula_sum "Si O2"
_cell_formula_units_Z 14
_cell_length_a 8.749544
_cell_length_b 9.068959
_cell_length_c 19.070921
_cell_angle_alpha 123.296082
_cell_angle_beta 150.294527
_cell_angle_gamma 65.097306
_cell_volume 621.085119
_symmetry_space_group_name_H-M "P -1"
_symmetry_group_IT_number 2
_symmetry_cell_setting 'triclinic'
loop_
_space_group_symop_operation_xyz
x,y,z
-x,-y,-z
loop_
_atom_site_type_symbol
_atom_site_label
_atom_site_fract_x
_atom_site_fract_y
_atom_site_fract_z
Si Si1 0.631877 0.699464 0.581992
Si Si2 0.258146 0.650738 0.281238
Si Si3 0.541983 0.556261 0.222673
Si Si4 0.791590 0.878620 0.207801
Si Si5 0.914763 0.181736 0.542840
Si Si6 0.715309 0.374017 0.011898
Si Si7 0.303181 0.826759 0.839503
O O1 0.500000 0.500000 0.500000
O O2 0.509410 0.718994 0.458361
O O3 0.449832 0.816807 0.592005
O O4 0.999001 0.749584 0.742069
O O5 0.406507 0.619069 0.257386
O O6 0.990835 0.782746 0.204890
O O7 0.067319 0.463641 0.183073
O O8 0.360794 0.619800 0.099492
O O9 0.528553 0.343334 0.155530
O O10 0.898138 0.651645 0.379874
O O11 0.426855 0.810411 0.057955
O O12 0.947931 0.815481 0.323443
O O13 0.818741 0.085094 0.256153
O O14 0.000000 0.000000 0.500000
O O15 0.500000 0.500000 0.000000
O O16 0.500000 0.000000 0.000000
#
# Coordination Sequence:
#
# PCOD9023512 Si02
#       7
#     2   2   2   2   2   2   2
#     4  11  25  44  67  95 132 183 216 270 344 388
#     4  10  22  39  70  93 128 169 230 275 322 390
#     4  11  23  41  66 102 130 172 218 276 329 387
#     4   9  22  40  64  93 128 177 215 266 333 393
#     4  10  23  43  69  94 131 169 225 271 325 398
#     4   9  18  39  66  89 129 172 217 260 322 394
#     4  12  26  42  66  96 137 171 221 270 333 392
#
# _framework density 22.541193
#
# number of rings (size 3 to 8) (size 9 to 14) (size 15 to 20)
#    0.000    1.714    1.429    3.000    6.000    2.857 
#    2.571    0.714    0.000    0.000    0.000    0.000 
#    0.000    0.000    0.000    0.000    0.000    0.000 
#
# Total GULP energy -78148.576740 kJ/mol
# GULP energy per Si atom -5582.041196 kJ/mol
# Density = 2.248989 g / cm^3
# Si number density = 22.541193 Si / 1000 Ang^3
#
#
#
# Elastic Constant Matrix: (Units=GPa)
#
#
# Indices 1 2 3 4 5 6 
#
# 1 155.1851 37.6775 35.6000 4.1219 3.7639 -13.9470
# 2 37.6775 97.3351 0.1570 16.2426 2.3528 0.0716
# 3 35.6000 0.1570 77.6433 8.0140 11.5489 -2.7864
# 4 4.1219 16.2426 8.0140 27.2539 3.7860 0.7537
# 5 3.7639 2.3528 11.5489 3.7860 24.3969 9.0777
# 6 -13.9470 0.0716 -2.7864 0.7537 9.0777 37.9209
#
#
#
# Elastic Compliance Matrix: (Units=1/GPa)
#
#
# Indices 1 2 3 4 5 6 
#
# 1 0.008422 -0.003576 -0.003880 0.001988 -0.000506 0.002901
# 2 -0.003576 0.012969 0.002431 -0.007838 -0.000285 -0.000937
# 3 -0.003880 0.002431 0.016265 -0.004689 -0.007195 0.001579
# 4 0.001988 -0.007838 -0.004689 0.043011 -0.004213 0.000555
# 5 -0.000506 -0.000285 -0.007195 -0.004213 0.049827 -0.012558
# 6 0.002901 -0.000937 0.001579 0.000555 -0.012558 0.030551
#
#
# Mechanical properties :
#
#
# Convention : Reuss Voigt Hill
#
# Bulk Modulus (GPa) = 36.22369 53.00363 44.61366
# Shear Modulus (GPa) = 27.73203 35.02960 31.38082
#
# Velocity S-wave (km/s) = 3.51134 3.94639 3.73521
# Velocity P-wave (km/s) = 5.70476 6.65811 6.19979
#
# Compressibility (1/GPa) = 0.02760624
#
# Stress axis : x y z
#
# Youngs Moduli (GPa) = 118.73116 77.10400 61.48358
#
# Poissons Ratio (x) = 0.27570 0.23858
# Poissons Ratio (y) = 0.42454 -0.14947
# Poissons Ratio (z) = 0.46073 -0.18744
#
# Static dielectric constant tensor:
#      x y z
#    x 1.894930 0.032590 -0.058650 
#    y 0.032590 1.867930 -0.016580 
#    z -0.058650 -0.016580 1.978630 
# 
# From -- ./inp_files/587499.got.cif
#   From: 2010.05.17/outbox.cif.g08.bks.cpg/sg2_294_cif.got.tgz:587499.got - 2010.06.03 11:33:40.
