data_PCOD9023596
_publ_section_title
;
Structure prediction by ZEFSAII (Michael W. Deem and Ramdas Pophale) SiO2 
 PCOD9023596
Probable space group: P -1
;
_chemical_formula_sum "Si O2"
_cell_formula_units_Z 13
_cell_length_a 5.084702
_cell_length_b 17.039868
_cell_length_c 17.680855
_cell_angle_alpha 157.437302
_cell_angle_beta 126.865749
_cell_angle_gamma 62.116407
_cell_volume 451.268815
_symmetry_space_group_name_H-M "P -1"
_symmetry_group_IT_number 2
_symmetry_cell_setting 'triclinic'
loop_
_space_group_symop_operation_xyz
x,y,z
-x,-y,-z
loop_
_atom_site_type_symbol
_atom_site_label
_atom_site_fract_x
_atom_site_fract_y
_atom_site_fract_z
Si Si1 0.772134 0.229864 0.118629
Si Si2 0.000000 0.500000 0.500000
Si Si3 0.991962 0.859884 0.589521
Si Si4 0.503799 0.136586 0.717213
Si Si5 0.408327 0.404926 0.086889
Si Si6 0.974710 0.145602 0.239304
Si Si7 0.971765 0.279591 0.681134
O O1 0.494956 0.280229 0.062674
O O2 0.724465 0.211821 0.189025
O O3 0.090002 0.435404 0.369900
O O4 0.901163 0.043951 0.940930
O O5 0.746080 0.632697 0.531856
O O6 0.697301 0.634124 0.341500
O O7 0.141820 0.895765 0.732089
O O8 0.196971 0.813577 0.511273
O O9 0.840741 0.055581 0.713785
O O10 0.356152 0.258939 0.735062
O O11 0.236682 0.896649 0.453455
O O12 0.451983 0.269535 0.900848
O O13 0.069723 0.487767 0.104759
#
# Coordination Sequence:
#
# PCOD9023596 Si02
#       7
#     2   1   2   2   2   2   2
#     4   9  16  29  53  82 107 144 181 218 271 331
#     4   8  14  28  50  80 108 132 180 224 256 320
#     4  11  20  36  60  84 109 147 189 228 276 327
#     4  10  22  40  57  77 114 151 184 229 286 326
#     4  11  20  36  60  82 109 150 187 225 280 328
#     4   9  16  29  53  83 107 141 184 219 268 332
#     4  10  24  38  54  84 114 143 188 237 274 330
#
# _framework density 28.807662000000001
#
# number of rings (size 3 to 8) (size 9 to 14) (size 15 to 20)
#    0.923    1.231    3.077    0.923    0.000    1.846 
#    0.000    0.769    0.000    0.923    0.000    0.000 
#    0.000    0.000    0.000    0.000    0.000    0.000 
#
# Total GULP energy -72378.564246 kJ/mol
# GULP energy per Si atom -5567.581865 kJ/mol
# Density = 2.874209 g / cm^3
# Si number density = 28.807662 Si / 1000 Ang^3
#
#
#
# Elastic Constant Matrix: (Units=GPa)
#
#
# Indices 1 2 3 4 5 6 
#
# 1 59.8297 27.5741 30.1498 2.3618 -15.5701 -8.9207
# 2 27.5741 202.8104 81.5183 11.0331 -18.3722 3.1221
# 3 30.1498 81.5183 202.5802 17.6053 -49.6425 -8.4144
# 4 2.3618 11.0331 17.6053 76.4193 -0.2197 -1.0648
# 5 -15.5701 -18.3722 -49.6425 -0.2197 47.4597 -1.7791
# 6 -8.9207 3.1221 -8.4144 -1.0648 -1.7791 38.2572
#
#
#
# Elastic Compliance Matrix: (Units=1/GPa)
#
#
# Indices 1 2 3 4 5 6 
#
# 1 0.020117 -0.002065 -0.000648 -0.000090 0.005308 0.004961
# 2 -0.002065 0.006145 -0.002424 -0.000289 -0.000895 -0.001566
# 3 -0.000648 -0.002424 0.008008 -0.001424 0.007297 0.002108
# 4 -0.000090 -0.000289 -0.001424 0.013454 -0.001569 -0.000009
# 5 0.005308 -0.000895 0.007297 -0.001569 0.030252 0.004279
# 6 0.004961 -0.001566 0.002108 -0.000009 0.004279 0.028086
#
#
# Mechanical properties :
#
#
# Convention : Reuss Voigt Hill
#
# Bulk Modulus (GPa) = 41.67759 82.63385 62.15572
# Shear Modulus (GPa) = 40.21387 54.15913 47.18650
#
# Velocity S-wave (km/s) = 3.74029 4.34063 4.05159
# Velocity P-wave (km/s) = 5.75777 7.33951 6.59622
#
# Compressibility (1/GPa) = 0.02399371
#
# Stress axis : x y z
#
# Youngs Moduli (GPa) = 49.70874 162.73983 124.87472
#
# Poissons Ratio (x) = 0.33608 0.08098
# Poissons Ratio (y) = 0.10266 0.30276
# Poissons Ratio (z) = 0.03224 0.39456
#
# Static dielectric constant tensor:
#      x y z
#    x 2.371170 -0.006890 0.107320 
#    y -0.006890 2.249670 0.059420 
#    z 0.107320 0.059420 2.582050 
# 
# From -- ./inp_files/6241.got.cif
#   From: 2010.05.17/outbox.cif.g08.bks.cpg/sg2_4_cif.got.tgz:6241.got - 2010.06.03 11:33:40.
