data_PCOD9023334
_publ_section_title
;
Structure prediction by ZEFSAII (Michael W. Deem and Ramdas Pophale) SiO2 
 PCOD9023334
Probable space group: P -1
;
_chemical_formula_sum "Si O2"
_cell_formula_units_Z 14
_cell_length_a 17.962464
_cell_length_b 8.464472
_cell_length_c 22.129651
_cell_angle_alpha 142.609480
_cell_angle_beta 161.257412
_cell_angle_gamma 46.358081
_cell_volume 622.214558
_symmetry_space_group_name_H-M "P -1"
_symmetry_group_IT_number 2
_symmetry_cell_setting 'triclinic'
loop_
_space_group_symop_operation_xyz
x,y,z
-x,-y,-z
loop_
_atom_site_type_symbol
_atom_site_label
_atom_site_fract_x
_atom_site_fract_y
_atom_site_fract_z
Si Si1 0.899310 0.668865 0.326101
Si Si2 0.466275 0.687108 0.233276
Si Si3 0.272359 0.427360 0.121795
Si Si4 0.999302 0.817119 0.885301
Si Si5 0.288289 0.729235 0.545700
Si Si6 0.775069 0.100159 0.695367
Si Si7 0.353764 0.363157 0.763238
O O1 0.842660 0.575057 0.323853
O O2 0.104691 0.604521 0.423570
O O3 0.628281 0.541543 0.050078
O O4 0.000000 0.000000 0.500000
O O5 0.310110 0.451957 0.086688
O O6 0.633721 0.596999 0.286868
O O7 0.615750 0.907320 0.463175
O O8 0.272365 0.800102 0.083747
O O9 0.441648 0.260295 0.225839
O O10 0.351411 0.716840 0.307172
O O11 0.993594 0.302321 0.886283
O O12 0.819237 0.504326 0.658069
O O13 0.903242 0.952542 0.796757
O O14 0.000000 0.000000 0.000000
O O15 0.297495 0.035019 0.629434
#
# Coordination Sequence:
#
# PCOD9023334 Si02
#       7
#     2   2   2   2   2   2   2
#     4   9  20  41  69  98 130 164 218 277 332 401
#     4  12  23  40  66  94 130 174 220 272 323 387
#     4  11  24  40  63  90 135 179 219 270 325 380
#     4  12  23  40  67  95 135 180 224 264 322 382
#     4  11  22  40  67  98 133 175 219 273 329 390
#     4  11  25  44  58  94 138 177 224 273 314 386
#     4  10  22  39  68 102 127 170 221 271 338 394
#
# _framework density 22.500278000000002
#
# number of rings (size 3 to 8) (size 9 to 14) (size 15 to 20)
#    0.000    1.143    4.286    2.143    2.000    0.000 
#    0.000    4.286    0.000    8.571    0.000    0.000 
#    0.000    0.000    0.000    0.000    0.000    0.000 
#
# Total GULP energy -78154.094291 kJ/mol
# GULP energy per Si atom -5582.435307 kJ/mol
# Density = 2.244907 g / cm^3
# Si number density = 22.500278 Si / 1000 Ang^3
#
#
#
# Elastic Constant Matrix: (Units=GPa)
#
#
# Indices 1 2 3 4 5 6 
#
# 1 142.9421 -7.0463 33.6482 7.2117 4.6998 0.0135
# 2 -7.0463 33.8302 6.9929 3.8972 -12.6402 3.0075
# 3 33.6482 6.9929 66.6277 6.7322 -5.1406 5.3956
# 4 7.2117 3.8972 6.7322 36.5459 2.2488 -0.9414
# 5 4.6998 -12.6402 -5.1406 2.2488 30.5670 -1.6025
# 6 0.0135 3.0075 5.3956 -0.9414 -1.6025 27.0937
#
#
#
# Elastic Compliance Matrix: (Units=1/GPa)
#
#
# Indices 1 2 3 4 5 6 
#
# 1 0.008232 0.002344 -0.004419 -0.000989 -0.000939 0.000526
# 2 0.002344 0.036962 -0.003231 -0.004778 0.014588 -0.002764
# 3 -0.004419 -0.003231 0.018267 -0.002380 0.002422 -0.003216
# 4 -0.000989 -0.004778 -0.002380 0.028813 -0.004252 0.001755
# 5 -0.000939 0.014588 0.002422 -0.004252 0.039617 0.000094
# 6 0.000526 -0.002764 -0.003216 0.001755 0.000094 0.037923
#
#
# Mechanical properties :
#
#
# Convention : Reuss Voigt Hill
#
# Bulk Modulus (GPa) = 18.92120 34.50995 26.71557
# Shear Modulus (GPa) = 25.24722 32.82832 29.03777
#
# Velocity S-wave (km/s) = 3.35339 3.82385 3.59632
# Velocity P-wave (km/s) = 4.83954 5.90480 5.39851
#
# Compressibility (1/GPa) = 0.05285076
#
# Stress axis : x y z
#
# Youngs Moduli (GPa) = 121.47336 27.05471 54.74291
#
# Poissons Ratio (x) = -0.06343 0.24188
# Poissons Ratio (y) = -0.28478 0.17689
# Poissons Ratio (z) = 0.53674 0.08742
#
# Static dielectric constant tensor:
#      x y z
#    x 1.893730 0.008860 0.014490 
#    y 0.008860 1.856820 0.044700 
#    z 0.014490 0.044700 1.859790 
# 
# From -- ./inp_files/599651.got.cif
#   From: 2010.05.17/outbox.cif.g08.bks.cpg/sg2_300_cif.got.tgz:599651.got - 2010.06.03 11:33:40.
