data_PCOD9023601
_publ_section_title
;
Structure prediction by ZEFSAII (Michael W. Deem and Ramdas Pophale) SiO2 
 PCOD9023601
Probable space group: P -1
;
_chemical_formula_sum "Si O2"
_cell_formula_units_Z 12
_cell_length_a 20.385352
_cell_length_b 5.361559
_cell_length_c 7.322270
_cell_angle_alpha 114.977281
_cell_angle_beta 49.544008
_cell_angle_gamma 83.446546
_cell_volume 456.318540
_symmetry_space_group_name_H-M "P -1"
_symmetry_group_IT_number 2
_symmetry_cell_setting 'triclinic'
loop_
_space_group_symop_operation_xyz
x,y,z
-x,-y,-z
loop_
_atom_site_type_symbol
_atom_site_label
_atom_site_fract_x
_atom_site_fract_y
_atom_site_fract_z
Si Si1 0.456332 0.846876 0.787160
Si Si2 0.124381 0.441766 0.092240
Si Si3 0.740865 0.066483 0.778431
Si Si4 0.261994 0.496369 0.347364
Si Si5 0.683947 0.584365 0.359429
Si Si6 0.017604 0.045072 0.191623
O O1 0.500000 0.500000 0.500000
O O2 0.558672 0.827597 0.651468
O O3 0.370229 0.853564 0.074880
O O4 0.372284 0.206693 0.958049
O O5 0.089882 0.190440 0.103756
O O6 0.078639 0.690998 0.424577
O O7 0.070174 0.695329 0.097095
O O8 0.247113 0.283207 0.794031
O O9 0.787085 0.173535 0.575104
O O10 0.799463 0.680358 0.593055
O O11 0.720170 0.272706 0.063000
O O12 0.289694 0.523895 0.511555
O O13 0.000000 0.000000 0.000000
#
# Coordination Sequence:
#
# PCOD9023601 Si02
#       6
#     2   2   2   2   2   2
#     4   8  19  41  56  86 124 174 205 247 298 350
#     4  10  24  40  65 103 115 157 207 247 305 379
#     4   9  23  40  58  85 126 171 211 243 300 350
#     4  10  22  40  57  86 120 175 213 241 305 349
#     4  11  22  40  63  94 127 158 209 263 288 357
#     4  10  22  47  69  86 129 157 191 250 326 374
#
# _framework density 26.297419000000001
#
# number of rings (size 3 to 8) (size 9 to 14) (size 15 to 20)
#    1.000    1.333    0.000    1.000    0.000   10.000 
#    3.000    0.000    0.000    0.000    0.000    0.000 
#    0.000    0.000    0.000    0.000    0.000    0.000 
#
# Total GULP energy -67055.367970 kJ/mol
# GULP energy per Si atom -5587.947331 kJ/mol
# Density = 2.623756 g / cm^3
# Si number density = 26.297419 Si / 1000 Ang^3
#
#
#
# Elastic Constant Matrix: (Units=GPa)
#
#
# Indices 1 2 3 4 5 6 
#
# 1 97.6639 37.4178 42.6907 -13.2186 17.2848 4.2964
# 2 37.4178 142.9399 18.7021 -28.8904 0.1854 -10.9636
# 3 42.6907 18.7021 152.0013 -7.0204 1.3363 -2.0292
# 4 -13.2186 -28.8904 -7.0204 40.1793 6.0306 -2.7241
# 5 17.2848 0.1854 1.3363 6.0306 47.2070 -9.1774
# 6 4.2964 -10.9636 -2.0292 -2.7241 -9.1774 40.1093
#
#
#
# Elastic Compliance Matrix: (Units=1/GPa)
#
#
# Indices 1 2 3 4 5 6 
#
# 1 0.014664 -0.003123 -0.003608 0.002638 -0.006346 -0.003880
# 2 -0.003123 0.009224 0.000042 0.005690 0.001057 0.003486
# 3 -0.003608 0.000042 0.007592 0.000047 0.001311 0.001085
# 4 0.002638 0.005690 0.000047 0.030683 -0.004454 0.002340
# 5 -0.006346 0.001057 0.001311 -0.004454 0.025302 0.006522
# 6 -0.003880 0.003486 0.001085 0.002340 0.006522 0.028006
#
#
# Mechanical properties :
#
#
# Convention : Reuss Voigt Hill
#
# Bulk Modulus (GPa) = 55.24188 65.58071 60.41130
# Shear Modulus (GPa) = 37.06899 45.08541 41.07720
#
# Velocity S-wave (km/s) = 3.75854 4.14507 3.95653
# Velocity P-wave (km/s) = 6.31567 6.92106 6.62529
#
# Compressibility (1/GPa) = 0.01810221
#
# Stress axis : x y z
#
# Youngs Moduli (GPa) = 68.19576 108.41346 131.71317
#
# Poissons Ratio (x) = 0.33853 0.47527
# Poissons Ratio (y) = 0.21295 -0.00555
# Poissons Ratio (z) = 0.24608 -0.00457
#
# Static dielectric constant tensor:
#      x y z
#    x 2.100220 0.003360 -0.019840 
#    y 0.003360 2.108560 0.046080 
#    z -0.019840 0.046080 2.094190 
# 
# From -- ./inp_files/350821.got.cif
#   From: 2010.05.17/outbox.cif.g08.bks.cpg/sg2_176_cif.got.tgz:350821.got - 2010.06.03 11:33:40.
