data_PCOD9023882
_publ_section_title
;
Structure prediction by ZEFSAII (Michael W. Deem and Ramdas Pophale) SiO2 
 PCOD9023882
Probable space group: P -1
;
_chemical_formula_sum "Si O2"
_cell_formula_units_Z 16
_cell_length_a 11.400763
_cell_length_b 11.496194
_cell_length_c 12.692282
_cell_angle_alpha 74.756389
_cell_angle_beta 108.653937
_cell_angle_gamma 42.519930
_cell_volume 668.249375
_symmetry_space_group_name_H-M "P -1"
_symmetry_group_IT_number 2
_symmetry_cell_setting 'triclinic'
loop_
_space_group_symop_operation_xyz
x,y,z
-x,-y,-z
loop_
_atom_site_type_symbol
_atom_site_label
_atom_site_fract_x
_atom_site_fract_y
_atom_site_fract_z
Si Si1 0.671651 0.591626 0.621270
Si Si2 0.326465 0.185328 0.681375
Si Si3 0.444611 0.560897 0.671892
Si Si4 0.051732 0.175550 0.207899
Si Si5 0.775703 0.944113 0.176215
Si Si6 0.704262 0.071028 0.881412
Si Si7 0.163548 0.869210 0.737237
Si Si8 0.178242 0.321096 0.200356
O O1 0.640473 0.494749 0.699465
O O2 0.364197 0.878669 0.415283
O O3 0.779206 0.607008 0.723018
O O4 0.894342 0.377748 0.643810
O O5 0.374064 0.038489 0.817118
O O6 0.459879 0.192668 0.753488
O O7 0.000000 0.500000 0.500000
O O8 0.505481 0.988695 0.676355
O O9 0.607754 0.292696 0.786942
O O10 0.157728 0.811400 0.460873
O O11 0.334386 0.691694 0.723953
O O12 0.065609 0.156865 0.089406
O O13 0.861851 0.232692 0.181052
O O14 0.015565 0.345711 0.193559
O O15 0.706272 0.128791 0.170082
O O16 0.755393 0.990807 0.035800
O O17 0.000000 0.500000 0.000000
#
# Coordination Sequence:
#
# PCOD9023882 Si02
#       8
#     2   2   2   2   2   2   2   2
#     4  11  22  39  65  91 124 169 216 259 313 384
#     4  11  24  44  68  93 128 170 215 259 312 384
#     4  10  22  40  62  89 121 161 211 262 313 378
#     4  10  22  40  62  89 123 168 213 255 310 380
#     4  12  24  39  63  93 128 165 207 262 324 377
#     4  11  24  40  60  90 126 162 205 262 320 373
#     4  10  22  40  63  89 120 162 212 262 314 379
#     4  11  24  42  65  96 132 163 207 270 327 376
#
# _framework density 23.943159999999999
#
# number of rings (size 3 to 8) (size 9 to 14) (size 15 to 20)
#    0.000    1.250    0.000    6.750    0.000    9.500 
#    0.000    0.000    0.000    0.000    0.000    0.000 
#    0.000    0.000    0.000    0.000    0.000    0.000 
#
# Total GULP energy -89534.198424 kJ/mol
# GULP energy per Si atom -5595.887401 kJ/mol
# Density = 2.388866 g / cm^3
# Si number density = 23.943160 Si / 1000 Ang^3
#
#
#
# Elastic Constant Matrix: (Units=GPa)
#
#
# Indices 1 2 3 4 5 6 
#
# 1 150.8509 32.8556 23.6843 12.3486 -49.1805 15.8635
# 2 32.8556 82.5305 13.1361 5.0150 -4.6450 29.6111
# 3 23.6843 13.1361 64.0281 6.0148 -18.7371 8.2762
# 4 12.3486 5.0150 6.0148 39.5947 -3.7333 -1.9428
# 5 -49.1805 -4.6450 -18.7371 -3.7333 35.2612 -0.8411
# 6 15.8635 29.6111 8.2762 -1.9428 -0.8411 41.2459
#
#
#
# Elastic Compliance Matrix: (Units=1/GPa)
#
#
# Indices 1 2 3 4 5 6 
#
# 1 0.014115 -0.003599 0.001964 -0.002511 0.019920 -0.002951
# 2 -0.003599 0.017717 -0.001917 -0.001768 -0.004157 -0.011119
# 3 0.001964 -0.001917 0.019592 -0.002315 0.012577 -0.003163
# 4 -0.002511 -0.001768 -0.002315 0.026613 -0.002055 0.003911
# 5 0.019920 -0.004157 0.012577 -0.002055 0.061917 -0.006035
# 6 -0.002951 -0.011119 -0.003163 0.003911 -0.006035 0.034058
#
#
# Mechanical properties :
#
#
# Convention : Reuss Voigt Hill
#
# Bulk Modulus (GPa) = 22.56336 48.52905 35.54621
# Shear Modulus (GPa) = 25.52467 38.40258 31.96362
#
# Velocity S-wave (km/s) = 3.26859 4.00922 3.65770
# Velocity P-wave (km/s) = 4.86714 6.46098 5.71985
#
# Compressibility (1/GPa) = 0.04431963
#
# Stress axis : x y z
#
# Youngs Moduli (GPa) = 70.84797 56.44154 51.04194
#
# Poissons Ratio (x) = 0.20315 -0.10024
# Poissons Ratio (y) = 0.25500 0.09784
# Poissons Ratio (z) = -0.13914 0.10819
#
# Static dielectric constant tensor:
#      x y z
#    x 1.900190 -0.003870 -0.019080 
#    y -0.003870 1.857970 -0.031510 
#    z -0.019080 -0.031510 2.012230 
# 
# From -- ./inp_files/428014.got.cif
#   From: 2010.05.17/outbox.cif.g08.bks.cpg/sg2_215_cif.got.tgz:428014.got - 2010.06.03 11:33:40.
