data_PCOD9023431
_publ_section_title
;
Structure prediction by ZEFSAII (Michael W. Deem and Ramdas Pophale) SiO2 
 PCOD9023431
Probable space group: P -1
;
_chemical_formula_sum "Si O2"
_cell_formula_units_Z 14
_cell_length_a 6.657255
_cell_length_b 10.165435
_cell_length_c 9.822822
_cell_angle_alpha 125.485826
_cell_angle_beta 77.049814
_cell_angle_gamma 113.700305
_cell_volume 495.588541
_symmetry_space_group_name_H-M "P -1"
_symmetry_group_IT_number 2
_symmetry_cell_setting 'triclinic'
loop_
_space_group_symop_operation_xyz
x,y,z
-x,-y,-z
loop_
_atom_site_type_symbol
_atom_site_label
_atom_site_fract_x
_atom_site_fract_y
_atom_site_fract_z
Si Si1 0.066323 0.360599 0.817626
Si Si2 0.500911 0.337054 0.670498
Si Si3 0.704057 0.689139 0.985959
Si Si4 0.512309 0.956909 0.130129
Si Si5 0.952144 0.237622 0.253115
Si Si6 0.231032 0.974359 0.423718
Si Si7 0.735998 0.487637 0.461899
O O1 0.280082 0.390636 0.704234
O O2 0.857233 0.234307 0.691835
O O3 0.157213 0.270363 0.872759
O O4 0.000000 0.500000 0.000000
O O5 0.611761 0.483893 0.852554
O O6 0.681663 0.378783 0.549683
O O7 0.405800 0.129591 0.576389
O O8 0.873277 0.773455 0.889739
O O9 0.507984 0.764640 0.041959
O O10 0.755818 0.066320 0.209756
O O11 0.337451 0.008377 0.276323
O O12 0.500000 0.000000 0.000000
O O13 0.836989 0.369387 0.289167
O O14 0.091449 0.329312 0.416050
O O15 0.000000 0.000000 0.500000
O O16 0.500000 0.500000 0.500000
#
# Coordination Sequence:
#
# PCOD9023431 Si02
#       7
#     2   2   2   2   2   2   2
#     4  11  24  44  69  97 136 183 237 289 354 422
#     4  10  22  42  66  97 134 182 231 287 351 421
#     4  11  25  43  69 102 142 180 240 292 357 431
#     4  12  25  44  74 103 145 191 235 299 363 426
#     4  10  23  41  65 105 137 183 234 287 358 430
#     4  10  23  45  70 103 140 187 242 290 358 424
#     4  10  22  39  69 100 142 179 233 296 358 419
#
# _framework density 28.249244000000001
#
# number of rings (size 3 to 8) (size 9 to 14) (size 15 to 20)
#    0.000    1.429    1.429    2.571    6.000    1.143 
#    0.000    7.857    3.143    0.000    0.000    0.000 
#    0.000    0.000    0.000    0.000    0.000    0.000 
#
# Total GULP energy -78235.071993 kJ/mol
# GULP energy per Si atom -5588.219428 kJ/mol
# Density = 2.818495 g / cm^3
# Si number density = 28.249244 Si / 1000 Ang^3
#
#
#
# Elastic Constant Matrix: (Units=GPa)
#
#
# Indices 1 2 3 4 5 6 
#
# 1 133.2120 40.4061 52.3625 9.8916 -5.4361 18.7363
# 2 40.4061 60.6591 33.7929 24.4186 0.8780 19.3194
# 3 52.3625 33.7929 154.5921 18.0714 -35.4653 13.9752
# 4 9.8916 24.4186 18.0714 64.3769 18.6207 -7.9118
# 5 -5.4361 0.8780 -35.4653 18.6207 67.1492 10.1606
# 6 18.7363 19.3194 13.9752 -7.9118 10.1606 70.8761
#
#
#
# Elastic Compliance Matrix: (Units=1/GPa)
#
#
# Indices 1 2 3 4 5 6 
#
# 1 0.010174 -0.005918 -0.002497 0.001582 -0.000813 -0.000291
# 2 -0.005918 0.027993 -0.001637 -0.010840 0.002400 -0.007297
# 3 -0.002497 -0.001637 0.009783 -0.003854 0.006383 -0.002168
# 4 0.001582 -0.010840 -0.003854 0.024161 -0.009580 0.007367
# 5 -0.000813 0.002400 0.006383 -0.009580 0.021713 -0.005880
# 6 -0.000291 -0.007297 -0.002168 0.007367 -0.005880 0.018268
#
#
# Mechanical properties :
#
#
# Convention : Reuss Voigt Hill
#
# Bulk Modulus (GPa) = 35.91318 66.84291 51.37804
# Shear Modulus (GPa) = 35.34117 55.27390 45.30753
#
# Velocity S-wave (km/s) = 3.54085 4.42820 4.00915
# Velocity P-wave (km/s) = 5.42747 7.06106 6.29746
#
# Compressibility (1/GPa) = 0.02784493
#
# Stress axis : x y z
#
# Youngs Moduli (GPa) = 98.29082 35.72354 102.21466
#
# Poissons Ratio (x) = 0.21142 0.25528
# Poissons Ratio (y) = 0.58170 0.16732
# Poissons Ratio (z) = 0.24548 0.05848
#
# Static dielectric constant tensor:
#      x y z
#    x 2.288210 -0.153620 0.078930 
#    y -0.153620 2.421520 -0.083220 
#    z 0.078930 -0.083220 2.285100 
# 
# From -- ./inp_files/365365.got.cif
#   From: 2010.05.17/outbox.cif.g08.bks.cpg/sg2_183_cif.got.tgz:365365.got - 2010.06.03 11:33:40.
