data_PCOD9023678
_publ_section_title
;
Structure prediction by ZEFSAII (Michael W. Deem and Ramdas Pophale) SiO2 
 PCOD9023678
Probable space group: P -1
;
_chemical_formula_sum "Si O2"
_cell_formula_units_Z 15
_cell_length_a 11.268371
_cell_length_b 15.902495
_cell_length_c 5.185199
_cell_angle_alpha 111.573165
_cell_angle_beta 84.895853
_cell_angle_gamma 132.192556
_cell_volume 623.128777
_symmetry_space_group_name_H-M "P -1"
_symmetry_group_IT_number 2
_symmetry_cell_setting 'triclinic'
loop_
_space_group_symop_operation_xyz
x,y,z
-x,-y,-z
loop_
_atom_site_type_symbol
_atom_site_label
_atom_site_fract_x
_atom_site_fract_y
_atom_site_fract_z
Si Si1 0.647333 0.628434 0.375576
Si Si2 0.571733 0.395963 0.983126
Si Si3 0.459673 0.160627 0.973714
Si Si4 0.500000 0.000000 0.500000
Si Si5 0.230341 0.910699 0.006719
Si Si6 0.899488 0.529069 0.825146
Si Si7 0.853272 0.703478 0.901844
Si Si8 0.211709 0.707158 0.686470
O O1 0.506851 0.623901 0.305262
O O2 0.765092 0.704036 0.679134
O O3 0.564946 0.485793 0.242642
O O4 0.762942 0.679250 0.156921
O O5 0.462350 0.260705 0.971181
O O6 0.764570 0.469448 0.010144
O O7 0.505849 0.110615 0.695425
O O8 0.608125 0.234630 0.230726
O O9 0.298350 0.034141 0.990187
O O10 0.640452 0.051969 0.760163
O O11 0.228372 0.820060 0.715864
O O12 0.044425 0.827545 0.032677
O O13 0.849241 0.591684 0.735691
O O14 0.873532 0.412735 0.607820
O O15 0.096774 0.647431 0.900729
#
# Coordination Sequence:
#
# PCOD9023678 Si02
#       8
#     2   2   2   1   2   2   2   2
#     4  10  23  45  68 100 124 174 216 288 325 383
#     4  10  23  39  66  96 128 167 224 266 336 382
#     4  11  23  37  59  95 126 174 209 266 319 397
#     4  10  22  40  60  88 126 174 212 256 314 384
#     4  10  23  40  63  93 128 177 213 268 321 396
#     4   9  19  35  62  95 125 170 203 273 320 397
#     4  10  22  43  69  95 132 167 224 271 336 378
#     4   9  18  36  57  91 131 160 212 256 325 389
#
# _framework density 24.072068999999999
#
# number of rings (size 3 to 8) (size 9 to 14) (size 15 to 20)
#    0.000    2.133    0.000    2.400    5.600    6.400 
#    0.000    1.333    0.000    0.000    0.000    0.000 
#    0.000    0.000    0.000    0.000    0.000    0.000 
#
# Total GULP energy -83554.498217 kJ/mol
# GULP energy per Si atom -5570.299881 kJ/mol
# Density = 2.401728 g / cm^3
# Si number density = 24.072069 Si / 1000 Ang^3
#
#
#
# Elastic Constant Matrix: (Units=GPa)
#
#
# Indices 1 2 3 4 5 6 
#
# 1 88.2102 58.3433 12.6075 -7.9682 1.1075 13.6057
# 2 58.3433 176.5184 36.6436 19.8470 6.5055 -5.6992
# 3 12.6075 36.6436 56.5348 -11.6104 4.1869 5.4680
# 4 -7.9682 19.8470 -11.6104 25.9218 -3.2411 3.2129
# 5 1.1075 6.5055 4.1869 -3.2411 23.6785 4.4498
# 6 13.6057 -5.6992 5.4680 3.2129 4.4498 35.3422
#
#
#
# Elastic Compliance Matrix: (Units=1/GPa)
#
#
# Indices 1 2 3 4 5 6 
#
# 1 0.023057 -0.012964 0.009141 0.023902 0.007040 -0.015440
# 2 -0.012964 0.016236 -0.013462 -0.024956 -0.007311 0.012881
# 3 0.009141 -0.013462 0.031434 0.029446 0.004332 -0.013776
# 4 0.023902 -0.024956 0.029446 0.083786 0.017180 -0.027561
# 5 0.007040 -0.007311 0.004332 0.017180 0.047778 -0.012137
# 6 -0.015440 0.012881 -0.013776 -0.027561 -0.012137 0.042481
#
#
# Mechanical properties :
#
#
# Convention : Reuss Voigt Hill
#
# Bulk Modulus (GPa) = 27.65668 59.60581 43.63124
# Shear Modulus (GPa) = 17.15901 31.23308 24.19605
#
# Velocity S-wave (km/s) = 2.67276 3.60597 3.17385
# Velocity P-wave (km/s) = 4.58682 6.49249 5.62101
#
# Compressibility (1/GPa) = 0.03615763
#
# Stress axis : x y z
#
# Youngs Moduli (GPa) = 43.37148 61.59216 31.81283
#
# Poissons Ratio (x) = 0.79847 -0.29082
# Poissons Ratio (y) = 0.56226 0.42826
# Poissons Ratio (z) = -0.39648 0.82915
#
# Static dielectric constant tensor:
#      x y z
#    x 1.842770 -0.136400 0.016020 
#    y -0.136400 1.647250 0.016910 
#    z 0.016020 0.016910 1.946410 
# 
# From -- ./inp_files/78402.got.cif
#   From: 2010.05.17/outbox.cif.g08.bks.cpg/sg2_40_cif.got.tgz:78402.got - 2010.06.03 11:33:40.
