data_PCOD9023074
_publ_section_title
;
Structure prediction by ZEFSAII (Michael W. Deem and Ramdas Pophale) SiO2 
 PCOD9023074
Probable space group: P -1
;
_chemical_formula_sum "Si O2"
_cell_formula_units_Z 16
_cell_length_a 12.296015
_cell_length_b 14.978363
_cell_length_c 9.069581
_cell_angle_alpha 46.880793
_cell_angle_beta 54.003765
_cell_angle_gamma 36.866061
_cell_volume 728.299567
_symmetry_space_group_name_H-M "P -1"
_symmetry_group_IT_number 2
_symmetry_cell_setting 'triclinic'
loop_
_space_group_symop_operation_xyz
x,y,z
-x,-y,-z
loop_
_atom_site_type_symbol
_atom_site_label
_atom_site_fract_x
_atom_site_fract_y
_atom_site_fract_z
Si Si1 0.118927 0.228949 0.827350
Si Si2 0.561404 0.334941 0.211213
Si Si3 0.812383 0.348435 0.132115
Si Si4 0.698197 0.623231 0.397876
Si Si5 0.557172 0.718596 0.893031
Si Si6 0.000661 0.639994 0.768691
Si Si7 0.716616 0.840961 0.533895
Si Si8 0.436219 0.913742 0.069239
O O1 0.201315 0.311892 0.708581
O O2 0.169514 0.181116 0.670228
O O3 0.913822 0.334800 0.920116
O O4 0.226982 0.064551 0.028020
O O5 0.733954 0.263367 0.254899
O O6 0.394646 0.388272 0.380326
O O7 0.592549 0.222103 0.178042
O O8 0.500000 0.500000 0.000000
O O9 0.943033 0.300324 0.217298
O O10 0.640300 0.542037 0.083962
O O11 0.846809 0.461208 0.365663
O O12 0.524953 0.760311 0.277602
O O13 0.714503 0.694869 0.707553
O O14 0.509926 0.832639 0.939752
O O15 0.817767 0.802946 0.651111
O O16 0.000000 0.500000 0.000000
O O17 0.500000 0.000000 0.500000
O O18 0.500000 0.000000 0.000000
#
# Coordination Sequence:
#
# PCOD9023074 Si02
#       8
#     2   2   2   2   2   2   2   2
#     4  11  23  38  67 100 133 170 229 288 341 402
#     4  10  25  42  65  96 140 181 230 276 337 407
#     4  11  24  44  64  99 139 177 226 289 330 400
#     4  11  21  41  69  98 132 183 222 278 345 402
#     4  11  20  43  66  91 137 179 219 279 335 402
#     4  12  23  39  68 101 137 170 229 291 342 395
#     4  12  24  37  66 103 135 173 222 281 354 403
#     4  10  22  39  66 102 133 170 222 282 344 404
#
# _framework density 21.968979999999998
#
# number of rings (size 3 to 8) (size 9 to 14) (size 15 to 20)
#    0.000    1.000    6.250    0.000    5.250    1.500 
#    0.000    1.250    0.000    0.000    0.000    0.000 
#    0.000    0.000    0.000    0.000    0.000    0.000 
#
# Total GULP energy -89133.167001 kJ/mol
# GULP energy per Si atom -5570.822938 kJ/mol
# Density = 2.191898 g / cm^3
# Si number density = 21.968980 Si / 1000 Ang^3
#
#
#
# Elastic Constant Matrix: (Units=GPa)
#
#
# Indices 1 2 3 4 5 6 
#
# 1 171.8059 31.6747 36.6358 15.3224 22.8430 4.7780
# 2 31.6747 82.6585 27.8477 19.7762 14.2238 1.6828
# 3 36.6358 27.8477 77.4368 22.8317 9.1786 -2.6876
# 4 15.3224 19.7762 22.8317 30.6317 -6.7940 13.6220
# 5 22.8430 14.2238 9.1786 -6.7940 34.8167 -1.5770
# 6 4.7780 1.6828 -2.6876 13.6220 -1.5770 30.1880
#
#
#
# Elastic Compliance Matrix: (Units=1/GPa)
#
#
# Indices 1 2 3 4 5 6 
#
# 1 0.007181 -0.000744 -0.001864 -0.002555 -0.004431 -0.000340
# 2 -0.000744 0.017659 -0.000078 -0.015597 -0.009492 0.005668
# 3 -0.001864 -0.000078 0.021854 -0.022472 -0.008351 0.011949
# 4 -0.002555 -0.015597 -0.022472 0.083500 0.028594 -0.036912
# 5 -0.004431 -0.009492 -0.008351 0.028594 0.042827 -0.010179
# 6 -0.000340 0.005668 0.011949 -0.036912 -0.010179 0.050052
#
#
# Mechanical properties :
#
#
# Convention : Reuss Voigt Hill
#
# Bulk Modulus (GPa) = 24.19932 58.24641 41.22286
# Shear Modulus (GPa) = 20.64257 34.84348 27.74302
#
# Velocity S-wave (km/s) = 3.06865 3.98682 3.55748
# Velocity P-wave (km/s) = 4.85743 6.91112 5.97320
#
# Compressibility (1/GPa) = 0.04132348
#
# Stress axis : x y z
#
# Youngs Moduli (GPa) = 139.24960 56.62890 45.75847
#
# Poissons Ratio (x) = 0.04210 0.08527
# Poissons Ratio (y) = 0.10353 0.00358
# Poissons Ratio (z) = 0.25950 0.00443
#
# Static dielectric constant tensor:
#      x y z
#    x 1.902560 -0.030520 0.043770 
#    y -0.030520 1.894360 -0.010510 
#    z 0.043770 -0.010510 1.863590 
# 
# From -- ./inp_files/271761.got.cif
#   From: 2010.05.17/outbox.cif.g08.bks.cpg/sg2_136_cif.got.tgz:271761.got - 2010.06.03 11:33:40.
