data_PCOD9023782
_publ_section_title
;
Structure prediction by ZEFSAII (Michael W. Deem and Ramdas Pophale) SiO2 
 PCOD9023782
Probable space group: P -1
;
_chemical_formula_sum "Si O2"
_cell_formula_units_Z 14
_cell_length_a 24.554126
_cell_length_b 5.124493
_cell_length_c 10.791871
_cell_angle_alpha 107.452673
_cell_angle_beta 140.742800
_cell_angle_gamma 97.889989
_cell_volume 648.235212
_symmetry_space_group_name_H-M "P -1"
_symmetry_group_IT_number 2
_symmetry_cell_setting 'triclinic'
loop_
_space_group_symop_operation_xyz
x,y,z
-x,-y,-z
loop_
_atom_site_type_symbol
_atom_site_label
_atom_site_fract_x
_atom_site_fract_y
_atom_site_fract_z
Si Si1 0.883357 0.552390 0.525802
Si Si2 0.919744 0.131440 0.239157
Si Si3 0.288782 0.297936 0.319970
Si Si4 0.747062 0.381722 0.485508
Si Si5 0.377949 0.347855 0.735944
Si Si6 0.198680 0.208047 0.782999
Si Si7 0.425621 0.619927 0.370594
O O1 0.850475 0.589017 0.608684
O O2 0.808531 0.566153 0.296750
O O3 0.004309 0.845016 0.730390
O O4 0.856301 0.177213 0.418877
O O5 0.000000 0.500000 0.500000
O O6 0.870157 0.850656 0.222210
O O7 0.810992 0.043934 0.973060
O O8 0.237226 0.446735 0.329160
O O9 0.349298 0.244945 0.525592
O O10 0.372802 0.569284 0.405152
O O11 0.652557 0.393184 0.262380
O O12 0.701698 0.991987 0.370874
O O13 0.500000 0.500000 0.000000
O O14 0.321340 0.381485 0.063938
O O15 0.500000 0.500000 0.500000
O O16 0.500000 0.000000 0.500000
#
# Coordination Sequence:
#
# PCOD9023782 Si02
#       7
#     2   2   2   2   2   2   2
#     4  11  21  40  63  92 124 161 211 257 306 374
#     4   9  20  43  67  92 124 172 204 262 322 364
#     4   9  24  42  63  94 130 158 215 256 310 384
#     4  10  23  40  62  95 124 165 207 258 306 374
#     4  10  22  42  62  88 127 170 205 245 317 368
#     4  10  22  40  61  92 126 161 212 257 308 379
#     4  11  24  40  62  91 122 164 205 263 315 363
#
# _framework density 21.597100000000001
#
# number of rings (size 3 to 8) (size 9 to 14) (size 15 to 20)
#    0.857    1.143    0.000    2.571    2.000    4.000 
#   10.286    0.714    0.000    0.000    0.000    0.000 
#    0.000    0.000    0.000    0.000    0.000    0.000 
#
# Total GULP energy -78095.522795 kJ/mol
# GULP energy per Si atom -5578.251628 kJ/mol
# Density = 2.154794 g / cm^3
# Si number density = 21.597100 Si / 1000 Ang^3
#
#
#
# Elastic Constant Matrix: (Units=GPa)
#
#
# Indices 1 2 3 4 5 6 
#
# 1 133.5577 34.1810 30.3482 9.9768 20.4278 35.8491
# 2 34.1810 107.3555 26.2576 -2.3793 5.4790 12.5082
# 3 30.3482 26.2576 100.6715 -5.9773 16.3257 16.8850
# 4 9.9768 -2.3793 -5.9773 24.2088 4.0195 5.0141
# 5 20.4278 5.4790 16.3257 4.0195 20.7854 3.9596
# 6 35.8491 12.5082 16.8850 5.0141 3.9596 31.2116
#
#
#
# Elastic Compliance Matrix: (Units=1/GPa)
#
#
# Indices 1 2 3 4 5 6 
#
# 1 0.013007 -0.002261 0.000321 -0.001237 -0.009768 -0.012769
# 2 -0.002261 0.010619 -0.001977 0.001541 0.000858 -0.000945
# 3 0.000321 -0.001977 0.013481 0.006068 -0.010311 -0.006536
# 4 -0.001237 0.001541 0.006068 0.047147 -0.011435 -0.008603
# 5 -0.009768 0.000858 -0.010311 -0.011435 0.065903 0.009929
# 6 -0.012769 -0.000945 -0.006536 -0.008603 0.009929 0.050743
#
#
# Mechanical properties :
#
#
# Convention : Reuss Voigt Hill
#
# Bulk Modulus (GPa) = 34.16216 58.12872 46.14544
# Shear Modulus (GPa) = 22.88427 31.96102 27.42264
#
# Velocity S-wave (km/s) = 3.25868 3.85109 3.56720
# Velocity P-wave (km/s) = 5.47822 6.83725 6.19512
#
# Compressibility (1/GPa) = 0.02927216
#
# Stress axis : x y z
#
# Youngs Moduli (GPa) = 76.88208 94.17266 74.17946
#
# Poissons Ratio (x) = 0.21292 -0.02381
# Poissons Ratio (y) = 0.17383 0.14667
# Poissons Ratio (z) = -0.02467 0.18620
#
# Static dielectric constant tensor:
#      x y z
#    x 1.842390 -0.007260 -0.017530 
#    y -0.007260 1.759770 -0.020510 
#    z -0.017530 -0.020510 1.778220 
# 
# From -- ./inp_files/475849.got.cif
#   From: 2010.05.17/outbox.cif.g08.bks.cpg/sg2_238_cif.got.tgz:475849.got - 2010.06.03 11:33:40.
