data_PCOD9023553
_publ_section_title
;
Structure prediction by ZEFSAII (Michael W. Deem and Ramdas Pophale) SiO2 
 PCOD9023553
Probable space group: P -1
;
_chemical_formula_sum "Si O2"
_cell_formula_units_Z 16
_cell_length_a 24.380701
_cell_length_b 9.503556
_cell_length_c 14.993696
_cell_angle_alpha 150.450744
_cell_angle_beta 151.089700
_cell_angle_gamma 48.052975
_cell_volume 762.563825
_symmetry_space_group_name_H-M "P -1"
_symmetry_group_IT_number 2
_symmetry_cell_setting 'triclinic'
loop_
_space_group_symop_operation_xyz
x,y,z
-x,-y,-z
loop_
_atom_site_type_symbol
_atom_site_label
_atom_site_fract_x
_atom_site_fract_y
_atom_site_fract_z
Si Si1 0.060894 0.279444 0.564051
Si Si2 0.611421 0.802306 0.357371
Si Si3 0.764106 0.449794 0.421514
Si Si4 0.803465 0.378973 0.886349
Si Si5 0.430290 0.996558 0.309027
Si Si6 0.028997 0.611120 0.203146
Si Si7 0.631998 0.728569 0.777430
Si Si8 0.841044 0.498356 0.363422
O O1 0.109168 0.291059 0.537536
O O2 0.928099 0.302368 0.381479
O O3 0.052246 0.972088 0.432619
O O4 0.149791 0.552996 0.906438
O O5 0.687256 0.659244 0.448926
O O6 0.538951 0.001045 0.400707
O O7 0.706988 0.025711 0.546761
O O8 0.500000 0.500000 0.000000
O O9 0.854022 0.443073 0.623365
O O10 0.841090 0.596157 0.520849
O O11 0.679018 0.088281 0.076909
O O12 0.733638 0.598953 0.879141
O O13 0.918180 0.445597 0.022069
O O14 0.500000 0.000000 0.500000
O O15 0.385582 0.250434 0.343000
O O16 0.303654 0.695508 0.965778
O O17 0.000000 0.500000 0.000000
O O18 0.500000 0.500000 0.500000
#
# Coordination Sequence:
#
# PCOD9023553 Si02
#       8
#     2   2   2   2   2   2   2   2
#     4  11  23  44  70 101 131 179 233 276 332 413
#     4  12  24  42  67 100 134 177 223 275 343 400
#     4  11  23  43  67  96 141 174 222 283 339 400
#     4  12  24  43  73  95 135 182 225 277 345 405
#     4  11  23  40  66  99 133 176 226 280 322 401
#     4  12  27  42  67 101 138 176 222 289 341 395
#     4  11  21  41  70  98 125 182 227 267 338 407
#     4  10  22  39  71  97 131 177 226 276 330 404
#
# _framework density 20.981852
#
# number of rings (size 3 to 8) (size 9 to 14) (size 15 to 20)
#    0.000    0.750    6.250    2.625    1.750    4.500 
#    0.000    0.000    0.000    3.750    0.000    0.000 
#    0.000    0.000    0.000    0.000    0.000    0.000 
#
# Total GULP energy -89211.641801 kJ/mol
# GULP energy per Si atom -5575.727613 kJ/mol
# Density = 2.093410 g / cm^3
# Si number density = 20.981852 Si / 1000 Ang^3
#
#
#
# Elastic Constant Matrix: (Units=GPa)
#
#
# Indices 1 2 3 4 5 6 
#
# 1 52.5830 15.2220 24.4818 -10.3194 8.9568 19.1213
# 2 15.2220 151.9348 43.3287 -28.8918 7.1146 7.6217
# 3 24.4818 43.3287 75.2779 -11.6158 13.9404 12.1537
# 4 -10.3194 -28.8918 -11.6158 45.1930 7.4621 -0.7952
# 5 8.9568 7.1146 13.9404 7.4621 31.0515 -9.8880
# 6 19.1213 7.6217 12.1537 -0.7952 -9.8880 37.4671
#
#
#
# Elastic Compliance Matrix: (Units=1/GPa)
#
#
# Indices 1 2 3 4 5 6 
#
# 1 0.032179 0.001397 -0.003484 0.009751 -0.016677 -0.019771
# 2 0.001397 0.008778 -0.003948 0.005294 -0.002474 -0.001758
# 3 -0.003484 -0.003948 0.020119 0.003390 -0.010012 -0.006515
# 4 0.009751 0.005294 0.003390 0.031140 -0.016483 -0.010842
# 5 -0.016677 -0.002474 -0.010012 -0.016483 0.054403 0.026270
# 6 -0.019771 -0.001758 -0.006515 -0.010842 0.026270 0.045954
#
#
# Mechanical properties :
#
#
# Convention : Reuss Voigt Hill
#
# Bulk Modulus (GPa) = 20.40607 49.54009 34.97308
# Shear Modulus (GPa) = 22.62646 35.85986 29.24316
#
# Velocity S-wave (km/s) = 3.28744 4.13860 3.73733
# Velocity P-wave (km/s) = 4.91491 6.81905 5.94373
#
# Compressibility (1/GPa) = 0.04900504
#
# Stress axis : x y z
#
# Youngs Moduli (GPa) = 31.07595 113.91519 49.70494
#
# Poissons Ratio (x) = -0.15909 0.17318
# Poissons Ratio (y) = -0.04340 0.19624
# Poissons Ratio (z) = 0.10827 0.44975
#
# Static dielectric constant tensor:
#      x y z
#    x 2.695110 0.639220 -0.189380 
#    y 0.639220 2.179110 -0.070410 
#    z -0.189380 -0.070410 1.826140 
# 
# From -- ./inp_files/187900.got.cif
#   From: 2010.05.17/outbox.cif.g08.bks.cpg/sg2_94_cif.got.tgz:187900.got - 2010.06.03 11:33:40.
