data_PCOD9023320
_publ_section_title
;
Structure prediction by ZEFSAII (Michael W. Deem and Ramdas Pophale) SiO2 
 PCOD9023320
Probable space group: P -1
;
_chemical_formula_sum "Si O2"
_cell_formula_units_Z 16
_cell_length_a 15.660231
_cell_length_b 17.835426
_cell_length_c 11.785106
_cell_angle_alpha 140.415848
_cell_angle_beta 31.804875
_cell_angle_gamma 157.034587
_cell_volume 675.760166
_symmetry_space_group_name_H-M "P -1"
_symmetry_group_IT_number 2
_symmetry_cell_setting 'triclinic'
loop_
_space_group_symop_operation_xyz
x,y,z
-x,-y,-z
loop_
_atom_site_type_symbol
_atom_site_label
_atom_site_fract_x
_atom_site_fract_y
_atom_site_fract_z
Si Si1 0.096556 0.846934 0.430441
Si Si2 0.963775 0.613234 0.489131
Si Si3 0.953282 0.352004 0.950313
Si Si4 0.697442 0.566612 0.163133
Si Si5 0.384764 0.800428 0.616619
Si Si6 0.534151 0.804700 0.060409
Si Si7 0.121978 0.829741 0.787872
Si Si8 0.980031 0.943715 0.331654
O O1 0.329362 0.993983 0.429687
O O2 0.897751 0.648758 0.492103
O O3 0.149167 0.805686 0.206518
O O4 0.035189 0.946170 0.592947
O O5 0.237715 0.691560 0.256718
O O6 0.011965 0.725625 0.671615
O O7 0.716286 0.385112 0.523216
O O8 0.201824 0.439173 0.840179
O O9 0.767008 0.268764 0.171934
O O10 0.000000 0.500000 0.000000
O O11 0.498319 0.353968 0.094456
O O12 0.714790 0.712667 0.350942
O O13 0.889539 0.692462 0.983652
O O14 0.310912 0.840003 0.640857
O O15 0.704636 0.951838 0.145339
O O16 0.740234 0.958147 0.904777
O O17 0.000000 0.000000 0.500000
#
# Coordination Sequence:
#
# PCOD9023320 Si02
#       8
#     2   2   2   2   2   2   2   2
#     4  12  25  40  63  95 134 169 213 264 323 377
#     4  12  23  41  68 104 125 159 221 272 327 374
#     4  11  20  39  61  95 130 159 207 273 321 369
#     4  10  22  42  64  93 127 171 218 255 319 383
#     4  11  23  37  65  98 131 160 210 270 325 378
#     4  11  22  41  69  94 126 169 216 265 320 376
#     4  10  22  39  68 100 127 163 209 275 327 381
#     4  11  26  45  62  90 134 182 217 251 313 395
#
# _framework density 23.677039000000001
#
# number of rings (size 3 to 8) (size 9 to 14) (size 15 to 20)
#    0.000    1.000    6.250    1.125    0.000    3.500 
#    0.000    2.500    0.000    4.500    0.000    0.000 
#    0.000    0.000    0.000    0.000    0.000    0.000 
#
# Total GULP energy -89166.178456 kJ/mol
# GULP energy per Si atom -5572.886154 kJ/mol
# Density = 2.362315 g / cm^3
# Si number density = 23.677039 Si / 1000 Ang^3
#
#
#
# Elastic Constant Matrix: (Units=GPa)
#
#
# Indices 1 2 3 4 5 6 
#
# 1 48.2192 10.0417 19.9568 17.2381 8.6156 -17.3504
# 2 10.0417 116.0549 12.6802 67.7834 11.7522 -41.6923
# 3 19.9568 12.6802 58.0843 47.5700 32.9077 -19.2441
# 4 17.2381 67.7834 47.5700 50.0330 -5.4039 9.4494
# 5 8.6156 11.7522 32.9077 -5.4039 32.5589 24.1707
# 6 -17.3504 -41.6923 -19.2441 9.4494 24.1707 4.2649
#
#
#
# Elastic Compliance Matrix: (Units=1/GPa)
#
#
# Indices 1 2 3 4 5 6 
#
# 1 0.025907 -0.001966 -0.012073 0.004532 0.002891 0.005277
# 2 -0.001966 0.007468 -0.006218 -0.001555 0.008150 -0.005791
# 3 -0.012073 -0.006218 0.018728 -0.001922 -0.000587 -0.017810
# 4 0.004532 -0.001555 -0.001922 0.017183 -0.011367 0.020910
# 5 0.002891 0.008150 -0.000587 -0.011367 0.018363 0.009901
# 6 0.005277 -0.005791 -0.017810 0.020910 0.009901 0.016521
#
#
# Mechanical properties :
#
#
# Convention : Reuss Voigt Hill
#
# Bulk Modulus (GPa) = 86.28155 34.19064 60.23610
# Shear Modulus (GPa) = 33.65974 29.35000 31.50487
#
# Velocity S-wave (km/s) = 3.77453 3.52461 3.65171
# Velocity P-wave (km/s) = 7.45092 5.57096 6.57844
#
# Compressibility (1/GPa) = 0.01158996
#
# Stress axis : x y z
#
# Youngs Moduli (GPa) = 38.59952 133.89825 53.39727
#
# Poissons Ratio (x) = 0.26327 0.64464
# Poissons Ratio (y) = 0.07589 0.33201
# Poissons Ratio (z) = 0.46600 0.83254
#
# Static dielectric constant tensor:
#      x y z
#    x 1.845820 0.027670 -0.055770 
#    y 0.027670 1.983230 -0.038860 
#    z -0.055770 -0.038860 1.975180 
# 
# From -- ./inp_files/466996.got.cif
#   From: 2010.05.17/outbox.cif.g08.bks.cpg/sg2_234_cif.got.tgz:466996.got - 2010.06.03 11:33:40.
