data_PCOD9023681
_publ_section_title
;
Structure prediction by ZEFSAII (Michael W. Deem and Ramdas Pophale) SiO2 
 PCOD9023681
Probable space group: P -1
;
_chemical_formula_sum "Si O2"
_cell_formula_units_Z 16
_cell_length_a 8.374568
_cell_length_b 12.079627
_cell_length_c 13.918171
_cell_angle_alpha 118.797399
_cell_angle_beta 69.064419
_cell_angle_gamma 63.129438
_cell_volume 745.567525
_symmetry_space_group_name_H-M "P -1"
_symmetry_group_IT_number 2
_symmetry_cell_setting 'triclinic'
loop_
_space_group_symop_operation_xyz
x,y,z
-x,-y,-z
loop_
_atom_site_type_symbol
_atom_site_label
_atom_site_fract_x
_atom_site_fract_y
_atom_site_fract_z
Si Si1 0.637296 0.660743 0.786231
Si Si2 0.230047 0.374801 0.043868
Si Si3 0.804991 0.285130 0.104482
Si Si4 0.208264 0.643786 0.084687
Si Si5 0.587012 0.998994 0.122469
Si Si6 0.800613 0.730568 0.512441
Si Si7 0.658956 0.631023 0.328731
Si Si8 0.137552 0.049272 0.536110
O O1 0.702188 0.596165 0.856928
O O2 0.370691 0.739039 0.846661
O O3 0.582636 0.840359 0.858730
O O4 0.903759 0.465478 0.594816
O O5 0.215676 0.487735 0.013320
O O6 0.934951 0.490983 0.157395
O O7 0.414401 0.148997 0.914071
O O8 0.625115 0.500042 0.276037
O O9 0.831131 0.279907 0.980819
O O10 0.106623 0.131824 0.011184
O O11 0.012650 0.812429 0.278118
O O12 0.500000 0.500000 0.000000
O O13 0.432474 0.139622 0.306424
O O14 0.722192 0.661940 0.428557
O O15 0.826904 0.851195 0.501831
O O16 0.423878 0.839490 0.418518
O O17 0.000000 0.000000 0.500000
#
# Coordination Sequence:
#
# PCOD9023681 Si02
#       8
#     2   2   2   2   2   2   2   2
#     4  11  21  46  62  89 127 167 208 260 302 366
#     4  10  23  40  64  91 122 161 206 260 305 364
#     4  11  24  40  66  93 127 163 208 256 313 368
#     4  12  22  40  62  94 128 157 204 257 311 374
#     4  11  25  39  66  93 122 167 214 253 307 365
#     4  11  23  41  62  91 127 163 211 256 305 370
#     4  10  22  40  60  90 126 160 200 253 318 367
#     4  12  24  38  62  92 129 165 197 251 321 375
#
# _framework density 21.460160999999999
#
# number of rings (size 3 to 8) (size 9 to 14) (size 15 to 20)
#    0.000    1.000    3.750    3.750    5.250    1.000 
#    0.000    0.625    0.000    0.000    0.000    0.000 
#    0.000    0.000    0.000    0.000    0.000    0.000 
#
# Total GULP energy -89196.470258 kJ/mol
# GULP energy per Si atom -5574.779391 kJ/mol
# Density = 2.141132 g / cm^3
# Si number density = 21.460161 Si / 1000 Ang^3
#
#
#
# Elastic Constant Matrix: (Units=GPa)
#
#
# Indices 1 2 3 4 5 6 
#
# 1 46.3921 -2.7954 9.0849 4.5919 10.7247 12.5456
# 2 -2.7954 64.6489 41.5098 20.2876 8.3242 10.1824
# 3 9.0849 41.5098 97.6951 26.1507 4.9780 8.7281
# 4 4.5919 20.2876 26.1507 36.9760 -4.9497 5.5803
# 5 10.7247 8.3242 4.9780 -4.9497 30.5169 8.6896
# 6 12.5456 10.1824 8.7281 5.5803 8.6896 29.1610
#
#
#
# Elastic Compliance Matrix: (Units=1/GPa)
#
#
# Indices 1 2 3 4 5 6 
#
# 1 0.028010 0.007608 -0.003062 -0.005244 -0.009429 -0.009978
# 2 0.007608 0.026123 -0.008281 -0.009716 -0.008447 -0.005540
# 3 -0.003062 -0.008281 0.015693 -0.006377 -0.000511 0.000884
# 4 -0.005244 -0.009716 -0.006377 0.039899 0.013142 -0.003994
# 5 -0.009429 -0.008447 -0.000511 0.013142 0.042921 -0.008146
# 6 -0.009978 -0.005540 0.000884 -0.003994 -0.008146 0.043446
#
#
# Mechanical properties :
#
#
# Convention : Reuss Voigt Hill
#
# Bulk Modulus (GPa) = 16.03648 33.81496 24.92572
# Shear Modulus (GPa) = 22.28681 30.05991 26.17336
#
# Velocity S-wave (km/s) = 3.22610 3.74669 3.49610
# Velocity P-wave (km/s) = 4.62233 5.87437 5.28555
#
# Compressibility (1/GPa) = 0.06235784
#
# Stress axis : x y z
#
# Youngs Moduli (GPa) = 35.70098 38.27975 63.72197
#
# Poissons Ratio (x) = -0.29125 0.19512
# Poissons Ratio (y) = -0.27163 0.52768
# Poissons Ratio (z) = 0.10932 0.31700
#
# Static dielectric constant tensor:
#      x y z
#    x 1.116490 -0.295530 -0.240310 
#    y -0.295530 1.661400 -0.142340 
#    z -0.240310 -0.142340 1.690600 
# 
# From -- ./inp_files/187416.got.cif
#   From: 2010.05.17/outbox.cif.g08.bks.cpg/sg2_94_cif.got.tgz:187416.got - 2010.06.03 11:33:40.
