data_PCOD9023188
_publ_section_title
;
Structure prediction by ZEFSAII (Michael W. Deem and Ramdas Pophale) SiO2 
 PCOD9023188
Probable space group: P -1
;
_chemical_formula_sum "Si O2"
_cell_formula_units_Z 12
_cell_length_a 6.117844
_cell_length_b 6.576857
_cell_length_c 13.418839
_cell_angle_alpha 94.597255
_cell_angle_beta 106.200239
_cell_angle_gamma 71.981868
_cell_volume 493.045606
_symmetry_space_group_name_H-M "P -1"
_symmetry_group_IT_number 2
_symmetry_cell_setting 'triclinic'
loop_
_space_group_symop_operation_xyz
x,y,z
-x,-y,-z
loop_
_atom_site_type_symbol
_atom_site_label
_atom_site_fract_x
_atom_site_fract_y
_atom_site_fract_z
Si Si1 0.944374 0.216746 0.897562
Si Si2 0.226587 0.857776 0.766226
Si Si3 0.712425 0.921370 0.384179
Si Si4 0.651113 0.954794 0.916433
Si Si5 0.916753 0.554011 0.252434
Si Si6 0.657376 0.659910 0.553808
O O1 0.975086 0.399397 0.836443
O O2 0.063276 0.012757 0.832739
O O3 0.098026 0.198261 0.016841
O O4 0.700219 0.172860 0.895373
O O5 0.499293 0.859041 0.817914
O O6 0.209679 0.626668 0.775247
O O7 0.132034 0.942514 0.646158
O O8 0.730783 0.762805 0.285914
O O9 0.756969 0.752392 0.473122
O O10 0.494761 0.121247 0.401630
O O11 0.500000 0.000000 0.000000
O O12 0.135702 0.474177 0.353535
O O13 0.500000 0.500000 0.500000
#
# Coordination Sequence:
#
# PCOD9023188 Si02
#       6
#     2   2   2   2   2   2
#     4   9  21  41  66  97 136 176 221 282 329 401
#     4  10  22  39  66  98 135 178 223 277 333 401
#     4  10  24  43  65  96 138 178 218 284 331 394
#     4   9  19  41  67  96 136 175 221 276 340 396
#     4  11  24  42  67 102 134 176 229 276 336 400
#     4  11  25  41  67 100 132 180 230 273 337 404
#
# _framework density 24.338521
#
# number of rings (size 3 to 8) (size 9 to 14) (size 15 to 20)
#    0.000    2.000    0.000    1.500    4.667    6.000 
#    3.000    7.500    0.000    0.000    0.000    0.000 
#    0.000    0.000    0.000    0.000    0.000    0.000 
#
# Total GULP energy -66902.975672 kJ/mol
# GULP energy per Si atom -5575.247973 kJ/mol
# Density = 2.428313 g / cm^3
# Si number density = 24.338521 Si / 1000 Ang^3
#
#
#
# Elastic Constant Matrix: (Units=GPa)
#
#
# Indices 1 2 3 4 5 6 
#
# 1 82.0086 56.0537 54.4766 -8.2587 5.1838 43.9383
# 2 56.0537 151.5436 52.6554 -15.8176 0.5954 31.9632
# 3 54.4766 52.6554 115.2382 -37.2840 -11.8764 32.0916
# 4 -8.2587 -15.8176 -37.2840 47.3017 5.1532 -18.0310
# 5 5.1838 0.5954 -11.8764 5.1532 61.3155 -3.0320
# 6 43.9383 31.9632 32.0916 -18.0310 -3.0320 58.2792
#
#
#
# Elastic Compliance Matrix: (Units=1/GPa)
#
#
# Indices 1 2 3 4 5 6 
#
# 1 0.034099 -0.005245 -0.012900 -0.013036 -0.005226 -0.020033
# 2 -0.005245 0.009111 -0.001341 0.001086 0.000006 0.000032
# 3 -0.012900 -0.001341 0.018915 0.013471 0.003853 0.004414
# 4 -0.013036 0.001086 0.013471 0.034477 0.001424 0.012556
# 5 -0.005226 0.000006 0.003853 0.001424 0.017534 0.003168
# 6 -0.020033 0.000032 0.004414 0.012556 0.003168 0.033864
#
#
# Mechanical properties :
#
#
# Convention : Reuss Voigt Hill
#
# Bulk Modulus (GPa) = 43.19066 75.01797 59.10431
# Shear Modulus (GPa) = 25.68179 45.75292 35.71735
#
# Velocity S-wave (km/s) = 3.25189 4.34043 3.83498
# Velocity P-wave (km/s) = 5.64660 7.48390 6.62921
#
# Compressibility (1/GPa) = 0.02315315
#
# Stress axis : x y z
#
# Youngs Moduli (GPa) = 29.32619 109.75405 52.86798
#
# Poissons Ratio (x) = 0.57568 0.68202
# Poissons Ratio (y) = 0.15382 0.07088
# Poissons Ratio (z) = 0.37832 0.14714
#
# Static dielectric constant tensor:
#      x y z
#    x 2.009150 0.011060 0.018200 
#    y 0.011060 1.974770 -0.040110 
#    z 0.018200 -0.040110 2.004780 
# 
# From -- ./inp_files/3188.got.cif
#   From: 2010.05.17/outbox.cif.g08.bks.cpg/sg2_2_cif.got.tgz:3188.got - 2010.06.03 11:33:40.
