data_PCOD9023145
_publ_section_title
;
Structure prediction by ZEFSAII (Michael W. Deem and Ramdas Pophale) SiO2 
 PCOD9023145
Probable space group: P -1
;
_chemical_formula_sum "Si O2"
_cell_formula_units_Z 16
_cell_length_a 5.850864
_cell_length_b 9.063490
_cell_length_c 17.004176
_cell_angle_alpha 53.434261
_cell_angle_beta 101.414299
_cell_angle_gamma 98.259332
_cell_volume 709.532798
_symmetry_space_group_name_H-M "P -1"
_symmetry_group_IT_number 2
_symmetry_cell_setting 'triclinic'
loop_
_space_group_symop_operation_xyz
x,y,z
-x,-y,-z
loop_
_atom_site_type_symbol
_atom_site_label
_atom_site_fract_x
_atom_site_fract_y
_atom_site_fract_z
Si Si1 0.306117 0.909982 0.715777
Si Si2 0.492135 0.449350 0.204980
Si Si3 0.824719 0.434102 0.376867
Si Si4 0.973716 0.837341 0.288844
Si Si5 0.855130 0.755049 0.645547
Si Si6 0.939054 0.941486 0.924894
Si Si7 0.451623 0.828394 0.990819
Si Si8 0.362183 0.887182 0.435046
O O1 0.474396 0.736663 0.784815
O O2 0.071934 0.820087 0.693022
O O3 0.238764 0.030137 0.747285
O O4 0.405240 0.052907 0.613008
O O5 0.705185 0.474061 0.272611
O O6 0.278668 0.402186 0.263886
O O7 0.474392 0.632336 0.096534
O O8 0.890005 0.627413 0.357301
O O9 0.657287 0.301047 0.458867
O O10 0.050059 0.319086 0.406241
O O11 0.173457 0.871594 0.356208
O O12 0.064250 0.891604 0.190950
O O13 0.706779 0.937722 0.572675
O O14 0.173221 0.833709 0.949593
O O15 0.676683 0.849602 0.940450
O O16 0.000000 0.000000 0.000000
O O17 0.500000 0.000000 0.000000
#
# Coordination Sequence:
#
# PCOD9023145 Si02
#       8
#     2   2   2   2   2   2   2   2
#     4   9  22  42  62  85 135 170 219 259 334 394
#     4  10  22  39  66  95 127 170 215 275 325 394
#     4  11  22  36  64  98 127 167 222 267 327 392
#     4  11  24  40  64  92 132 171 212 275 334 398
#     4   9  21  38  64  90 128 168 219 268 323 385
#     4  10  23  41  66  97 131 169 216 279 337 395
#     4  10  22  39  67  98 131 163 216 280 339 391
#     4  10  22  41  61  90 132 176 212 264 329 400
#
# _framework density 22.550048
#
# number of rings (size 3 to 8) (size 9 to 14) (size 15 to 20)
#    0.000    2.000    0.000    2.250    8.750    8.000 
#    0.000    1.250    0.000    0.000    0.000    0.000 
#    0.000    0.000    0.000    0.000    0.000    0.000 
#
# Total GULP energy -89316.380463 kJ/mol
# GULP energy per Si atom -5582.273779 kJ/mol
# Density = 2.249872 g / cm^3
# Si number density = 22.550048 Si / 1000 Ang^3
#
#
#
# Elastic Constant Matrix: (Units=GPa)
#
#
# Indices 1 2 3 4 5 6 
#
# 1 118.7442 16.1520 28.6675 -11.2122 -17.7722 -0.4128
# 2 16.1520 89.6590 39.3306 -9.0862 -16.9105 -1.7725
# 3 28.6675 39.3306 129.3687 -27.9694 -14.5569 -5.1706
# 4 -11.2122 -9.0862 -27.9694 29.9028 9.9077 -7.5073
# 5 -17.7722 -16.9105 -14.5569 9.9077 32.0135 -2.1108
# 6 -0.4128 -1.7725 -5.1706 -7.5073 -2.1108 20.5931
#
#
#
# Elastic Compliance Matrix: (Units=1/GPa)
#
#
# Indices 1 2 3 4 5 6 
#
# 1 0.009509 -0.000210 -0.001315 0.001010 0.004300 0.000652
# 2 -0.000210 0.013828 -0.003745 -0.001231 0.005893 0.000401
# 3 -0.001315 -0.003745 0.011808 0.011209 -0.000368 0.006665
# 4 0.001010 -0.001231 0.011209 0.052421 -0.009843 0.020830
# 5 0.004300 0.005893 -0.000368 -0.009843 0.039680 0.000980
# 6 0.000652 0.000401 0.006665 0.020830 0.000980 0.057975
#
#
# Mechanical properties :
#
#
# Convention : Reuss Voigt Hill
#
# Bulk Modulus (GPa) = 40.64008 56.23024 48.43516
# Shear Modulus (GPa) = 24.51429 33.41000 28.96214
#
# Velocity S-wave (km/s) = 3.30071 3.85332 3.58767
# Velocity P-wave (km/s) = 5.70855 6.69233 6.21992
#
# Compressibility (1/GPa) = 0.02460625
#
# Stress axis : x y z
#
# Youngs Moduli (GPa) = 105.16636 72.31462 84.68873
#
# Poissons Ratio (x) = 0.01517 0.11136
# Poissons Ratio (y) = 0.02207 0.31713
# Poissons Ratio (z) = 0.13829 0.27080
#
# Static dielectric constant tensor:
#      x y z
#    x 1.899780 -0.030060 0.057850 
#    y -0.030060 1.837970 0.040970 
#    z 0.057850 0.040970 1.829500 
# 
# From -- ./inp_files/94329.got.cif
#   From: 2010.05.17/outbox.cif.g08.bks.cpg/sg2_48_cif.got.tgz:94329.got - 2010.06.03 11:33:40.
