data_PCOD9023406
_publ_section_title
;
Structure prediction by ZEFSAII (Michael W. Deem and Ramdas Pophale) SiO2 
 PCOD9023406
Probable space group: P -1
;
_chemical_formula_sum "Si O2"
_cell_formula_units_Z 14
_cell_length_a 23.032520
_cell_length_b 4.981275
_cell_length_c 5.228764
_cell_angle_alpha 86.675205
_cell_angle_beta 64.216029
_cell_angle_gamma 104.065070
_cell_volume 514.696991
_symmetry_space_group_name_H-M "P -1"
_symmetry_group_IT_number 2
_symmetry_cell_setting 'triclinic'
loop_
_space_group_symop_operation_xyz
x,y,z
-x,-y,-z
loop_
_atom_site_type_symbol
_atom_site_label
_atom_site_fract_x
_atom_site_fract_y
_atom_site_fract_z
Si Si1 0.581095 0.710051 0.156825
Si Si2 0.957440 0.625673 0.766619
Si Si3 0.825429 0.642652 0.122676
Si Si4 0.539345 0.840182 0.742744
Si Si5 0.222260 0.842939 0.374188
Si Si6 0.713316 0.584707 0.973379
Si Si7 0.910973 0.124874 0.298979
O O1 0.568935 0.916537 0.393359
O O2 0.513671 0.459490 0.221193
O O3 0.598349 0.839419 0.831516
O O4 0.636333 0.570708 0.163053
O O5 0.887785 0.670386 0.806637
O O6 0.000000 0.500000 0.500000
O O7 0.018042 0.894582 0.729950
O O8 0.932991 0.393869 0.051384
O O9 0.762904 0.707180 0.106049
O O10 0.793812 0.336064 0.325411
O O11 0.867841 0.855350 0.241222
O O12 0.500000 0.000000 0.000000
O O13 0.267528 0.691869 0.132394
O O14 0.147190 0.820731 0.411878
O O15 0.261214 0.170638 0.299448
#
# Coordination Sequence:
#
# PCOD9023406 Si02
#       7
#     2   2   2   2   2   2   2
#     4  10  25  45  75 115 155 202 261 315 387 461
#     4  10  22  39  68  98 134 186 243 307 379 448
#     4  11  25  45  72  99 148 186 249 309 379 454
#     4  10  22  48  77 112 154 202 256 321 379 460
#     4  11  26  47  69 101 149 188 246 306 367 456
#     4  12  28  46  74 110 145 201 245 305 381 457
#     4  10  22  42  66 100 136 189 241 313 375 444
#
# _framework density 27.200469999999999
#
# number of rings (size 3 to 8) (size 9 to 14) (size 15 to 20)
#    0.000    1.429    1.429    1.714   10.000    0.571 
#    0.000    0.000    0.000    0.000    0.000    0.000 
#    0.000    0.000    0.000    0.000    0.000    0.000 
#
# Total GULP energy -78160.435776 kJ/mol
# GULP energy per Si atom -5582.888270 kJ/mol
# Density = 2.713856 g / cm^3
# Si number density = 27.200470 Si / 1000 Ang^3
#
#
#
# Elastic Constant Matrix: (Units=GPa)
#
#
# Indices 1 2 3 4 5 6 
#
# 1 187.1001 18.6769 40.9644 18.0429 -3.1962 9.7844
# 2 18.6769 76.9882 27.0669 18.3308 8.6740 -8.4953
# 3 40.9644 27.0669 108.2156 38.2206 9.2113 10.9056
# 4 18.0429 18.3308 38.2206 60.7611 -3.6443 3.7033
# 5 -3.1962 8.6740 9.2113 -3.6443 37.9791 7.3878
# 6 9.7844 -8.4953 10.9056 3.7033 7.3878 27.8616
#
#
#
# Elastic Compliance Matrix: (Units=1/GPa)
#
#
# Indices 1 2 3 4 5 6 
#
# 1 0.006025 -0.001227 -0.001899 0.000010 0.001675 -0.002192
# 2 -0.001227 0.016692 -0.002798 -0.003745 -0.005251 0.008506
# 3 -0.001899 -0.002798 0.013847 -0.007233 -0.002815 -0.003898
# 4 0.000010 -0.003745 -0.007233 0.022619 0.005312 -0.002729
# 5 0.001675 -0.005251 -0.002815 0.005312 0.030800 -0.009961
# 6 -0.002192 0.008506 -0.003898 -0.002729 -0.009961 0.043785
#
#
# Mechanical properties :
#
#
# Convention : Reuss Voigt Hill
#
# Bulk Modulus (GPa) = 40.46017 60.63560 50.54788
# Shear Modulus (GPa) = 32.49789 44.36008 38.42898
#
# Velocity S-wave (km/s) = 3.46027 4.04277 3.76281
# Velocity P-wave (km/s) = 5.55623 6.64323 6.12390
#
# Compressibility (1/GPa) = 0.02471567
#
# Stress axis : x y z
#
# Youngs Moduli (GPa) = 165.96598 59.90814 72.21943
#
# Poissons Ratio (x) = 0.07351 0.13715
# Poissons Ratio (y) = 0.20364 0.20209
# Poissons Ratio (z) = 0.31517 0.16764
#
# Static dielectric constant tensor:
#      x y z
#    x 2.252950 -0.075040 0.009920 
#    y -0.075040 2.190360 0.039230 
#    z 0.009920 0.039230 2.306340 
# 
# From -- ./inp_files/114714.got.cif
#   From: 2010.05.17/outbox.cif.g08.bks.cpg/sg2_58_cif.got.tgz:114714.got - 2010.06.03 11:33:40.
