data_PCOD9023435
_publ_section_title
;
Structure prediction by ZEFSAII (Michael W. Deem and Ramdas Pophale) SiO2 
 PCOD9023435
Probable space group: P -1
;
_chemical_formula_sum "Si O2"
_cell_formula_units_Z 14
_cell_length_a 14.319130
_cell_length_b 11.824180
_cell_length_c 6.635299
_cell_angle_alpha 137.599131
_cell_angle_beta 128.475993
_cell_angle_gamma 49.230333
_cell_volume 551.752743
_symmetry_space_group_name_H-M "P -1"
_symmetry_group_IT_number 2
_symmetry_cell_setting 'triclinic'
loop_
_space_group_symop_operation_xyz
x,y,z
-x,-y,-z
loop_
_atom_site_type_symbol
_atom_site_label
_atom_site_fract_x
_atom_site_fract_y
_atom_site_fract_z
Si Si1 0.161244 0.842782 0.759352
Si Si2 0.191495 0.603849 0.122816
Si Si3 0.253612 0.173044 0.398901
Si Si4 0.630552 0.367813 0.913564
Si Si5 0.203767 0.339706 0.155831
Si Si6 0.983976 0.334794 0.428025
Si Si7 0.626517 0.989778 0.273352
O O1 0.161520 0.784902 0.453210
O O2 0.036123 0.823688 0.673955
O O3 0.269466 0.696261 0.850905
O O4 0.198372 0.018506 0.055451
O O5 0.319680 0.544259 0.085330
O O6 0.219424 0.462053 0.157557
O O7 0.087339 0.654432 0.867349
O O8 0.284678 0.274057 0.384313
O O9 0.366200 0.093641 0.603726
O O10 0.128962 0.301452 0.521712
O O11 0.625510 0.186861 0.570013
O O12 0.500000 0.500000 0.000000
O O13 0.073788 0.481803 0.273171
O O14 0.246491 0.143202 0.848291
O O15 0.500000 0.000000 0.000000
#
# Coordination Sequence:
#
# PCOD9023435 Si02
#       7
#     2   2   2   2   2   2   2
#     4   9  21  40  65  99 137 173 225 288 337 404
#     4  10  22  41  66 102 134 182 225 275 347 409
#     4  11  23  43  66 101 139 178 230 281 341 407
#     4  10  23  45  71  98 129 179 236 285 336 406
#     4  11  24  43  65  99 141 178 223 279 344 406
#     4  10  22  39  69 101 138 178 226 282 336 408
#     4  11  27  46  69  99 134 182 230 286 345 401
#
# _framework density 25.373684999999998
#
# number of rings (size 3 to 8) (size 9 to 14) (size 15 to 20)
#    0.000    1.714    0.000    2.571    6.000    5.143 
#    5.143    0.000    0.000    0.000    0.000    0.000 
#    0.000    0.000    0.000    0.000    0.000    0.000 
#
# Total GULP energy -78159.990717 kJ/mol
# GULP energy per Si atom -5582.856480 kJ/mol
# Density = 2.531593 g / cm^3
# Si number density = 25.373685 Si / 1000 Ang^3
#
#
#
# Elastic Constant Matrix: (Units=GPa)
#
#
# Indices 1 2 3 4 5 6 
#
# 1 111.8510 51.1898 45.4824 -29.5476 -40.0040 12.4563
# 2 51.1898 107.7027 60.2849 -17.3895 -18.2128 18.4737
# 3 45.4824 60.2849 192.0106 -12.3232 -24.4417 3.6636
# 4 -29.5476 -17.3895 -12.3232 57.9278 -6.5686 -15.0242
# 5 -40.0040 -18.2128 -24.4417 -6.5686 40.0731 -4.8914
# 6 12.4563 18.4737 3.6636 -15.0242 -4.8914 34.5294
#
#
#
# Elastic Compliance Matrix: (Units=1/GPa)
#
#
# Indices 1 2 3 4 5 6 
#
# 1 0.022828 -0.005433 0.000033 0.013636 0.023047 0.003866
# 2 -0.005433 0.014330 -0.003399 -0.000971 -0.001879 -0.006035
# 3 0.000033 -0.003399 0.006699 0.001311 0.003046 0.002097
# 4 0.013636 -0.000971 0.001311 0.029366 0.020139 0.011091
# 5 0.023047 -0.001879 0.003046 0.020139 0.053326 0.008685
# 6 0.003866 -0.006035 0.002097 0.011091 0.008685 0.036629
#
#
# Mechanical properties :
#
#
# Convention : Reuss Voigt Hill
#
# Bulk Modulus (GPa) = 38.07935 80.60873 59.34404
# Shear Modulus (GPa) = 26.38157 43.47989 34.93073
#
# Velocity S-wave (km/s) = 3.22797 4.14403 3.71435
# Velocity P-wave (km/s) = 5.37894 7.39831 6.46792
#
# Compressibility (1/GPa) = 0.02626095
#
# Stress axis : x y z
#
# Youngs Moduli (GPa) = 43.80666 69.78451 149.27633
#
# Poissons Ratio (x) = 0.37911 -0.00500
# Poissons Ratio (y) = 0.23798 0.50733
# Poissons Ratio (z) = -0.00147 0.23717
#
# Static dielectric constant tensor:
#      x y z
#    x 2.037550 0.013570 0.097660 
#    y 0.013570 2.019930 0.087180 
#    z 0.097660 0.087180 2.145780 
# 
# From -- ./inp_files/95678.got.cif
#   From: 2010.05.17/outbox.cif.g08.bks.cpg/sg2_48_cif.got.tgz:95678.got - 2010.06.03 11:33:40.
