data_PCOD9023710
_publ_section_title
;
Structure prediction by ZEFSAII (Michael W. Deem and Ramdas Pophale) SiO2 
 PCOD9023710
Probable space group: P -1
;
_chemical_formula_sum "Si O2"
_cell_formula_units_Z 11
_cell_length_a 8.324009
_cell_length_b 15.757592
_cell_length_c 12.460151
_cell_angle_alpha 25.998716
_cell_angle_beta 34.135461
_cell_angle_gamma 43.446485
_cell_volume 400.950069
_symmetry_space_group_name_H-M "P -1"
_symmetry_group_IT_number 2
_symmetry_cell_setting 'triclinic'
loop_
_space_group_symop_operation_xyz
x,y,z
-x,-y,-z
loop_
_atom_site_type_symbol
_atom_site_label
_atom_site_fract_x
_atom_site_fract_y
_atom_site_fract_z
Si Si1 0.274304 0.621148 0.925403
Si Si2 0.263640 0.787441 0.518540
Si Si3 0.705435 0.582014 0.409153
Si Si4 0.928302 0.099371 0.035817
Si Si5 0.500000 0.000000 0.500000
Si Si6 0.598456 0.813978 0.888434
O O1 0.320278 0.635406 0.756658
O O2 0.349753 0.833597 0.688573
O O3 0.500000 0.500000 0.000000
O O4 0.939687 0.575527 0.193112
O O5 0.436685 0.717398 0.400229
O O6 0.921977 0.784174 0.712020
O O7 0.386794 0.999869 0.251654
O O8 0.577839 0.369032 0.752823
O O9 0.889241 0.706373 0.257495
O O10 0.852676 0.937161 0.348623
O O11 0.589388 0.152547 0.154450
O O12 0.000000 0.000000 0.000000
#
# Coordination Sequence:
#
# PCOD9023710 Si02
#       6
#     2   2   2   2   1   2
#     4  11  26  41  67  99 129 168 221 271 318 386
#     4  11  25  47  64  95 138 173 210 271 331 384
#     4  11  25  41  69  96 127 177 221 263 320 389
#     4  11  21  41  68  94 130 168 220 266 317 384
#     4  10  22  40  60  96 128 162 216 264 320 378
#     4  11  24  43  69  95 136 172 213 271 327 386
#
# _framework density 27.434835
#
# number of rings (size 3 to 8) (size 9 to 14) (size 15 to 20)
#    0.000    1.091    3.636    1.091   10.182    0.727 
#    0.000    5.455    0.000    0.000    0.000    0.000 
#    0.000    0.000    0.000    0.000    0.000    0.000 
#
# Total GULP energy -61437.884932 kJ/mol
# GULP energy per Si atom -5585.262267 kJ/mol
# Density = 2.737239 g / cm^3
# Si number density = 27.434835 Si / 1000 Ang^3
#
#
#
# Elastic Constant Matrix: (Units=GPa)
#
#
# Indices 1 2 3 4 5 6 
#
# 1 96.3680 29.0500 50.7290 1.2611 -17.2035 2.5512
# 2 29.0500 116.5638 73.5383 28.5449 3.0573 6.1602
# 3 50.7290 73.5383 244.0207 6.0801 -26.8804 15.0175
# 4 1.2611 28.5449 6.0801 48.7332 14.3414 -7.6452
# 5 -17.2035 3.0573 -26.8804 14.3414 51.8024 5.1525
# 6 2.5512 6.1602 15.0175 -7.6452 5.1525 50.0188
#
#
#
# Elastic Compliance Matrix: (Units=1/GPa)
#
#
# Indices 1 2 3 4 5 6 
#
# 1 0.012484 -0.002264 -0.001518 0.000131 0.003480 -0.000241
# 2 -0.002264 0.013088 -0.003334 -0.007083 -0.001148 -0.001460
# 3 -0.001518 -0.003334 0.005815 0.000203 0.002805 -0.001516
# 4 0.000131 -0.007083 0.000203 0.027830 -0.007720 0.005854
# 5 0.003480 -0.001148 0.002805 -0.007720 0.024577 -0.004590
# 6 -0.000241 -0.001460 -0.001516 0.005854 -0.004590 0.022007
#
#
# Mechanical properties :
#
#
# Convention : Reuss Voigt Hill
#
# Bulk Modulus (GPa) = 58.28877 84.84302 71.56589
# Shear Modulus (GPa) = 39.76055 50.35324 45.05689
#
# Velocity S-wave (km/s) = 3.81106 4.28878 4.05696
# Velocity P-wave (km/s) = 6.37636 7.45099 6.93452
#
# Compressibility (1/GPa) = 0.01715596
#
# Stress axis : x y z
#
# Youngs Moduli (GPa) = 80.09971 76.40445 171.95495
#
# Poissons Ratio (x) = 0.17299 0.26106
# Poissons Ratio (y) = 0.18136 0.57326
# Poissons Ratio (z) = 0.12161 0.25471
#
# Static dielectric constant tensor:
#      x y z
#    x 2.313500 -0.051240 0.106220 
#    y -0.051240 2.204930 0.088100 
#    z 0.106220 0.088100 2.204020 
# 
# From -- ./inp_files/234966.got.cif
#   From: 2010.05.17/outbox.cif.g08.bks.cpg/sg2_118_cif.got.tgz:234966.got - 2010.06.03 11:33:40.
