data_PCOD9023609
_publ_section_title
;
Structure prediction by ZEFSAII (Michael W. Deem and Ramdas Pophale) SiO2 
 PCOD9023609
Probable space group: P -1
;
_chemical_formula_sum "Si O2"
_cell_formula_units_Z 16
_cell_length_a 13.204139
_cell_length_b 9.328363
_cell_length_c 13.585806
_cell_angle_alpha 91.510143
_cell_angle_beta 148.482507
_cell_angle_gamma 106.105591
_cell_volume 716.174601
_symmetry_space_group_name_H-M "P -1"
_symmetry_group_IT_number 2
_symmetry_cell_setting 'triclinic'
loop_
_space_group_symop_operation_xyz
x,y,z
-x,-y,-z
loop_
_atom_site_type_symbol
_atom_site_label
_atom_site_fract_x
_atom_site_fract_y
_atom_site_fract_z
Si Si1 0.192089 0.176967 0.910985
Si Si2 0.575081 0.280473 0.362433
Si Si3 0.884967 0.786477 0.707000
Si Si4 0.491535 0.167139 0.994357
Si Si5 0.495876 0.758115 0.483412
Si Si6 0.757645 0.677311 0.237831
Si Si7 0.721708 0.077516 0.808241
Si Si8 0.974654 0.607094 0.600109
O O1 0.346465 0.277822 0.137114
O O2 0.394491 0.171360 0.020621
O O3 0.126784 0.262472 0.774096
O O4 0.977830 0.982666 0.753850
O O5 0.633931 0.344466 0.526128
O O6 0.795794 0.406217 0.478951
O O7 0.479196 0.076100 0.288513
O O8 0.616037 0.688810 0.516213
O O9 0.942235 0.706441 0.663402
O O10 0.041582 0.813795 0.931983
O O11 0.755503 0.324737 0.187398
O O12 0.304773 0.184258 0.777431
O O13 0.500000 0.000000 0.000000
O O14 0.344068 0.800990 0.292668
O O15 0.706153 0.949541 0.707728
O O16 0.893371 0.650313 0.433339
O O17 0.500000 0.500000 0.000000
#
# Coordination Sequence:
#
# PCOD9023609 Si02
#       8
#     2   2   2   2   2   2   2   2
#     4   9  20  39  58  84 117 155 201 243 289 355
#     4   9  19  37  61  85 114 155 195 243 299 358
#     4  11  21  35  61  88 114 160 194 243 304 355
#     4  10  22  40  58  83 126 160 196 258 287 358
#     4   9  19  39  63  83 119 150 203 244 293 359
#     4  10  22  41  58  88 125 155 209 250 287 373
#     4   8  19  40  57  84 118 147 204 249 281 362
#     4  12  22  39  61  88 125 161 197 242 320 340
#
# _framework density 22.340921000000002
#
# number of rings (size 3 to 8) (size 9 to 14) (size 15 to 20)
#    1.500    0.750    2.500    0.375    0.000    5.500 
#    6.750    1.875    0.000    0.000    0.000    0.000 
#    0.000    0.000    0.000    0.000    0.000    0.000 
#
# Total GULP energy -89122.996064 kJ/mol
# GULP energy per Si atom -5570.187254 kJ/mol
# Density = 2.229007 g / cm^3
# Si number density = 22.340921 Si / 1000 Ang^3
#
#
#
# Elastic Constant Matrix: (Units=GPa)
#
#
# Indices 1 2 3 4 5 6 
#
# 1 57.9430 28.2632 12.8777 -18.1795 3.9719 9.8580
# 2 28.2632 99.9004 27.5464 -25.8797 6.9060 21.9685
# 3 12.8777 27.5464 39.6215 -19.0530 2.2917 9.1033
# 4 -18.1795 -25.8797 -19.0530 35.0300 10.4610 -8.9191
# 5 3.9719 6.9060 2.2917 10.4610 20.4760 2.1017
# 6 9.8580 21.9685 9.1033 -8.9191 2.1017 34.2985
#
#
#
# Elastic Compliance Matrix: (Units=1/GPa)
#
#
# Indices 1 2 3 4 5 6 
#
# 1 0.023546 -0.002353 0.001952 0.014593 -0.011315 -0.001290
# 2 -0.002353 0.016150 -0.003933 0.009864 -0.009025 -0.005506
# 3 0.001952 -0.003933 0.040334 0.024433 -0.015903 -0.001419
# 4 0.014593 0.009864 0.024433 0.071524 -0.045886 0.004414
# 5 -0.011315 -0.009025 -0.015903 -0.045886 0.079665 -0.003560
# 6 -0.001290 -0.005506 -0.001419 0.004414 -0.003560 0.034796
#
#
# Mechanical properties :
#
#
# Convention : Reuss Voigt Hill
#
# Bulk Modulus (GPa) = 14.01325 37.20439 25.60882
# Shear Modulus (GPa) = 16.75207 26.54608 21.64907
#
# Velocity S-wave (km/s) = 2.74129 3.45081 3.11631
# Velocity P-wave (km/s) = 4.03802 5.70671 4.94329
#
# Compressibility (1/GPa) = 0.07136102
#
# Stress axis : x y z
#
# Youngs Moduli (GPa) = 42.46977 61.91827 24.79312
#
# Poissons Ratio (x) = 0.14571 -0.04838
# Poissons Ratio (y) = 0.09995 0.09751
# Poissons Ratio (z) = -0.08288 0.24351
#
# Static dielectric constant tensor:
#      x y z
#    x 1.873740 -0.012700 -0.039380 
#    y -0.012700 1.914060 0.011520 
#    z -0.039380 0.011520 1.838470 
# 
# From -- ./inp_files/530558.got.cif
#   From: 2010.05.17/outbox.cif.g08.bks.cpg/sg2_266_cif.got.tgz:530558.got - 2010.06.03 11:33:40.
