data_PCOD9023594
_publ_section_title
;
Structure prediction by ZEFSAII (Michael W. Deem and Ramdas Pophale) SiO2 
 PCOD9023594
Probable space group: P -1
;
_chemical_formula_sum "Si O2"
_cell_formula_units_Z 14
_cell_length_a 7.740118
_cell_length_b 7.106154
_cell_length_c 12.531858
_cell_angle_alpha 100.775726
_cell_angle_beta 104.057952
_cell_angle_gamma 82.789658
_cell_volume 654.524668
_symmetry_space_group_name_H-M "P -1"
_symmetry_group_IT_number 2
_symmetry_cell_setting 'triclinic'
loop_
_space_group_symop_operation_xyz
x,y,z
-x,-y,-z
loop_
_atom_site_type_symbol
_atom_site_label
_atom_site_fract_x
_atom_site_fract_y
_atom_site_fract_z
Si Si1 0.289061 0.588901 0.352143
Si Si2 0.294156 0.376298 0.541146
Si Si3 0.049206 0.066198 0.184072
Si Si4 0.359132 0.259613 0.173136
Si Si5 0.245351 0.734131 0.691238
Si Si6 0.798305 0.051883 0.507869
Si Si7 0.055363 0.276491 0.991665
O O1 0.223072 0.464702 0.427856
O O2 0.498581 0.596407 0.407430
O O3 0.280494 0.466017 0.231227
O O4 0.209351 0.807094 0.376859
O O5 0.207709 0.513424 0.636555
O O6 0.280426 0.150672 0.514356
O O7 0.926878 0.152457 0.270314
O O8 0.979987 0.189423 0.080849
O O9 0.258802 0.107750 0.215433
O O10 0.010751 0.849770 0.127519
O O11 0.572061 0.248985 0.213040
O O12 0.269475 0.241683 0.042014
O O13 0.286303 0.825381 0.591455
O O14 0.000000 0.000000 0.500000
O O15 0.000000 0.500000 0.000000
#
# Coordination Sequence:
#
# PCOD9023594 Si02
#       7
#     2   2   2   2   2   2   2
#     4   9  19  37  57  77 115 155 187 236 277 335
#     4   9  20  38  54  81 116 151 193 231 279 330
#     4   9  21  39  62  81 116 150 179 241 293 334
#     4   9  20  39  61  81 112 155 186 232 290 332
#     4  10  22  40  56  87 116 150 196 230 279 347
#     4  11  24  33  54  88 117 152 193 235 279 331
#     4   9  20  41  60  87 113 141 190 234 290 349
#
# _framework density 21.389569000000002
#
# number of rings (size 3 to 8) (size 9 to 14) (size 15 to 20)
#    0.857    1.714    0.000    1.286    4.000    4.000 
#    5.143    0.714    0.000    0.000    0.000    0.000 
#    0.000    0.000    0.000    0.000    0.000    0.000 
#
# Total GULP energy -78022.080780 kJ/mol
# GULP energy per Si atom -5573.005770 kJ/mol
# Density = 2.134089 g / cm^3
# Si number density = 21.389569 Si / 1000 Ang^3
#
#
#
# Elastic Constant Matrix: (Units=GPa)
#
#
# Indices 1 2 3 4 5 6 
#
# 1 55.8724 -9.9943 5.1812 5.6163 11.4194 -8.8991
# 2 -9.9943 102.7688 17.4094 29.6628 2.2214 -0.7955
# 3 5.1812 17.4094 55.6561 15.9264 3.9573 7.5685
# 4 5.6163 29.6628 15.9264 35.7183 -4.2976 0.8374
# 5 11.4194 2.2214 3.9573 -4.2976 32.8358 4.5593
# 6 -8.8991 -0.7955 7.5685 0.8374 4.5593 18.9524
#
#
#
# Elastic Compliance Matrix: (Units=1/GPa)
#
#
# Indices 1 2 3 4 5 6 
#
# 1 0.025508 0.006194 -0.002919 -0.009759 -0.012556 0.016855
# 2 0.006194 0.014583 -0.001847 -0.013065 -0.005483 0.006154
# 3 -0.002919 -0.001847 0.022518 -0.007970 -0.001258 -0.009785
# 4 -0.009759 -0.013065 -0.007970 0.045559 0.012157 -0.006886
# 5 -0.012556 -0.005483 -0.001258 0.012157 0.039096 -0.015566
# 6 0.016855 0.006154 -0.009785 -0.006886 -0.015566 0.068893
#
#
# Mechanical properties :
#
#
# Convention : Reuss Voigt Hill
#
# Bulk Modulus (GPa) = 15.27511 26.60999 20.94255
# Shear Modulus (GPa) = 21.26555 30.94803 26.10679
#
# Velocity S-wave (km/s) = 3.15652 3.80791 3.49741
# Velocity P-wave (km/s) = 4.52125 5.63925 5.11091
#
# Compressibility (1/GPa) = 0.06546597
#
# Stress axis : x y z
#
# Youngs Moduli (GPa) = 39.20297 68.57322 44.40973
#
# Poissons Ratio (x) = -0.42473 0.12962
# Poissons Ratio (y) = -0.24282 0.08200
# Poissons Ratio (z) = 0.11442 0.12662
#
# Static dielectric constant tensor:
#      x y z
#    x 1.637990 -0.357990 -0.107690 
#    y -0.357990 0.847340 -0.304000 
#    z -0.107690 -0.304000 1.734960 
# 
# From -- ./inp_files/488690.got.cif
#   From: 2010.05.17/outbox.cif.g08.bks.cpg/sg2_245_cif.got.tgz:488690.got - 2010.06.03 11:33:40.
