data_PCOD9023187
_publ_section_title
;
Structure prediction by ZEFSAII (Michael W. Deem and Ramdas Pophale) SiO2 
 PCOD9023187
Probable space group: P -1
;
_chemical_formula_sum "Si O2"
_cell_formula_units_Z 12
_cell_length_a 11.521764
_cell_length_b 9.439612
_cell_length_c 10.791208
_cell_angle_alpha 58.612929
_cell_angle_beta 130.802292
_cell_angle_gamma 151.489468
_cell_volume 419.408652
_symmetry_space_group_name_H-M "P -1"
_symmetry_group_IT_number 2
_symmetry_cell_setting 'triclinic'
loop_
_space_group_symop_operation_xyz
x,y,z
-x,-y,-z
loop_
_atom_site_type_symbol
_atom_site_label
_atom_site_fract_x
_atom_site_fract_y
_atom_site_fract_z
Si Si1 0.276624 0.283474 0.331394
Si Si2 0.533447 0.856532 0.948626
Si Si3 0.265716 0.120434 0.159446
Si Si4 0.595374 0.266056 0.803999
Si Si5 0.068236 0.590492 0.359600
Si Si6 0.995011 0.169034 0.496720
O O1 0.500000 0.500000 0.500000
O O2 0.180952 0.386953 0.209518
O O3 0.418122 0.358437 0.267421
O O4 0.022232 0.927771 0.334607
O O5 0.215307 0.620198 0.810635
O O6 0.600906 0.785119 0.924275
O O7 0.700325 0.177454 0.895290
O O8 0.536857 0.828590 0.108874
O O9 0.245340 0.912273 0.297071
O O10 0.000000 0.000000 0.000000
O O11 0.322656 0.047905 0.630354
O O12 0.159095 0.484156 0.432781
O O13 0.000000 0.500000 0.500000
O O14 0.000000 0.000000 0.500000
#
# Coordination Sequence:
#
# PCOD9023187 Si02
#       6
#     2   2   2   2   2   2
#     4  10  22  42  64  97 135 178 231 274 348 411
#     4  10  24  45  69  98 143 179 231 294 347 411
#     4  12  27  44  73 106 138 187 235 288 355 414
#     4   9  21  44  66  95 134 185 224 281 354 409
#     4  11  24  45  66 103 138 178 234 284 347 414
#     4  10  22  39  66  98 135 176 226 285 342 415
#
# _framework density 28.611713000000002
#
# number of rings (size 3 to 8) (size 9 to 14) (size 15 to 20)
#    0.000    1.667    1.667    1.000    4.667    6.000 
#    0.000    3.333    0.000    0.000    0.000    0.000 
#    0.000    0.000    0.000    0.000    0.000    0.000 
#
# Total GULP energy -66985.776452 kJ/mol
# GULP energy per Si atom -5582.148038 kJ/mol
# Density = 2.854659 g / cm^3
# Si number density = 28.611713 Si / 1000 Ang^3
#
#
#
# Elastic Constant Matrix: (Units=GPa)
#
#
# Indices 1 2 3 4 5 6 
#
# 1 158.6905 25.8626 26.0219 1.2241 -2.8759 -42.5713
# 2 25.8626 124.4430 46.9672 -27.2898 10.1265 -37.6997
# 3 26.0219 46.9672 90.1564 -15.3400 8.0378 -17.3992
# 4 1.2241 -27.2898 -15.3400 49.7292 -13.7275 7.5076
# 5 -2.8759 10.1265 8.0378 -13.7275 59.1884 2.3543
# 6 -42.5713 -37.6997 -17.3992 7.5076 2.3543 50.1399
#
#
#
# Elastic Compliance Matrix: (Units=1/GPa)
#
#
# Indices 1 2 3 4 5 6 
#
# 1 0.008442 0.000821 -0.001662 -0.001428 -0.000131 0.007428
# 2 0.000821 0.013180 -0.004678 0.004246 -0.000929 0.008391
# 3 -0.001662 -0.004678 0.014338 0.001693 -0.000828 -0.000168
# 4 -0.001428 0.004246 0.001693 0.024496 0.004708 -0.001321
# 5 -0.000131 -0.000929 -0.000828 0.004708 0.018358 -0.002664
# 6 0.007428 0.008391 -0.000168 -0.001321 -0.002664 0.032824
#
#
# Mechanical properties :
#
#
# Convention : Reuss Voigt Hill
#
# Bulk Modulus (GPa) = 40.12758 63.44371 51.78564
# Shear Modulus (GPa) = 38.17299 50.10738 44.14018
#
# Velocity S-wave (km/s) = 3.65660 4.18938 3.93202
# Velocity P-wave (km/s) = 5.64650 6.75451 6.22520
#
# Compressibility (1/GPa) = 0.02492052
#
# Stress axis : x y z
#
# Youngs Moduli (GPa) = 118.46198 75.87486 69.74376
#
# Poissons Ratio (x) = -0.06226 0.11590
# Poissons Ratio (y) = -0.09720 0.32628
# Poissons Ratio (z) = 0.19685 0.35496
#
# Static dielectric constant tensor:
#      x y z
#    x 2.405180 0.187850 -0.053780 
#    y 0.187850 2.543230 -0.129130 
#    z -0.053780 -0.129130 2.376280 
# 
# From -- ./inp_files/418782.got.cif
#   From: 2010.05.17/outbox.cif.g08.bks.cpg/sg2_210_cif.got.tgz:418782.got - 2010.06.03 11:33:40.
