data_PCOD9023002
_publ_section_title
;
Structure prediction by ZEFSAII (Michael W. Deem and Ramdas Pophale) SiO2 
 PCOD9023002
Probable space group: P -1
;
_chemical_formula_sum "Si O2"
_cell_formula_units_Z 16
_cell_length_a 13.672492
_cell_length_b 9.223288
_cell_length_c 9.203998
_cell_angle_alpha 87.800334
_cell_angle_beta 60.347820
_cell_angle_gamma 120.815948
_cell_volume 797.305198
_symmetry_space_group_name_H-M "P -1"
_symmetry_group_IT_number 2
_symmetry_cell_setting 'triclinic'
loop_
_space_group_symop_operation_xyz
x,y,z
-x,-y,-z
loop_
_atom_site_type_symbol
_atom_site_label
_atom_site_fract_x
_atom_site_fract_y
_atom_site_fract_z
Si Si1 0.038111 0.692627 0.910374
Si Si2 0.234435 0.473192 0.086032
Si Si3 0.495687 0.861486 0.898411
Si Si4 0.124863 0.048990 0.513408
Si Si5 0.251727 0.853891 0.499690
Si Si6 0.883740 0.519429 0.525062
Si Si7 0.311654 0.226746 0.119557
Si Si8 0.968860 0.129961 0.803265
O O1 0.906275 0.632744 0.904840
O O2 0.189716 0.807755 0.710161
O O3 0.000000 0.500000 0.000000
O O4 0.043568 0.812062 0.031781
O O5 0.185018 0.457988 0.288020
O O6 0.314679 0.381278 0.027317
O O7 0.340977 0.689228 0.966314
O O8 0.556237 0.774673 0.953834
O O9 0.596216 0.975066 0.681129
O O10 0.500000 0.000000 0.000000
O O11 0.262937 0.218032 0.323255
O O12 0.076018 0.077908 0.700891
O O13 0.148389 0.895931 0.504117
O O14 0.000000 0.000000 0.500000
O O15 0.226594 0.672513 0.467688
O O16 0.000000 0.500000 0.500000
O O17 0.958949 0.689116 0.355174
O O18 0.184589 0.036538 0.141660
#
# Coordination Sequence:
#
# PCOD9023002 Si02
#       8
#     2   2   2   2   2   2   2   2
#     4  12  25  39  64  97 133 164 211 260 320 381
#     4  12  24  40  66  95 130 168 210 266 316 373
#     4  11  24  40  67  96 124 165 217 267 317 372
#     4   9  17  32  59  92 119 150 200 260 311 357
#     4  11  22  38  59  90 125 166 204 262 314 368
#     4  12  19  34  63  93 121 159 212 265 310 362
#     4  10  22  39  65  96 129 161 215 264 317 369
#     4  11  22  37  64  96 127 163 207 260 321 380
#
# _framework density 20.067598
#
# number of rings (size 3 to 8) (size 9 to 14) (size 15 to 20)
#    0.000    1.000    5.000    4.125    1.750    2.000 
#    0.000    0.625    2.750    3.750    0.000    0.000 
#    0.000    0.000    0.000    0.000    0.000    0.000 
#
# Total GULP energy -89226.985480 kJ/mol
# GULP energy per Si atom -5576.686592 kJ/mol
# Density = 2.002192 g / cm^3
# Si number density = 20.067598 Si / 1000 Ang^3
#
#
#
# Elastic Constant Matrix: (Units=GPa)
#
#
# Indices 1 2 3 4 5 6 
#
# 1 35.7700 19.5820 15.0971 4.8774 -5.4547 -10.2711
# 2 19.5820 113.6213 50.0128 0.0871 4.0884 4.9833
# 3 15.0971 50.0128 128.8555 6.7394 3.0541 15.3762
# 4 4.8774 0.0871 6.7394 48.2310 -0.6759 -0.7006
# 5 -5.4547 4.0884 3.0541 -0.6759 20.2101 -2.5324
# 6 -10.2711 4.9833 15.3762 -0.7006 -2.5324 36.0442
#
#
#
# Elastic Compliance Matrix: (Units=1/GPa)
#
#
# Indices 1 2 3 4 5 6 
#
# 1 0.040117 -0.006214 -0.004273 -0.003026 0.014518 0.015075
# 2 -0.006214 0.011640 -0.003500 0.001013 -0.003736 -0.002130
# 3 -0.004273 -0.003500 0.010385 -0.001129 -0.002726 -0.005377
# 4 -0.003026 0.001013 -0.001129 0.021192 -0.000157 -0.000120
# 5 0.014518 -0.003736 -0.002726 -0.000157 0.055781 0.009732
# 6 0.015075 -0.002130 -0.005377 -0.000120 0.009732 0.035309
#
#
# Mechanical properties :
#
#
# Convention : Reuss Voigt Hill
#
# Bulk Modulus (GPa) = 29.26771 49.73673 39.50222
# Shear Modulus (GPa) = 23.38778 33.80073 28.59426
#
# Velocity S-wave (km/s) = 3.41757 4.10853 3.77888
# Velocity P-wave (km/s) = 5.49448 6.88078 6.22633
#
# Compressibility (1/GPa) = 0.03416735
#
# Stress axis : x y z
#
# Youngs Moduli (GPa) = 24.92707 85.91187 96.29222
#
# Poissons Ratio (x) = 0.53389 0.41145
# Poissons Ratio (y) = 0.15491 0.33702
# Poissons Ratio (z) = 0.10651 0.30069
#
# Static dielectric constant tensor:
#      x y z
#    x 1.798250 -0.070060 -0.015900 
#    y -0.070060 1.789060 -0.002500 
#    z -0.015900 -0.002500 1.767830 
# 
# From -- ./inp_files/284867.got.cif
#   From: 2010.05.17/outbox.cif.g08.bks.cpg/sg2_143_cif.got.tgz:284867.got - 2010.06.03 11:33:40.
