data_PCOD9023980
_publ_section_title
;
Structure prediction by ZEFSAII (Michael W. Deem and Ramdas Pophale) SiO2 
 PCOD9023980
Probable space group: P -1
;
_chemical_formula_sum "Si O2"
_cell_formula_units_Z 16
_cell_length_a 5.812357
_cell_length_b 9.260192
_cell_length_c 17.614907
_cell_angle_alpha 123.796453
_cell_angle_beta 60.681191
_cell_angle_gamma 97.012235
_cell_volume 672.024017
_symmetry_space_group_name_H-M "P -1"
_symmetry_group_IT_number 2
_symmetry_cell_setting 'triclinic'
loop_
_space_group_symop_operation_xyz
x,y,z
-x,-y,-z
loop_
_atom_site_type_symbol
_atom_site_label
_atom_site_fract_x
_atom_site_fract_y
_atom_site_fract_z
Si Si1 0.787378 0.900008 0.460590
Si Si2 0.197293 0.692739 0.062736
Si Si3 0.781603 0.131574 0.732308
Si Si4 0.765581 0.538370 0.427843
Si Si5 0.254807 0.661605 0.780933
Si Si6 0.807497 0.959192 0.910644
Si Si7 0.212945 0.224623 0.302490
Si Si8 0.343568 0.424782 0.841684
O O1 0.744774 0.746447 0.480266
O O2 0.958644 0.821424 0.335358
O O3 0.500000 0.000000 0.500000
O O4 0.000000 0.000000 0.500000
O O5 0.289342 0.786553 0.148738
O O6 0.956569 0.604609 0.105357
O O7 0.103355 0.855623 0.066541
O O8 0.401600 0.544723 0.939083
O O9 0.532980 0.231194 0.751591
O O10 0.836164 0.920684 0.671998
O O11 0.500000 0.500000 0.500000
O O12 0.797413 0.463970 0.315136
O O13 0.020653 0.417910 0.394089
O O14 0.479594 0.759425 0.740106
O O15 0.366738 0.539996 0.798061
O O16 0.001528 0.816186 0.889308
O O17 0.829175 0.857296 0.796832
O O18 0.500000 0.000000 0.000000
#
# Coordination Sequence:
#
# PCOD9023980 Si02
#       8
#     2   2   2   2   2   2   2   2
#     4  12  30  49  77 113 149 196 248 311 379 444
#     4  10  23  40  64  95 137 180 235 280 364 425
#     4  11  24  44  70  95 147 182 240 296 363 436
#     4  11  26  47  74 101 143 185 244 303 368 443
#     4  11  24  41  68 100 137 177 235 294 365 426
#     4  10  22  40  62  93 135 176 232 286 350 428
#     4  10  23  42  68  99 129 189 229 296 355 435
#     4  11  23  39  66 101 134 183 228 295 360 438
#
# _framework density 23.808675000000001
#
# number of rings (size 3 to 8) (size 9 to 14) (size 15 to 20)
#    0.000    1.250    0.000    4.125    7.000    9.500 
#    0.000    0.000    0.000    0.000    0.000    0.000 
#    0.000    0.000    0.000    0.000    0.000    0.000 
#
# Total GULP energy -89435.068847 kJ/mol
# GULP energy per Si atom -5589.691803 kJ/mol
# Density = 2.375449 g / cm^3
# Si number density = 23.808675 Si / 1000 Ang^3
#
#
#
# Elastic Constant Matrix: (Units=GPa)
#
#
# Indices 1 2 3 4 5 6 
#
# 1 67.1640 33.8297 26.5501 12.4206 -13.9534 -16.2238
# 2 33.8297 163.8579 28.0745 0.3944 -6.9774 -9.0905
# 3 26.5501 28.0745 83.6300 -8.0672 -2.0826 -20.9467
# 4 12.4206 0.3944 -8.0672 34.6633 0.7618 -5.9805
# 5 -13.9534 -6.9774 -2.0826 0.7618 46.6710 4.2943
# 6 -16.2238 -9.0905 -20.9467 -5.9805 4.2943 40.7363
#
#
#
# Elastic Compliance Matrix: (Units=1/GPa)
#
#
# Indices 1 2 3 4 5 6 
#
# 1 0.022515 -0.003171 -0.005994 -0.008996 0.005838 0.003241
# 2 -0.003171 0.006971 -0.001341 0.000692 0.000051 -0.000300
# 3 -0.005994 -0.001341 0.016783 0.007362 -0.002030 0.007238
# 4 -0.008996 0.000692 0.007362 0.034858 -0.003363 0.005829
# 5 0.005838 0.000051 -0.002030 -0.003363 0.023296 -0.001657
# 6 0.003241 -0.000300 0.007238 0.005829 -0.001657 0.030524
#
#
# Mechanical properties :
#
#
# Convention : Reuss Voigt Hill
#
# Bulk Modulus (GPa) = 39.59212 54.61783 47.10498
# Shear Modulus (GPa) = 30.41763 39.49396 34.95580
#
# Velocity S-wave (km/s) = 3.57821 4.07726 3.83586
# Velocity P-wave (km/s) = 5.80834 6.71979 6.28062
#
# Compressibility (1/GPa) = 0.02525755
#
# Stress axis : x y z
#
# Youngs Moduli (GPa) = 44.41460 143.44904 59.58417
#
# Poissons Ratio (x) = 0.45493 0.35714
# Poissons Ratio (y) = 0.14086 0.07988
# Poissons Ratio (z) = 0.26621 0.19231
#
# Static dielectric constant tensor:
#      x y z
#    x 1.957260 -0.022090 0.069610 
#    y -0.022090 1.872950 0.045770 
#    z 0.069610 0.045770 1.937850 
# 
# From -- ./inp_files/323538.got.cif
#   From: 2010.05.17/outbox.cif.g08.bks.cpg/sg2_162_cif.got.tgz:323538.got - 2010.06.03 11:33:40.
