data_PCOD9023205
_publ_section_title
;
Structure prediction by ZEFSAII (Michael W. Deem and Ramdas Pophale) SiO2 
 PCOD9023205
Probable space group: P -1
;
_chemical_formula_sum "Si O2"
_cell_formula_units_Z 16
_cell_length_a 11.822133
_cell_length_b 8.800496
_cell_length_c 15.324964
_cell_angle_alpha 106.645016
_cell_angle_beta 62.650337
_cell_angle_gamma 53.183427
_cell_volume 695.097625
_symmetry_space_group_name_H-M "P -1"
_symmetry_group_IT_number 2
_symmetry_cell_setting 'triclinic'
loop_
_space_group_symop_operation_xyz
x,y,z
-x,-y,-z
loop_
_atom_site_type_symbol
_atom_site_label
_atom_site_fract_x
_atom_site_fract_y
_atom_site_fract_z
Si Si1 0.863948 0.851750 0.237175
Si Si2 0.156115 0.251708 0.518966
Si Si3 0.386244 0.717851 0.945047
Si Si4 0.569196 0.675008 0.406007
Si Si5 0.932459 0.650723 0.825235
Si Si6 0.663151 0.237604 0.220836
Si Si7 0.177807 0.553214 0.463556
Si Si8 0.881805 0.127214 0.763858
O O1 0.022244 0.525573 0.144032
O O2 0.966277 0.877713 0.269888
O O3 0.581557 0.131411 0.419048
O O4 0.858245 0.922704 0.153068
O O5 0.958820 0.529400 0.705044
O O6 0.229184 0.322320 0.444027
O O7 0.023964 0.259065 0.509948
O O8 0.389791 0.937285 0.438035
O O9 0.281889 0.768838 0.898101
O O10 0.675632 0.379129 0.804534
O O11 0.251988 0.776019 0.082803
O O12 0.310921 0.983149 0.020833
O O13 0.830326 0.485176 0.280023
O O14 0.609278 0.447161 0.334792
O O15 0.420657 0.386598 0.320304
O O16 0.052443 0.799392 0.620755
#
# Coordination Sequence:
#
# PCOD9023205 Si02
#       8
#     2   2   2   2   2   2   2   2
#     4  11  24  41  71 100 129 174 228 274 325 389
#     4  10  22  39  67 101 128 176 214 283 326 382
#     4  11  27  44  66  96 139 180 214 269 337 399
#     4  11  22  40  71  98 135 168 225 277 329 383
#     4  11  23  44  65  97 140 176 215 267 344 394
#     4  12  25  41  69 106 127 174 223 279 324 386
#     4  11  22  42  70  96 134 165 234 273 320 386
#     4  11  24  47  68  94 135 179 225 265 329 399
#
# _framework density 23.018350000000002
#
# number of rings (size 3 to 8) (size 9 to 14) (size 15 to 20)
#    0.000    1.000    2.500    4.875    3.500    4.000 
#    0.000    0.000    0.000    0.000    0.000    0.000 
#    0.000    0.000    0.000    0.000    0.000    0.000 
#
# Total GULP energy -89617.547314 kJ/mol
# GULP energy per Si atom -5601.096707 kJ/mol
# Density = 2.296596 g / cm^3
# Si number density = 23.018350 Si / 1000 Ang^3
#
#
#
# Elastic Constant Matrix: (Units=GPa)
#
#
# Indices 1 2 3 4 5 6 
#
# 1 102.7143 11.1546 -3.7892 -0.0693 -2.5309 5.0597
# 2 11.1546 130.1766 11.4295 3.1048 2.1540 -0.8194
# 3 -3.7892 11.4295 21.4394 2.9247 1.4577 6.6883
# 4 -0.0693 3.1048 2.9247 30.3145 -2.3190 12.0937
# 5 -2.5309 2.1540 1.4577 -2.3190 12.3027 0.1690
# 6 5.0597 -0.8194 6.6883 12.0937 0.1690 34.8002
#
#
#
# Elastic Compliance Matrix: (Units=1/GPa)
#
#
# Indices 1 2 3 4 5 6 
#
# 1 0.010146 -0.001199 0.002903 0.000997 0.002174 -0.002419
# 2 -0.001199 0.008277 -0.004911 -0.001169 -0.001358 0.001726
# 3 0.002903 -0.004911 0.053499 -0.000835 -0.004895 -0.010506
# 4 0.000997 -0.001169 -0.000835 0.039275 0.008100 -0.013700
# 5 0.002174 -0.001358 -0.004895 0.008100 0.084111 -0.002631
# 6 -0.002419 0.001726 -0.010506 -0.013700 -0.002631 0.035921
#
#
# Mechanical properties :
#
#
# Convention : Reuss Voigt Hill
#
# Bulk Modulus (GPa) = 15.26541 32.43558 23.85049
# Shear Modulus (GPa) = 19.26934 31.18583 25.22758
#
# Velocity S-wave (km/s) = 2.89646 3.68479 3.31415
# Velocity P-wave (km/s) = 4.22282 5.67673 5.00287
#
# Compressibility (1/GPa) = 0.06550759
#
# Stress axis : x y z
#
# Youngs Moduli (GPa) = 98.55631 120.81578 18.69211
#
# Poissons Ratio (x) = 0.14490 -0.05427
# Poissons Ratio (y) = 0.11820 0.09180
# Poissons Ratio (z) = -0.28613 0.59335
#
# Static dielectric constant tensor:
#      x y z
#    x 1.838370 -0.013390 -0.012120 
#    y -0.013390 1.881190 -0.036280 
#    z -0.012120 -0.036280 1.856260 
# 
# From -- ./inp_files/209458.got.cif
#   From: 2010.05.17/outbox.cif.g08.bks.cpg/sg2_105_cif.got.tgz:209458.got - 2010.06.03 11:33:40.
