data_PCOD9023585
_publ_section_title
;
Structure prediction by ZEFSAII (Michael W. Deem and Ramdas Pophale) SiO2 
 PCOD9023585
Probable space group: P -1
;
_chemical_formula_sum "Si O2"
_cell_formula_units_Z 13
_cell_length_a 14.507348
_cell_length_b 23.415852
_cell_length_c 8.939456
_cell_angle_alpha 150.097299
_cell_angle_beta 28.459865
_cell_angle_gamma 158.846728
_cell_volume 502.372809
_symmetry_space_group_name_H-M "P -1"
_symmetry_group_IT_number 2
_symmetry_cell_setting 'triclinic'
loop_
_space_group_symop_operation_xyz
x,y,z
-x,-y,-z
loop_
_atom_site_type_symbol
_atom_site_label
_atom_site_fract_x
_atom_site_fract_y
_atom_site_fract_z
Si Si1 0.411064 0.843792 0.855610
Si Si2 0.358615 0.279800 0.183485
Si Si3 0.084057 0.327949 0.184794
Si Si4 0.366381 0.024436 0.867037
Si Si5 0.442156 0.517387 0.377349
Si Si6 0.105391 0.018459 0.702049
Si Si7 0.000000 0.500000 0.500000
O O1 0.681901 0.884367 0.515663
O O2 0.151835 0.675634 0.764086
O O3 0.404153 0.834990 0.024311
O O4 0.500000 0.000000 0.000000
O O5 0.476448 0.421623 0.219343
O O6 0.552427 0.375388 0.269923
O O7 0.287868 0.143233 0.865024
O O8 0.047246 0.162670 0.433923
O O9 0.180675 0.376093 0.328520
O O10 0.037360 0.437943 0.454359
O O11 0.315004 0.375136 0.849070
O O12 0.824407 0.135077 0.116750
O O13 0.500000 0.000000 0.500000
O O14 0.160340 0.022692 0.070334
#
# Coordination Sequence:
#
# PCOD9023585 Si02
#       7
#     2   2   2   2   2   2   1
#     4  12  28  51  77 111 158 203 260 317 381 461
#     4  10  22  39  75 109 144 186 257 310 376 453
#     4  11  24  45  70 107 155 199 257 308 388 453
#     4  12  28  49  76 113 156 201 257 322 382 453
#     4  10  22  42  71 107 146 197 248 315 370 463
#     4  11  25  46  77 109 150 203 253 305 395 459
#     4  12  28  46  76 110 146 208 254 316 378 458
#
# _framework density 25.877196000000001
#
# number of rings (size 3 to 8) (size 9 to 14) (size 15 to 20)
#    0.000    0.923    3.077    2.308    8.615    1.231 
#    2.769    0.769    0.000    0.000    0.000    0.000 
#    0.000    0.000    0.000    0.000    0.000    0.000 
#
# Total GULP energy -72382.271585 kJ/mol
# GULP energy per Si atom -5567.867045 kJ/mol
# Density = 2.581830 g / cm^3
# Si number density = 25.877196 Si / 1000 Ang^3
#
#
#
# Elastic Constant Matrix: (Units=GPa)
#
#
# Indices 1 2 3 4 5 6 
#
# 1 156.0730 3.3253 58.0067 10.5027 36.7986 20.3668
# 2 3.3253 58.1165 24.6269 15.4096 9.7889 -0.6130
# 3 58.0067 24.6269 59.6862 19.5345 34.8201 20.2471
# 4 10.5027 15.4096 19.5345 33.1383 1.6581 13.0051
# 5 36.7986 9.7889 34.8201 1.6581 58.0328 16.5648
# 6 20.3668 -0.6130 20.2471 13.0051 16.5648 49.1139
#
#
#
# Elastic Compliance Matrix: (Units=1/GPa)
#
#
# Indices 1 2 3 4 5 6 
#
# 1 0.011153 0.004544 -0.013719 0.002265 0.000209 0.000417
# 2 0.004544 0.025046 -0.014686 -0.006896 0.000113 0.006270
# 3 -0.013719 -0.014686 0.055986 -0.018518 -0.020216 -0.005853
# 4 0.002265 -0.006896 -0.018518 0.046875 0.012343 -0.009967
# 5 0.000209 0.000113 -0.020216 0.012343 0.030358 -0.005259
# 6 0.000417 0.006270 -0.005853 -0.009967 -0.005259 0.027092
#
#
# Mechanical properties :
#
#
# Convention : Reuss Voigt Hill
#
# Bulk Modulus (GPa) = 22.49056 49.53261 36.01159
# Shear Modulus (GPa) = 19.30108 40.58480 29.94294
#
# Velocity S-wave (km/s) = 2.73403 3.96455 3.40533
# Velocity P-wave (km/s) = 4.32165 6.33560 5.42294
#
# Compressibility (1/GPa) = 0.04446309
#
# Stress axis : x y z
#
# Youngs Moduli (GPa) = 89.66121 39.92732 17.86147
#
# Poissons Ratio (x) = -0.18142 0.24504
# Poissons Ratio (y) = -0.40740 0.26231
# Poissons Ratio (z) = 1.23004 0.58637
#
# Static dielectric constant tensor:
#      x y z
#    x 2.029100 -0.028070 -0.082060 
#    y -0.028070 2.094900 -0.042490 
#    z -0.082060 -0.042490 2.389510 
# 
# From -- ./inp_files/320351.got.cif
#   From: 2010.05.17/outbox.cif.g08.bks.cpg/sg2_161_cif.got.tgz:320351.got - 2010.06.03 11:33:40.
