data_PCOD9023770
_publ_section_title
;
Structure prediction by ZEFSAII (Michael W. Deem and Ramdas Pophale) SiO2 
 PCOD9023770
Probable space group: P -1
;
_chemical_formula_sum "Si O2"
_cell_formula_units_Z 16
_cell_length_a 6.724851
_cell_length_b 28.014906
_cell_length_c 13.037493
_cell_angle_alpha 153.167641
_cell_angle_beta 42.997584
_cell_angle_gamma 127.878540
_cell_volume 750.107845
_symmetry_space_group_name_H-M "P -1"
_symmetry_group_IT_number 2
_symmetry_cell_setting 'triclinic'
loop_
_space_group_symop_operation_xyz
x,y,z
-x,-y,-z
loop_
_atom_site_type_symbol
_atom_site_label
_atom_site_fract_x
_atom_site_fract_y
_atom_site_fract_z
Si Si1 0.215973 0.656142 0.627732
Si Si2 0.060473 0.991973 0.841062
Si Si3 0.297084 0.767882 0.004539
Si Si4 0.791511 0.863997 0.533937
Si Si5 0.335291 0.981514 0.300556
Si Si6 0.100333 0.410451 0.707916
Si Si7 0.785635 0.230426 0.376691
Si Si8 0.250419 0.426870 0.468412
O O1 0.555954 0.620080 0.455019
O O2 0.216083 0.718941 0.639612
O O3 0.985252 0.574292 0.534013
O O4 0.114102 0.714717 0.884179
O O5 0.409841 0.962880 0.633991
O O6 0.891974 0.905414 0.683833
O O7 0.952444 0.111234 0.072852
O O8 0.000000 0.000000 0.000000
O O9 0.420856 0.858758 0.062965
O O10 0.072426 0.812083 0.263054
O O11 0.567272 0.689741 0.800537
O O12 0.539224 0.788479 0.498539
O O13 0.670478 0.970951 0.720192
O O14 0.000000 0.000000 0.500000
O O15 0.077810 0.464507 0.708453
O O16 0.932697 0.306251 0.548520
O O17 0.000000 0.500000 0.000000
O O18 0.500000 0.500000 0.500000
#
# Coordination Sequence:
#
# PCOD9023770 Si02
#       8
#     2   2   2   2   2   2   2   2
#     4  10  22  41  67  88 132 166 209 271 332 381
#     4  12  24  39  65  94 136 173 223 265 321 388
#     4  10  23  41  63  93 128 170 219 267 330 384
#     4  11  25  39  63  98 130 176 222 265 319 393
#     4  10  22  40  61  90 131 168 218 264 322 378
#     4  10  24  43  67  98 126 167 219 269 331 389
#     4  11  24  41  66  97 131 175 217 267 331 387
#     4  10  23  42  64  94 125 168 215 270 334 391
#
# _framework density 21.330266000000002
#
# number of rings (size 3 to 8) (size 9 to 14) (size 15 to 20)
#    0.000    1.500    1.250    3.375    3.500   11.000 
#    0.000    0.000    0.000    0.000    0.000    0.000 
#    0.000    0.000    0.000    0.000    0.000    0.000 
#
# Total GULP energy -89177.534516 kJ/mol
# GULP energy per Si atom -5573.595907 kJ/mol
# Density = 2.128172 g / cm^3
# Si number density = 21.330266 Si / 1000 Ang^3
#
#
#
# Elastic Constant Matrix: (Units=GPa)
#
#
# Indices 1 2 3 4 5 6 
#
# 1 144.5516 34.9285 40.7382 -0.9470 29.4424 34.4927
# 2 34.9285 70.6379 12.9762 -2.8623 16.8387 25.9695
# 3 40.7382 12.9762 88.2826 -14.5026 23.8440 8.0256
# 4 -0.9470 -2.8623 -14.5026 26.8956 -2.0604 1.5476
# 5 29.4424 16.8387 23.8440 -2.0604 38.2470 4.2262
# 6 34.4927 25.9695 8.0256 1.5476 4.2262 45.0316
#
#
#
# Elastic Compliance Matrix: (Units=1/GPa)
#
#
# Indices 1 2 3 4 5 6 
#
# 1 0.010606 -0.001177 -0.002974 -0.001384 -0.005161 -0.006383
# 2 -0.001177 0.020207 0.000909 0.002636 -0.007275 -0.010322
# 3 -0.002974 0.000909 0.016000 0.008077 -0.007577 -0.000664
# 4 -0.001384 0.002636 0.008077 0.041752 -0.002539 -0.003096
# 5 -0.005161 -0.007275 -0.007577 -0.002539 0.037235 0.006092
# 6 -0.006383 -0.010322 -0.000664 -0.003096 0.006092 0.032701
#
#
# Mechanical properties :
#
#
# Convention : Reuss Voigt Hill
#
# Bulk Modulus (GPa) = 24.79616 53.41754 39.10685
# Shear Modulus (GPa) = 28.02248 36.35679 32.18964
#
# Velocity S-wave (km/s) = 3.62849 4.13300 3.88894
# Velocity P-wave (km/s) = 5.40414 6.91903 6.20797
#
# Compressibility (1/GPa) = 0.04032882
#
# Stress axis : x y z
#
# Youngs Moduli (GPa) = 94.28805 49.48677 62.50121
#
# Poissons Ratio (x) = 0.05825 0.18589
# Poissons Ratio (y) = 0.11098 -0.05682
# Poissons Ratio (z) = 0.28042 -0.04499
#
# Static dielectric constant tensor:
#      x y z
#    x 1.814530 0.004920 -0.010950 
#    y 0.004920 1.861350 0.030880 
#    z -0.010950 0.030880 1.844040 
# 
# From -- ./inp_files/273278.got.cif
#   From: 2010.05.17/outbox.cif.g08.bks.cpg/sg2_137_cif.got.tgz:273278.got - 2010.06.03 11:33:40.
