data_PCOD9023548
_publ_section_title
;
Structure prediction by ZEFSAII (Michael W. Deem and Ramdas Pophale) SiO2 
 PCOD9023548
Probable space group: P -1
;
_chemical_formula_sum "Si O2"
_cell_formula_units_Z 15
_cell_length_a 10.076413
_cell_length_b 13.932672
_cell_length_c 7.846091
_cell_angle_alpha 123.941975
_cell_angle_beta 61.722346
_cell_angle_gamma 79.403190
_cell_volume 635.362563
_symmetry_space_group_name_H-M "P -1"
_symmetry_group_IT_number 2
_symmetry_cell_setting 'triclinic'
loop_
_space_group_symop_operation_xyz
x,y,z
-x,-y,-z
loop_
_atom_site_type_symbol
_atom_site_label
_atom_site_fract_x
_atom_site_fract_y
_atom_site_fract_z
Si Si1 0.214128 0.535135 0.503899
Si Si2 0.196603 0.945394 0.137326
Si Si3 0.420067 0.636927 0.303437
Si Si4 0.393165 0.324609 0.497540
Si Si5 0.500000 0.000000 0.500000
Si Si6 0.290572 0.148301 0.230240
Si Si7 0.227343 0.297789 0.053143
Si Si8 0.212379 0.937063 0.523433
O O1 0.274998 0.633507 0.508729
O O2 0.341705 0.434302 0.483733
O O3 0.244204 0.422325 0.227001
O O4 0.991382 0.627055 0.776147
O O5 0.236507 0.908863 0.277158
O O6 0.156162 0.101627 0.290064
O O7 0.388409 0.822128 0.800427
O O8 0.013635 0.960399 0.206548
O O9 0.597496 0.606968 0.269894
O O10 0.309357 0.786255 0.414175
O O11 0.500000 0.500000 0.000000
O O12 0.261541 0.274398 0.490212
O O13 0.688428 0.990667 0.415258
O O14 0.376127 0.178012 0.709899
O O15 0.291662 0.190873 0.075978
O O16 0.500000 0.000000 0.000000
#
# Coordination Sequence:
#
# PCOD9023548 Si02
#       8
#     2   2   2   2   1   2   2   2
#     4  10  22  45  66  95 133 184 220 269 330 424
#     4  10  22  44  64 100 132 175 221 278 336 404
#     4  12  25  41  64  96 138 176 221 276 332 403
#     4  10  22  39  71  95 128 178 225 263 340 402
#     4  12  24  40  64 104 134 168 222 290 336 392
#     4   9  18  37  67  96 130 171 218 271 328 407
#     4  10  22  40  70  96 132 175 225 273 341 396
#     4  11  26  40  66  97 139 171 222 285 341 387
#
# _framework density 23.608568999999999
#
# number of rings (size 3 to 8) (size 9 to 14) (size 15 to 20)
#    0.000    1.600    0.000    5.200    7.467    0.533 
#    2.400    0.000    0.000    4.000    0.000    0.000 
#    0.000    0.000    0.000    0.000    0.000    0.000 
#
# Total GULP energy -83692.745504 kJ/mol
# GULP energy per Si atom -5579.516367 kJ/mol
# Density = 2.355484 g / cm^3
# Si number density = 23.608569 Si / 1000 Ang^3
#
#
#
# Elastic Constant Matrix: (Units=GPa)
#
#
# Indices 1 2 3 4 5 6 
#
# 1 164.0534 44.7528 9.9428 9.3367 -2.8954 25.1478
# 2 44.7528 107.7861 -11.2938 9.1611 13.6244 23.0102
# 3 9.9428 -11.2938 41.7874 17.3616 -4.6692 7.4219
# 4 9.3367 9.1611 17.3616 21.3729 3.0611 8.3800
# 5 -2.8954 13.6244 -4.6692 3.0611 27.4164 2.9398
# 6 25.1478 23.0102 7.4219 8.3800 2.9398 26.8952
#
#
#
# Elastic Compliance Matrix: (Units=1/GPa)
#
#
# Indices 1 2 3 4 5 6 
#
# 1 0.007680 -0.002687 -0.001776 0.000835 0.002276 -0.004901
# 2 -0.002687 0.014615 0.009294 -0.008333 -0.004013 -0.009521
# 3 -0.001776 0.009294 0.044766 -0.037649 0.007855 -0.007772
# 4 0.000835 -0.008333 -0.037649 0.085551 -0.010798 -0.008738
# 5 0.002276 -0.004013 0.007855 -0.010798 0.041470 -0.002032
# 6 -0.004901 -0.009521 -0.007772 -0.008738 -0.002032 0.054999
#
#
# Mechanical properties :
#
#
# Convention : Reuss Voigt Hill
#
# Bulk Modulus (GPa) = 13.03385 44.49227 28.76306
# Shear Modulus (GPa) = 18.86838 33.15191 26.01014
#
# Velocity S-wave (km/s) = 2.83011 3.75137 3.32282
# Velocity P-wave (km/s) = 4.02643 6.13600 5.18954
#
# Compressibility (1/GPa) = 0.07672332
#
# Stress axis : x y z
#
# Youngs Moduli (GPa) = 130.20447 68.42166 22.33858
#
# Poissons Ratio (x) = 0.18387 0.03967
# Poissons Ratio (y) = 0.34990 -0.20762
# Poissons Ratio (z) = 0.23121 -0.63592
#
# Static dielectric constant tensor:
#      x y z
#    x 1.923430 -0.040940 0.155790 
#    y -0.040940 1.948600 -0.177020 
#    z 0.155790 -0.177020 2.245370 
# 
# From -- ./inp_files/204083.got.cif
#   From: 2010.05.17/outbox.cif.g08.bks.cpg/sg2_103_cif.got.tgz:204083.got - 2010.06.03 11:33:40.
