data_PCOD9023613
_publ_section_title
;
Structure prediction by ZEFSAII (Michael W. Deem and Ramdas Pophale) SiO2 
 PCOD9023613
Probable space group: P -1
;
_chemical_formula_sum "Si O2"
_cell_formula_units_Z 16
_cell_length_a 14.717904
_cell_length_b 8.047212
_cell_length_c 9.184280
_cell_angle_alpha 131.019354
_cell_angle_beta 102.034101
_cell_angle_gamma 105.277230
_cell_volume 674.280593
_symmetry_space_group_name_H-M "P -1"
_symmetry_group_IT_number 2
_symmetry_cell_setting 'triclinic'
loop_
_space_group_symop_operation_xyz
x,y,z
-x,-y,-z
loop_
_atom_site_type_symbol
_atom_site_label
_atom_site_fract_x
_atom_site_fract_y
_atom_site_fract_z
Si Si1 0.607056 0.257774 0.625116
Si Si2 0.169361 0.686166 0.159747
Si Si3 0.610530 0.759088 0.988922
Si Si4 0.201494 0.912502 0.585207
Si Si5 0.737554 0.153291 0.014737
Si Si6 0.097696 0.442883 0.483008
Si Si7 0.502269 0.244800 0.305391
Si Si8 0.043543 0.082549 0.726731
O O1 0.718961 0.293434 0.738372
O O2 0.597959 0.271975 0.453525
O O3 0.500000 0.000000 0.500000
O O4 0.593342 0.481444 0.817739
O O5 0.158624 0.859424 0.376138
O O6 0.190808 0.814130 0.081878
O O7 0.079119 0.376858 0.943125
O O8 0.666601 0.899875 0.239022
O O9 0.507396 0.752972 0.873501
O O10 0.707169 0.937371 0.004101
O O11 0.158614 0.621693 0.465802
O O12 0.148768 0.051727 0.732374
O O13 0.611642 0.028390 0.847696
O O14 0.810232 0.424271 0.281529
O O15 0.000000 0.500000 0.500000
O O16 0.037862 0.133027 0.305463
O O17 0.500000 0.500000 0.500000
O O18 0.000000 0.000000 0.500000
#
# Coordination Sequence:
#
# PCOD9023613 Si02
#       8
#     2   2   2   2   2   2   2   2
#     4  11  18  33  60  89 114 155 201 232 288 355
#     4  12  23  35  61  91 116 150 197 248 286 338
#     4   8  17  36  59  74 119 158 181 238 289 339
#     4  10  22  40  58  88 121 147 194 244 291 342
#     4   9  17  34  56  81 115 154 192 230 295 342
#     4   9  19  37  61  80 112 160 185 231 301 346
#     4   8  16  29  57  80 106 157 197 224 281 350
#     4  11  22  40  62  84 117 155 193 237 297 349
#
# _framework density 23.728992000000002
#
# number of rings (size 3 to 8) (size 9 to 14) (size 15 to 20)
#    0.750    1.500    3.750    0.000    0.000    1.000 
#    0.000    2.500    0.000    0.000    0.000    0.000 
#    0.000    0.000    0.000    0.000    0.000    0.000 
#
# Total GULP energy -89107.136829 kJ/mol
# GULP energy per Si atom -5569.196052 kJ/mol
# Density = 2.367498 g / cm^3
# Si number density = 23.728992 Si / 1000 Ang^3
#
#
#
# Elastic Constant Matrix: (Units=GPa)
#
#
# Indices 1 2 3 4 5 6 
#
# 1 49.2714 -1.1338 11.1354 10.6003 6.1942 -16.3145
# 2 -1.1338 47.9669 11.5973 15.5695 -4.9593 0.5412
# 3 11.1354 11.5973 108.5726 10.2214 12.1979 1.1263
# 4 10.6003 15.5695 10.2214 49.6051 -6.0808 7.2875
# 5 6.1942 -4.9593 12.1979 -6.0808 36.9282 -6.8994
# 6 -16.3145 0.5412 1.1263 7.2875 -6.8994 25.9403
#
#
#
# Elastic Compliance Matrix: (Units=1/GPa)
#
#
# Indices 1 2 3 4 5 6 
#
# 1 0.030838 0.004522 -0.002703 -0.010864 -0.001329 0.022117
# 2 0.004522 0.024654 -0.002693 -0.008607 0.003087 0.005685
# 3 -0.002703 -0.002693 0.010326 -0.000763 -0.003994 -0.002940
# 4 -0.010864 -0.008607 -0.000763 0.027700 0.002935 -0.013622
# 5 -0.001329 0.003087 -0.003994 0.002935 0.030758 0.006629
# 6 0.022117 0.005685 -0.002940 -0.013622 0.006629 0.058059
#
#
# Mechanical properties :
#
#
# Convention : Reuss Voigt Hill
#
# Bulk Modulus (GPa) = 15.60766 27.66764 21.63765
# Shear Modulus (GPa) = 24.33785 34.77552 29.55668
#
# Velocity S-wave (km/s) = 3.20607 3.83238 3.53313
# Velocity P-wave (km/s) = 4.50521 5.59178 5.07764
#
# Compressibility (1/GPa) = 0.06407110
#
# Stress axis : x y z
#
# Youngs Moduli (GPa) = 32.42708 40.56097 96.83987
#
# Poissons Ratio (x) = -0.18342 0.26177
# Poissons Ratio (y) = -0.14664 0.26077
# Poissons Ratio (z) = 0.08765 0.10922
#
# Static dielectric constant tensor:
#      x y z
#    x 1.992500 0.018520 0.026300 
#    y 0.018520 1.902770 -0.050540 
#    z 0.026300 -0.050540 1.964370 
# 
# From -- ./inp_files/329601.got.cif
#   From: 2010.05.17/outbox.cif.g08.bks.cpg/sg2_165_cif.got.tgz:329601.got - 2010.06.03 11:33:40.
