data_PCOD9023007
_publ_section_title
;
Structure prediction by ZEFSAII (Michael W. Deem and Ramdas Pophale) SiO2 
 PCOD9023007
Probable space group: P -1
;
_chemical_formula_sum "Si O2"
_cell_formula_units_Z 16
_cell_length_a 13.812383
_cell_length_b 15.834492
_cell_length_c 14.568141
_cell_angle_alpha 36.886416
_cell_angle_beta 160.330157
_cell_angle_gamma 142.811166
_cell_volume 628.644831
_symmetry_space_group_name_H-M "P -1"
_symmetry_group_IT_number 2
_symmetry_cell_setting 'triclinic'
loop_
_space_group_symop_operation_xyz
x,y,z
-x,-y,-z
loop_
_atom_site_type_symbol
_atom_site_label
_atom_site_fract_x
_atom_site_fract_y
_atom_site_fract_z
Si Si1 0.196602 0.152220 0.017437
Si Si2 0.778761 0.404497 0.633813
Si Si3 0.607322 0.175147 0.110132
Si Si4 0.809076 0.791964 0.760966
Si Si5 0.717033 0.896933 0.385098
Si Si6 0.164819 0.452440 0.774505
Si Si7 0.200916 0.893164 0.456095
Si Si8 0.258418 0.320844 0.546277
O O1 0.116412 0.280608 0.891103
O O2 0.096949 0.176613 0.802610
O O3 0.533301 0.142475 0.335868
O O4 0.000000 0.000000 0.000000
O O5 0.491901 0.327357 0.388009
O O6 0.683288 0.509696 0.532170
O O7 0.027806 0.497174 0.707630
O O8 0.919639 0.280965 0.911956
O O9 0.706116 0.155044 0.319646
O O10 0.912393 0.268872 0.260826
O O11 0.520503 0.013056 0.132169
O O12 0.356799 0.255404 0.785526
O O13 0.804451 0.835846 0.612073
O O14 0.802394 0.938138 0.682547
O O15 0.592546 0.762676 0.324748
O O16 0.000000 0.000000 0.500000
O O17 0.000000 0.500000 0.500000
O O18 0.500000 0.500000 0.000000
#
# Coordination Sequence:
#
# PCOD9023007 Si02
#       8
#     2   2   2   2   2   2   2   2
#     4  12  25  43  69  99 134 178 237 291 349 425
#     4  12  27  45  67  98 142 189 231 277 362 431
#     4  10  22  39  65  96 132 171 219 291 330 392
#     4  11  24  45  69 101 145 182 224 292 350 418
#     4   9  22  43  70 105 137 178 232 290 346 400
#     4  12  28  47  71 102 145 186 235 304 360 421
#     4  11  23  40  69  95 127 172 231 279 343 405
#     4  11  23  40  67  95 138 175 229 269 336 421
#
# _framework density 25.451573
#
# number of rings (size 3 to 8) (size 9 to 14) (size 15 to 20)
#    0.000    1.000    0.000    6.000    5.250    8.000 
#    0.000    0.000    0.000    0.000    0.000    0.000 
#    0.000    0.000    0.000    0.000    0.000    0.000 
#
# Total GULP energy -89571.100986 kJ/mol
# GULP energy per Si atom -5598.193812 kJ/mol
# Density = 2.539364 g / cm^3
# Si number density = 25.451573 Si / 1000 Ang^3
#
#
#
# Elastic Constant Matrix: (Units=GPa)
#
#
# Indices 1 2 3 4 5 6 
#
# 1 60.8720 7.7368 4.1652 -5.5443 -16.6609 3.7383
# 2 7.7368 112.8481 26.7236 -23.9137 5.8088 -32.5210
# 3 4.1652 26.7236 157.7980 -8.6887 1.1763 -8.3065
# 4 -5.5443 -23.9137 -8.6887 48.5980 3.8953 5.4068
# 5 -16.6609 5.8088 1.1763 3.8953 28.0682 2.7537
# 6 3.7383 -32.5210 -8.3065 5.4068 2.7537 37.0799
#
#
#
# Elastic Compliance Matrix: (Units=1/GPa)
#
#
# Indices 1 2 3 4 5 6 
#
# 1 0.021264 -0.004084 -0.000337 -0.000017 0.014156 -0.006850
# 2 -0.004084 0.014731 -0.001345 0.005722 -0.007462 0.012750
# 3 -0.000337 -0.001345 0.006617 0.000474 -0.000293 0.000289
# 4 -0.000017 0.005722 0.000474 0.023626 -0.004692 0.002030
# 5 0.014156 -0.007462 -0.000293 -0.004692 0.047304 -0.010866
# 6 -0.006850 0.012750 0.000289 0.002030 -0.010866 0.039418
#
#
# Mechanical properties :
#
#
# Convention : Reuss Voigt Hill
#
# Bulk Modulus (GPa) = 32.17517 45.41882 38.79700
# Shear Modulus (GPa) = 28.59574 42.27540 35.43557
#
# Velocity S-wave (km/s) = 3.35555 4.07997 3.73537
# Velocity P-wave (km/s) = 5.26138 6.33079 5.82070
#
# Compressibility (1/GPa) = 0.03107986
#
# Stress axis : x y z
#
# Youngs Moduli (GPa) = 47.02852 67.88411 151.11652
#
# Poissons Ratio (x) = 0.27727 0.05087
# Poissons Ratio (y) = 0.19208 0.20326
# Poissons Ratio (z) = 0.01583 0.09131
#
# Static dielectric constant tensor:
#      x y z
#    x 2.213800 0.013920 0.065070 
#    y 0.013920 2.004400 0.002980 
#    z 0.065070 0.002980 1.946370 
# 
# From -- ./inp_files/534307.got.cif
#   From: 2010.05.17/outbox.cif.g08.bks.cpg/sg2_268_cif.got.tgz:534307.got - 2010.06.03 11:33:40.
