data_PCOD9023756
_publ_section_title
;
Structure prediction by ZEFSAII (Michael W. Deem and Ramdas Pophale) SiO2 
 PCOD9023756
Probable space group: P -1
;
_chemical_formula_sum "Si O2"
_cell_formula_units_Z 14
_cell_length_a 23.417088
_cell_length_b 8.450620
_cell_length_c 6.727722
_cell_angle_alpha 53.619390
_cell_angle_beta 48.088618
_cell_angle_gamma 37.975203
_cell_volume 603.151402
_symmetry_space_group_name_H-M "P -1"
_symmetry_group_IT_number 2
_symmetry_cell_setting 'triclinic'
loop_
_space_group_symop_operation_xyz
x,y,z
-x,-y,-z
loop_
_atom_site_type_symbol
_atom_site_label
_atom_site_fract_x
_atom_site_fract_y
_atom_site_fract_z
Si Si1 0.963268 0.874565 0.800849
Si Si2 0.508198 0.203679 0.540328
Si Si3 0.675637 0.485638 0.503110
Si Si4 0.438290 0.461596 0.886124
Si Si5 0.752924 0.101152 0.267194
Si Si6 0.255201 0.242614 0.727103
Si Si7 0.937882 0.558563 0.799050
O O1 0.966737 0.689673 0.776267
O O2 0.000000 0.000000 0.500000
O O3 0.026220 0.699155 0.978228
O O4 0.847999 0.070908 0.997902
O O5 0.406361 0.278633 0.635526
O O6 0.503045 0.208499 0.787151
O O7 0.496945 0.450055 0.314415
O O8 0.622761 0.971625 0.383245
O O9 0.727940 0.218549 0.459979
O O10 0.755900 0.504787 0.396973
O O11 0.603997 0.543710 0.807852
O O12 0.341034 0.680610 0.815689
O O13 0.771208 0.840323 0.351890
O O14 0.184799 0.255649 0.047276
O O15 0.000000 0.500000 0.500000
#
# Coordination Sequence:
#
# PCOD9023756 Si02
#       7
#     2   2   2   2   2   2   2
#     4  10  23  42  68  92 129 171 214 273 334 378
#     4   9  19  38  55  87 128 158 203 263 307 378
#     4  11  21  36  64  91 118 167 213 246 320 388
#     4   9  19  36  61  87 123 162 210 254 308 390
#     4   9  22  41  57  91 126 159 205 266 315 378
#     4  10  22  40  61  89 129 161 208 266 316 375
#     4  10  24  45  64  99 131 165 224 273 319 399
#
# _framework density 23.211418999999999
#
# number of rings (size 3 to 8) (size 9 to 14) (size 15 to 20)
#    0.000    2.286    0.000    1.714    4.000    4.571 
#    0.000    8.571    0.000    0.000    0.000    0.000 
#    0.000    0.000    0.000    0.000    0.000    0.000 
#
# Total GULP energy -77964.163281 kJ/mol
# GULP energy per Si atom -5568.868806 kJ/mol
# Density = 2.315859 g / cm^3
# Si number density = 23.211419 Si / 1000 Ang^3
#
#
#
# Elastic Constant Matrix: (Units=GPa)
#
#
# Indices 1 2 3 4 5 6 
#
# 1 103.4910 40.0270 60.1858 15.8526 -12.8720 29.6458
# 2 40.0270 52.7458 50.2479 19.5145 -7.5540 7.2858
# 3 60.1858 50.2479 150.8242 39.5139 13.7325 25.1241
# 4 15.8526 19.5145 39.5139 44.8901 1.8580 -4.6851
# 5 -12.8720 -7.5540 13.7325 1.8580 28.1865 2.2497
# 6 29.6458 7.2858 25.1241 -4.6851 2.2497 34.0801
#
#
#
# Elastic Compliance Matrix: (Units=1/GPa)
#
#
# Indices 1 2 3 4 5 6 
#
# 1 0.020635 -0.007914 -0.003275 -0.002947 0.010284 -0.014928
# 2 -0.007914 0.036791 -0.009676 -0.004632 0.010883 0.004796
# 3 -0.003275 -0.009676 0.015552 -0.008625 -0.010535 -0.007037
# 4 -0.002947 -0.004632 -0.008625 0.034542 -0.001842 0.014783
# 5 0.010284 0.010883 -0.010535 -0.001842 0.048903 -0.006987
# 6 -0.014928 0.004796 -0.007037 0.014783 -0.006987 0.048984
#
#
# Mechanical properties :
#
#
# Convention : Reuss Voigt Hill
#
# Bulk Modulus (GPa) = 32.00084 67.55359 49.77721
# Shear Modulus (GPa) = 19.41346 31.87138 25.64242
#
# Velocity S-wave (km/s) = 2.89515 3.70954 3.32736
# Velocity P-wave (km/s) = 4.99925 6.89307 6.02108
#
# Compressibility (1/GPa) = 0.03124918
#
# Stress axis : x y z
#
# Youngs Moduli (GPa) = 48.46152 27.18021 64.30088
#
# Poissons Ratio (x) = 0.21509 0.21061
# Poissons Ratio (y) = 0.38350 0.62215
# Poissons Ratio (z) = 0.15873 0.26298
#
# Static dielectric constant tensor:
#      x y z
#    x 1.937640 0.063190 0.013270 
#    y 0.063190 2.058560 0.014220 
#    z 0.013270 0.014220 1.846130 
# 
# From -- ./inp_files/56564.got.cif
#   From: 2010.05.17/outbox.cif.g08.bks.cpg/sg2_29_cif.got.tgz:56564.got - 2010.06.03 11:33:40.
