data_PCOD9023998
_publ_section_title
;
Structure prediction by ZEFSAII (Michael W. Deem and Ramdas Pophale) SiO2 
 PCOD9023998
Probable space group: P -1
;
_chemical_formula_sum "Si O2"
_cell_formula_units_Z 15
_cell_length_a 5.749807
_cell_length_b 11.336174
_cell_length_c 19.632467
_cell_angle_alpha 147.370752
_cell_angle_beta 92.906917
_cell_angle_gamma 90.814641
_cell_volume 685.244562
_symmetry_space_group_name_H-M "P -1"
_symmetry_group_IT_number 2
_symmetry_cell_setting 'triclinic'
loop_
_space_group_symop_operation_xyz
x,y,z
-x,-y,-z
loop_
_atom_site_type_symbol
_atom_site_label
_atom_site_fract_x
_atom_site_fract_y
_atom_site_fract_z
Si Si1 0.500000 0.500000 0.500000
Si Si2 0.125583 0.684721 0.684946
Si Si3 0.109770 0.302612 0.867789
Si Si4 0.899004 0.663469 0.371914
Si Si5 0.412907 0.435386 0.808354
Si Si6 0.245091 0.088938 0.287779
Si Si7 0.707401 0.095372 0.599524
Si Si8 0.421723 0.133457 0.905671
O O1 0.329264 0.579146 0.596373
O O2 0.457251 0.236338 0.397945
O O3 0.047677 0.526463 0.668765
O O4 0.900178 0.717829 0.650886
O O5 0.236986 0.929835 0.825831
O O6 0.208687 0.373668 0.830368
O O7 0.319713 0.240570 0.888938
O O8 0.924618 0.086543 0.759735
O O9 0.000000 0.500000 0.000000
O O10 0.692111 0.575312 0.274129
O O11 0.112248 0.750617 0.368921
O O12 0.830332 0.879468 0.515650
O O13 0.593075 0.250708 0.726606
O O14 0.531086 0.675783 0.946074
O O15 0.344024 0.962278 0.163580
O O16 0.500000 0.000000 0.500000
#
# Coordination Sequence:
#
# PCOD9023998 Si02
#       8
#     1   2   2   2   2   2   2   2
#     4  10  22  40  64  88 126 166 214 260 312 372
#     4  10  23  42  64  93 131 167 211 264 315 385
#     4  11  23  39  66  96 128 164 211 274 316 379
#     4  10  23  42  63  92 130 166 212 263 310 386
#     4  11  23  39  66  95 128 168 210 264 326 376
#     4  10  22  40  62  95 129 167 211 263 321 382
#     4   9  22  41  60  89 124 166 213 259 309 375
#     4  10  23  41  63  94 128 163 212 263 321 383
#
# _framework density 21.889994999999999
#
# number of rings (size 3 to 8) (size 9 to 14) (size 15 to 20)
#    0.000    1.867    1.333    0.800    1.867   11.200 
#    0.000    1.333    0.000    0.000    0.000    0.000 
#    0.000    0.000    0.000    0.000    0.000    0.000 
#
# Total GULP energy -83602.151726 kJ/mol
# GULP energy per Si atom -5573.476782 kJ/mol
# Density = 2.184017 g / cm^3
# Si number density = 21.889995 Si / 1000 Ang^3
#
#
#
# Elastic Constant Matrix: (Units=GPa)
#
#
# Indices 1 2 3 4 5 6 
#
# 1 18.6626 -0.1473 7.8839 -6.2203 -8.2161 -5.0897
# 2 -0.1473 84.0890 27.9742 21.0064 4.3455 -4.1178
# 3 7.8839 27.9742 147.5395 3.4066 -7.1140 2.2081
# 4 -6.2203 21.0064 3.4066 27.4868 6.6324 -1.4844
# 5 -8.2161 4.3455 -7.1140 6.6324 41.6982 1.5573
# 6 -5.0897 -4.1178 2.2081 -1.4844 1.5573 23.6904
#
#
#
# Elastic Compliance Matrix: (Units=1/GPa)
#
#
# Indices 1 2 3 4 5 6 
#
# 1 0.068991 -0.002676 -0.003295 0.016432 0.010136 0.015027
# 2 -0.002676 0.015940 -0.002661 -0.012178 -0.000770 0.001731
# 3 -0.003295 -0.002661 0.007535 0.000012 0.000984 -0.001937
# 4 0.016432 -0.012178 0.000012 0.050562 -0.003713 0.004825
# 5 0.010136 -0.000770 0.000984 -0.003713 0.026819 -0.000044
# 6 0.015027 0.001731 -0.001937 0.004825 -0.000044 0.046226
#
#
# Mechanical properties :
#
#
# Convention : Reuss Voigt Hill
#
# Bulk Modulus (GPa) = 13.29759 35.74586 24.52172
# Shear Modulus (GPa) = 19.34962 32.88044 26.11503
#
# Velocity S-wave (km/s) = 2.97635 3.87987 3.45775
# Velocity P-wave (km/s) = 4.23078 6.03626 5.21229
#
# Compressibility (1/GPa) = 0.07520157
#
# Stress axis : x y z
#
# Youngs Moduli (GPa) = 14.49465 62.73712 132.72095
#
# Poissons Ratio (x) = 0.16788 0.43729
# Poissons Ratio (y) = 0.03879 0.35318
# Poissons Ratio (z) = 0.04776 0.16695
#
# Static dielectric constant tensor:
#      x y z
#    x 4.450420 -1.056010 2.150510 
#    y -1.056010 2.218370 -0.861100 
#    z 2.150510 -0.861100 3.585720 
# 
# From -- ./inp_files/67284.got.cif
#   From: 2010.05.17/outbox.cif.g08.bks.cpg/sg2_34_cif.got.tgz:67284.got - 2010.06.03 11:33:40.
