data_PCOD9023208
_publ_section_title
;
Structure prediction by ZEFSAII (Michael W. Deem and Ramdas Pophale) SiO2 
 PCOD9023208
Probable space group: P -1
;
_chemical_formula_sum "Si O2"
_cell_formula_units_Z 16
_cell_length_a 5.506913
_cell_length_b 12.427946
_cell_length_c 20.881883
_cell_angle_alpha 143.020899
_cell_angle_beta 51.880638
_cell_angle_gamma 118.085706
_cell_volume 675.568109
_symmetry_space_group_name_H-M "P -1"
_symmetry_group_IT_number 2
_symmetry_cell_setting 'triclinic'
loop_
_space_group_symop_operation_xyz
x,y,z
-x,-y,-z
loop_
_atom_site_type_symbol
_atom_site_label
_atom_site_fract_x
_atom_site_fract_y
_atom_site_fract_z
Si Si1 0.278544 0.660515 0.765909
Si Si2 0.834408 0.207506 0.019166
Si Si3 0.074966 0.188644 0.229122
Si Si4 0.202051 0.108501 0.631240
Si Si5 0.555036 0.557473 0.203273
Si Si6 0.384549 0.333514 0.900370
Si Si7 0.089501 0.268386 0.597961
Si Si8 0.592791 0.041680 0.336236
O O1 0.092498 0.757649 0.901680
O O2 0.631613 0.716807 0.743842
O O3 0.263820 0.446946 0.673568
O O4 0.121884 0.715251 0.750103
O O5 0.550909 0.350170 0.122021
O O6 0.078826 0.282853 0.964836
O O7 0.798390 0.003077 0.910996
O O8 0.832407 0.143400 0.302369
O O9 0.184198 0.320426 0.753292
O O10 0.027554 0.139392 0.606410
O O11 0.500000 0.000000 0.500000
O O12 0.224862 0.022590 0.658662
O O13 0.604178 0.584932 0.133487
O O14 0.249091 0.655160 0.328646
O O15 0.521205 0.129338 0.767658
O O16 0.500000 0.500000 0.000000
O O17 0.298556 0.169074 0.463467
#
# Coordination Sequence:
#
# PCOD9023208 Si02
#       8
#     2   2   2   2   2   2   2   2
#     4  12  25  45  75 100 146 187 249 300 355 424
#     4  11  23  45  67 101 142 186 247 292 361 424
#     4  11  27  49  70 106 140 197 243 301 355 421
#     4   9  20  41  65 100 134 177 225 285 351 432
#     4  11  22  41  66 103 145 179 227 292 360 436
#     4  10  22  39  67 101 142 184 226 287 360 432
#     4  11  23  43  72 104 137 188 233 293 368 423
#     4   9  23  47  67 103 144 183 238 293 357 432
#
# _framework density 23.683771
#
# number of rings (size 3 to 8) (size 9 to 14) (size 15 to 20)
#    0.000    1.500    1.250    2.625    0.000    8.500 
#   11.250    0.000    0.000    0.000    0.000    0.000 
#    0.000    0.000    0.000    0.000    0.000    0.000 
#
# Total GULP energy -89185.413681 kJ/mol
# GULP energy per Si atom -5574.088355 kJ/mol
# Density = 2.362987 g / cm^3
# Si number density = 23.683771 Si / 1000 Ang^3
#
#
#
# Elastic Constant Matrix: (Units=GPa)
#
#
# Indices 1 2 3 4 5 6 
#
# 1 85.5362 52.1670 41.9755 6.5781 13.1673 -5.4847
# 2 52.1670 139.9554 48.0658 -9.4803 4.7171 -6.3942
# 3 41.9755 48.0658 147.8605 -13.0463 14.2507 4.2506
# 4 6.5781 -9.4803 -13.0463 40.8682 7.6679 6.5263
# 5 13.1673 4.7171 14.2507 7.6679 41.7776 9.8296
# 6 -5.4847 -6.3942 4.2506 6.5263 9.8296 48.1459
#
#
#
# Elastic Compliance Matrix: (Units=1/GPa)
#
#
# Indices 1 2 3 4 5 6 
#
# 1 0.017940 -0.005580 -0.003467 -0.005094 -0.003621 0.003038
# 2 -0.005580 0.009901 -0.001476 0.002558 0.000595 0.000341
# 3 -0.003467 -0.001476 0.008789 0.003639 -0.002068 -0.001438
# 4 -0.005094 0.002558 0.003639 0.028417 -0.004309 -0.003534
# 5 -0.003621 0.000595 -0.002068 -0.004309 0.027737 -0.005230
# 6 0.003038 0.000341 -0.001438 -0.003534 -0.005230 0.022835
#
#
# Mechanical properties :
#
#
# Convention : Reuss Voigt Hill
#
# Bulk Modulus (GPa) = 64.16981 73.08543 68.62762
# Shear Modulus (GPa) = 35.24633 41.56793 38.40713
#
# Velocity S-wave (km/s) = 3.86191 4.19396 4.03136
# Velocity P-wave (km/s) = 6.85850 7.37416 7.12100
#
# Compressibility (1/GPa) = 0.01558365
#
# Stress axis : x y z
#
# Youngs Moduli (GPa) = 55.74248 101.00146 113.78227
#
# Poissons Ratio (x) = 0.56364 0.39443
# Poissons Ratio (y) = 0.31107 0.16791
# Poissons Ratio (z) = 0.19323 0.14905
#
# Static dielectric constant tensor:
#      x y z
#    x 2.133190 0.065070 -0.043820 
#    y 0.065070 1.910990 0.006100 
#    z -0.043820 0.006100 1.977090 
# 
# From -- ./inp_files/583303.got.cif
#   From: 2010.05.17/outbox.cif.g08.bks.cpg/sg2_292_cif.got.tgz:583303.got - 2010.06.03 11:33:40.
