data_PCOD9023947
_publ_section_title
;
Structure prediction by ZEFSAII (Michael W. Deem and Ramdas Pophale) SiO2 
 PCOD9023947
Probable space group: P -1
;
_chemical_formula_sum "Si O2"
_cell_formula_units_Z 13
_cell_length_a 14.133408
_cell_length_b 10.050934
_cell_length_c 7.851231
_cell_angle_alpha 95.299379
_cell_angle_beta 119.386791
_cell_angle_gamma 39.333748
_cell_volume 526.130197
_symmetry_space_group_name_H-M "P -1"
_symmetry_group_IT_number 2
_symmetry_cell_setting 'triclinic'
loop_
_space_group_symop_operation_xyz
x,y,z
-x,-y,-z
loop_
_atom_site_type_symbol
_atom_site_label
_atom_site_fract_x
_atom_site_fract_y
_atom_site_fract_z
Si Si1 0.759742 0.238681 0.511414
Si Si2 0.650594 0.226380 0.747385
Si Si3 0.000000 0.500000 0.500000
Si Si4 0.385509 0.251535 0.876213
Si Si5 0.994713 0.758115 0.232164
Si Si6 0.588435 0.767641 0.503607
Si Si7 0.257219 0.034314 0.657376
O O1 0.746352 0.232961 0.703186
O O2 0.535207 0.511573 0.292125
O O3 0.906840 0.208554 0.600503
O O4 0.812881 0.038348 0.467178
O O5 0.547292 0.214023 0.543525
O O6 0.817641 0.989068 0.983680
O O7 0.195094 0.232116 0.528354
O O8 0.155342 0.456027 0.719298
O O9 0.423546 0.244792 0.711940
O O10 0.500000 0.000000 0.000000
O O11 0.516689 0.214430 0.106031
O O12 0.179966 0.493340 0.275817
O O13 0.895366 0.765583 0.291139
O O14 0.500000 0.000000 0.500000
#
# Coordination Sequence:
#
# PCOD9023947 Si02
#       7
#     2   2   1   2   2   2   2
#     4  10  24  41  65  91 128 170 210 263 313 372
#     4  10  23  44  61  91 129 165 218 260 308 383
#     4  10  22  40  62  92 130 154 210 256 310 380
#     4  10  22  41  62  92 129 163 206 260 310 380
#     4  11  22  43  64  95 125 166 218 263 306 381
#     4  11  24  42  64  92 131 166 207 266 320 374
#     4  11  22  40  67  94 128 166 206 264 319 367
#
# _framework density 24.708712999999999
#
# number of rings (size 3 to 8) (size 9 to 14) (size 15 to 20)
#    0.000    1.538    3.077    0.923    4.308    2.462 
#    5.538    0.000    0.000    0.000    0.000    0.000 
#    0.000    0.000    0.000    0.000    0.000    0.000 
#
# Total GULP energy -72405.724593 kJ/mol
# GULP energy per Si atom -5569.671123 kJ/mol
# Density = 2.465248 g / cm^3
# Si number density = 24.708713 Si / 1000 Ang^3
#
#
#
# Elastic Constant Matrix: (Units=GPa)
#
#
# Indices 1 2 3 4 5 6 
#
# 1 111.4929 16.6060 10.7749 1.2572 19.1209 -0.1371
# 2 16.6060 113.5815 24.7743 -25.6380 15.9811 36.0524
# 3 10.7749 24.7743 143.1457 -45.2287 14.3701 -11.6845
# 4 1.2572 -25.6380 -45.2287 38.3338 4.0278 1.0913
# 5 19.1209 15.9811 14.3701 4.0278 47.3829 -3.7783
# 6 -0.1371 36.0524 -11.6845 1.0913 -3.7783 42.3067
#
#
#
# Elastic Compliance Matrix: (Units=1/GPa)
#
#
# Indices 1 2 3 4 5 6 
#
# 1 0.009808 -0.001630 -0.000692 -0.001947 -0.002952 0.001016
# 2 -0.001630 0.018903 0.001284 0.015616 -0.008786 -0.016946
# 3 -0.000692 0.001284 0.012600 0.016255 -0.005237 0.001496
# 4 -0.001947 0.015616 0.016255 0.057708 -0.015248 -0.011675
# 5 -0.002952 -0.008786 -0.005237 -0.015248 0.028862 0.009002
# 6 0.001016 -0.016946 0.001496 -0.011675 0.009002 0.039600
#
#
# Mechanical properties :
#
#
# Convention : Reuss Voigt Hill
#
# Bulk Modulus (GPa) = 25.48727 52.50338 38.99532
# Shear Modulus (GPa) = 27.37719 46.67568 37.02644
#
# Velocity S-wave (km/s) = 3.33227 4.35102 3.87527
# Velocity P-wave (km/s) = 5.01427 6.82180 5.98664
#
# Compressibility (1/GPa) = 0.03923527
#
# Stress axis : x y z
#
# Youngs Moduli (GPa) = 101.95487 52.90276 79.36703
#
# Poissons Ratio (x) = 0.08621 0.05493
# Poissons Ratio (y) = 0.16615 -0.10192
# Poissons Ratio (z) = 0.07057 -0.06793
#
# Static dielectric constant tensor:
#      x y z
#    x 1.634430 -0.381580 0.479400 
#    y -0.381580 1.690940 0.409530 
#    z 0.479400 0.409530 1.630890 
# 
# From -- ./inp_files/331138.got.cif
#   From: 2010.05.17/outbox.cif.g08.bks.cpg/sg2_166_cif.got.tgz:331138.got - 2010.06.03 11:33:40.
