data_PCOD9023426
_publ_section_title
;
Structure prediction by ZEFSAII (Michael W. Deem and Ramdas Pophale) SiO2 
 PCOD9023426
Probable space group: P -1
;
_chemical_formula_sum "Si O2"
_cell_formula_units_Z 12
_cell_length_a 8.546402
_cell_length_b 15.680936
_cell_length_c 12.205743
_cell_angle_alpha 31.500238
_cell_angle_beta 133.159849
_cell_angle_gamma 139.255334
_cell_volume 554.361496
_symmetry_space_group_name_H-M "P -1"
_symmetry_group_IT_number 2
_symmetry_cell_setting 'triclinic'
loop_
_space_group_symop_operation_xyz
x,y,z
-x,-y,-z
loop_
_atom_site_type_symbol
_atom_site_label
_atom_site_fract_x
_atom_site_fract_y
_atom_site_fract_z
Si Si1 0.576944 0.700286 0.269149
Si Si2 0.981294 0.306588 0.595867
Si Si3 0.654188 0.270250 0.661959
Si Si4 0.570397 0.333245 0.215729
Si Si5 0.732650 0.327818 0.056493
Si Si6 0.268150 0.057123 0.538564
O O1 0.500000 0.500000 0.500000
O O2 0.462714 0.787150 0.209294
O O3 0.864611 0.784095 0.289478
O O4 0.431914 0.659049 0.132271
O O5 0.830934 0.210445 0.740522
O O6 0.797086 0.340576 0.388761
O O7 0.184730 0.510564 0.500223
O O8 0.429874 0.203368 0.546373
O O9 0.623114 0.315857 0.135512
O O10 0.348991 0.154561 0.354192
O O11 0.500000 0.500000 0.000000
O O12 0.716610 0.130462 0.243434
O O13 0.000000 0.500000 0.000000
O O14 0.000000 0.000000 0.500000
#
# Coordination Sequence:
#
# PCOD9023426 Si02
#       6
#     2   2   2   2   2   2
#     4  10  22  39  69 100 134 185 230 288 345 421
#     4   9  20  39  71  96 135 183 228 291 346 418
#     4   9  20  39  65  94 138 171 236 271 357 398
#     4  11  25  45  74 103 141 183 237 292 359 420
#     4  12  26  44  70 104 142 186 241 285 361 418
#     4  11  26  44  69 104 143 186 231 298 349 423
#
# _framework density 21.646522999999998
#
# number of rings (size 3 to 8) (size 9 to 14) (size 15 to 20)
#    0.000    1.667    0.000    3.500   18.667    0.667 
#    0.000    3.333    0.000    0.000    0.000    0.000 
#    0.000    0.000    0.000    0.000    0.000    0.000 
#
# Total GULP energy -66875.941338 kJ/mol
# GULP energy per Si atom -5572.995111 kJ/mol
# Density = 2.159725 g / cm^3
# Si number density = 21.646523 Si / 1000 Ang^3
#
#
#
# Elastic Constant Matrix: (Units=GPa)
#
#
# Indices 1 2 3 4 5 6 
#
# 1 186.2997 96.1439 43.9466 35.2617 -14.9995 21.8367
# 2 96.1439 34.1827 63.8512 28.5133 -22.0620 -1.7420
# 3 43.9466 63.8512 120.7976 15.9311 5.5519 5.7694
# 4 35.2617 28.5133 15.9311 26.8347 -5.3893 -8.4142
# 5 -14.9995 -22.0620 5.5519 -5.3893 34.7461 0.1710
# 6 21.8367 -1.7420 5.7694 -8.4142 0.1710 36.8995
#
#
#
# Elastic Compliance Matrix: (Units=1/GPa)
#
#
# Indices 1 2 3 4 5 6 
#
# 1 0.005958 0.008899 -0.004958 -0.014784 0.006750 -0.005733
# 2 0.008899 -0.022303 0.009159 0.001999 -0.011438 -0.007243
# 3 -0.004958 0.009159 0.005903 -0.006029 0.001792 0.001061
# 4 -0.014784 0.001999 -0.006029 0.067252 0.006158 0.025093
# 5 0.006750 -0.011438 0.001792 0.006158 0.025118 -0.003527
# 6 -0.005733 -0.007243 0.001061 0.025093 -0.003527 0.035724
#
#
# Mechanical properties :
#
#
# Convention : Reuss Voigt Hill
#
# Bulk Modulus (GPa) = 63.45770 83.24036 73.34903
# Shear Modulus (GPa) = 51.70424 28.85195 40.27809
#
# Velocity S-wave (km/s) = 4.89260 3.65481 4.31828
# Velocity P-wave (km/s) = 7.82916 7.50653 7.66954
#
# Compressibility (1/GPa) = 0.01575853
#
# Stress axis : x y z
#
# Youngs Moduli (GPa) = 167.83099 -44.83668 169.41275
#
# Poissons Ratio (x) = 0.39901 0.83999
# Poissons Ratio (y) = -1.49355 -1.55173
# Poissons Ratio (z) = 0.83215 0.41068
#
# Static dielectric constant tensor:
#      x y z
#    x 1.891920 -0.010740 0.013490 
#    y -0.010740 1.744910 0.000480 
#    z 0.013490 0.000480 1.709920 
# 
# From -- ./inp_files/395352.got.cif
#   From: 2010.05.17/outbox.cif.g08.bks.cpg/sg2_198_cif.got.tgz:395352.got - 2010.06.03 11:33:40.
