data_PCOD9023329
_publ_section_title
;
Structure prediction by ZEFSAII (Michael W. Deem and Ramdas Pophale) SiO2 
 PCOD9023329
Probable space group: P -1
;
_chemical_formula_sum "Si O2"
_cell_formula_units_Z 16
_cell_length_a 15.465649
_cell_length_b 14.727445
_cell_length_c 11.777323
_cell_angle_alpha 54.656245
_cell_angle_beta 142.437909
_cell_angle_gamma 151.566286
_cell_volume 710.694416
_symmetry_space_group_name_H-M "P -1"
_symmetry_group_IT_number 2
_symmetry_cell_setting 'triclinic'
loop_
_space_group_symop_operation_xyz
x,y,z
-x,-y,-z
loop_
_atom_site_type_symbol
_atom_site_label
_atom_site_fract_x
_atom_site_fract_y
_atom_site_fract_z
Si Si1 0.500446 0.298699 0.131238
Si Si2 0.727355 0.656663 0.248092
Si Si3 0.759466 0.385919 0.908745
Si Si4 0.920343 0.735544 0.780695
Si Si5 0.276449 0.970686 0.571658
Si Si6 0.761618 0.926440 0.765892
Si Si7 0.532962 0.582972 0.646371
Si Si8 0.553154 0.165345 0.095029
O O1 0.663443 0.507856 0.209097
O O2 0.380182 0.136550 0.218355
O O3 0.633949 0.314321 0.161657
O O4 0.265743 0.219921 0.893582
O O5 0.500756 0.519801 0.206401
O O6 0.011286 0.817194 0.478776
O O7 0.847645 0.571128 0.885949
O O8 0.502393 0.198169 0.697238
O O9 0.683801 0.276092 0.027990
O O10 0.000000 0.500000 0.000000
O O11 0.797793 0.744148 0.732640
O O12 0.721205 0.603209 0.562296
O O13 0.228039 0.951475 0.911661
O O14 0.364547 0.902106 0.727407
O O15 0.194891 0.949271 0.372380
O O16 0.546843 0.708742 0.633183
O O17 0.000000 0.000000 0.000000
#
# Coordination Sequence:
#
# PCOD9023329 Si02
#       8
#     2   2   2   2   2   2   2   2
#     4  10  23  44  67 101 137 185 228 294 338 411
#     4  10  22  42  71  98 135 188 235 278 351 405
#     4  12  26  46  69 100 142 187 225 283 354 423
#     4  11  23  43  68 107 139 179 234 289 351 403
#     4  12  25  42  71 104 134 191 233 285 351 421
#     4  11  21  41  67  95 139 180 234 280 341 412
#     4  10  22  39  68 101 137 179 233 291 335 415
#     4  12  27  45  72 105 144 181 231 290 352 418
#
# _framework density 22.513193000000001
#
# number of rings (size 3 to 8) (size 9 to 14) (size 15 to 20)
#    0.000    1.000    3.750    2.625    1.750    1.000 
#    2.250    3.125    0.000    0.000    0.000    0.000 
#    0.000    0.000    0.000    0.000    0.000    0.000 
#
# Total GULP energy -89241.063716 kJ/mol
# GULP energy per Si atom -5577.566482 kJ/mol
# Density = 2.246195 g / cm^3
# Si number density = 22.513193 Si / 1000 Ang^3
#
#
#
# Elastic Constant Matrix: (Units=GPa)
#
#
# Indices 1 2 3 4 5 6 
#
# 1 92.6181 36.7000 33.9710 -1.6211 -7.4679 42.1854
# 2 36.7000 103.5733 28.5414 -9.1890 -11.6143 30.9118
# 3 33.9710 28.5414 62.1657 -1.6369 -8.0689 25.8368
# 4 -1.6211 -9.1890 -1.6369 43.3656 9.3476 -8.5012
# 5 -7.4679 -11.6143 -8.0689 9.3476 26.7370 0.0255
# 6 42.1854 30.9118 25.8368 -8.5012 0.0255 31.7458
#
#
#
# Elastic Compliance Matrix: (Units=1/GPa)
#
#
# Indices 1 2 3 4 5 6 
#
# 1 0.035003 0.004515 0.005093 -0.012855 0.017825 -0.058512
# 2 0.004515 0.015261 0.000981 -0.002955 0.009241 -0.022458
# 3 0.005093 0.000981 0.027812 -0.007705 0.012966 -0.032431
# 4 -0.012855 -0.002955 -0.007705 0.032525 -0.018604 0.034955
# 5 0.017825 0.009241 0.012966 -0.018604 0.056857 -0.048265
# 6 -0.058512 -0.022458 -0.032431 0.034955 -0.048265 0.166916
#
#
# Mechanical properties :
#
#
# Convention : Reuss Voigt Hill
#
# Bulk Modulus (GPa) = 10.07518 50.75356 30.41437
# Shear Modulus (GPa) = 14.43916 30.97932 22.70924
#
# Velocity S-wave (km/s) = 2.53526 3.71354 3.17946
# Velocity P-wave (km/s) = 3.61318 6.40157 5.19784
#
# Compressibility (1/GPa) = 0.09925384
#
# Stress axis : x y z
#
# Youngs Moduli (GPa) = 28.56891 65.52481 35.95626
#
# Poissons Ratio (x) = -0.29585 -0.18311
# Poissons Ratio (y) = -0.12899 -0.03528
# Poissons Ratio (z) = -0.14549 -0.06429
#
# Static dielectric constant tensor:
#      x y z
#    x 1.871880 0.031440 -0.003860 
#    y 0.031440 1.896600 -0.027150 
#    z -0.003860 -0.027150 1.876200 
# 
# From -- ./inp_files/455643.got.cif
#   From: 2010.05.17/outbox.cif.g08.bks.cpg/sg2_228_cif.got.tgz:455643.got - 2010.06.03 11:33:40.
