data_PCOD9023908
_publ_section_title
;
Structure prediction by ZEFSAII (Michael W. Deem and Ramdas Pophale) SiO2 
 PCOD9023908
Probable space group: P -1
;
_chemical_formula_sum "Si O2"
_cell_formula_units_Z 14
_cell_length_a 17.038212
_cell_length_b 5.512281
_cell_length_c 8.016041
_cell_angle_alpha 60.617207
_cell_angle_beta 86.938509
_cell_angle_gamma 78.419744
_cell_volume 641.764150
_symmetry_space_group_name_H-M "P -1"
_symmetry_group_IT_number 2
_symmetry_cell_setting 'triclinic'
loop_
_space_group_symop_operation_xyz
x,y,z
-x,-y,-z
loop_
_atom_site_type_symbol
_atom_site_label
_atom_site_fract_x
_atom_site_fract_y
_atom_site_fract_z
Si Si1 0.177728 0.296390 0.543155
Si Si2 0.906531 0.490048 0.011587
Si Si3 0.478795 0.295317 0.211048
Si Si4 0.429796 0.765742 0.455985
Si Si5 0.093991 0.857536 0.536673
Si Si6 0.314850 0.576748 0.318232
Si Si7 0.823806 0.051970 0.992551
O O1 0.124569 0.615201 0.476345
O O2 0.263335 0.348039 0.456063
O O3 0.139817 0.116201 0.471705
O O4 0.182970 0.117190 0.776264
O O5 0.890645 0.327177 0.235346
O O6 0.876682 0.293089 0.941512
O O7 0.861866 0.814532 0.933461
O O8 0.000000 0.500000 0.000000
O O9 0.552995 0.189588 0.365965
O O10 0.398583 0.448759 0.264055
O O11 0.451598 0.010100 0.253288
O O12 0.500000 0.500000 0.000000
O O13 0.500000 0.500000 0.500000
O O14 0.342624 0.719515 0.433292
O O15 0.000000 0.000000 0.500000
O O16 0.260444 0.789313 0.125923
#
# Coordination Sequence:
#
# PCOD9023908 Si02
#       7
#     2   2   2   2   2   2   2
#     4  10  24  41  60  97 134 169 226 280 333 398
#     4  10  22  40  62  90 130 172 225 279 331 403
#     4  10  23  44  70 101 133 175 224 273 345 414
#     4   9  22  43  65  99 132 172 223 267 345 411
#     4  10  22  40  64  90 126 177 223 277 337 394
#     4  11  25  39  70  94 133 177 219 280 340 401
#     4  10  24  40  60  98 130 174 223 277 342 385
#
# _framework density 21.814867
#
# number of rings (size 3 to 8) (size 9 to 14) (size 15 to 20)
#    0.000    2.000    0.000    0.857    8.000    6.857 
#    2.571    0.000    0.000    0.000    0.000    0.000 
#    0.000    0.000    0.000    0.000    0.000    0.000 
#
# Total GULP energy -78125.996560 kJ/mol
# GULP energy per Si atom -5580.428326 kJ/mol
# Density = 2.176522 g / cm^3
# Si number density = 21.814867 Si / 1000 Ang^3
#
#
#
# Elastic Constant Matrix: (Units=GPa)
#
#
# Indices 1 2 3 4 5 6 
#
# 1 147.9342 71.7016 51.6292 -11.4454 1.2539 24.6058
# 2 71.7016 143.6702 59.0430 -24.3826 0.2127 17.5557
# 3 51.6292 59.0430 110.6648 -14.0526 -8.4918 12.4260
# 4 -11.4454 -24.3826 -14.0526 34.1889 0.9246 -3.1836
# 5 1.2539 0.2127 -8.4918 0.9246 43.0970 -5.6888
# 6 24.6058 17.5557 12.4260 -3.1836 -5.6888 43.6886
#
#
#
# Elastic Compliance Matrix: (Units=1/GPa)
#
#
# Indices 1 2 3 4 5 6 
#
# 1 0.009938 -0.003588 -0.002477 -0.000557 -0.001230 -0.003651
# 2 -0.003588 0.011280 -0.003609 0.005271 -0.000937 -0.001223
# 3 -0.002477 -0.003609 0.012551 0.001662 0.002490 -0.000279
# 4 -0.000557 0.005271 0.001662 0.033527 -0.000386 0.000116
# 5 -0.001230 -0.000937 0.002490 -0.000386 0.024203 0.003484
# 6 -0.003651 -0.001223 -0.000279 0.000116 0.003484 0.025979
#
#
# Mechanical properties :
#
#
# Convention : Reuss Voigt Hill
#
# Bulk Modulus (GPa) = 69.34956 85.22409 77.28683
# Shear Modulus (GPa) = 35.30241 38.85459 37.07850
#
# Velocity S-wave (km/s) = 4.02714 4.22489 4.12720
# Velocity P-wave (km/s) = 7.31320 7.93419 7.63002
#
# Compressibility (1/GPa) = 0.01441970
#
# Stress axis : x y z
#
# Youngs Moduli (GPa) = 100.62198 88.65283 79.67420
#
# Poissons Ratio (x) = 0.31812 0.19736
# Poissons Ratio (y) = 0.36107 0.28757
# Poissons Ratio (z) = 0.24925 0.31997
#
# Static dielectric constant tensor:
#      x y z
#    x 1.281950 0.405160 0.086940 
#    y 0.405160 1.589280 -0.031010 
#    z 0.086940 -0.031010 1.793540 
# 
# From -- ./inp_files/137669.got.cif
#   From: 2010.05.17/outbox.cif.g08.bks.cpg/sg2_69_cif.got.tgz:137669.got - 2010.06.03 11:33:40.
