data_PCOD9023561
_publ_section_title
;
Structure prediction by ZEFSAII (Michael W. Deem and Ramdas Pophale) SiO2 
 PCOD9023561
Probable space group: P -1
;
_chemical_formula_sum "Si O2"
_cell_formula_units_Z 16
_cell_length_a 9.193086
_cell_length_b 18.181496
_cell_length_c 11.707824
_cell_angle_alpha 57.047632
_cell_angle_beta 140.508566
_cell_angle_gamma 92.901164
_cell_volume 754.118770
_symmetry_space_group_name_H-M "P -1"
_symmetry_group_IT_number 2
_symmetry_cell_setting 'triclinic'
loop_
_space_group_symop_operation_xyz
x,y,z
-x,-y,-z
loop_
_atom_site_type_symbol
_atom_site_label
_atom_site_fract_x
_atom_site_fract_y
_atom_site_fract_z
Si Si1 0.547100 0.266391 0.763792
Si Si2 0.777691 0.787931 0.546495
Si Si3 0.317776 0.526288 0.149991
Si Si4 0.106784 0.734316 0.240333
Si Si5 0.007782 0.466489 0.840281
Si Si6 0.515470 0.784888 0.791821
Si Si7 0.749995 0.125806 0.675797
Si Si8 0.087438 0.875413 0.665513
O O1 0.394279 0.220804 0.650215
O O2 0.752646 0.261887 0.794941
O O3 0.252662 0.408966 0.491976
O O4 0.754233 0.187351 0.064079
O O5 0.587356 0.807925 0.526911
O O6 0.792370 0.887830 0.459817
O O7 0.142989 0.659201 0.888194
O O8 0.687399 0.406282 0.483255
O O9 0.184661 0.545544 0.180447
O O10 0.179496 0.488315 0.012998
O O11 0.166886 0.795389 0.315501
O O12 0.746363 0.802395 0.952662
O O13 0.260477 0.346679 0.021613
O O14 0.273660 0.882386 0.465959
O O15 0.333622 0.794998 0.780303
O O16 0.000000 0.000000 0.000000
O O17 0.000000 0.000000 0.500000
#
# Coordination Sequence:
#
# PCOD9023561 Si02
#       8
#     2   2   2   2   2   2   2   2
#     4   9  22  43  66  96 126 172 212 259 330 389
#     4  10  22  45  70  92 126 177 214 264 329 382
#     4   9  16  38  70 102 128 156 207 271 337 380
#     4  10  22  39  72 102 128 161 212 278 326 375
#     4   9  17  37  67  99 131 155 210 272 326 383
#     4  12  25  41  64 100 132 169 214 272 319 376
#     4  11  24  42  70  97 125 165 227 275 315 371
#     4  12  30  45  59  88 139 183 220 255 316 395
#
# _framework density 21.216816000000001
#
# number of rings (size 3 to 8) (size 9 to 14) (size 15 to 20)
#    0.000    1.750    2.500    2.250    7.000    3.500 
#    0.000    1.250    0.000    0.000    0.000    0.000 
#    0.000    0.000    0.000    0.000    0.000    0.000 
#
# Total GULP energy -89414.107093 kJ/mol
# GULP energy per Si atom -5588.381693 kJ/mol
# Density = 2.116853 g / cm^3
# Si number density = 21.216816 Si / 1000 Ang^3
#
#
#
# Elastic Constant Matrix: (Units=GPa)
#
#
# Indices 1 2 3 4 5 6 
#
# 1 36.8739 24.8961 -9.7344 29.3871 19.4022 12.3999
# 2 24.8961 80.3759 -5.9290 8.0743 12.2694 27.6569
# 3 -9.7344 -5.9290 56.0977 21.7517 14.4388 21.2536
# 4 29.3871 8.0743 21.7517 25.6372 -13.5134 -3.1437
# 5 19.4022 12.2694 14.4388 -13.5134 -16.0778 -19.7338
# 6 12.3999 27.6569 21.2536 -3.1437 -19.7338 16.3196
#
#
#
# Elastic Compliance Matrix: (Units=1/GPa)
#
#
# Indices 1 2 3 4 5 6 
#
# 1 0.044131 -0.024254 -0.000794 -0.027449 0.021348 0.029132
# 2 -0.024254 0.025223 -0.000574 0.017693 -0.000266 -0.020483
# 3 -0.000794 -0.000574 0.015123 -0.003627 0.015429 -0.000160
# 4 -0.027449 0.017693 -0.003627 0.049390 -0.028445 -0.029287
# 5 0.021348 -0.000266 0.015429 -0.028445 0.020880 -0.016094
# 6 0.029132 -0.020483 -0.000160 -0.029287 -0.016094 0.048959
#
#
# Mechanical properties :
#
#
# Convention : Reuss Voigt Hill
#
# Bulk Modulus (GPa) = 30.09078 21.31256 25.70167
# Shear Modulus (GPa) = 18.79497 16.11677 17.45587
#
# Velocity S-wave (km/s) = 2.97956 2.75912 2.87145
# Velocity P-wave (km/s) = 5.10395 4.49636 4.80976
#
# Compressibility (1/GPa) = 0.03323277
#
# Stress axis : x y z
#
# Youngs Moduli (GPa) = 22.65956 39.64621 66.12413
#
# Poissons Ratio (x) = 0.96157 0.05252
# Poissons Ratio (y) = 0.54958 0.03797
# Poissons Ratio (z) = 0.01800 0.02277
#
# Static dielectric constant tensor:
#      x y z
#    x 1.705440 -0.004800 0.007550 
#    y -0.004800 1.795540 -0.018470 
#    z 0.007550 -0.018470 1.802420 
# 
# From -- ./inp_files/403057.got.cif
#   From: 2010.05.17/outbox.cif.g08.bks.cpg/sg2_202_cif.got.tgz:403057.got - 2010.06.03 11:33:40.
