data_PCOD9023495
_publ_section_title
;
Structure prediction by ZEFSAII (Michael W. Deem and Ramdas Pophale) SiO2 
 PCOD9023495
Probable space group: P -1
;
_chemical_formula_sum "Si O2"
_cell_formula_units_Z 16
_cell_length_a 10.030576
_cell_length_b 6.678629
_cell_length_c 15.588147
_cell_angle_alpha 96.176872
_cell_angle_beta 61.402814
_cell_angle_gamma 130.693807
_cell_volume 661.562151
_symmetry_space_group_name_H-M "P -1"
_symmetry_group_IT_number 2
_symmetry_cell_setting 'triclinic'
loop_
_space_group_symop_operation_xyz
x,y,z
-x,-y,-z
loop_
_atom_site_type_symbol
_atom_site_label
_atom_site_fract_x
_atom_site_fract_y
_atom_site_fract_z
Si Si1 0.597092 0.747994 0.547276
Si Si2 0.112924 0.065509 0.089927
Si Si3 0.146269 0.198466 0.264725
Si Si4 0.730630 0.083994 0.366476
Si Si5 0.311554 0.644169 0.373490
Si Si6 0.233897 0.559067 0.756911
Si Si7 0.073511 0.831517 0.417285
Si Si8 0.871165 0.205466 0.073605
O O1 0.500000 0.500000 0.500000
O O2 0.637511 0.980195 0.486096
O O3 0.459175 0.155805 0.647413
O O4 0.439092 0.628663 0.668583
O O5 0.930019 0.748540 0.168002
O O6 0.239848 0.234435 0.144372
O O7 0.014215 0.179434 0.084061
O O8 0.220969 0.028904 0.980990
O O9 0.285042 0.462555 0.295952
O O10 0.927932 0.114691 0.309264
O O11 0.088280 0.951142 0.327097
O O12 0.816566 0.370271 0.313833
O O13 0.145821 0.445457 0.491376
O O14 0.228448 0.779596 0.368240
O O15 0.179840 0.071682 0.468662
O O16 0.265845 0.775355 0.822400
O O17 0.000000 0.500000 0.000000
#
# Coordination Sequence:
#
# PCOD9023495 Si02
#       8
#     2   2   2   2   2   2   2   2
#     4  12  25  41  67 100 143 191 239 282 338 406
#     4  10  22  39  70 104 134 174 231 293 350 422
#     4  12  25  42  67 100 137 181 237 283 353 405
#     4  12  25  42  66 100 142 195 234 280 339 410
#     4  11  26  44  61  93 147 188 242 281 336 408
#     4  11  23  39  66 102 136 181 234 283 343 416
#     4  11  26  44  60  95 144 192 231 293 335 409
#     4   9  20  42  68 106 135 167 230 293 356 419
#
# _framework density 24.185179000000002
#
# number of rings (size 3 to 8) (size 9 to 14) (size 15 to 20)
#    0.000    1.000    3.750    2.250    5.250    0.000 
#    0.000    0.000    0.000    1.500    0.000    0.000 
#    0.000    0.000    0.000    0.000    0.000    0.000 
#
# Total GULP energy -89441.934049 kJ/mol
# GULP energy per Si atom -5590.120878 kJ/mol
# Density = 2.413013 g / cm^3
# Si number density = 24.185179 Si / 1000 Ang^3
#
#
#
# Elastic Constant Matrix: (Units=GPa)
#
#
# Indices 1 2 3 4 5 6 
#
# 1 113.0616 50.0619 15.0656 -8.5730 26.5586 3.3758
# 2 50.0619 149.2267 36.8710 1.9278 21.5941 -5.3728
# 3 15.0656 36.8710 121.7593 16.6195 22.8053 6.3421
# 4 -8.5730 1.9278 16.6195 57.9899 -4.8756 21.8933
# 5 26.5586 21.5941 22.8053 -4.8756 40.0764 -4.5525
# 6 3.3758 -5.3728 6.3421 21.8933 -4.5525 41.0693
#
#
#
# Elastic Compliance Matrix: (Units=1/GPa)
#
#
# Indices 1 2 3 4 5 6 
#
# 1 0.012146 -0.003429 0.000625 0.002544 -0.006661 -0.003638
# 2 -0.003429 0.008586 -0.001913 -0.001171 -0.001158 0.002196
# 3 0.000625 -0.001913 0.010219 -0.002882 -0.005659 -0.000971
# 4 0.002544 -0.001171 -0.002882 0.023212 0.002038 -0.012065
# 5 -0.006661 -0.001158 -0.005659 0.002038 0.033907 0.003942
# 6 -0.003638 0.002196 -0.000971 -0.012065 0.003942 0.031954
#
#
# Mechanical properties :
#
#
# Convention : Reuss Voigt Hill
#
# Bulk Modulus (GPa) = 46.47562 65.33828 55.90695
# Shear Modulus (GPa) = 36.59518 46.63039 41.61278
#
# Velocity S-wave (km/s) = 3.89411 4.39573 4.15250
# Velocity P-wave (km/s) = 6.28308 7.26896 6.79392
#
# Compressibility (1/GPa) = 0.02151666
#
# Stress axis : x y z
#
# Youngs Moduli (GPa) = 82.33163 116.46651 97.85799
#
# Poissons Ratio (x) = 0.39938 -0.06121
# Poissons Ratio (y) = 0.28233 0.18725
# Poissons Ratio (z) = -0.05149 0.22286
#
# Static dielectric constant tensor:
#      x y z
#    x 1.938780 -0.023930 -0.004770 
#    y -0.023930 2.066410 0.054060 
#    z -0.004770 0.054060 1.986020 
# 
# From -- ./inp_files/574656.got.cif
#   From: 2010.05.17/outbox.cif.g08.bks.cpg/sg2_288_cif.got.tgz:574656.got - 2010.06.03 11:33:40.
