data_PCOD9023281
_publ_section_title
;
Structure prediction by ZEFSAII (Michael W. Deem and Ramdas Pophale) SiO2 
 PCOD9023281
Probable space group: P -1
;
_chemical_formula_sum "Si O2"
_cell_formula_units_Z 15
_cell_length_a 12.178430
_cell_length_b 8.949042
_cell_length_c 7.024247
_cell_angle_alpha 83.322803
_cell_angle_beta 57.040456
_cell_angle_gamma 65.397704
_cell_volume 577.891090
_symmetry_space_group_name_H-M "P -1"
_symmetry_group_IT_number 2
_symmetry_cell_setting 'triclinic'
loop_
_space_group_symop_operation_xyz
x,y,z
-x,-y,-z
loop_
_atom_site_type_symbol
_atom_site_label
_atom_site_fract_x
_atom_site_fract_y
_atom_site_fract_z
Si Si1 0.188622 0.410345 0.888651
Si Si2 0.707607 0.313640 0.750679
Si Si3 0.842727 0.256655 0.245525
Si Si4 0.865771 0.848621 0.819396
Si Si5 0.595897 0.668059 0.998786
Si Si6 0.000000 0.000000 0.500000
Si Si7 0.660473 0.798235 0.561587
Si Si8 0.651892 0.089011 0.281837
O O1 0.126386 0.607989 0.919373
O O2 0.211173 0.332305 0.668557
O O3 0.106570 0.335682 0.118420
O O4 0.348066 0.339617 0.840936
O O5 0.737862 0.355323 0.501809
O O6 0.661184 0.477847 0.894095
O O7 0.854843 0.163317 0.693934
O O8 0.574530 0.263905 0.870265
O O9 0.757885 0.172207 0.224397
O O10 0.988057 0.128339 0.239727
O O11 0.889470 0.901837 0.581697
O O12 0.729078 0.962313 0.054867
O O13 0.664244 0.764244 0.787032
O O14 0.508694 0.790537 0.647945
O O15 0.641484 0.977782 0.483213
#
# Coordination Sequence:
#
# PCOD9023281 Si02
#       8
#     2   2   2   2   2   1   2   2
#     4  11  24  41  67  95 130 172 218 269 332 380
#     4  10  23  40  64  98 132 170 220 273 323 392
#     4  11  22  41  66  91 130 175 217 267 329 395
#     4  10  23  42  62  93 130 173 215 274 322 398
#     4  11  23  40  68  99 129 174 220 270 328 390
#     4  10  22  42  62  86 136 170 208 270 330 378
#     4  10  22  43  64  97 136 159 218 280 320 394
#     4  10  22  39  67  96 125 175 212 268 339 382
#
# _framework density 25.956447000000001
#
# number of rings (size 3 to 8) (size 9 to 14) (size 15 to 20)
#    0.000    1.600    1.333    2.400    5.600    3.200 
#    0.000   10.000    0.000    0.000    0.000    0.000 
#    0.000    0.000    0.000    0.000    0.000    0.000 
#
# Total GULP energy -83716.834676 kJ/mol
# GULP energy per Si atom -5581.122312 kJ/mol
# Density = 2.589737 g / cm^3
# Si number density = 25.956447 Si / 1000 Ang^3
#
#
#
# Elastic Constant Matrix: (Units=GPa)
#
#
# Indices 1 2 3 4 5 6 
#
# 1 56.4274 17.1785 12.3989 13.9622 -7.7725 -13.9330
# 2 17.1785 96.9273 23.8442 -8.4963 -14.4036 -4.1694
# 3 12.3989 23.8442 109.4542 -7.1201 -12.9377 -10.0187
# 4 13.9622 -8.4963 -7.1201 49.9807 -1.9643 -6.5524
# 5 -7.7725 -14.4036 -12.9377 -1.9643 42.4759 -0.0528
# 6 -13.9330 -4.1694 -10.0187 -6.5524 -0.0528 34.4556
#
#
#
# Elastic Compliance Matrix: (Units=1/GPa)
#
#
# Indices 1 2 3 4 5 6 
#
# 1 0.022699 -0.003600 -0.001253 -0.006095 0.002278 0.007223
# 2 -0.003600 0.012083 -0.001661 0.002955 0.003069 0.000090
# 3 -0.001253 -0.001661 0.010302 0.001981 0.002440 0.002668
# 4 -0.006095 0.002955 0.001981 0.022927 0.001554 0.002831
# 5 0.002278 0.003069 0.002440 0.001554 0.025819 0.002337
# 6 0.007223 0.000090 0.002668 0.002831 0.002337 0.033273
#
#
# Mechanical properties :
#
#
# Convention : Reuss Voigt Hill
#
# Bulk Modulus (GPa) = 31.19623 41.07245 36.13434
# Shear Modulus (GPa) = 33.15352 39.34159 36.24755
#
# Velocity S-wave (km/s) = 3.57778 3.89739 3.74100
# Velocity P-wave (km/s) = 5.39556 6.00923 5.71064
#
# Compressibility (1/GPa) = 0.03205516
#
# Stress axis : x y z
#
# Youngs Moduli (GPa) = 44.05576 82.76338 97.07268
#
# Poissons Ratio (x) = 0.29791 0.12165
# Poissons Ratio (y) = 0.15858 0.16125
# Poissons Ratio (z) = 0.05521 0.13748
#
# Static dielectric constant tensor:
#      x y z
#    x 1.886230 0.448910 -0.553920 
#    y 0.448910 1.283420 0.991070 
#    z -0.553920 0.991070 0.633550 
# 
# From -- ./inp_files/238139.got.cif
#   From: 2010.05.17/outbox.cif.g08.bks.cpg/sg2_120_cif.got.tgz:238139.got - 2010.06.03 11:33:40.
