data_PCOD9023441
_publ_section_title
;
Structure prediction by ZEFSAII (Michael W. Deem and Ramdas Pophale) SiO2 
 PCOD9023441
Probable space group: P -1
;
_chemical_formula_sum "Si O2"
_cell_formula_units_Z 16
_cell_length_a 12.007928
_cell_length_b 5.653514
_cell_length_c 13.340461
_cell_angle_alpha 91.743383
_cell_angle_beta 51.117660
_cell_angle_gamma 69.644663
_cell_volume 621.379091
_symmetry_space_group_name_H-M "P -1"
_symmetry_group_IT_number 2
_symmetry_cell_setting 'triclinic'
loop_
_space_group_symop_operation_xyz
x,y,z
-x,-y,-z
loop_
_atom_site_type_symbol
_atom_site_label
_atom_site_fract_x
_atom_site_fract_y
_atom_site_fract_z
Si Si1 0.601960 0.592592 0.369648
Si Si2 0.740021 0.127560 0.121847
Si Si3 0.855258 0.970158 0.528442
Si Si4 0.423197 0.310282 0.011779
Si Si5 0.512692 0.061883 0.751793
Si Si6 0.021413 0.194563 0.863709
Si Si7 0.928716 0.524950 0.741792
Si Si8 0.153561 0.716458 0.630884
O O1 0.500000 0.500000 0.500000
O O2 0.683795 0.366007 0.236287
O O3 0.519353 0.853106 0.347982
O O4 0.739683 0.558163 0.372528
O O5 0.580570 0.112290 0.178121
O O6 0.864820 0.158694 0.978055
O O7 0.861449 0.853707 0.109677
O O8 0.705325 0.944683 0.661300
O O9 0.767931 0.239991 0.512641
O O10 0.000000 0.000000 0.500000
O O11 0.951102 0.709671 0.401488
O O12 0.429580 0.292247 0.886361
O O13 0.500000 0.500000 0.000000
O O14 0.249335 0.434210 0.164939
O O15 0.500000 0.000000 0.000000
O O16 0.962616 0.464964 0.840272
O O17 0.123369 0.957691 0.724719
O O18 0.976972 0.756807 0.700390
#
# Coordination Sequence:
#
# PCOD9023441 Si02
#       8
#     2   2   2   2   2   2   2   2
#     4  11  23  41  65 106 150 187 243 307 378 457
#     4  10  22  39  69 102 146 184 244 300 381 451
#     4  11  26  45  65 101 145 193 255 311 384 454
#     4  12  31  53  81 112 152 202 265 331 386 456
#     4  12  26  44  77 107 147 198 254 320 383 462
#     4   9  20  41  66 104 139 184 235 306 372 463
#     4  11  24  44  74  95 143 191 247 308 386 448
#     4  10  22  42  68  99 141 191 238 307 380 458
#
# _framework density 25.749175999999999
#
# number of rings (size 3 to 8) (size 9 to 14) (size 15 to 20)
#    0.000    1.250    1.250    3.000   10.500    1.000 
#    0.000    5.000    0.000    0.000    0.000    0.000 
#    0.000    0.000    0.000    0.000    0.000    0.000 
#
# Total GULP energy -89329.038217 kJ/mol
# GULP energy per Si atom -5583.064889 kJ/mol
# Density = 2.569057 g / cm^3
# Si number density = 25.749176 Si / 1000 Ang^3
#
#
#
# Elastic Constant Matrix: (Units=GPa)
#
#
# Indices 1 2 3 4 5 6 
#
# 1 116.4738 28.1677 33.1515 -18.5373 -27.5107 24.5565
# 2 28.1677 54.8641 13.7141 -19.3017 -1.1559 1.1609
# 3 33.1515 13.7141 101.4110 -20.8788 -22.2552 1.2160
# 4 -18.5373 -19.3017 -20.8788 46.8499 10.0648 -2.4018
# 5 -27.5107 -1.1559 -22.2552 10.0648 55.3998 -14.6380
# 6 24.5565 1.1609 1.2160 -2.4018 -14.6380 37.7924
#
#
#
# Elastic Compliance Matrix: (Units=1/GPa)
#
#
# Indices 1 2 3 4 5 6 
#
# 1 0.013010 -0.005609 -0.002537 0.000624 0.003403 -0.006842
# 2 -0.005609 0.024035 -0.000483 0.008313 -0.003427 0.002123
# 3 -0.002537 -0.000483 0.012297 0.003614 0.003798 0.002968
# 4 0.000624 0.008313 0.003614 0.027277 -0.003083 -0.000238
# 5 0.003403 -0.003427 0.003798 -0.003083 0.023522 0.006686
# 6 -0.006842 0.002123 0.002968 -0.000238 0.006686 0.033320
#
#
# Mechanical properties :
#
#
# Convention : Reuss Voigt Hill
#
# Bulk Modulus (GPa) = 31.16806 46.97949 39.07377
# Shear Modulus (GPa) = 30.97639 41.18946 36.08293
#
# Velocity S-wave (km/s) = 3.47220 4.00389 3.74749
# Velocity P-wave (km/s) = 5.31090 6.29758 5.82517
#
# Compressibility (1/GPa) = 0.03208412
#
# Stress axis : x y z
#
# Youngs Moduli (GPa) = 76.86493 41.60661 81.31776
#
# Poissons Ratio (x) = 0.23338 0.20630
# Poissons Ratio (y) = 0.43114 0.03926
# Poissons Ratio (z) = 0.19501 0.02009
#
# Static dielectric constant tensor:
#      x y z
#    x 2.171270 -0.130270 -0.047270 
#    y -0.130270 2.095940 -0.018440 
#    z -0.047270 -0.018440 2.012090 
# 
# From -- ./inp_files/368101.got.cif
#   From: 2010.05.17/outbox.cif.g08.bks.cpg/sg2_185_cif.got.tgz:368101.got - 2010.06.03 11:33:40.
