data_PCOD9023292
_publ_section_title
;
Structure prediction by ZEFSAII (Michael W. Deem and Ramdas Pophale) SiO2 
 PCOD9023292
Probable space group: P -1
;
_chemical_formula_sum "Si O2"
_cell_formula_units_Z 14
_cell_length_a 7.942666
_cell_length_b 7.755410
_cell_length_c 11.528187
_cell_angle_alpha 108.384975
_cell_angle_beta 110.147819
_cell_angle_gamma 53.369406
_cell_volume 529.277578
_symmetry_space_group_name_H-M "P -1"
_symmetry_group_IT_number 2
_symmetry_cell_setting 'triclinic'
loop_
_space_group_symop_operation_xyz
x,y,z
-x,-y,-z
loop_
_atom_site_type_symbol
_atom_site_label
_atom_site_fract_x
_atom_site_fract_y
_atom_site_fract_z
Si Si1 0.157640 0.421692 0.143051
Si Si2 0.559678 0.351012 0.094086
Si Si3 0.898771 0.903679 0.141731
Si Si4 0.816521 0.929319 0.794566
Si Si5 0.375290 0.383492 0.435092
Si Si6 0.657635 0.931238 0.314711
Si Si7 0.156120 0.539543 0.656526
O O1 0.357918 0.352344 0.094070
O O2 0.086454 0.255183 0.120428
O O3 0.256418 0.432840 0.293670
O O4 0.966799 0.657182 0.107166
O O5 0.671081 0.424502 0.229598
O O6 0.736208 0.097288 0.059164
O O7 0.500000 0.500000 0.000000
O O8 0.775241 0.982970 0.253910
O O9 0.112453 0.904421 0.173614
O O10 0.930554 0.764323 0.676573
O O11 0.564146 0.042343 0.771783
O O12 0.500000 0.500000 0.500000
O O13 0.215070 0.482736 0.525400
O O14 0.557678 0.124118 0.426829
O O15 0.809089 0.681291 0.331288
#
# Coordination Sequence:
#
# PCOD9023292 Si02
#       7
#     2   2   2   2   2   2   2
#     4  11  22  43  70  97 140 174 223 277 339 402
#     4  11  24  46  72  98 135 177 230 288 332 395
#     4  11  22  44  70  99 136 176 227 275 338 403
#     4  10  22  39  67  97 133 176 222 272 330 401
#     4  11  21  40  67 101 139 180 218 275 337 403
#     4  11  22  41  68  98 139 179 221 271 337 406
#     4  11  22  43  65 100 139 176 225 277 334 400
#
# _framework density 26.451149000000001
#
# number of rings (size 3 to 8) (size 9 to 14) (size 15 to 20)
#    0.000    1.143    5.714    2.143    0.000    2.857 
#    2.571    7.143    0.000    0.000    0.000    0.000 
#    0.000    0.000    0.000    0.000    0.000    0.000 
#
# Total GULP energy -78393.282833 kJ/mol
# GULP energy per Si atom -5599.520202 kJ/mol
# Density = 2.639095 g / cm^3
# Si number density = 26.451149 Si / 1000 Ang^3
#
#
#
# Elastic Constant Matrix: (Units=GPa)
#
#
# Indices 1 2 3 4 5 6 
#
# 1 171.2196 23.7367 34.5068 -9.3757 -18.1358 23.9006
# 2 23.7367 168.7211 24.6152 9.2611 -1.3065 26.4716
# 3 34.5068 24.6152 90.0229 2.3655 2.2214 18.0447
# 4 -9.3757 9.2611 2.3655 38.9676 6.0821 -0.3916
# 5 -18.1358 -1.3065 2.2214 6.0821 47.6878 -1.7084
# 6 23.9006 26.4716 18.0447 -0.3916 -1.7084 47.4189
#
#
#
# Elastic Compliance Matrix: (Units=1/GPa)
#
#
# Indices 1 2 3 4 5 6 
#
# 1 0.007015 -0.000351 -0.002213 0.001494 0.002485 -0.002396
# 2 -0.000351 0.006720 -0.001024 -0.001683 0.000199 -0.003192
# 3 -0.002213 -0.001024 0.012959 -0.000878 -0.001480 -0.003305
# 4 0.001494 -0.001683 -0.000878 0.026926 -0.002848 0.000640
# 5 0.002485 0.000199 -0.001480 -0.002848 0.022352 -0.000018
# 6 -0.002396 -0.003192 -0.003305 0.000640 -0.000018 0.025340
#
#
# Mechanical properties :
#
#
# Convention : Reuss Voigt Hill
#
# Bulk Modulus (GPa) = 51.23604 66.18676 58.71140
# Shear Modulus (GPa) = 43.48088 49.95517 46.71803
#
# Velocity S-wave (km/s) = 4.05880 4.35050 4.20718
# Velocity P-wave (km/s) = 6.43252 7.09312 6.77088
#
# Compressibility (1/GPa) = 0.01951751
#
# Stress axis : x y z
#
# Youngs Moduli (GPa) = 142.56162 148.80123 77.16877
#
# Poissons Ratio (x) = 0.05220 0.17079
# Poissons Ratio (y) = 0.05002 0.07902
# Poissons Ratio (z) = 0.31551 0.15237
#
# Static dielectric constant tensor:
#      x y z
#    x 2.084730 -0.022210 0.019910 
#    y -0.022210 2.060860 0.045840 
#    z 0.019910 0.045840 2.235150 
# 
# From -- ./inp_files/193844.got.cif
#   From: 2010.05.17/outbox.cif.g08.bks.cpg/sg2_97_cif.got.tgz:193844.got - 2010.06.03 11:33:40.
