data_PCOD9023528
_publ_section_title
;
Structure prediction by ZEFSAII (Michael W. Deem and Ramdas Pophale) SiO2 
 PCOD9023528
Probable space group: P -1
;
_chemical_formula_sum "Si O2"
_cell_formula_units_Z 14
_cell_length_a 8.290821
_cell_length_b 12.260025
_cell_length_c 9.043476
_cell_angle_alpha 49.396512
_cell_angle_beta 73.806833
_cell_angle_gamma 82.311700
_cell_volume 668.783813
_symmetry_space_group_name_H-M "P -1"
_symmetry_group_IT_number 2
_symmetry_cell_setting 'triclinic'
loop_
_space_group_symop_operation_xyz
x,y,z
-x,-y,-z
loop_
_atom_site_type_symbol
_atom_site_label
_atom_site_fract_x
_atom_site_fract_y
_atom_site_fract_z
Si Si1 0.842179 0.387113 0.607074
Si Si2 0.554204 0.463548 0.817079
Si Si3 0.696000 0.686991 0.793169
Si Si4 0.579136 0.925379 0.402313
Si Si5 0.984758 0.157198 0.289001
Si Si6 0.302827 0.707239 0.582987
Si Si7 0.890458 0.103165 0.031857
O O1 0.667020 0.442066 0.665006
O O2 0.809750 0.341679 0.485673
O O3 0.000000 0.500000 0.500000
O O4 0.871644 0.246367 0.818402
O O5 0.678970 0.535188 0.846705
O O6 0.410799 0.574598 0.721954
O O7 0.458471 0.324878 0.040051
O O8 0.678252 0.801294 0.566302
O O9 0.862680 0.734591 0.794216
O O10 0.439133 0.842978 0.407282
O O11 0.500000 0.000000 0.500000
O O12 0.709214 0.028209 0.188348
O O13 0.817389 0.231289 0.316625
O O14 0.982494 0.136067 0.134092
O O15 0.000000 0.000000 0.500000
O O16 0.000000 0.000000 0.000000
#
# Coordination Sequence:
#
# PCOD9023528 Si02
#       7
#     2   2   2   2   2   2   2
#     4  12  28  46  67 101 147 180 226 290 347 409
#     4  10  24  43  68 100 136 179 229 281 347 405
#     4  10  22  39  70  98 135 171 232 280 335 409
#     4  11  21  44  71  98 136 178 232 288 340 409
#     4  12  23  43  70 101 133 178 231 281 345 408
#     4  11  25  42  73  98 135 189 232 278 343 414
#     4  12  28  43  70 104 140 179 231 288 350 402
#
# _framework density 20.933520000000001
#
# number of rings (size 3 to 8) (size 9 to 14) (size 15 to 20)
#    0.000    0.857    2.857    3.000   10.000    2.286 
#    0.000    0.000    0.000    0.000    0.000    0.000 
#    0.000    0.000    0.000    0.000    0.000    0.000 
#
# Total GULP energy -78254.771761 kJ/mol
# GULP energy per Si atom -5589.626554 kJ/mol
# Density = 2.088587 g / cm^3
# Si number density = 20.933520 Si / 1000 Ang^3
#
#
#
# Elastic Constant Matrix: (Units=GPa)
#
#
# Indices 1 2 3 4 5 6 
#
# 1 105.0184 56.6573 44.0734 -10.0138 -4.1485 22.3408
# 2 56.6573 101.4633 49.7571 13.6182 2.2271 -3.5788
# 3 44.0734 49.7571 120.0039 -12.5765 -7.9135 1.9884
# 4 -10.0138 13.6182 -12.5765 39.4305 6.5561 -3.4148
# 5 -4.1485 2.2271 -7.9135 6.5561 43.1807 -2.2833
# 6 22.3408 -3.5788 1.9884 -3.4148 -2.2833 55.9492
#
#
#
# Elastic Compliance Matrix: (Units=1/GPa)
#
#
# Indices 1 2 3 4 5 6 
#
# 1 0.018139 -0.010724 -0.001304 0.007156 0.000578 -0.007422
# 2 -0.010724 0.020381 -0.005827 -0.010980 -0.001214 0.005073
# 3 -0.001304 -0.005827 0.011876 0.005218 0.001565 0.000108
# 4 0.007156 -0.010980 0.005218 0.032955 -0.002891 -0.001852
# 5 0.000578 -0.001214 0.001565 -0.002891 0.024026 0.000440
# 6 -0.007422 0.005073 0.000108 -0.001852 0.000440 0.021063
#
#
# Mechanical properties :
#
#
# Convention : Reuss Voigt Hill
#
# Bulk Modulus (GPa) = 68.09227 69.71790 68.90508
# Shear Modulus (GPa) = 29.57767 39.44527 34.51147
#
# Velocity S-wave (km/s) = 3.76298 4.34557 4.06473
# Velocity P-wave (km/s) = 7.17485 7.65215 7.41734
#
# Compressibility (1/GPa) = 0.01468595
#
# Stress axis : x y z
#
# Youngs Moduli (GPa) = 55.12835 49.06550 84.20141
#
# Poissons Ratio (x) = 0.52620 0.10983
# Poissons Ratio (y) = 0.59122 0.49061
# Poissons Ratio (z) = 0.07191 0.28589
#
# Static dielectric constant tensor:
#      x y z
#    x 1.748170 -0.022640 0.007410 
#    y -0.022640 1.768480 -0.004880 
#    z 0.007410 -0.004880 1.725700 
# 
# From -- ./inp_files/183975.got.cif
#   From: 2010.05.17/outbox.cif.g08.bks.cpg/sg2_92_cif.got.tgz:183975.got - 2010.06.03 11:33:40.
