data_PCOD9023944
_publ_section_title
;
Structure prediction by ZEFSAII (Michael W. Deem and Ramdas Pophale) SiO2 
 PCOD9023944
Probable space group: P -1
;
_chemical_formula_sum "Si O2"
_cell_formula_units_Z 16
_cell_length_a 11.246848
_cell_length_b 7.932474
_cell_length_c 13.744978
_cell_angle_alpha 94.065477
_cell_angle_beta 53.553530
_cell_angle_gamma 60.669063
_cell_volume 736.609089
_symmetry_space_group_name_H-M "P -1"
_symmetry_group_IT_number 2
_symmetry_cell_setting 'triclinic'
loop_
_space_group_symop_operation_xyz
x,y,z
-x,-y,-z
loop_
_atom_site_type_symbol
_atom_site_label
_atom_site_fract_x
_atom_site_fract_y
_atom_site_fract_z
Si Si1 0.920875 0.308201 0.012262
Si Si2 0.662623 0.929556 0.544630
Si Si3 0.716309 0.117278 0.108795
Si Si4 0.712386 0.600545 0.310485
Si Si5 0.978458 0.404038 0.775182
Si Si6 0.403957 0.457581 0.129255
Si Si7 0.403543 0.408170 0.433176
Si Si8 0.231070 0.817243 0.397885
O O1 0.854449 0.168903 0.013383
O O2 0.766064 0.489193 0.174750
O O3 0.936473 0.387180 0.905831
O O4 0.136429 0.145883 0.950377
O O5 0.678890 0.720026 0.556865
O O6 0.839801 0.829826 0.377116
O O7 0.440322 0.130091 0.622546
O O8 0.692126 0.051700 0.615669
O O9 0.557896 0.223605 0.104213
O O10 0.608801 0.247995 0.267692
O O11 0.600510 0.581376 0.447589
O O12 0.919406 0.490961 0.257186
O O13 0.780201 0.513420 0.817757
O O14 0.331204 0.648459 0.251763
O O15 0.500000 0.500000 0.000000
O O16 0.282073 0.654736 0.456608
O O17 0.000000 0.000000 0.500000
#
# Coordination Sequence:
#
# PCOD9023944 Si02
#       8
#     2   2   2   2   2   2   2   2
#     4  11  22  38  65  93 130 175 225 266 329 396
#     4  11  23  43  70  98 133 174 219 276 335 390
#     4  10  22  40  62  92 128 178 215 273 330 391
#     4  11  23  40  66 100 130 172 223 275 335 389
#     4  11  22  40  65  92 132 173 215 272 332 393
#     4  11  22  42  64  91 132 174 218 268 335 397
#     4  10  23  42  65  96 136 165 218 277 327 387
#     4  11  24  43  68  97 126 180 224 266 328 396
#
# _framework density 21.721156000000001
#
# number of rings (size 3 to 8) (size 9 to 14) (size 15 to 20)
#    0.000    1.250    2.500    4.875    0.000    5.500 
#    2.250    0.625    0.000    0.000    0.000    0.000 
#    0.000    0.000    0.000    0.000    0.000    0.000 
#
# Total GULP energy -89245.083639 kJ/mol
# GULP energy per Si atom -5577.817727 kJ/mol
# Density = 2.167172 g / cm^3
# Si number density = 21.721156 Si / 1000 Ang^3
#
#
#
# Elastic Constant Matrix: (Units=GPa)
#
#
# Indices 1 2 3 4 5 6 
#
# 1 116.9914 20.0277 17.7725 5.8492 -17.5667 -8.8155
# 2 20.0277 50.2397 26.8860 0.8232 -0.7073 -8.4406
# 3 17.7725 26.8860 87.6372 -10.8838 2.8330 -19.4707
# 4 5.8492 0.8232 -10.8838 35.8126 -0.6267 -9.5181
# 5 -17.5667 -0.7073 2.8330 -0.6267 39.6785 -1.3809
# 6 -8.8155 -8.4406 -19.4707 -9.5181 -1.3809 38.0166
#
#
#
# Elastic Compliance Matrix: (Units=1/GPa)
#
#
# Indices 1 2 3 4 5 6 
#
# 1 0.010093 -0.003123 -0.001282 -0.001694 0.004503 0.000730
# 2 -0.003123 0.025127 -0.007178 -0.002086 -0.000433 0.000640
# 3 -0.001282 -0.007178 0.016790 0.007734 -0.001473 0.008591
# 4 -0.001694 -0.002086 0.007734 0.033652 -0.000407 0.011516
# 5 0.004503 -0.000433 -0.001473 -0.000407 0.027325 0.001084
# 6 0.000730 0.000640 0.008591 0.011516 0.001084 0.033938
#
#
# Mechanical properties :
#
#
# Convention : Reuss Voigt Hill
#
# Bulk Modulus (GPa) = 34.67211 42.69341 38.68276
# Shear Modulus (GPa) = 27.82323 35.38034 31.60178
#
# Velocity S-wave (km/s) = 3.58289 4.04027 3.81843
# Velocity P-wave (km/s) = 5.75440 6.43917 6.10639
#
# Compressibility (1/GPa) = 0.02884163
#
# Stress axis : x y z
#
# Youngs Moduli (GPa) = 99.07917 39.79822 59.56017
#
# Poissons Ratio (x) = 0.12431 0.07638
# Poissons Ratio (y) = 0.30947 0.42753
# Poissons Ratio (z) = 0.12705 0.28567
#
# Static dielectric constant tensor:
#      x y z
#    x 1.862740 0.016910 -0.002510 
#    y 0.016910 1.803210 0.001600 
#    z -0.002510 0.001600 1.784830 
# 
# From -- ./inp_files/514353.got.cif
#   From: 2010.05.17/outbox.cif.g08.bks.cpg/sg2_258_cif.got.tgz:514353.got - 2010.06.03 11:33:40.
