data_PCOD9023837
_publ_section_title
;
Structure prediction by ZEFSAII (Michael W. Deem and Ramdas Pophale) SiO2 
 PCOD9023837
Probable space group: P -1
;
_chemical_formula_sum "Si O2"
_cell_formula_units_Z 16
_cell_length_a 14.952404
_cell_length_b 11.208509
_cell_length_c 6.631605
_cell_angle_alpha 45.376103
_cell_angle_beta 107.806086
_cell_angle_gamma 126.098865
_cell_volume 627.768207
_symmetry_space_group_name_H-M "P -1"
_symmetry_group_IT_number 2
_symmetry_cell_setting 'triclinic'
loop_
_space_group_symop_operation_xyz
x,y,z
-x,-y,-z
loop_
_atom_site_type_symbol
_atom_site_label
_atom_site_fract_x
_atom_site_fract_y
_atom_site_fract_z
Si Si1 0.186635 0.119878 0.446149
Si Si2 0.605267 0.433016 0.355796
Si Si3 0.135166 0.437673 0.938233
Si Si4 0.942329 0.075387 0.024974
Si Si5 0.574603 0.980554 0.402789
Si Si6 0.724072 0.388466 0.802493
Si Si7 0.416833 0.475180 0.232619
Si Si8 0.212463 0.889719 0.414823
O O1 0.178086 0.286577 0.119703
O O2 0.316760 0.239368 0.463396
O O3 0.154312 0.926429 0.522244
O O4 0.104584 0.060188 0.648087
O O5 0.719690 0.464889 0.485659
O O6 0.541475 0.529707 0.293008
O O7 0.515659 0.194862 0.593009
O O8 0.594481 0.468554 0.071123
O O9 0.159844 0.481235 0.147191
O O10 0.190820 0.669739 0.636061
O O11 0.019802 0.302008 0.898176
O O12 0.836237 0.057282 0.867328
O O13 0.000000 0.000000 0.000000
O O14 0.656509 0.952752 0.636355
O O15 0.500000 0.000000 0.500000
O O16 0.665806 0.159106 0.104491
O O17 0.630093 0.419544 0.796019
#
# Coordination Sequence:
#
# PCOD9023837 Si02
#       8
#     2   2   2   2   2   2   2   2
#     4  11  24  47  72 105 148 184 246 307 360 441
#     4  11  21  39  68  94 139 190 227 285 358 418
#     4  10  24  48  70 104 146 183 245 303 362 440
#     4  12  26  49  79 107 142 194 243 307 382 435
#     4  11  22  43  67 102 148 183 240 296 349 439
#     4  10  22  40  63  96 133 182 232 291 350 422
#     4  10  22  40  62 101 136 177 239 286 344 434
#     4  11  25  48  73 106 149 190 241 306 367 435
#
# _framework density 25.487113999999998
#
# number of rings (size 3 to 8) (size 9 to 14) (size 15 to 20)
#    0.000    1.250    3.750    1.500    0.000    3.500 
#    6.750    0.000    0.000    0.000    0.000    0.000 
#    0.000    0.000    0.000    0.000    0.000    0.000 
#
# Total GULP energy -89120.816723 kJ/mol
# GULP energy per Si atom -5570.051045 kJ/mol
# Density = 2.542910 g / cm^3
# Si number density = 25.487114 Si / 1000 Ang^3
#
#
#
# Elastic Constant Matrix: (Units=GPa)
#
#
# Indices 1 2 3 4 5 6 
#
# 1 64.6326 13.1543 30.3323 13.4017 13.0979 -12.8307
# 2 13.1543 107.2552 19.3814 2.2516 -1.0289 -4.6482
# 3 30.3323 19.3814 91.8379 12.0802 3.2929 -9.0850
# 4 13.4017 2.2516 12.0802 43.1923 11.6445 19.8231
# 5 13.0979 -1.0289 3.2929 11.6445 34.7968 4.8089
# 6 -12.8307 -4.6482 -9.0850 19.8231 4.8089 39.9384
#
#
#
# Elastic Compliance Matrix: (Units=1/GPa)
#
#
# Indices 1 2 3 4 5 6 
#
# 1 0.023823 -0.001387 -0.004883 -0.009559 -0.007001 0.011969
# 2 -0.001387 0.009805 -0.001630 0.000035 0.000927 0.000196
# 3 -0.004883 -0.001630 0.013645 -0.004063 0.001417 0.003191
# 4 -0.009559 0.000035 -0.004063 0.039338 -0.006031 -0.022790
# 5 -0.007001 0.000927 0.001417 -0.006031 0.033683 -0.002881
# 6 0.011969 0.000196 0.003191 -0.022790 -0.002881 0.041291
#
#
# Mechanical properties :
#
#
# Convention : Reuss Voigt Hill
#
# Bulk Modulus (GPa) = 31.77328 43.27352 37.52340
# Shear Modulus (GPa) = 26.61328 36.97601 31.79465
#
# Velocity S-wave (km/s) = 3.23489 3.81303 3.53580
# Velocity P-wave (km/s) = 5.14258 6.03333 5.60568
#
# Compressibility (1/GPa) = 0.03147299
#
# Stress axis : x y z
#
# Youngs Moduli (GPa) = 41.97611 101.99094 73.28815
#
# Poissons Ratio (x) = 0.14148 0.35787
# Poissons Ratio (y) = 0.05823 0.11943
# Poissons Ratio (z) = 0.20497 0.16620
#
# Static dielectric constant tensor:
#      x y z
#    x 2.108660 -0.015830 -0.010960 
#    y -0.015830 2.089320 0.046420 
#    z -0.010960 0.046420 2.152820 
# 
# From -- ./inp_files/109507.got.cif
#   From: 2010.05.17/outbox.cif.g08.bks.cpg/sg2_55_cif.got.tgz:109507.got - 2010.06.03 11:33:40.
