data_PCOD9023467
_publ_section_title
;
Structure prediction by ZEFSAII (Michael W. Deem and Ramdas Pophale) SiO2 
 PCOD9023467
Probable space group: P -1
;
_chemical_formula_sum "Si O2"
_cell_formula_units_Z 16
_cell_length_a 23.029235
_cell_length_b 8.252069
_cell_length_c 8.056802
_cell_angle_alpha 52.039248
_cell_angle_beta 122.339999
_cell_angle_gamma 145.723954
_cell_volume 678.631081
_symmetry_space_group_name_H-M "P -1"
_symmetry_group_IT_number 2
_symmetry_cell_setting 'triclinic'
loop_
_space_group_symop_operation_xyz
x,y,z
-x,-y,-z
loop_
_atom_site_type_symbol
_atom_site_label
_atom_site_fract_x
_atom_site_fract_y
_atom_site_fract_z
Si Si1 0.380144 0.135061 0.402228
Si Si2 0.807209 0.047404 0.762556
Si Si3 0.921327 0.950011 0.798558
Si Si4 0.517147 0.087275 0.775797
Si Si5 0.412093 0.449215 0.957710
Si Si6 0.789897 0.898667 0.197514
Si Si7 0.006273 0.254699 0.396720
Si Si8 0.282975 0.598389 0.330199
O O1 0.466301 0.192611 0.585303
O O2 0.417577 0.416195 0.182179
O O3 0.283951 0.025116 0.419187
O O4 0.332700 0.888497 0.335753
O O5 0.863877 0.010266 0.760208
O O6 0.888899 0.405241 0.712061
O O7 0.775969 0.851122 0.005687
O O8 0.990216 0.205072 0.599412
O O9 0.825150 0.597282 0.806901
O O10 0.000000 0.000000 0.000000
O O11 0.630521 0.299486 0.731535
O O12 0.500000 0.000000 0.000000
O O13 0.444074 0.754379 0.782946
O O14 0.500000 0.500000 0.000000
O O15 0.304330 0.153824 0.888448
O O16 0.757983 0.651877 0.434140
O O17 0.911671 0.181074 0.230620
O O18 0.000000 0.000000 0.500000
#
# Coordination Sequence:
#
# PCOD9023467 Si02
#       8
#     2   2   2   2   2   2   2   2
#     4  11  24  45  72 101 141 182 239 285 341 433
#     4  11  24  43  69 104 140 177 234 298 351 410
#     4  11  26  44  69 103 145 180 229 295 356 411
#     4  12  27  45  71 103 147 182 229 295 358 408
#     4  11  22  42  69 103 132 185 234 282 346 416
#     4  10  22  39  69  96 134 177 234 279 341 415
#     4  11  23  43  70 101 135 188 233 279 348 423
#     4  11  23  45  70  99 138 190 233 281 351 419
#
# _framework density 23.576875000000001
#
# number of rings (size 3 to 8) (size 9 to 14) (size 15 to 20)
#    0.000    1.000    2.500    4.125    3.500    3.500 
#    4.500    0.000    0.000    0.000    0.000    0.000 
#    0.000    0.000    0.000    0.000    0.000    0.000 
#
# Total GULP energy -89178.020616 kJ/mol
# GULP energy per Si atom -5573.626289 kJ/mol
# Density = 2.352321 g / cm^3
# Si number density = 23.576875 Si / 1000 Ang^3
#
#
#
# Elastic Constant Matrix: (Units=GPa)
#
#
# Indices 1 2 3 4 5 6 
#
# 1 118.7503 19.0312 30.2703 10.2692 8.2389 21.5509
# 2 19.0312 88.6513 24.8673 11.1045 12.5548 15.3953
# 3 30.2703 24.8673 114.0207 15.8844 8.9667 17.5477
# 4 10.2692 11.1045 15.8844 45.4874 14.8165 8.7182
# 5 8.2389 12.5548 8.9667 14.8165 42.9363 4.1938
# 6 21.5509 15.3953 17.5477 8.7182 4.1938 40.6550
#
#
#
# Elastic Compliance Matrix: (Units=1/GPa)
#
#
# Indices 1 2 3 4 5 6 
#
# 1 0.009792 -0.000771 -0.001698 -0.000414 -0.000766 -0.003998
# 2 -0.000771 0.013005 -0.001796 -0.000880 -0.002656 -0.003278
# 3 -0.001698 -0.001796 0.010310 -0.002227 -0.000303 -0.002361
# 4 -0.000414 -0.000880 -0.002227 0.026292 -0.007948 -0.003304
# 5 -0.000766 -0.002656 -0.000303 -0.007948 0.026974 0.000464
# 6 -0.003998 -0.003278 -0.002361 -0.003304 0.000464 0.029638
#
#
# Mechanical properties :
#
#
# Convention : Reuss Voigt Hill
#
# Bulk Modulus (GPa) = 40.68809 52.19556 46.44183
# Shear Modulus (GPa) = 37.66919 42.29932 39.98426
#
# Velocity S-wave (km/s) = 4.00148 4.24028 4.12261
# Velocity P-wave (km/s) = 6.21645 6.79410 6.51168
#
# Compressibility (1/GPa) = 0.02457721
#
# Stress axis : x y z
#
# Youngs Moduli (GPa) = 102.12462 76.89313 96.99028
#
# Poissons Ratio (x) = 0.05930 0.16472
# Poissons Ratio (y) = 0.07876 0.17416
# Poissons Ratio (z) = 0.17344 0.13807
#
# Static dielectric constant tensor:
#      x y z
#    x 2.171470 0.049400 -0.002660 
#    y 0.049400 1.997100 -0.006290 
#    z -0.002660 -0.006290 1.910190 
# 
# From -- ./inp_files/352048.got.cif
#   From: 2010.05.17/outbox.cif.g08.bks.cpg/sg2_177_cif.got.tgz:352048.got - 2010.06.03 11:33:40.
