data_PCOD9023091
_publ_section_title
;
Structure prediction by ZEFSAII (Michael W. Deem and Ramdas Pophale) SiO2 
 PCOD9023091
Probable space group: P -1
;
_chemical_formula_sum "Si O2"
_cell_formula_units_Z 16
_cell_length_a 20.848278
_cell_length_b 11.006067
_cell_length_c 7.485603
_cell_angle_alpha 88.664731
_cell_angle_beta 116.243381
_cell_angle_gamma 144.293824
_cell_volume 689.807150
_symmetry_space_group_name_H-M "P -1"
_symmetry_group_IT_number 2
_symmetry_cell_setting 'triclinic'
loop_
_space_group_symop_operation_xyz
x,y,z
-x,-y,-z
loop_
_atom_site_type_symbol
_atom_site_label
_atom_site_fract_x
_atom_site_fract_y
_atom_site_fract_z
Si Si1 0.693104 0.926354 0.811376
Si Si2 0.592466 0.641993 0.338800
Si Si3 0.032956 0.353011 0.180986
Si Si4 0.655852 0.576053 0.129551
Si Si5 0.623317 0.267245 0.035290
Si Si6 0.159646 0.440377 0.009564
Si Si7 0.938834 0.961335 0.236822
Si Si8 0.647911 0.101967 0.551350
O O1 0.664223 0.801845 0.602119
O O2 0.558410 0.674395 0.788906
O O3 0.662415 0.019026 0.718259
O O4 0.879195 0.187670 0.072228
O O5 0.707572 0.738938 0.351298
O O6 0.516902 0.638259 0.134738
O O7 0.033518 0.333293 0.964610
O O8 0.200001 0.676468 0.403649
O O9 0.036032 0.220924 0.267399
O O10 0.768258 0.759183 0.089588
O O11 0.664095 0.447756 0.193831
O O12 0.774928 0.438005 0.115952
O O13 0.515849 0.156184 0.744731
O O14 0.500000 0.000000 0.000000
O O15 0.311639 0.706628 0.314013
O O16 0.096298 0.206446 0.928800
O O17 0.000000 0.000000 0.500000
#
# Coordination Sequence:
#
# PCOD9023091 Si02
#       8
#     2   2   2   2   2   2   2   2
#     4  11  21  42  64  88 119 155 210 252 296 351
#     4  10  22  39  66  87 115 164 199 260 291 349
#     4  10  23  40  62  89 121 158 201 248 302 355
#     4  10  22  40  61  90 120 154 210 240 307 354
#     4  11  23  42  60  91 127 158 198 251 298 371
#     4   9  24  38  65  88 120 162 209 234 309 354
#     4  11  23  42  60  91 127 158 198 251 298 371
#     4  10  23  40  62  89 121 158 201 248 302 355
#
# _framework density 23.194890000000001
#
# number of rings (size 3 to 8) (size 9 to 14) (size 15 to 20)
#    0.750    1.000    2.500    1.125    7.000    0.000 
#    4.500    0.000    0.000    3.000    0.000    0.000 
#    0.000    0.000    0.000    0.000    0.000    0.000 
#
# Total GULP energy -89180.169816 kJ/mol
# GULP energy per Si atom -5573.760613 kJ/mol
# Density = 2.314210 g / cm^3
# Si number density = 23.194890 Si / 1000 Ang^3
#
#
#
# Elastic Constant Matrix: (Units=GPa)
#
#
# Indices 1 2 3 4 5 6 
#
# 1 61.1625 6.3160 5.4613 -3.0115 -2.7835 2.3445
# 2 6.3160 99.9753 -13.3750 2.6709 9.3892 -9.1790
# 3 5.4613 -13.3750 47.5424 2.3645 1.0219 -7.1201
# 4 -3.0115 2.6709 2.3645 25.1988 1.7199 1.6543
# 5 -2.7835 9.3892 1.0219 1.7199 26.4797 0.0063
# 6 2.3445 -9.1790 -7.1201 1.6543 0.0063 27.8591
#
#
#
# Elastic Compliance Matrix: (Units=1/GPa)
#
#
# Indices 1 2 3 4 5 6 
#
# 1 0.017219 -0.002112 -0.003224 0.002618 0.002514 -0.003125
# 2 -0.002112 0.011695 0.004520 -0.001963 -0.004417 0.005304
# 3 -0.003224 0.004520 0.024124 -0.003481 -0.002648 0.008133
# 4 0.002618 -0.001963 -0.003481 0.040913 -0.001551 -0.004186
# 5 0.002514 -0.004417 -0.002648 -0.001551 0.039799 -0.002261
# 6 -0.003125 0.005304 0.008133 -0.004186 -0.002261 0.040233
#
#
# Mechanical properties :
#
#
# Convention : Reuss Voigt Hill
#
# Bulk Modulus (GPa) = 19.45398 22.83162 21.14280
# Shear Modulus (GPa) = 25.94025 29.92605 27.93315
#
# Velocity S-wave (km/s) = 3.34782 3.59583 3.47404
# Velocity P-wave (km/s) = 4.83210 5.20622 5.02265
#
# Compressibility (1/GPa) = 0.05140337
#
# Stress axis : x y z
#
# Youngs Moduli (GPa) = 58.07531 85.50866 41.45281
#
# Poissons Ratio (x) = 0.18061 0.13366
# Poissons Ratio (y) = 0.12266 -0.18735
# Poissons Ratio (z) = 0.18726 -0.38646
#
# Static dielectric constant tensor:
#      x y z
#    x 1.927420 0.037530 0.033220 
#    y 0.037530 1.894400 0.010600 
#    z 0.033220 0.010600 1.908340 
# 
# From -- ./inp_files/344703.got.cif
#   From: 2010.05.17/outbox.cif.g08.bks.cpg/sg2_173_cif.got.tgz:344703.got - 2010.06.03 11:33:40.
