data_PCOD9023189
_publ_section_title
;
Structure prediction by ZEFSAII (Michael W. Deem and Ramdas Pophale) SiO2 
 PCOD9023189
Probable space group: P -1
;
_chemical_formula_sum "Si O2"
_cell_formula_units_Z 16
_cell_length_a 12.830178
_cell_length_b 11.099600
_cell_length_c 11.104233
_cell_angle_alpha 95.862012
_cell_angle_beta 86.537746
_cell_angle_gamma 157.023539
_cell_volume 611.748965
_symmetry_space_group_name_H-M "P -1"
_symmetry_group_IT_number 2
_symmetry_cell_setting 'triclinic'
loop_
_space_group_symop_operation_xyz
x,y,z
-x,-y,-z
loop_
_atom_site_type_symbol
_atom_site_label
_atom_site_fract_x
_atom_site_fract_y
_atom_site_fract_z
Si Si1 0.028038 0.667658 0.471272
Si Si2 0.289352 0.332302 0.902015
Si Si3 0.796266 0.745033 0.356852
Si Si4 0.354617 0.455475 0.402863
Si Si5 0.284538 0.868770 0.045651
Si Si6 0.957234 0.167077 0.064952
Si Si7 0.746294 0.423159 0.699492
Si Si8 0.513166 0.911009 0.675891
O O1 0.198519 0.559807 0.639716
O O2 0.000000 0.500000 0.500000
O O3 0.966355 0.664081 0.602411
O O4 0.314632 0.982696 0.420831
O O5 0.355189 0.448713 0.775782
O O6 0.133472 0.038571 0.861579
O O7 0.500000 0.500000 0.000000
O O8 0.118111 0.257824 0.965632
O O9 0.638930 0.694152 0.411142
O O10 0.750917 0.616534 0.465255
O O11 0.108950 0.103138 0.346682
O O12 0.399660 0.607687 0.317919
O O13 0.364846 0.979185 0.189557
O O14 0.261987 0.976929 0.992811
O O15 0.000000 0.500000 0.000000
O O16 0.500000 0.000000 0.000000
O O17 0.136488 0.445825 0.162506
O O18 0.574826 0.119205 0.665739
#
# Coordination Sequence:
#
# PCOD9023189 Si02
#       8
#     2   2   2   2   2   2   2   2
#     4  10  23  42  67 100 134 176 227 295 350 416
#     4  11  25  46  73 101 148 186 247 300 357 430
#     4  10  22  42  64  93 137 167 224 285 348 399
#     4  10  22  39  66  99 123 176 223 282 341 420
#     4  12  27  47  73 108 147 192 246 297 356 435
#     4  11  26  46  70 108 137 198 240 297 361 430
#     4  11  21  42  71  97 136 178 238 276 361 425
#     4  11  24  45  68 100 143 180 233 293 354 426
#
# _framework density 26.154516999999998
#
# number of rings (size 3 to 8) (size 9 to 14) (size 15 to 20)
#    0.000    1.250    2.500    3.000    5.250    5.000 
#    4.500    0.000    0.000    0.000    0.000    0.000 
#    0.000    0.000    0.000    0.000    0.000    0.000 
#
# Total GULP energy -89420.848627 kJ/mol
# GULP energy per Si atom -5588.803039 kJ/mol
# Density = 2.609499 g / cm^3
# Si number density = 26.154517 Si / 1000 Ang^3
#
#
#
# Elastic Constant Matrix: (Units=GPa)
#
#
# Indices 1 2 3 4 5 6 
#
# 1 130.4196 32.2498 35.8305 5.8834 10.7390 14.5821
# 2 32.2498 115.2898 4.6970 14.9391 2.0933 11.0767
# 3 35.8305 4.6970 143.1078 11.8076 19.4802 12.1761
# 4 5.8834 14.9391 11.8076 31.1004 8.3196 -0.8250
# 5 10.7390 2.0933 19.4802 8.3196 46.2271 5.6911
# 6 14.5821 11.0767 12.1761 -0.8250 5.6911 38.0070
#
#
#
# Elastic Compliance Matrix: (Units=1/GPa)
#
#
# Indices 1 2 3 4 5 6 
#
# 1 0.009052 -0.002282 -0.001908 0.000322 -0.001002 -0.002040
# 2 -0.002282 0.010169 0.000741 -0.005067 0.000987 -0.002583
# 3 -0.001908 0.000741 0.008118 -0.002498 -0.002342 -0.001788
# 4 0.000322 -0.005067 -0.002498 0.037171 -0.005957 0.003852
# 5 -0.001002 0.000987 -0.002342 -0.005957 0.024238 -0.002912
# 6 -0.002040 -0.002583 -0.001788 0.003852 -0.002912 0.028939
#
#
# Mechanical properties :
#
#
# Convention : Reuss Voigt Hill
#
# Bulk Modulus (GPa) = 48.92146 59.37467 54.14806
# Shear Modulus (GPa) = 38.05225 44.13621 41.09423
#
# Velocity S-wave (km/s) = 3.81846 4.11240 3.96815
# Velocity P-wave (km/s) = 6.17950 6.73052 6.46088
#
# Compressibility (1/GPa) = 0.02044093
#
# Stress axis : x y z
#
# Youngs Moduli (GPa) = 110.47145 98.34045 123.18043
#
# Poissons Ratio (x) = 0.22441 0.23504
# Poissons Ratio (y) = 0.25209 -0.09128
# Poissons Ratio (z) = 0.21079 -0.07288
#
# Static dielectric constant tensor:
#      x y z
#    x 2.166520 -0.008480 -0.011340 
#    y -0.008480 2.133530 0.032740 
#    z -0.011340 0.032740 2.046470 
# 
# From -- ./inp_files/425979.got.cif
#   From: 2010.05.17/outbox.cif.g08.bks.cpg/sg2_213_cif.got.tgz:425979.got - 2010.06.03 11:33:40.
