data_PCOD9023720
_publ_section_title
;
Structure prediction by ZEFSAII (Michael W. Deem and Ramdas Pophale) SiO2 
 PCOD9023720
Probable space group: P -1
;
_chemical_formula_sum "Si O2"
_cell_formula_units_Z 14
_cell_length_a 8.463760
_cell_length_b 9.684858
_cell_length_c 14.440760
_cell_angle_alpha 139.399628
_cell_angle_beta 53.243091
_cell_angle_gamma 102.083939
_cell_volume 544.786866
_symmetry_space_group_name_H-M "P -1"
_symmetry_group_IT_number 2
_symmetry_cell_setting 'triclinic'
loop_
_space_group_symop_operation_xyz
x,y,z
-x,-y,-z
loop_
_atom_site_type_symbol
_atom_site_label
_atom_site_fract_x
_atom_site_fract_y
_atom_site_fract_z
Si Si1 0.692565 0.021341 0.192311
Si Si2 0.026633 0.499468 0.638173
Si Si3 0.225780 0.006270 0.652356
Si Si4 0.222620 0.651410 0.800522
Si Si5 0.608687 0.628669 0.212101
Si Si6 0.172721 0.095166 0.229552
Si Si7 0.445375 0.317715 0.028631
O O1 0.655802 0.128651 0.362581
O O2 0.656052 0.213569 0.223414
O O3 0.572624 0.856443 0.131688
O O4 0.960314 0.840563 0.004054
O O5 0.924125 0.761740 0.758620
O O6 0.806980 0.504283 0.761494
O O7 0.199350 0.476220 0.644297
O O8 0.138311 0.299915 0.419826
O O9 0.375362 0.862823 0.439879
O O10 0.990418 0.010362 0.733535
O O11 0.221069 0.261500 0.797581
O O12 0.324842 0.534326 0.802156
O O13 0.573064 0.479091 0.065404
O O14 0.420589 0.879846 0.039114
#
# Coordination Sequence:
#
# PCOD9023720 Si02
#       7
#     2   2   2   2   2   2   2
#     4  10  23  40  66  96 131 158 225 263 321 383
#     4  10  22  40  61 103 132 161 215 276 312 389
#     4  11  24  47  62  94 130 178 216 265 316 404
#     4  10  22  40  65  96 128 170 208 274 320 383
#     4  11  26  42  67  91 135 171 219 265 327 376
#     4  11  22  39  68  93 131 176 209 263 332 381
#     4  11  24  39  65 100 129 168 212 274 320 382
#
# _framework density 25.698121
#
# number of rings (size 3 to 8) (size 9 to 14) (size 15 to 20)
#    0.000    1.429    2.857    1.286    8.000    3.429 
#    0.000    2.143    0.000    0.000    0.000    0.000 
#    0.000    0.000    0.000    0.000    0.000    0.000 
#
# Total GULP energy -78350.552020 kJ/mol
# GULP energy per Si atom -5596.468001 kJ/mol
# Density = 2.563963 g / cm^3
# Si number density = 25.698121 Si / 1000 Ang^3
#
#
#
# Elastic Constant Matrix: (Units=GPa)
#
#
# Indices 1 2 3 4 5 6 
#
# 1 118.4518 14.0863 50.1278 15.6416 27.9163 16.2030
# 2 14.0863 74.2677 -2.5606 18.8136 5.8123 23.3809
# 3 50.1278 -2.5606 47.5985 4.8265 10.7598 -0.1213
# 4 15.6416 18.8136 4.8265 27.9205 2.0500 13.3969
# 5 27.9163 5.8123 10.7598 2.0500 52.1433 5.3273
# 6 16.2030 23.3809 -0.1213 13.3969 5.3273 38.7398
#
#
#
# Elastic Compliance Matrix: (Units=1/GPa)
#
#
# Indices 1 2 3 4 5 6 
#
# 1 0.018802 -0.001208 -0.018265 -0.003681 -0.005490 -0.005164
# 2 -0.001208 0.018436 0.003348 -0.008663 -0.000995 -0.007478
# 3 -0.018265 0.003348 0.040554 -0.002152 0.000465 0.006425
# 4 -0.003681 -0.008663 -0.002152 0.048946 0.002530 -0.010513
# 5 -0.005490 -0.000995 0.000465 0.002530 0.022137 -0.001021
# 6 -0.005164 -0.007478 0.006425 -0.010513 -0.001021 0.036283
#
#
# Mechanical properties :
#
#
# Convention : Reuss Voigt Hill
#
# Bulk Modulus (GPa) = 21.95734 40.40280 31.18007
# Shear Modulus (GPa) = 21.49732 35.67170 28.58451
#
# Velocity S-wave (km/s) = 2.89543 3.72977 3.33876
# Velocity P-wave (km/s) = 4.44307 5.85700 5.19833
#
# Compressibility (1/GPa) = 0.04554285
#
# Stress axis : x y z
#
# Youngs Moduli (GPa) = 53.18677 54.24117 24.65863
#
# Poissons Ratio (x) = 0.06552 0.45038
# Poissons Ratio (y) = 0.06425 -0.08256
# Poissons Ratio (z) = 0.97144 -0.18161
#
# Static dielectric constant tensor:
#      x y z
#    x 1.988580 0.010000 0.010170 
#    y 0.010000 2.054410 -0.005570 
#    z 0.010170 -0.005570 2.051980 
# 
# From -- ./inp_files/209373.got.cif
#   From: 2010.05.17/outbox.cif.g08.bks.cpg/sg2_105_cif.got.tgz:209373.got - 2010.06.03 11:33:40.
