data_PCOD9023781
_publ_section_title
;
Structure prediction by ZEFSAII (Michael W. Deem and Ramdas Pophale) SiO2 
 PCOD9023781
Probable space group: P -1
;
_chemical_formula_sum "Si O2"
_cell_formula_units_Z 12
_cell_length_a 7.725047
_cell_length_b 19.955731
_cell_length_c 6.952916
_cell_angle_alpha 43.172158
_cell_angle_beta 126.569135
_cell_angle_gamma 141.567938
_cell_volume 455.086486
_symmetry_space_group_name_H-M "P -1"
_symmetry_group_IT_number 2
_symmetry_cell_setting 'triclinic'
loop_
_space_group_symop_operation_xyz
x,y,z
-x,-y,-z
loop_
_atom_site_type_symbol
_atom_site_label
_atom_site_fract_x
_atom_site_fract_y
_atom_site_fract_z
Si Si1 0.734371 0.930291 0.329480
Si Si2 0.910620 0.260840 0.121200
Si Si3 0.229046 0.885938 0.314378
Si Si4 0.091856 0.529846 0.219311
Si Si5 0.471638 0.344953 0.262219
Si Si6 0.827485 0.663715 0.250956
O O1 0.492070 0.908224 0.345292
O O2 0.643033 0.796310 0.484780
O O3 0.000000 0.000000 0.500000
O O4 0.785518 0.012011 0.004732
O O5 0.775402 0.135293 0.416586
O O6 0.248581 0.355103 0.186396
O O7 0.921570 0.250869 0.920595
O O8 0.781518 0.327521 0.952863
O O9 0.954396 0.748369 0.345143
O O10 0.793887 0.443344 0.316749
O O11 0.236137 0.469013 0.491291
O O12 0.000000 0.500000 0.000000
O O13 0.419575 0.350600 0.987803
#
# Coordination Sequence:
#
# PCOD9023781 Si02
#       6
#     2   2   2   2   2   2
#     4  11  21  41  67  90 122 164 205 254 303 365
#     4  10  23  42  61  94 124 162 203 250 309 360
#     4  11  22  43  65  89 126 161 204 254 305 361
#     4  12  21  41  66  88 128 166 198 253 308 360
#     4  10  23  39  61  95 124 155 212 249 300 369
#     4  10  22  40  61  92 125 154 207 250 301 363
#
# _framework density 26.368613
#
# number of rings (size 3 to 8) (size 9 to 14) (size 15 to 20)
#    1.000    0.333    5.000    1.000    0.000    1.333 
#    3.000    7.500    0.000    0.000    0.000    0.000 
#    0.000    0.000    0.000    0.000    0.000    0.000 
#
# Total GULP energy -67192.859733 kJ/mol
# GULP energy per Si atom -5599.404978 kJ/mol
# Density = 2.630860 g / cm^3
# Si number density = 26.368613 Si / 1000 Ang^3
#
#
#
# Elastic Constant Matrix: (Units=GPa)
#
#
# Indices 1 2 3 4 5 6 
#
# 1 59.5301 6.3454 35.0323 0.4410 -0.8470 -0.4489
# 2 6.3454 85.8469 23.4648 3.5263 13.8484 11.2979
# 3 35.0323 23.4648 192.9741 -12.6070 5.5195 -0.3069
# 4 0.4410 3.5263 -12.6070 31.6504 -2.8029 4.1100
# 5 -0.8470 13.8484 5.5195 -2.8029 59.1146 7.9755
# 6 -0.4489 11.2979 -0.3069 4.1100 7.9755 35.4010
#
#
#
# Elastic Compliance Matrix: (Units=1/GPa)
#
#
# Indices 1 2 3 4 5 6 
#
# 1 0.018934 -0.000531 -0.003493 -0.001600 0.000588 0.000433
# 2 -0.000531 0.013043 -0.001543 -0.001845 -0.002549 -0.003394
# 3 -0.003493 -0.001543 0.006181 0.002637 -0.000172 0.000234
# 4 -0.001600 -0.001845 0.002637 0.033570 0.002270 -0.003817
# 5 0.000588 -0.002549 -0.000172 0.002270 0.018121 -0.003527
# 6 0.000433 -0.003394 0.000234 -0.003817 -0.003527 0.030576
#
#
# Mechanical properties :
#
#
# Convention : Reuss Voigt Hill
#
# Bulk Modulus (GPa) = 37.00257 52.00401 44.50329
# Shear Modulus (GPa) = 35.56988 43.46710 39.51849
#
# Velocity S-wave (km/s) = 3.67679 4.06450 3.87550
# Velocity P-wave (km/s) = 5.66465 6.46465 6.07783
#
# Compressibility (1/GPa) = 0.02702515
#
# Stress axis : x y z
#
# Youngs Moduli (GPa) = 52.81482 76.66837 161.77556
#
# Poissons Ratio (x) = 0.04068 0.56515
# Poissons Ratio (y) = 0.02802 0.24957
# Poissons Ratio (z) = 0.18450 0.11828
#
# Static dielectric constant tensor:
#      x y z
#    x 2.070430 0.066610 -0.038110 
#    y 0.066610 2.038940 -0.003750 
#    z -0.038110 -0.003750 2.055420 
# 
# From -- ./inp_files/168287.got.cif
#   From: 2010.05.17/outbox.cif.g08.bks.cpg/sg2_85_cif.got.tgz:168287.got - 2010.06.03 11:33:40.
