data_PCOD9023969
_publ_section_title
;
Structure prediction by ZEFSAII (Michael W. Deem and Ramdas Pophale) SiO2 
 PCOD9023969
Probable space group: P -1
;
_chemical_formula_sum "Si O2"
_cell_formula_units_Z 16
_cell_length_a 9.009891
_cell_length_b 26.066494
_cell_length_c 9.035351
_cell_angle_alpha 150.922836
_cell_angle_beta 132.708279
_cell_angle_gamma 49.068752
_cell_volume 746.145840
_symmetry_space_group_name_H-M "P -1"
_symmetry_group_IT_number 2
_symmetry_cell_setting 'triclinic'
loop_
_space_group_symop_operation_xyz
x,y,z
-x,-y,-z
loop_
_atom_site_type_symbol
_atom_site_label
_atom_site_fract_x
_atom_site_fract_y
_atom_site_fract_z
Si Si1 0.085566 0.894037 0.195213
Si Si2 0.401067 0.619281 0.558463
Si Si3 0.046570 0.378836 0.791834
Si Si4 0.533534 0.929320 0.492994
Si Si5 0.477795 0.367933 0.981716
Si Si6 0.137535 0.991288 0.923737
Si Si7 0.882554 0.230836 0.815896
Si Si8 0.784505 0.705603 0.001517
O O1 0.322493 0.896013 0.319615
O O2 0.065821 0.798799 0.053055
O O3 0.000000 0.000000 0.500000
O O4 0.956234 0.911814 0.003331
O O5 0.437983 0.493161 0.230596
O O6 0.448514 0.634360 0.802276
O O7 0.164087 0.665617 0.482824
O O8 0.574655 0.668886 0.716512
O O9 0.107573 0.370510 0.985618
O O10 0.260459 0.327179 0.728416
O O11 0.000000 0.500000 0.000000
O O12 0.702768 0.823984 0.310657
O O13 0.500000 0.000000 0.500000
O O14 0.631858 0.998534 0.853504
O O15 0.657885 0.301883 0.842300
O O16 0.123476 0.879489 0.553490
O O17 0.000000 0.000000 0.000000
O O18 0.053062 0.287178 0.997646
#
# Coordination Sequence:
#
# PCOD9023969 Si02
#       8
#     2   2   2   2   2   2   2   2
#     4  10  22  40  62  93 128 164 216 273 320 377
#     4   9  19  39  66  89 121 173 211 256 330 388
#     4   9  19  40  66  92 121 167 221 264 317 390
#     4  12  23  41  68  93 127 174 221 267 319 391
#     4   9  19  39  64  92 125 161 211 271 322 381
#     4  11  22  44  66  89 125 176 214 262 327 379
#     4  11  23  41  61  98 137 164 217 277 320 385
#     4  11  23  38  61  94 129 171 214 260 323 394
#
# _framework density 21.443529999999999
#
# number of rings (size 3 to 8) (size 9 to 14) (size 15 to 20)
#    0.000    1.750    2.500    3.000    0.000    5.500 
#    0.000   10.000    0.000    0.000    0.000    0.000 
#    0.000    0.000    0.000    0.000    0.000    0.000 
#
# Total GULP energy -89388.779005 kJ/mol
# GULP energy per Si atom -5586.798688 kJ/mol
# Density = 2.139472 g / cm^3
# Si number density = 21.443530 Si / 1000 Ang^3
#
#
#
# Elastic Constant Matrix: (Units=GPa)
#
#
# Indices 1 2 3 4 5 6 
#
# 1 192.1584 63.8849 42.2935 -4.4119 23.7558 -14.0850
# 2 63.8849 103.0877 36.5464 -5.4984 4.1817 -3.4605
# 3 42.2935 36.5464 57.2419 -10.4113 16.8183 -7.4838
# 4 -4.4119 -5.4984 -10.4113 37.5104 -13.9563 3.9236
# 5 23.7558 4.1817 16.8183 -13.9563 41.6152 -2.4332
# 6 -14.0850 -3.4605 -7.4838 3.9236 -2.4332 44.2746
#
#
#
# Elastic Compliance Matrix: (Units=1/GPa)
#
#
# Indices 1 2 3 4 5 6 
#
# 1 0.007438 -0.003727 -0.002195 -0.001747 -0.003473 0.001668
# 2 -0.003727 0.014603 -0.007718 0.001220 0.004117 -0.001231
# 3 -0.002195 -0.007718 0.027197 0.002981 -0.007811 0.002602
# 4 -0.001747 0.001220 0.002981 0.031442 0.010087 -0.002189
# 5 -0.003473 0.004117 -0.007811 0.010087 0.032065 -0.001235
# 6 0.001668 -0.001231 0.002602 -0.002189 -0.001235 0.023587
#
#
# Mechanical properties :
#
#
# Convention : Reuss Voigt Hill
#
# Bulk Modulus (GPa) = 45.54493 70.88195 58.21344
# Shear Modulus (GPa) = 29.25141 38.66427 33.95784
#
# Velocity S-wave (km/s) = 3.69740 4.25087 3.98376
# Velocity P-wave (km/s) = 6.28596 7.56440 6.95462
#
# Compressibility (1/GPa) = 0.02195634
#
# Stress axis : x y z
#
# Youngs Moduli (GPa) = 134.44729 68.47704 36.76942
#
# Poissons Ratio (x) = 0.25525 0.08071
# Poissons Ratio (y) = 0.50115 0.28379
# Poissons Ratio (z) = 0.29513 0.52851
#
# Static dielectric constant tensor:
#      x y z
#    x 1.784480 0.014110 -0.019630 
#    y 0.014110 1.805950 -0.010820 
#    z -0.019630 -0.010820 1.901610 
# 
# From -- ./inp_files/227690.got.cif
#   From: 2010.05.17/outbox.cif.g08.bks.cpg/sg2_114_cif.got.tgz:227690.got - 2010.06.03 11:33:40.
