data_PCOD9023455
_publ_section_title
;
Structure prediction by ZEFSAII (Michael W. Deem and Ramdas Pophale) SiO2 
 PCOD9023455
Probable space group: P -1
;
_chemical_formula_sum "Si O2"
_cell_formula_units_Z 16
_cell_length_a 5.282954
_cell_length_b 19.554127
_cell_length_c 16.198168
_cell_angle_alpha 143.773589
_cell_angle_beta 125.689579
_cell_angle_gamma 67.955189
_cell_volume 787.188894
_symmetry_space_group_name_H-M "P -1"
_symmetry_group_IT_number 2
_symmetry_cell_setting 'triclinic'
loop_
_space_group_symop_operation_xyz
x,y,z
-x,-y,-z
loop_
_atom_site_type_symbol
_atom_site_label
_atom_site_fract_x
_atom_site_fract_y
_atom_site_fract_z
Si Si1 0.303286 0.808794 0.809026
Si Si2 0.368561 0.552953 0.607962
Si Si3 0.406944 0.908329 0.505688
Si Si4 0.377773 0.207305 0.420086
Si Si5 0.703656 0.477400 0.757833
Si Si6 0.351894 0.159390 0.691165
Si Si7 0.376762 0.026095 0.116107
Si Si8 0.556799 0.437251 0.036629
O O1 0.414916 0.689577 0.728664
O O2 0.467304 0.890367 0.846168
O O3 0.934595 0.780178 0.680351
O O4 0.419015 0.892362 0.990944
O O5 0.500000 0.500000 0.500000
O O6 0.520332 0.529120 0.700335
O O7 0.000000 0.500000 0.500000
O O8 0.648151 0.851239 0.552130
O O9 0.483412 0.865308 0.387449
O O10 0.033171 0.859284 0.407052
O O11 0.435463 0.050537 0.655279
O O12 0.598896 0.335212 0.593885
O O13 0.497048 0.103236 0.292506
O O14 0.619338 0.519685 0.874780
O O15 0.066868 0.519585 0.842125
O O16 0.469468 0.294688 0.873682
O O17 0.000000 0.000000 0.000000
O O18 0.500000 0.500000 0.000000
#
# Coordination Sequence:
#
# PCOD9023455 Si02
#       8
#     2   2   2   2   2   2   2   2
#     4  10  22  41  64  90 132 173 216 274 338 384
#     4  12  25  45  67  95 141 178 221 285 324 403
#     4  10  22  39  69  92 122 169 211 267 330 396
#     4  11  22  38  65  93 124 163 230 262 318 404
#     4  12  26  41  68 101 125 184 225 262 342 401
#     4  10  22  44  61  93 131 165 207 271 344 380
#     4   9  21  40  61  92 124 166 216 271 332 375
#     4  12  25  45  67  97 137 170 221 284 333 396
#
# _framework density 20.325489000000001
#
# number of rings (size 3 to 8) (size 9 to 14) (size 15 to 20)
#    0.000    1.250    1.250    4.125    5.250    1.000 
#    6.750    0.000    0.000    0.000    0.000    0.000 
#    0.000    0.000    0.000    0.000    0.000    0.000 
#
# Total GULP energy -89141.361832 kJ/mol
# GULP energy per Si atom -5571.335114 kJ/mol
# Density = 2.027923 g / cm^3
# Si number density = 20.325489 Si / 1000 Ang^3
#
#
#
# Elastic Constant Matrix: (Units=GPa)
#
#
# Indices 1 2 3 4 5 6 
#
# 1 70.3589 -19.6495 19.7154 15.3988 -2.7678 2.4170
# 2 -19.6495 95.4562 41.4562 19.5732 -8.8287 -8.6835
# 3 19.7154 41.4562 131.3680 51.7346 -16.1847 1.1515
# 4 15.3988 19.5732 51.7346 50.1544 -6.3494 -1.6090
# 5 -2.7678 -8.8287 -16.1847 -6.3494 32.2179 0.6261
# 6 2.4170 -8.6835 1.1515 -1.6090 0.6261 19.9173
#
#
#
# Elastic Compliance Matrix: (Units=1/GPa)
#
#
# Indices 1 2 3 4 5 6 
#
# 1 0.017647 0.005795 -0.002337 -0.005151 0.000914 0.000075
# 2 0.005795 0.014772 -0.004303 -0.002702 0.001741 0.005713
# 3 -0.002337 -0.004303 0.014683 -0.012405 0.003621 -0.003557
# 4 -0.005151 -0.002702 -0.012405 0.035405 -0.000496 0.003040
# 5 0.000914 0.001741 0.003621 -0.000496 0.033328 -0.000649
# 6 0.000075 0.005713 -0.003557 0.003040 -0.000649 0.053161
#
#
# Mechanical properties :
#
#
# Convention : Reuss Voigt Hill
#
# Bulk Modulus (GPa) = 22.01998 42.24746 32.13372
# Shear Modulus (GPa) = 26.90732 37.50200 32.20466
#
# Velocity S-wave (km/s) = 3.64238 4.30009 3.98483
# Velocity P-wave (km/s) = 5.34289 6.74425 6.08405
#
# Compressibility (1/GPa) = 0.04541330
#
# Stress axis : x y z
#
# Youngs Moduli (GPa) = 56.66772 67.69385 68.10462
#
# Poissons Ratio (x) = -0.39228 0.15913
# Poissons Ratio (y) = -0.32838 0.29305
# Poissons Ratio (z) = 0.13241 0.29128
#
# Static dielectric constant tensor:
#      x y z
#    x 1.783560 -0.003800 -0.054620 
#    y -0.003800 1.857010 -0.129230 
#    z -0.054620 -0.129230 1.857250 
# 
# From -- ./inp_files/485280.got.cif
#   From: 2010.05.17/outbox.cif.g08.bks.cpg/sg2_243_cif.got.tgz:485280.got - 2010.06.03 11:33:40.
