data_PCOD9023841
_publ_section_title
;
Structure prediction by ZEFSAII (Michael W. Deem and Ramdas Pophale) SiO2 
 PCOD9023841
Probable space group: P -1
;
_chemical_formula_sum "Si O2"
_cell_formula_units_Z 16
_cell_length_a 11.568472
_cell_length_b 9.277732
_cell_length_c 14.000426
_cell_angle_alpha 109.097373
_cell_angle_beta 124.396307
_cell_angle_gamma 39.195712
_cell_volume 765.754299
_symmetry_space_group_name_H-M "P -1"
_symmetry_group_IT_number 2
_symmetry_cell_setting 'triclinic'
loop_
_space_group_symop_operation_xyz
x,y,z
-x,-y,-z
loop_
_atom_site_type_symbol
_atom_site_label
_atom_site_fract_x
_atom_site_fract_y
_atom_site_fract_z
Si Si1 0.050148 0.990797 0.696316
Si Si2 0.443247 0.103647 0.389942
Si Si3 0.506928 0.757907 0.215372
Si Si4 0.993703 0.629169 0.317076
Si Si5 0.393857 0.217387 0.933459
Si Si6 0.490828 0.446642 0.091653
Si Si7 0.585234 0.287502 0.554572
Si Si8 0.821217 0.407983 0.427598
O O1 0.268504 0.799099 0.817603
O O2 0.092584 0.832717 0.598534
O O3 0.019167 0.186713 0.686197
O O4 0.824664 0.125374 0.667462
O O5 0.593245 0.129895 0.457030
O O6 0.209909 0.368313 0.330487
O O7 0.500000 0.000000 0.500000
O O8 0.447399 0.954017 0.291932
O O9 0.469906 0.837955 0.106294
O O10 0.416258 0.658885 0.161295
O O11 0.752686 0.525281 0.316620
O O12 0.805646 0.691639 0.194167
O O13 0.016292 0.625807 0.441654
O O14 0.355050 0.402544 0.017651
O O15 0.500000 0.000000 0.000000
O O16 0.500000 0.500000 0.000000
O O17 0.500000 0.500000 0.500000
O O18 0.401752 0.412575 0.576342
#
# Coordination Sequence:
#
# PCOD9023841 Si02
#       8
#     2   2   2   2   2   2   2   2
#     4  11  21  39  68  95 132 177 214 274 338 392
#     4  11  22  41  60  97 147 158 208 274 338 410
#     4  10  22  43  66  91 136 172 207 281 337 391
#     4  11  22  38  65  96 134 166 218 274 331 387
#     4  11  23  42  69  93 124 175 234 274 318 383
#     4   9  21  43  65  89 126 170 230 272 313 390
#     4  11  22  37  62  98 140 171 204 270 335 405
#     4  10  22  40  62 103 135 164 221 266 342 417
#
# _framework density 20.894431000000001
#
# number of rings (size 3 to 8) (size 9 to 14) (size 15 to 20)
#    0.000    1.500    6.250    0.375    1.750    3.500 
#    0.000    1.250    8.250    0.000    0.000    0.000 
#    0.000    0.000    0.000    0.000    0.000    0.000 
#
# Total GULP energy -89113.188147 kJ/mol
# GULP energy per Si atom -5569.574259 kJ/mol
# Density = 2.084687 g / cm^3
# Si number density = 20.894431 Si / 1000 Ang^3
#
#
#
# Elastic Constant Matrix: (Units=GPa)
#
#
# Indices 1 2 3 4 5 6 
#
# 1 46.9870 36.8626 22.3642 8.9571 5.1207 21.2055
# 2 36.8626 151.6344 36.1803 27.3941 4.1885 39.1012
# 3 22.3642 36.1803 116.9165 19.3092 6.8123 20.0180
# 4 8.9571 27.3941 19.3092 47.7054 15.7643 8.4524
# 5 5.1207 4.1885 6.8123 15.7643 37.8896 -1.3789
# 6 21.2055 39.1012 20.0180 8.4524 -1.3789 40.4122
#
#
#
# Elastic Compliance Matrix: (Units=1/GPa)
#
#
# Indices 1 2 3 4 5 6 
#
# 1 0.031158 -0.004040 -0.002664 0.000929 -0.004089 -0.011455
# 2 -0.004040 0.010082 -0.000646 -0.003940 0.000952 -0.006458
# 3 -0.002664 -0.000646 0.010147 -0.002679 -0.000367 -0.002455
# 4 0.000929 -0.003940 -0.002679 0.028025 -0.010926 -0.001583
# 5 -0.004089 0.000952 -0.000367 -0.010926 0.031625 0.004771
# 6 -0.011455 -0.006458 -0.002455 -0.001583 0.004771 0.038715
#
#
# Mechanical properties :
#
#
# Convention : Reuss Voigt Hill
#
# Bulk Modulus (GPa) = 27.25743 56.26133 41.75938
# Shear Modulus (GPa) = 28.29957 39.87684 34.08820
#
# Velocity S-wave (km/s) = 3.68422 4.37337 4.04350
# Velocity P-wave (km/s) = 5.58315 7.24477 6.46755
#
# Compressibility (1/GPa) = 0.03668725
#
# Stress axis : x y z
#
# Youngs Moduli (GPa) = 32.09444 99.18724 98.55202
#
# Poissons Ratio (x) = 0.40072 0.26251
# Poissons Ratio (y) = 0.12966 0.06368
# Poissons Ratio (z) = 0.08549 0.06409
#
# Static dielectric constant tensor:
#      x y z
#    x 1.822170 0.010450 0.008690 
#    y 0.010450 1.761970 0.045250 
#    z 0.008690 0.045250 1.817240 
# 
# From -- ./inp_files/332172.got.cif
#   From: 2010.05.17/outbox.cif.g08.bks.cpg/sg2_167_cif.got.tgz:332172.got - 2010.06.03 11:33:40.
