data_PCOD9023041
_publ_section_title
;
Structure prediction by ZEFSAII (Michael W. Deem and Ramdas Pophale) SiO2 
 PCOD9023041
Probable space group: P -1
;
_chemical_formula_sum "Si O2"
_cell_formula_units_Z 16
_cell_length_a 5.495348
_cell_length_b 27.582057
_cell_length_c 18.799947
_cell_angle_alpha 22.464795
_cell_angle_beta 57.657326
_cell_angle_gamma 55.481847
_cell_volume 896.585587
_symmetry_space_group_name_H-M "P -1"
_symmetry_group_IT_number 2
_symmetry_cell_setting 'triclinic'
loop_
_space_group_symop_operation_xyz
x,y,z
-x,-y,-z
loop_
_atom_site_type_symbol
_atom_site_label
_atom_site_fract_x
_atom_site_fract_y
_atom_site_fract_z
Si Si1 0.785268 0.336940 0.043039
Si Si2 0.277959 0.132614 0.187570
Si Si3 0.758456 0.990613 0.413434
Si Si4 0.207460 0.290009 0.244869
Si Si5 0.564258 0.472517 0.748973
Si Si6 0.970050 0.524877 0.852975
Si Si7 0.955473 0.437499 0.515668
Si Si8 0.490407 0.668120 0.199521
O O1 0.556392 0.260008 0.214692
O O2 0.110517 0.245324 0.115929
O O3 0.720049 0.380914 0.912615
O O4 0.742367 0.470214 0.913746
O O5 0.568604 0.052727 0.289993
O O6 0.020026 0.058995 0.305497
O O7 0.383113 0.205231 0.005232
O O8 0.500000 0.000000 0.500000
O O9 0.899372 0.839759 0.579125
O O10 0.143487 0.347960 0.255002
O O11 0.076859 0.406341 0.052730
O O12 0.239554 0.532462 0.748389
O O13 0.569157 0.382647 0.800891
O O14 0.743106 0.580559 0.551106
O O15 0.732774 0.549800 0.355014
O O16 0.793038 0.322947 0.717098
O O17 0.000000 0.500000 0.500000
#
# Coordination Sequence:
#
# PCOD9023041 Si02
#       8
#     2   2   2   2   2   2   2   2
#     4  11  19  32  55  76 109 144 187 228 282 335
#     4  12  23  36  58  78 115 154 182 229 277 334
#     4  12  25  38  55  80 111 156 198 229 269 330
#     4  10  23  36  50  77 107 147 197 235 275 324
#     4  10  17  31  51  82 109 142 178 223 289 336
#     4  10  20  35  55  75 107 146 188 240 285 319
#     4   9  18  29  51  79 114 140 172 226 279 354
#     4  10  19  32  50  80 115 142 178 222 286 343
#
# _framework density 17.845480999999999
#
# number of rings (size 3 to 8) (size 9 to 14) (size 15 to 20)
#    0.000    1.500    3.750    2.250    3.500    0.000 
#    0.000    0.000    0.000    0.000    0.000    1.750 
#    0.000    0.000    0.000    0.000    0.000    0.000 
#
# Total GULP energy -89201.696374 kJ/mol
# GULP energy per Si atom -5575.106023 kJ/mol
# Density = 1.780486 g / cm^3
# Si number density = 17.845481 Si / 1000 Ang^3
#
#
#
# Elastic Constant Matrix: (Units=GPa)
#
#
# Indices 1 2 3 4 5 6 
#
# 1 64.7500 15.3822 27.5439 9.7468 -12.7185 11.7879
# 2 15.3822 65.5183 39.9986 5.2423 -14.5061 9.2832
# 3 27.5439 39.9986 88.0855 13.2288 -29.6444 -2.0974
# 4 9.7468 5.2423 13.2288 29.6993 -5.0367 -6.9787
# 5 -12.7185 -14.5061 -29.6444 -5.0367 35.5033 5.6011
# 6 11.7879 9.2832 -2.0974 -6.9787 5.6011 23.4654
#
#
#
# Elastic Compliance Matrix: (Units=1/GPa)
#
#
# Indices 1 2 3 4 5 6 
#
# 1 0.022610 0.002229 -0.005149 -0.008393 0.006149 -0.016664
# 2 0.002229 0.023877 -0.010158 -0.002895 0.003749 -0.013230
# 3 -0.005149 -0.010158 0.021896 -0.003230 0.011046 0.004965
# 4 -0.008393 -0.002895 -0.003230 0.042072 -0.003837 0.018501
# 5 0.006149 0.003749 0.011046 -0.003837 0.042943 -0.014977
# 6 -0.016664 -0.013230 0.004965 0.018501 -0.014977 0.065742
#
#
# Mechanical properties :
#
#
# Convention : Reuss Voigt Hill
#
# Bulk Modulus (GPa) = 23.68100 42.68922 33.18511
# Shear Modulus (GPa) = 19.27744 26.76223 23.01983
#
# Velocity S-wave (km/s) = 3.29027 3.87675 3.59549
# Velocity P-wave (km/s) = 5.26624 6.63419 5.98940
#
# Compressibility (1/GPa) = 0.04222795
#
# Stress axis : x y z
#
# Youngs Moduli (GPa) = 44.22864 41.88118 45.67015
#
# Poissons Ratio (x) = -0.09337 0.23516
# Poissons Ratio (y) = -0.09861 0.46391
# Poissons Ratio (z) = 0.22774 0.42542
#
# Static dielectric constant tensor:
#      x y z
#    x 1.718920 -0.003730 -0.020870 
#    y -0.003730 1.600980 0.023970 
#    z -0.020870 0.023970 1.664570 
# 
# From -- ./inp_files/74272.got.cif
#   From: 2010.05.17/outbox.cif.g08.bks.cpg/sg2_38_cif.got.tgz:74272.got - 2010.06.03 11:33:40.
