data_PCOD9023299
_publ_section_title
;
Structure prediction by ZEFSAII (Michael W. Deem and Ramdas Pophale) SiO2 
 PCOD9023299
Probable space group: P -1
;
_chemical_formula_sum "Si O2"
_cell_formula_units_Z 14
_cell_length_a 13.804302
_cell_length_b 11.222886
_cell_length_c 9.543649
_cell_angle_alpha 80.455116
_cell_angle_beta 88.123398
_cell_angle_gamma 150.892741
_cell_volume 658.859608
_symmetry_space_group_name_H-M "P -1"
_symmetry_group_IT_number 2
_symmetry_cell_setting 'triclinic'
loop_
_space_group_symop_operation_xyz
x,y,z
-x,-y,-z
loop_
_atom_site_type_symbol
_atom_site_label
_atom_site_fract_x
_atom_site_fract_y
_atom_site_fract_z
Si Si1 0.434214 0.546269 0.406879
Si Si2 0.846322 0.647994 0.319128
Si Si3 0.824472 0.779381 0.795074
Si Si4 0.108292 0.880114 0.795196
Si Si5 0.748371 0.302195 0.967907
Si Si6 0.862942 0.169477 0.892204
Si Si7 0.599141 0.366026 0.116822
O O1 0.500000 0.500000 0.500000
O O2 0.256307 0.431415 0.513570
O O3 0.336804 0.395785 0.292731
O O4 0.648097 0.864354 0.313432
O O5 0.659093 0.467100 0.251240
O O6 0.947138 0.632799 0.268975
O O7 0.055955 0.964550 0.226660
O O8 0.020231 0.905807 0.729821
O O9 0.704841 0.583260 0.968156
O O10 0.926403 0.579777 0.821501
O O11 0.120443 0.902805 0.961024
O O12 0.847772 0.279122 0.956719
O O13 0.703803 0.349829 0.084696
O O14 0.500000 0.000000 0.000000
O O15 0.644667 0.913663 0.865195
#
# Coordination Sequence:
#
# PCOD9023299 Si02
#       7
#     2   2   2   2   2   2   2
#     4  12  27  44  62  92 136 182 206 253 330 397
#     4  12  25  37  64  99 130 164 220 267 316 370
#     4  11  23  42  62  93 128 173 218 259 317 388
#     4  11  22  41  69  92 127 176 214 258 320 387
#     4   9  20  41  68  99 124 165 217 266 326 373
#     4  11  22  39  68  98 126 165 214 279 312 370
#     4  10  22  39  67  98 125 163 224 270 309 375
#
# _framework density 21.248837000000002
#
# number of rings (size 3 to 8) (size 9 to 14) (size 15 to 20)
#    0.000    1.143    5.714    1.286    2.000    0.571 
#    0.000    0.714    0.000    5.143    0.000    0.000 
#    0.000    0.000    0.000    0.000    0.000    0.000 
#
# Total GULP energy -77942.597972 kJ/mol
# GULP energy per Si atom -5567.328427 kJ/mol
# Density = 2.120047 g / cm^3
# Si number density = 21.248837 Si / 1000 Ang^3
#
#
#
# Elastic Constant Matrix: (Units=GPa)
#
#
# Indices 1 2 3 4 5 6 
#
# 1 77.0630 9.1696 5.4683 -2.4651 -9.5690 13.3777
# 2 9.1696 133.0816 16.0535 -0.3880 -2.0963 -0.4344
# 3 5.4683 16.0535 37.6682 -5.5954 -9.3883 0.7426
# 4 -2.4651 -0.3880 -5.5954 30.9408 16.3114 -2.4544
# 5 -9.5690 -2.0963 -9.3883 16.3114 22.3009 -0.8610
# 6 13.3777 -0.4344 0.7426 -2.4544 -0.8610 26.1064
#
#
#
# Elastic Compliance Matrix: (Units=1/GPa)
#
#
# Indices 1 2 3 4 5 6 
#
# 1 0.015530 -0.000963 0.000028 -0.004423 0.009508 -0.008077
# 2 -0.000963 0.007995 -0.003566 0.000053 -0.001175 0.000694
# 3 0.000028 -0.003566 0.031344 -0.001953 0.014275 -0.000678
# 4 -0.004423 0.000053 -0.001953 0.054365 -0.042246 0.006041
# 5 0.009508 -0.001175 0.014275 -0.042246 0.085471 -0.006451
# 6 -0.008077 0.000694 -0.000678 0.006041 -0.006451 0.042830
#
#
# Mechanical properties :
#
#
# Convention : Reuss Voigt Hill
#
# Bulk Modulus (GPa) = 21.80210 34.35507 28.07859
# Shear Modulus (GPa) = 19.09662 30.34438 24.72050
#
# Velocity S-wave (km/s) = 3.00111 3.78305 3.41454
# Velocity P-wave (km/s) = 4.72139 5.94012 5.36547
#
# Compressibility (1/GPa) = 0.04586713
#
# Stress axis : x y z
#
# Youngs Moduli (GPa) = 64.39011 125.08421 31.90372
#
# Poissons Ratio (x) = 0.12045 -0.00089
# Poissons Ratio (y) = 0.06200 0.11377
# Poissons Ratio (z) = -0.00179 0.44605
#
# Static dielectric constant tensor:
#      x y z
#    x 1.867210 -0.004030 -0.017800 
#    y -0.004030 1.812370 -0.022030 
#    z -0.017800 -0.022030 1.752670 
# 
# From -- ./inp_files/307530.got.cif
#   From: 2010.05.17/outbox.cif.g08.bks.cpg/sg2_154_cif.got.tgz:307530.got - 2010.06.03 11:33:40.
