data_PCOD9023641
_publ_section_title
;
Structure prediction by ZEFSAII (Michael W. Deem and Ramdas Pophale) SiO2 
 PCOD9023641
Probable space group: P -1
;
_chemical_formula_sum "Si O2"
_cell_formula_units_Z 13
_cell_length_a 17.762796
_cell_length_b 5.666024
_cell_length_c 8.805360
_cell_angle_alpha 129.139575
_cell_angle_beta 57.827340
_cell_angle_gamma 96.036984
_cell_volume 544.626772
_symmetry_space_group_name_H-M "P -1"
_symmetry_group_IT_number 2
_symmetry_cell_setting 'triclinic'
loop_
_space_group_symop_operation_xyz
x,y,z
-x,-y,-z
loop_
_atom_site_type_symbol
_atom_site_label
_atom_site_fract_x
_atom_site_fract_y
_atom_site_fract_z
Si Si1 0.497138 0.306684 0.773964
Si Si2 0.675479 0.667921 0.353619
Si Si3 0.137384 0.174324 0.273840
Si Si4 0.701961 0.666599 0.983805
Si Si5 0.977399 0.063549 0.226896
Si Si6 0.804088 0.959745 0.499467
Si Si7 0.500000 0.500000 0.500000
O O1 0.475480 0.489330 0.710815
O O2 0.596641 0.020828 0.545695
O O3 0.500000 0.500000 0.000000
O O4 0.412697 0.158321 0.836472
O O5 0.607689 0.491288 0.420594
O O6 0.750246 0.722073 0.410372
O O7 0.721028 0.564773 0.097965
O O8 0.230255 0.143407 0.063060
O O9 0.078141 0.560426 0.512911
O O10 0.073714 0.989346 0.190230
O O11 0.166784 0.075177 0.372118
O O12 0.733236 0.336073 0.715429
O O13 0.902329 0.892215 0.278356
O O14 0.000000 0.000000 0.000000
#
# Coordination Sequence:
#
# PCOD9023641 Si02
#       7
#     2   2   2   2   2   2   1
#     4  11  23  43  64  90 133 171 219 272 311 377
#     4  11  24  42  61  93 130 168 219 264 314 378
#     4  10  23  40  63  93 123 157 208 257 315 383
#     4  10  22  40  59  90 125 165 207 265 310 370
#     4  10  22  42  64  90 123 161 198 259 320 375
#     4  11  23  38  64  93 122 164 209 255 320 383
#     4  10  24  38  62  90 120 174 218 260 322 364
#
# _framework density 23.869554999999998
#
# number of rings (size 3 to 8) (size 9 to 14) (size 15 to 20)
#    0.000    1.538    1.538    3.231    2.154    7.385 
#    0.000    0.000    0.000    0.000    0.000    0.000 
#    0.000    0.000    0.000    0.000    0.000    0.000 
#
# Total GULP energy -72456.271305 kJ/mol
# GULP energy per Si atom -5573.559331 kJ/mol
# Density = 2.381523 g / cm^3
# Si number density = 23.869555 Si / 1000 Ang^3
#
#
#
# Elastic Constant Matrix: (Units=GPa)
#
#
# Indices 1 2 3 4 5 6 
#
# 1 193.1981 52.5317 62.0048 -31.5421 10.3513 46.9397
# 2 52.5317 72.8068 37.6401 -41.6377 -1.7760 29.3129
# 3 62.0048 37.6401 111.5945 -40.9748 11.9460 25.2291
# 4 -31.5421 -41.6377 -40.9748 50.6144 3.8996 -7.7129
# 5 10.3513 -1.7760 11.9460 3.8996 35.7890 -1.1416
# 6 46.9397 29.3129 25.2291 -7.7129 -1.1416 47.0633
#
#
#
# Elastic Compliance Matrix: (Units=1/GPa)
#
#
# Indices 1 2 3 4 5 6 
#
# 1 0.007957 -0.001862 -0.001839 0.001241 -0.002095 -0.005638
# 2 -0.001862 0.038381 0.004173 0.031084 -0.002951 -0.019262
# 3 -0.001839 0.004173 0.016432 0.014990 -0.006612 -0.007278
# 4 0.001241 0.031084 0.014990 0.056047 -0.010555 -0.019704
# 5 -0.002095 -0.002951 -0.006612 -0.010555 0.031966 0.006518
# 6 -0.005638 -0.019262 -0.007278 -0.019704 0.006518 0.039699
#
#
# Mechanical properties :
#
#
# Convention : Reuss Voigt Hill
#
# Bulk Modulus (GPa) = 15.69494 75.77251 45.73373
# Shear Modulus (GPa) = 23.72171 41.72153 32.72162
#
# Velocity S-wave (km/s) = 3.15589 4.18532 3.70652
# Velocity P-wave (km/s) = 4.45748 7.42760 6.12529
#
# Compressibility (1/GPa) = 0.06371481
#
# Stress axis : x y z
#
# Youngs Moduli (GPa) = 125.67294 26.05426 60.85622
#
# Poissons Ratio (x) = 0.04852 0.11189
# Poissons Ratio (y) = 0.23405 -0.25395
# Poissons Ratio (z) = 0.23106 -0.10872
#
# Static dielectric constant tensor:
#      x y z
#    x 1.900470 -0.030510 -0.047380 
#    y -0.030510 1.911690 0.014910 
#    z -0.047380 0.014910 1.876100 
# 
# From -- ./inp_files/40398.got.cif
#   From: 2010.05.17/outbox.cif.g08.bks.cpg/sg2_21_cif.got.tgz:40398.got - 2010.06.03 11:33:40.
