data_PCOD9023020
_publ_section_title
;
Structure prediction by ZEFSAII (Michael W. Deem and Ramdas Pophale) SiO2 
 PCOD9023020
Probable space group: P -1
;
_chemical_formula_sum "Si O2"
_cell_formula_units_Z 14
_cell_length_a 15.000174
_cell_length_b 8.038342
_cell_length_c 5.303097
_cell_angle_alpha 89.303552
_cell_angle_beta 85.370151
_cell_angle_gamma 127.856925
_cell_volume 501.662530
_symmetry_space_group_name_H-M "P -1"
_symmetry_group_IT_number 2
_symmetry_cell_setting 'triclinic'
loop_
_space_group_symop_operation_xyz
x,y,z
-x,-y,-z
loop_
_atom_site_type_symbol
_atom_site_label
_atom_site_fract_x
_atom_site_fract_y
_atom_site_fract_z
Si Si1 0.397531 0.406723 0.717336
Si Si2 0.869291 0.400539 0.066945
Si Si3 0.987522 0.834152 0.820811
Si Si4 0.309644 0.777149 0.461095
Si Si5 0.509133 0.162854 0.185909
Si Si6 0.779757 0.979335 0.008267
Si Si7 0.781790 0.665184 0.632319
O O1 0.500000 0.500000 0.500000
O O2 0.444421 0.600473 0.895294
O O3 0.345885 0.179725 0.847459
O O4 0.287076 0.350305 0.594807
O O5 0.802432 0.315216 0.346158
O O6 0.804951 0.195485 0.903390
O O7 0.889549 0.613383 0.985952
O O8 0.000000 0.500000 0.000000
O O9 0.917978 0.783097 0.578019
O O10 0.116280 0.912827 0.809178
O O11 0.000000 0.000000 0.000000
O O12 0.398941 0.795671 0.635020
O O13 0.280061 0.583598 0.295406
O O14 0.383943 0.017385 0.341305
O O15 0.500000 0.000000 0.000000
O O16 0.781721 0.823812 0.821238
#
# Coordination Sequence:
#
# PCOD9023020 Si02
#       7
#     2   2   2   2   2   2   2
#     4  11  24  41  66  98 134 173 225 277 338 407
#     4  10  22  43  65  97 137 176 219 278 337 400
#     4   9  21  41  69  95 130 175 220 273 330 398
#     4  10  22  39  65  98 131 170 229 273 328 404
#     4  10  22  39  65  97 127 173 224 278 331 387
#     4  10  22  44  65  95 139 173 218 277 343 395
#     4  10  23  41  68  99 126 178 227 272 338 392
#
# _framework density 27.907209999999999
#
# number of rings (size 3 to 8) (size 9 to 14) (size 15 to 20)
#    0.000    2.000    0.000    1.714   10.000    2.286 
#    7.714    1.429    0.000    0.000    0.000    0.000 
#    0.000    0.000    0.000    0.000    0.000    0.000 
#
# Total GULP energy -78129.577175 kJ/mol
# GULP energy per Si atom -5580.684084 kJ/mol
# Density = 2.784369 g / cm^3
# Si number density = 27.907210 Si / 1000 Ang^3
#
#
#
# Elastic Constant Matrix: (Units=GPa)
#
#
# Indices 1 2 3 4 5 6 
#
# 1 74.1347 57.7002 39.6434 14.5756 -15.2285 12.8672
# 2 57.7002 329.0239 74.4325 8.9729 -18.2349 -2.6637
# 3 39.6434 74.4325 67.6975 22.9501 -17.6375 27.1961
# 4 14.5756 8.9729 22.9501 68.2590 12.9994 -3.3012
# 5 -15.2285 -18.2349 -17.6375 12.9994 51.8300 9.6299
# 6 12.8672 -2.6637 27.1961 -3.3012 9.6299 54.3747
#
#
#
# Elastic Compliance Matrix: (Units=1/GPa)
#
#
# Indices 1 2 3 4 5 6 
#
# 1 0.020383 -0.001590 -0.007625 -0.002394 0.003789 -0.001904
# 2 -0.001590 0.005335 -0.010270 0.004263 -0.004420 0.006816
# 3 -0.007625 -0.010270 0.059506 -0.023810 0.026807 -0.034655
# 4 -0.002394 0.004263 -0.023810 0.026728 -0.017235 0.017359
# 5 0.003789 -0.004420 0.026807 -0.017235 0.036386 -0.022011
# 6 -0.001904 0.006816 -0.034655 0.017359 -0.022011 0.041460
#
#
# Mechanical properties :
#
#
# Convention : Reuss Voigt Hill
#
# Bulk Modulus (GPa) = 21.61914 90.48980 56.05447
# Shear Modulus (GPa) = 20.47607 54.83140 37.65373
#
# Velocity S-wave (km/s) = 2.71166 4.43739 3.67720
# Velocity P-wave (km/s) = 4.19139 7.66482 6.17727
#
# Compressibility (1/GPa) = 0.04625530
#
# Stress axis : x y z
#
# Youngs Moduli (GPa) = 49.06032 187.42908 16.80497
#
# Poissons Ratio (x) = 0.29797 0.12814
# Poissons Ratio (y) = 0.07799 0.17259
# Poissons Ratio (z) = 0.37408 1.92490
#
# Static dielectric constant tensor:
#      x y z
#    x 2.436360 -0.164910 0.189410 
#    y -0.164910 2.268870 -0.291790 
#    z 0.189410 -0.291790 2.620380 
# 
# From -- ./inp_files/106957.got.cif
#   From: 2010.05.17/outbox.cif.g08.bks.cpg/sg2_54_cif.got.tgz:106957.got - 2010.06.03 11:33:40.
