data_PCOD9023331
_publ_section_title
;
Structure prediction by ZEFSAII (Michael W. Deem and Ramdas Pophale) SiO2 
 PCOD9023331
Probable space group: P -1
;
_chemical_formula_sum "Si O2"
_cell_formula_units_Z 12
_cell_length_a 5.847451
_cell_length_b 9.576838
_cell_length_c 12.074736
_cell_angle_alpha 117.603926
_cell_angle_beta 86.763607
_cell_angle_gamma 63.749205
_cell_volume 507.519411
_symmetry_space_group_name_H-M "P -1"
_symmetry_group_IT_number 2
_symmetry_cell_setting 'triclinic'
loop_
_space_group_symop_operation_xyz
x,y,z
-x,-y,-z
loop_
_atom_site_type_symbol
_atom_site_label
_atom_site_fract_x
_atom_site_fract_y
_atom_site_fract_z
Si Si1 0.409176 0.855969 0.448900
Si Si2 0.165352 0.472518 0.098007
Si Si3 0.318701 0.408429 0.475760
Si Si4 0.939891 0.132171 0.719806
Si Si5 0.288715 0.869185 0.056918
Si Si6 0.566023 0.818890 0.828699
O O1 0.631437 0.670152 0.431201
O O2 0.330929 0.825793 0.319401
O O3 0.500000 0.000000 0.500000
O O4 0.160113 0.953531 0.578887
O O5 0.059984 0.678893 0.221279
O O6 0.197483 0.336156 0.150900
O O7 0.478845 0.346115 0.005276
O O8 0.000000 0.500000 0.000000
O O9 0.500000 0.500000 0.500000
O O10 0.431771 0.262083 0.318933
O O11 0.000000 0.500000 0.500000
O O12 0.936109 0.089879 0.832805
O O13 0.394774 0.009178 0.126814
O O14 0.294955 0.870823 0.923854
#
# Coordination Sequence:
#
# PCOD9023331 Si02
#       6
#     2   2   2   2   2   2
#     4  11  28  45  76 101 147 192 245 312 372 440
#     4  10  22  39  68 101 138 183 232 295 361 431
#     4  12  29  50  77 109 150 198 250 308 372 446
#     4  11  24  44  73 108 140 185 250 297 373 437
#     4   9  21  43  68  95 147 181 237 294 364 432
#     4   9  22  44  69 101 146 183 242 294 369 429
#
# _framework density 23.644411999999999
#
# number of rings (size 3 to 8) (size 9 to 14) (size 15 to 20)
#    1.000    0.667    0.000    2.500   14.000    0.000 
#    3.000    1.667    0.000    0.000    0.000    0.000 
#    0.000    0.000    0.000    0.000    0.000    0.000 
#
# Total GULP energy -66846.393108 kJ/mol
# GULP energy per Si atom -5570.532759 kJ/mol
# Density = 2.359060 g / cm^3
# Si number density = 23.644412 Si / 1000 Ang^3
#
#
#
# Elastic Constant Matrix: (Units=GPa)
#
#
# Indices 1 2 3 4 5 6 
#
# 1 56.7204 31.1283 -0.5649 -5.9046 2.9449 -4.7861
# 2 31.1283 118.9891 -4.7569 -13.1617 13.9275 -1.6219
# 3 -0.5649 -4.7569 91.2592 -1.0264 -1.5264 -10.2277
# 4 -5.9046 -13.1617 -1.0264 40.6699 3.7178 9.2341
# 5 2.9449 13.9275 -1.5264 3.7178 51.7470 -6.6195
# 6 -4.7861 -1.6219 -10.2277 9.2341 -6.6195 37.4808
#
#
#
# Elastic Compliance Matrix: (Units=1/GPa)
#
#
# Indices 1 2 3 4 5 6 
#
# 1 0.020841 -0.005399 0.000132 0.000692 0.000527 0.002386
# 2 -0.005399 0.010510 0.000339 0.003224 -0.002929 -0.001454
# 3 0.000132 0.000339 0.011359 -0.000410 0.000695 0.003355
# 4 0.000692 0.003224 -0.000410 0.027756 -0.003860 -0.007404
# 5 0.000527 -0.002929 0.000695 -0.003860 0.020994 0.004789
# 6 0.002386 -0.001454 0.003355 -0.007404 0.004789 0.030507
#
#
# Mechanical properties :
#
#
# Convention : Reuss Voigt Hill
#
# Bulk Modulus (GPa) = 30.43982 35.39797 32.91890
# Shear Modulus (GPa) = 35.02004 42.05702 38.53853
#
# Velocity S-wave (km/s) = 3.85270 4.22207 4.04161
# Velocity P-wave (km/s) = 5.71778 6.22666 5.97764
#
# Compressibility (1/GPa) = 0.03285170
#
# Stress axis : x y z
#
# Youngs Moduli (GPa) = 47.98257 95.14925 88.03374
#
# Poissons Ratio (x) = 0.51375 -0.01158
# Poissons Ratio (y) = 0.25908 -0.02982
# Poissons Ratio (z) = -0.00631 -0.03223
#
# Static dielectric constant tensor:
#      x y z
#    x 1.717340 0.406300 -0.177280 
#    y 0.406300 0.581310 0.329220 
#    z -0.177280 0.329220 1.791420 
# 
# From -- ./inp_files/359958.got.cif
#   From: 2010.05.17/outbox.cif.g08.bks.cpg/sg2_180_cif.got.tgz:359958.got - 2010.06.03 11:33:40.
