data_PCOD9023966
_publ_section_title
;
Structure prediction by ZEFSAII (Michael W. Deem and Ramdas Pophale) SiO2 
 PCOD9023966
Probable space group: P -1
;
_chemical_formula_sum "Si O2"
_cell_formula_units_Z 12
_cell_length_a 6.113485
_cell_length_b 15.062418
_cell_length_c 6.118307
_cell_angle_alpha 97.966353
_cell_angle_beta 87.222295
_cell_angle_gamma 107.483990
_cell_volume 532.169243
_symmetry_space_group_name_H-M "P -1"
_symmetry_group_IT_number 2
_symmetry_cell_setting 'triclinic'
loop_
_space_group_symop_operation_xyz
x,y,z
-x,-y,-z
loop_
_atom_site_type_symbol
_atom_site_label
_atom_site_fract_x
_atom_site_fract_y
_atom_site_fract_z
Si Si1 0.192569 0.806836 0.463375
Si Si2 0.663267 0.470257 0.652312
Si Si3 0.552033 0.300601 0.898306
Si Si4 0.919894 0.362148 0.286061
Si Si5 0.708367 0.032716 0.170332
Si Si6 0.884604 0.860127 0.130342
O O1 0.355603 0.760971 0.302028
O O2 0.059037 0.727971 0.615565
O O3 0.332935 0.899816 0.616783
O O4 0.016120 0.833312 0.318897
O O5 0.500000 0.500000 0.500000
O O6 0.536606 0.395197 0.814240
O O7 0.807193 0.416618 0.483988
O O8 0.842273 0.563881 0.772118
O O9 0.311277 0.232550 0.967832
O O10 0.742761 0.329055 0.086326
O O11 0.770147 0.941585 0.221050
O O12 0.928767 0.095525 0.048104
O O13 0.500000 0.000000 0.000000
#
# Coordination Sequence:
#
# PCOD9023966 Si02
#       6
#     2   2   2   2   2   2
#     4  11  23  41  64  91 126 163 208 256 309 370
#     4  10  22  40  64  92 126 165 206 253 307 368
#     4  11  24  41  65  94 127 164 207 259 311 366
#     4  10  22  40  62  93 127 163 206 254 307 366
#     4  11  25  44  64  90 127 165 208 259 312 371
#     4  11  24  40  64  94 123 165 209 257 313 367
#
# _framework density 22.549216000000001
#
# number of rings (size 3 to 8) (size 9 to 14) (size 15 to 20)
#    0.000    1.333    0.000    5.000    0.000   11.333 
#    0.000    0.000    0.000    0.000    0.000    0.000 
#    0.000    0.000    0.000    0.000    0.000    0.000 
#
# Total GULP energy -67202.585318 kJ/mol
# GULP energy per Si atom -5600.215443 kJ/mol
# Density = 2.249789 g / cm^3
# Si number density = 22.549216 Si / 1000 Ang^3
#
#
#
# Elastic Constant Matrix: (Units=GPa)
#
#
# Indices 1 2 3 4 5 6 
#
# 1 79.3718 59.5701 21.6187 -16.3593 19.6417 18.0190
# 2 59.5701 166.6677 48.3339 -29.4402 14.8872 22.9524
# 3 21.6187 48.3339 67.3414 -6.3620 16.4777 11.8464
# 4 -16.3593 -29.4402 -6.3620 49.2872 -6.8962 11.1257
# 5 19.6417 14.8872 16.4777 -6.8962 43.6344 -2.2663
# 6 18.0190 22.9524 11.8464 11.1257 -2.2663 56.3980
#
#
#
# Elastic Compliance Matrix: (Units=1/GPa)
#
#
# Indices 1 2 3 4 5 6 
#
# 1 0.020255 -0.005274 0.000348 0.003849 -0.007124 -0.005443
# 2 -0.005274 0.010398 -0.005295 0.004486 0.001418 -0.002262
# 3 0.000348 -0.005295 0.020422 -0.000763 -0.006305 -0.002349
# 4 0.003849 0.004486 -0.000763 0.026057 0.000727 -0.008006
# 5 -0.007124 0.001418 -0.006305 0.000727 0.028345 0.004019
# 6 -0.005443 -0.002262 -0.002349 -0.008006 0.004019 0.022625
#
#
# Mechanical properties :
#
#
# Convention : Reuss Voigt Hill
#
# Bulk Modulus (GPa) = 32.64619 63.60291 48.12455
# Shear Modulus (GPa) = 31.49484 42.12113 36.80799
#
# Velocity S-wave (km/s) = 3.74132 4.32668 4.04461
# Velocity P-wave (km/s) = 5.75956 7.29574 6.57268
#
# Compressibility (1/GPa) = 0.03063145
#
# Stress axis : x y z
#
# Youngs Moduli (GPa) = 49.37111 96.17287 48.96615
#
# Poissons Ratio (x) = 0.50725 -0.01702
# Poissons Ratio (y) = 0.26040 0.25927
# Poissons Ratio (z) = -0.01716 0.50923
#
# Static dielectric constant tensor:
#      x y z
#    x 1.816150 0.000680 -0.054560 
#    y 0.000680 1.839200 -0.002080 
#    z -0.054560 -0.002080 1.811130 
# 
# From -- ./inp_files/3066.got.cif
#   From: 2010.05.17/outbox.cif.g08.bks.cpg/sg2_2_cif.got.tgz:3066.got - 2010.06.03 11:33:40.
