data_PCOD9023743
_publ_section_title
;
Structure prediction by ZEFSAII (Michael W. Deem and Ramdas Pophale) SiO2 
 PCOD9023743
Probable space group: P -1
;
_chemical_formula_sum "Si O2"
_cell_formula_units_Z 12
_cell_length_a 20.547931
_cell_length_b 7.650239
_cell_length_c 7.186749
_cell_angle_alpha 57.230404
_cell_angle_beta 130.247062
_cell_angle_gamma 145.963079
_cell_volume 482.599189
_symmetry_space_group_name_H-M "P -1"
_symmetry_group_IT_number 2
_symmetry_cell_setting 'triclinic'
loop_
_space_group_symop_operation_xyz
x,y,z
-x,-y,-z
loop_
_atom_site_type_symbol
_atom_site_label
_atom_site_fract_x
_atom_site_fract_y
_atom_site_fract_z
Si Si1 0.747132 0.699355 0.941009
Si Si2 0.566001 0.819434 0.853189
Si Si3 0.933830 0.356212 0.760482
Si Si4 0.166757 0.519148 0.040430
Si Si5 0.521866 0.893228 0.322434
Si Si6 0.193845 0.479070 0.551162
O O1 0.593922 0.413775 0.830824
O O2 0.807769 0.747845 0.223827
O O3 0.795616 0.601296 0.953397
O O4 0.800995 0.001827 0.769977
O O5 0.517997 0.944225 0.789713
O O6 0.720059 0.104899 0.984795
O O7 0.529360 0.780745 0.592680
O O8 0.500000 0.500000 0.000000
O O9 0.903826 0.532309 0.535141
O O10 0.000000 0.500000 0.000000
O O11 0.031126 0.378274 0.826579
O O12 0.173567 0.448434 0.308532
O O13 0.663805 0.172387 0.343962
#
# Coordination Sequence:
#
# PCOD9023743 Si02
#       6
#     2   2   2   2   2   2
#     4  11  22  39  64  86 118 162 195 242 300 345
#     4   9  18  36  63  88 118 157 191 241 301 344
#     4  10  23  41  59  88 121 154 203 246 287 354
#     4   9  21  41  60  88 121 152 202 246 283 354
#     4   9  20  36  56  92 122 146 200 246 284 355
#     4  10  22  40  61  88 123 155 192 245 298 348
#
# _framework density 24.865355999999998
#
# number of rings (size 3 to 8) (size 9 to 14) (size 15 to 20)
#    0.000    2.333    0.000    2.000    0.000   10.667 
#    0.000    8.333    0.000    0.000    0.000    0.000 
#    0.000    0.000    0.000    0.000    0.000    0.000 
#
# Total GULP energy -67174.015453 kJ/mol
# GULP energy per Si atom -5597.834621 kJ/mol
# Density = 2.480876 g / cm^3
# Si number density = 24.865356 Si / 1000 Ang^3
#
#
#
# Elastic Constant Matrix: (Units=GPa)
#
#
# Indices 1 2 3 4 5 6 
#
# 1 79.7992 3.8803 15.0042 7.2496 5.1055 11.8532
# 2 3.8803 63.8049 31.9348 -7.1030 4.1066 11.0096
# 3 15.0042 31.9348 74.4550 -11.0729 3.8073 6.7201
# 4 7.2496 -7.1030 -11.0729 37.3401 6.4364 9.4327
# 5 5.1055 4.1066 3.8073 6.4364 39.0760 1.4970
# 6 11.8532 11.0096 6.7201 9.4327 1.4970 25.6341
#
#
#
# Elastic Compliance Matrix: (Units=1/GPa)
#
#
# Indices 1 2 3 4 5 6 
#
# 1 0.014139 0.001617 -0.003231 -0.001758 -0.001196 -0.005668
# 2 0.001617 0.021864 -0.008129 0.004166 -0.002042 -0.009421
# 3 -0.003231 -0.008129 0.018576 0.005259 -0.001333 -0.001742
# 4 -0.001758 0.004166 0.005259 0.034157 -0.005788 -0.014586
# 5 -0.001196 -0.002042 -0.001333 -0.005788 0.026956 0.002335
# 6 -0.005668 -0.009421 -0.001742 -0.014586 0.002335 0.051365
#
#
# Mechanical properties :
#
#
# Convention : Reuss Voigt Hill
#
# Bulk Modulus (GPa) = 28.49696 35.52195 32.00946
# Shear Modulus (GPa) = 25.22179 31.55936 28.39057
#
# Velocity S-wave (km/s) = 3.18832 3.56646 3.38268
# Velocity P-wave (km/s) = 5.00392 5.59252 5.30639
#
# Compressibility (1/GPa) = 0.03509146
#
# Stress axis : x y z
#
# Youngs Moduli (GPa) = 70.72858 45.73725 53.83168
#
# Poissons Ratio (x) = -0.07395 0.17395
# Poissons Ratio (y) = -0.11436 0.43761
# Poissons Ratio (z) = 0.22855 0.37181
#
# Static dielectric constant tensor:
#      x y z
#    x 1.993150 0.042620 -0.024160 
#    y 0.042620 1.982720 -0.001730 
#    z -0.024160 -0.001730 1.967430 
# 
# From -- ./inp_files/351622.got.cif
#   From: 2010.05.17/outbox.cif.g08.bks.cpg/sg2_176_cif.got.tgz:351622.got - 2010.06.03 11:33:40.
