data_PCOD9023043
_publ_section_title
;
Structure prediction by ZEFSAII (Michael W. Deem and Ramdas Pophale) SiO2 
 PCOD9023043
Probable space group: P -1
;
_chemical_formula_sum "Si O2"
_cell_formula_units_Z 14
_cell_length_a 5.020396
_cell_length_b 11.077077
_cell_length_c 11.153802
_cell_angle_alpha 67.908802
_cell_angle_beta 97.003571
_cell_angle_gamma 79.341101
_cell_volume 552.193760
_symmetry_space_group_name_H-M "P -1"
_symmetry_group_IT_number 2
_symmetry_cell_setting 'triclinic'
loop_
_space_group_symop_operation_xyz
x,y,z
-x,-y,-z
loop_
_atom_site_type_symbol
_atom_site_label
_atom_site_fract_x
_atom_site_fract_y
_atom_site_fract_z
Si Si1 0.658531 0.574947 0.389952
Si Si2 0.501604 0.873832 0.298275
Si Si3 0.670801 0.270537 0.152403
Si Si4 0.000917 0.612618 0.697463
Si Si5 0.940522 0.890727 0.130167
Si Si6 0.780000 0.379435 0.866103
Si Si7 0.258758 0.136465 0.291960
O O1 0.500000 0.500000 0.500000
O O2 0.673280 0.720773 0.383101
O O3 0.926972 0.469450 0.390222
O O4 0.462298 0.609234 0.248515
O O5 0.193518 0.866762 0.247118
O O6 0.653793 0.924875 0.174664
O O7 0.446002 0.985679 0.358045
O O8 0.727218 0.358341 0.235862
O O9 0.405320 0.215325 0.176606
O O10 0.948875 0.147337 0.222704
O O11 0.679599 0.348539 0.002088
O O12 0.890728 0.512323 0.815023
O O13 0.795127 0.762136 0.635425
O O14 0.979437 0.749849 0.114752
O O15 0.000000 0.000000 0.000000
#
# Coordination Sequence:
#
# PCOD9023043 Si02
#       7
#     2   2   2   2   2   2   2
#     4  11  26  45  67  93 128 177 232 276 315 373
#     4  11  22  42  62  93 130 172 213 267 321 386
#     4  10  23  38  68  99 138 168 207 257 337 404
#     4  10  23  41  64  95 134 167 217 265 330 386
#     4  11  22  36  63  96 136 169 209 257 330 398
#     4  11  22  40  64  97 132 174 214 266 326 391
#     4  10  22  39  65  98 136 166 205 262 332 403
#
# _framework density 25.353415999999999
#
# number of rings (size 3 to 8) (size 9 to 14) (size 15 to 20)
#    0.857    0.571    1.429    4.286    2.000    2.857 
#    0.000    0.714    0.000    1.714    0.000    0.000 
#    0.000    0.000    0.000    0.000    0.000    0.000 
#
# Total GULP energy -78295.933318 kJ/mol
# GULP energy per Si atom -5592.566666 kJ/mol
# Density = 2.529571 g / cm^3
# Si number density = 25.353416 Si / 1000 Ang^3
#
#
#
# Elastic Constant Matrix: (Units=GPa)
#
#
# Indices 1 2 3 4 5 6 
#
# 1 72.3460 20.7772 7.6826 1.6853 -19.3390 -9.7342
# 2 20.7772 246.9579 59.5736 -7.8127 -7.9546 -43.0618
# 3 7.6826 59.5736 85.6164 3.5262 -2.9873 -17.4645
# 4 1.6853 -7.8127 3.5262 38.8007 -4.8050 -1.5133
# 5 -19.3390 -7.9546 -2.9873 -4.8050 31.6460 0.2335
# 6 -9.7342 -43.0618 -17.4645 -1.5133 0.2335 43.1125
#
#
#
# Elastic Compliance Matrix: (Units=1/GPa)
#
#
# Indices 1 2 3 4 5 6 
#
# 1 0.017199 -0.000467 -0.000206 0.000599 0.010440 0.003298
# 2 -0.000467 0.005679 -0.003049 0.001747 0.001087 0.004388
# 3 -0.000206 -0.003049 0.014450 -0.001791 0.000180 0.002698
# 4 0.000599 0.001747 -0.001791 0.026925 0.004709 0.002074
# 5 0.010440 0.001087 0.000180 0.004709 0.038959 0.003470
# 6 0.003298 0.004388 0.002698 0.002074 0.003470 0.029469
#
#
# Mechanical properties :
#
#
# Convention : Reuss Voigt Hill
#
# Bulk Modulus (GPa) = 33.46178 64.55412 49.00795
# Shear Modulus (GPa) = 33.31379 43.83763 38.57571
#
# Velocity S-wave (km/s) = 3.62881 4.16271 3.90490
# Velocity P-wave (km/s) = 5.54838 6.97289 6.30102
#
# Compressibility (1/GPa) = 0.02988485
#
# Stress axis : x y z
#
# Youngs Moduli (GPa) = 58.14280 176.07505 69.20232
#
# Poissons Ratio (x) = 0.08223 0.01426
# Poissons Ratio (y) = 0.02715 0.21099
# Poissons Ratio (z) = 0.01198 0.53684
#
# Static dielectric constant tensor:
#      x y z
#    x 1.978550 -0.068310 0.042600 
#    y -0.068310 2.076190 0.003030 
#    z 0.042600 0.003030 1.933880 
# 
# From -- ./inp_files/363825.got.cif
#   From: 2010.05.17/outbox.cif.g08.bks.cpg/sg2_182_cif.got.tgz:363825.got - 2010.06.03 11:33:40.
