data_PCOD9023686
_publ_section_title
;
Structure prediction by ZEFSAII (Michael W. Deem and Ramdas Pophale) SiO2 
 PCOD9023686
Probable space group: P -1
;
_chemical_formula_sum "Si O2"
_cell_formula_units_Z 12
_cell_length_a 4.938319
_cell_length_b 11.045867
_cell_length_c 12.570804
_cell_angle_alpha 131.255025
_cell_angle_beta 96.018039
_cell_angle_gamma 81.661550
_cell_volume 510.017522
_symmetry_space_group_name_H-M "P -1"
_symmetry_group_IT_number 2
_symmetry_cell_setting 'triclinic'
loop_
_space_group_symop_operation_xyz
x,y,z
-x,-y,-z
loop_
_atom_site_type_symbol
_atom_site_label
_atom_site_fract_x
_atom_site_fract_y
_atom_site_fract_z
Si Si1 0.468279 0.669786 0.533462
Si Si2 0.841436 0.926474 0.083440
Si Si3 0.952650 0.591973 0.366778
Si Si4 0.790293 0.439564 0.868843
Si Si5 0.857385 0.778681 0.779721
Si Si6 0.578980 0.244788 0.922621
O O1 0.500000 0.500000 0.500000
O O2 0.152965 0.696645 0.503630
O O3 0.630229 0.780953 0.680484
O O4 0.643868 0.645826 0.418303
O O5 0.138100 0.825782 0.054194
O O6 0.645168 0.879677 0.141865
O O7 0.908469 0.109003 0.177451
O O8 0.732612 0.857374 0.928873
O O9 0.041328 0.600996 0.253988
O O10 0.022264 0.405177 0.298625
O O11 0.649529 0.295140 0.835154
O O12 0.556637 0.589579 0.932040
O O13 0.000000 0.500000 0.000000
#
# Coordination Sequence:
#
# PCOD9023686 Si02
#       6
#     2   2   2   2   2   2
#     4  10  23  38  60  89 124 164 197 247 289 366
#     4  11  24  37  63  90 128 158 195 251 294 380
#     4  11  23  38  64  92 121 154 207 250 299 350
#     4  11  23  39  67  88 123 151 208 262 298 347
#     4  10  22  40  60  91 126 162 197 238 311 358
#     4  11  23  39  58  95 117 159 197 253 307 343
#
# _framework density 23.528604999999999
#
# number of rings (size 3 to 8) (size 9 to 14) (size 15 to 20)
#    0.000    1.333    3.333    2.000    7.000    8.000 
#    0.000    0.000    0.000    6.000    0.000    0.000 
#    0.000    0.000    0.000    0.000    0.000    0.000 
#
# Total GULP energy -67204.273234 kJ/mol
# GULP energy per Si atom -5600.356103 kJ/mol
# Density = 2.347505 g / cm^3
# Si number density = 23.528605 Si / 1000 Ang^3
#
#
#
# Elastic Constant Matrix: (Units=GPa)
#
#
# Indices 1 2 3 4 5 6 
#
# 1 127.7820 41.5596 22.6672 -2.7825 -4.1783 21.7440
# 2 41.5596 128.1270 34.4728 -8.5658 -1.8171 47.2192
# 3 22.6672 34.4728 86.4137 -7.0597 13.6016 5.8762
# 4 -2.7825 -8.5658 -7.0597 30.4678 11.6603 -3.5397
# 5 -4.1783 -1.8171 13.6016 11.6603 33.4863 -1.4992
# 6 21.7440 47.2192 5.8762 -3.5397 -1.4992 43.4621
#
#
#
# Elastic Compliance Matrix: (Units=1/GPa)
#
#
# Indices 1 2 3 4 5 6 
#
# 1 0.009184 -0.001449 -0.002093 -0.001224 0.002220 -0.002761
# 2 -0.001449 0.015181 -0.004883 0.000592 0.001748 -0.014999
# 3 -0.002093 -0.004883 0.015626 0.005913 -0.008734 0.004419
# 4 -0.001224 0.000592 0.005913 0.040845 -0.016659 0.001921
# 5 0.002220 0.001748 -0.008734 -0.016659 0.039502 -0.001823
# 6 -0.002761 -0.014999 0.004419 0.001921 -0.001823 0.040182
#
#
# Mechanical properties :
#
#
# Convention : Reuss Voigt Hill
#
# Bulk Modulus (GPa) = 43.21056 59.96910 51.58983
# Shear Modulus (GPa) = 27.01495 37.72478 32.36986
#
# Velocity S-wave (km/s) = 3.39215 4.00854 3.71316
# Velocity P-wave (km/s) = 5.80924 6.85329 6.35275
#
# Compressibility (1/GPa) = 0.02314249
#
# Stress axis : x y z
#
# Youngs Moduli (GPa) = 108.88510 65.87366 63.99409
#
# Poissons Ratio (x) = 0.09543 0.13393
# Poissons Ratio (y) = 0.15774 0.31247
# Poissons Ratio (z) = 0.22787 0.32165
#
# Static dielectric constant tensor:
#      x y z
#    x 1.913900 -0.002730 -0.009740 
#    y -0.002730 1.884330 0.009110 
#    z -0.009740 0.009110 1.956300 
# 
# From -- ./inp_files/365420.got.cif
#   From: 2010.05.17/outbox.cif.g08.bks.cpg/sg2_183_cif.got.tgz:365420.got - 2010.06.03 11:33:40.
