data_PCOD9023264
_publ_section_title
;
Structure prediction by ZEFSAII (Michael W. Deem and Ramdas Pophale) SiO2 
 PCOD9023264
Probable space group: P -1
;
_chemical_formula_sum "Si O2"
_cell_formula_units_Z 16
_cell_length_a 5.184892
_cell_length_b 13.155295
_cell_length_c 16.527787
_cell_angle_alpha 47.293821
_cell_angle_beta 52.060291
_cell_angle_gamma 71.881421
_cell_volume 642.312173
_symmetry_space_group_name_H-M "P -1"
_symmetry_group_IT_number 2
_symmetry_cell_setting 'triclinic'
loop_
_space_group_symop_operation_xyz
x,y,z
-x,-y,-z
loop_
_atom_site_type_symbol
_atom_site_label
_atom_site_fract_x
_atom_site_fract_y
_atom_site_fract_z
Si Si1 0.470276 0.639166 0.206329
Si Si2 0.392573 0.826266 0.444778
Si Si3 0.580976 0.829871 0.228952
Si Si4 0.364845 0.900157 0.004649
Si Si5 0.864950 0.437583 0.933201
Si Si6 0.850758 0.992297 0.391802
Si Si7 0.197251 0.396438 0.287057
Si Si8 0.799278 0.285742 0.186889
O O1 0.397398 0.719815 0.257897
O O2 0.495280 0.756832 0.067368
O O3 0.224564 0.497096 0.305266
O O4 0.830505 0.598192 0.158804
O O5 0.503612 0.779986 0.360912
O O6 0.167163 0.694123 0.603774
O O7 0.718443 0.889481 0.398236
O O8 0.141431 0.937299 0.415516
O O9 0.968511 0.853255 0.115735
O O10 0.524704 0.992065 0.147322
O O11 0.500000 0.000000 0.000000
O O12 0.658779 0.497285 0.870755
O O13 0.986839 0.576856 0.887483
O O14 0.760010 0.311963 0.084371
O O15 0.950597 0.150052 0.252712
O O16 0.500000 0.000000 0.500000
O O17 0.441635 0.284270 0.298696
#
# Coordination Sequence:
#
# PCOD9023264 Si02
#       8
#     2   2   2   2   2   2   2   2
#     4  10  22  39  67  94 136 178 226 284 347 404
#     4  12  29  43  76 101 143 185 237 283 349 417
#     4  10  23  43  66 102 134 181 226 288 339 422
#     4   9  20  40  67  92 139 169 227 286 342 403
#     4  10  22  41  65 102 130 183 226 288 348 411
#     4  12  26  48  70 104 138 189 229 291 350 410
#     4  11  23  43  64  99 137 187 225 288 340 417
#     4  10  23  40  70  95 139 172 238 285 346 413
#
# _framework density 24.910003
#
# number of rings (size 3 to 8) (size 9 to 14) (size 15 to 20)
#    0.000    1.500    1.250    2.250    8.750    3.500 
#    0.000    2.500    0.000    0.000    0.000    0.000 
#    0.000    0.000    0.000    0.000    0.000    0.000 
#
# Total GULP energy -89411.561317 kJ/mol
# GULP energy per Si atom -5588.222582 kJ/mol
# Density = 2.485331 g / cm^3
# Si number density = 24.910003 Si / 1000 Ang^3
#
#
#
# Elastic Constant Matrix: (Units=GPa)
#
#
# Indices 1 2 3 4 5 6 
#
# 1 58.9025 12.5386 0.6088 -9.5737 4.7625 -1.9720
# 2 12.5386 84.0591 20.6307 -13.8950 6.3751 5.3320
# 3 0.6088 20.6307 75.7635 -0.7716 11.1563 2.8696
# 4 -9.5737 -13.8950 -0.7716 30.5146 2.6154 8.4669
# 5 4.7625 6.3751 11.1563 2.6154 34.1144 -3.9537
# 6 -1.9720 5.3320 2.8696 8.4669 -3.9537 44.1338
#
#
#
# Elastic Compliance Matrix: (Units=1/GPa)
#
#
# Indices 1 2 3 4 5 6 
#
# 1 0.018452 -0.001843 0.000853 0.005305 -0.002951 -0.000291
# 2 -0.001843 0.014545 -0.003423 0.007030 -0.002247 -0.003167
# 3 0.000853 -0.003423 0.014800 -0.000306 -0.004394 -0.000846
# 4 0.005305 0.007030 -0.000306 0.040631 -0.006105 -0.008934
# 5 -0.002951 -0.002247 -0.004394 -0.006105 0.032573 0.004515
# 6 -0.000291 -0.003167 -0.000846 -0.008934 0.004515 0.025201
#
#
# Mechanical properties :
#
#
# Convention : Reuss Voigt Hill
#
# Bulk Modulus (GPa) = 25.66001 31.80905 28.73453
# Shear Modulus (GPa) = 29.75856 34.08234 31.92045
#
# Velocity S-wave (km/s) = 3.46011 3.70296 3.58359
# Velocity P-wave (km/s) = 5.12705 5.57493 5.35567
#
# Compressibility (1/GPa) = 0.03897114
#
# Stress axis : x y z
#
# Youngs Moduli (GPa) = 54.19535 68.75320 67.56647
#
# Poissons Ratio (x) = 0.12668 -0.05764
# Poissons Ratio (y) = 0.09985 0.23130
# Poissons Ratio (z) = -0.04623 0.23537
#
# Static dielectric constant tensor:
#      x y z
#    x 2.051780 -0.031850 0.030670 
#    y -0.031850 1.977410 -0.000120 
#    z 0.030670 -0.000120 1.974810 
# 
# From -- ./inp_files/549400.got.cif
#   From: 2010.05.17/outbox.cif.g08.bks.cpg/sg2_275_cif.got.tgz:549400.got - 2010.06.03 11:33:40.
