data_PCOD9023478
_publ_section_title
;
Structure prediction by ZEFSAII (Michael W. Deem and Ramdas Pophale) SiO2 
 PCOD9023478
Probable space group: P -1
;
_chemical_formula_sum "Si O2"
_cell_formula_units_Z 16
_cell_length_a 9.648492
_cell_length_b 5.055272
_cell_length_c 15.252676
_cell_angle_alpha 107.352484
_cell_angle_beta 122.933658
_cell_angle_gamma 92.248682
_cell_volume 576.849796
_symmetry_space_group_name_H-M "P -1"
_symmetry_group_IT_number 2
_symmetry_cell_setting 'triclinic'
loop_
_space_group_symop_operation_xyz
x,y,z
-x,-y,-z
loop_
_atom_site_type_symbol
_atom_site_label
_atom_site_fract_x
_atom_site_fract_y
_atom_site_fract_z
Si Si1 0.708048 0.713523 0.220546
Si Si2 0.940824 0.790971 0.763943
Si Si3 0.976710 0.421785 0.584798
Si Si4 0.575444 0.398659 0.637941
Si Si5 0.233518 0.597497 0.948013
Si Si6 0.599645 0.171163 0.430650
Si Si7 0.491726 0.114597 0.154412
Si Si8 0.863032 0.121267 0.909712
O O1 0.871716 0.690463 0.330909
O O2 0.477587 0.862311 0.339994
O O3 0.749417 0.674613 0.127909
O O4 0.562973 0.425772 0.168234
O O5 0.770687 0.566725 0.718338
O O6 0.908884 0.085745 0.820302
O O7 0.954326 0.701547 0.659475
O O8 0.103472 0.726020 0.859336
O O9 0.000000 0.500000 0.500000
O O10 0.797017 0.185885 0.507676
O O11 0.545386 0.264730 0.516686
O O12 0.440768 0.589208 0.621912
O O13 0.409645 0.843846 0.035450
O O14 0.163825 0.590668 0.023683
O O15 0.645231 0.000599 0.238720
O O16 0.321607 0.090444 0.150734
O O17 0.000000 0.000000 0.000000
#
# Coordination Sequence:
#
# PCOD9023478 Si02
#       8
#     2   2   2   2   2   2   2   2
#     4  11  22  42  66 102 134 184 227 277 333 409
#     4   9  17  38  67 100 138 182 225 283 345 412
#     4  10  23  42  67  97 139 182 236 289 347 404
#     4   9  18  35  65  90 125 164 216 270 339 398
#     4   8  18  36  67  99 142 176 219 276 339 409
#     4   9  19  38  60  92 123 167 215 280 333 389
#     4  10  22  39  69  98 141 176 227 272 339 407
#     4   8  17  36  64  94 136 173 222 270 340 398
#
# _framework density 27.736854000000001
#
# number of rings (size 3 to 8) (size 9 to 14) (size 15 to 20)
#    0.750    2.000    0.000    0.750    0.000    2.000 
#    0.000   15.625    0.000    2.250    0.000    0.000 
#    0.000    0.000    0.000    0.000    0.000    0.000 
#
# Total GULP energy -89551.987103 kJ/mol
# GULP energy per Si atom -5596.999194 kJ/mol
# Density = 2.767372 g / cm^3
# Si number density = 27.736854 Si / 1000 Ang^3
#
#
#
# Elastic Constant Matrix: (Units=GPa)
#
#
# Indices 1 2 3 4 5 6 
#
# 1 136.3543 69.5756 51.2641 8.4841 -18.9771 -26.4522
# 2 69.5756 125.3797 32.0067 -0.3121 3.8959 -10.8368
# 3 51.2641 32.0067 119.7405 7.8649 -11.5662 -18.9840
# 4 8.4841 -0.3121 7.8649 24.9098 -16.8221 1.8533
# 5 -18.9771 3.8959 -11.5662 -16.8221 68.6287 4.7023
# 6 -26.4522 -10.8368 -18.9840 1.8533 4.7023 43.7179
#
#
#
# Elastic Compliance Matrix: (Units=1/GPa)
#
#
# Indices 1 2 3 4 5 6 
#
# 1 0.012956 -0.006153 -0.002720 -0.002256 0.002581 0.004951
# 2 -0.006153 0.011603 -0.000920 0.001152 -0.002160 -0.001063
# 3 -0.002720 -0.000920 0.010373 -0.002371 0.000282 0.002701
# 4 -0.002256 0.001152 -0.002371 0.049852 0.011505 -0.005460
# 5 0.002581 -0.002160 0.000282 0.011505 0.018365 -0.001314
# 6 0.004951 -0.001063 0.002701 -0.005460 -0.001314 0.027152
#
#
# Mechanical properties :
#
#
# Convention : Reuss Voigt Hill
#
# Bulk Modulus (GPa) = 65.16136 76.35192 70.75664
# Shear Modulus (GPa) = 32.25751 42.69316 37.47533
#
# Velocity S-wave (km/s) = 3.41395 3.92755 3.67972
# Velocity P-wave (km/s) = 6.25170 6.93934 6.60448
#
# Compressibility (1/GPa) = 0.01534652
#
# Stress axis : x y z
#
# Youngs Moduli (GPa) = 77.18315 86.18219 96.40584
#
# Poissons Ratio (x) = 0.53030 0.26219
# Poissons Ratio (y) = 0.47493 0.08870
# Poissons Ratio (z) = 0.20991 0.07929
#
# Static dielectric constant tensor:
#      x y z
#    x 2.176920 0.013930 -0.043410 
#    y 0.013930 2.092530 0.091830 
#    z -0.043410 0.091830 2.251920 
# 
# From -- ./inp_files/588484.got.cif
#   From: 2010.05.17/outbox.cif.g08.bks.cpg/sg2_295_cif.got.tgz:588484.got - 2010.06.03 11:33:40.
