data_PCOD9023592
_publ_section_title
;
Structure prediction by ZEFSAII (Michael W. Deem and Ramdas Pophale) SiO2 
 PCOD9023592
Probable space group: P -1
;
_chemical_formula_sum "Si O2"
_cell_formula_units_Z 11
_cell_length_a 6.874960
_cell_length_b 8.785203
_cell_length_c 7.704253
_cell_angle_alpha 75.073890
_cell_angle_beta 70.937036
_cell_angle_gamma 75.860185
_cell_volume 418.377158
_symmetry_space_group_name_H-M "P -1"
_symmetry_group_IT_number 2
_symmetry_cell_setting 'triclinic'
loop_
_space_group_symop_operation_xyz
x,y,z
-x,-y,-z
loop_
_atom_site_type_symbol
_atom_site_label
_atom_site_fract_x
_atom_site_fract_y
_atom_site_fract_z
Si Si1 0.400821 0.405893 0.736106
Si Si2 0.406140 0.091449 0.674009
Si Si3 0.393898 0.199534 0.138251
Si Si4 0.000000 0.000000 0.000000
Si Si5 0.826232 0.519331 0.689218
Si Si6 0.827947 0.312484 0.093331
O O1 0.412071 0.279722 0.614723
O O2 0.624257 0.454943 0.691116
O O3 0.233977 0.568864 0.762700
O O4 0.360413 0.291975 0.940534
O O5 0.500000 0.000000 0.500000
O O6 0.565395 0.991319 0.799850
O O7 0.173692 0.070743 0.804596
O O8 0.229289 0.296791 0.288989
O O9 0.616941 0.246755 0.119617
O O10 0.005152 0.848970 0.904968
O O11 0.000000 0.500000 0.500000
O O12 0.875070 0.415584 0.882285
#
# Coordination Sequence:
#
# PCOD9023592 Si02
#       6
#     2   2   2   1   2   2
#     4   9  18  38  60  83 112 153 197 234 290 340
#     4  11  23  38  57  84 122 156 192 240 285 344
#     4   8  17  36  58  80 112 148 188 241 296 328
#     4  10  22  40  56  78 124 160 184 230 296 348
#     4   9  17  32  60  88 109 141 192 249 282 339
#     4   8  17  35  59  81 110 153 187 233 295 343
#
# _framework density 26.292065999999998
#
# number of rings (size 3 to 8) (size 9 to 14) (size 15 to 20)
#    0.000    2.909    0.000    2.727    2.545    0.727 
#    6.545    9.091    0.000    0.000    0.000    0.000 
#    0.000    0.000    0.000    0.000    0.000    0.000 
#
# Total GULP energy -61247.009366 kJ/mol
# GULP energy per Si atom -5567.909942 kJ/mol
# Density = 2.623222 g / cm^3
# Si number density = 26.292066 Si / 1000 Ang^3
#
#
#
# Elastic Constant Matrix: (Units=GPa)
#
#
# Indices 1 2 3 4 5 6 
#
# 1 59.4971 16.1001 20.3919 -3.3883 -19.9901 20.2910
# 2 16.1001 188.2642 36.9443 30.0186 9.6184 19.2140
# 3 20.3919 36.9443 159.3884 26.7628 -10.4224 6.1728
# 4 -3.3883 30.0186 26.7628 50.4342 4.7976 11.5288
# 5 -19.9901 9.6184 -10.4224 4.7976 43.1542 -7.5400
# 6 20.2910 19.2140 6.1728 11.5288 -7.5400 32.7435
#
#
#
# Elastic Compliance Matrix: (Units=1/GPa)
#
#
# Indices 1 2 3 4 5 6 
#
# 1 0.026984 -0.001686 -0.003109 0.007245 0.008572 -0.015724
# 2 -0.001686 0.006415 -0.000893 -0.002723 -0.002503 -0.002168
# 3 -0.003109 -0.000893 0.007637 -0.004570 0.001635 0.002997
# 4 0.007245 -0.002723 -0.004570 0.027370 -0.002315 -0.012200
# 5 0.008572 -0.002503 0.001635 -0.002315 0.028935 0.003326
# 6 -0.015724 -0.002168 0.002997 -0.012200 0.003326 0.046053
#
#
# Mechanical properties :
#
#
# Convention : Reuss Voigt Hill
#
# Bulk Modulus (GPa) = 33.71565 61.55802 47.63683
# Shear Modulus (GPa) = 30.36630 47.51393 38.94011
#
# Velocity S-wave (km/s) = 3.40216 4.25568 3.85263
# Velocity P-wave (km/s) = 5.31829 6.90013 6.16019
#
# Compressibility (1/GPa) = 0.02965982
#
# Stress axis : x y z
#
# Youngs Moduli (GPa) = 37.05857 155.89423 130.94085
#
# Poissons Ratio (x) = 0.26285 0.40703
# Poissons Ratio (y) = 0.06248 0.11699
# Poissons Ratio (z) = 0.11520 0.13929
#
# Static dielectric constant tensor:
#      x y z
#    x 2.263520 -0.082350 0.083290 
#    y -0.082350 2.132870 0.033000 
#    z 0.083290 0.033000 2.081690 
# 
# From -- ./inp_files/144667.got.cif
#   From: 2010.05.17/outbox.cif.g08.bks.cpg/sg2_73_cif.got.tgz:144667.got - 2010.06.03 11:33:40.
