data_PCOD9023142
_publ_section_title
;
Structure prediction by ZEFSAII (Michael W. Deem and Ramdas Pophale) SiO2 
 PCOD9023142
Probable space group: P -1
;
_chemical_formula_sum "Si O2"
_cell_formula_units_Z 16
_cell_length_a 9.519310
_cell_length_b 11.860259
_cell_length_c 8.867445
_cell_angle_alpha 81.221078
_cell_angle_beta 65.171128
_cell_angle_gamma 57.918414
_cell_volume 766.623233
_symmetry_space_group_name_H-M "P -1"
_symmetry_group_IT_number 2
_symmetry_cell_setting 'triclinic'
loop_
_space_group_symop_operation_xyz
x,y,z
-x,-y,-z
loop_
_atom_site_type_symbol
_atom_site_label
_atom_site_fract_x
_atom_site_fract_y
_atom_site_fract_z
Si Si1 0.625001 0.841043 0.960565
Si Si2 0.678541 0.666217 0.711023
Si Si3 0.088767 0.084397 0.485924
Si Si4 0.528520 0.153448 0.668926
Si Si5 0.571749 0.362131 0.403974
Si Si6 0.804140 0.787061 0.368768
Si Si7 0.991404 0.477219 0.830338
Si Si8 0.052109 0.695718 0.730560
O O1 0.574522 0.795677 0.838523
O O2 0.844902 0.776796 0.873263
O O3 0.572175 0.785308 0.140847
O O4 0.500000 0.000000 0.000000
O O5 0.556476 0.627394 0.677920
O O6 0.786713 0.705385 0.535074
O O7 0.807964 0.556055 0.798577
O O8 0.117080 0.122734 0.632340
O O9 0.972045 0.224020 0.426602
O O10 0.292760 0.989272 0.354822
O O11 0.000000 0.000000 0.500000
O O12 0.574171 0.251691 0.538094
O O13 0.393789 0.131848 0.630479
O O14 0.500000 0.500000 0.500000
O O15 0.775654 0.313741 0.264949
O O16 0.923860 0.675552 0.215761
O O17 0.100186 0.545868 0.705915
O O18 0.000000 0.500000 0.000000
#
# Coordination Sequence:
#
# PCOD9023142 Si02
#       8
#     2   2   2   2   2   2   2   2
#     4  11  21  41  67  92 130 179 220 273 325 390
#     4  10  22  39  66  95 125 174 224 267 326 401
#     4  12  23  39  65 100 135 172 219 277 326 398
#     4  11  23  41  65  98 131 174 224 270 332 394
#     4  11  25  43  67  98 136 173 219 282 336 391
#     4  11  21  39  67  97 127 174 223 272 327 404
#     4  11  23  42  70  98 129 170 228 280 332 394
#     4  11  22  42  66  96 136 170 222 273 335 384
#
# _framework density 20.870747000000001
#
# number of rings (size 3 to 8) (size 9 to 14) (size 15 to 20)
#    0.000    1.000    5.000    3.750    1.750    1.000 
#    0.000    5.625    0.000    0.000    0.000    0.000 
#    0.000    0.000    0.000    0.000    0.000    0.000 
#
# Total GULP energy -89207.876430 kJ/mol
# GULP energy per Si atom -5575.492277 kJ/mol
# Density = 2.082324 g / cm^3
# Si number density = 20.870747 Si / 1000 Ang^3
#
#
#
# Elastic Constant Matrix: (Units=GPa)
#
#
# Indices 1 2 3 4 5 6 
#
# 1 183.5430 47.5868 47.0982 14.8332 27.0311 10.7454
# 2 47.5868 52.4346 18.2311 15.0133 8.6507 12.5871
# 3 47.0982 18.2311 90.2678 19.1414 23.7325 6.0610
# 4 14.8332 15.0133 19.1414 37.0686 1.9677 6.3186
# 5 27.0311 8.6507 23.7325 1.9677 28.9516 4.8045
# 6 10.7454 12.5871 6.0610 6.3186 4.8045 38.0571
#
#
#
# Elastic Compliance Matrix: (Units=1/GPa)
#
#
# Indices 1 2 3 4 5 6 
#
# 1 0.008135 -0.006249 -0.002008 0.000443 -0.004203 0.000547
# 2 -0.006249 0.028749 -0.000170 -0.007931 -0.001036 -0.006269
# 3 -0.002008 -0.000170 0.016623 -0.007213 -0.011310 0.000601
# 4 0.000443 -0.007931 -0.007213 0.033884 0.006021 -0.002739
# 5 -0.004203 -0.001036 -0.011310 0.006021 0.048260 -0.003762
# 6 0.000547 -0.006269 0.000601 -0.002739 -0.003762 0.029029
#
#
# Mechanical properties :
#
#
# Convention : Reuss Voigt Hill
#
# Bulk Modulus (GPa) = 27.28385 61.34196 44.31290
# Shear Modulus (GPa) = 25.80596 35.03744 30.42170
#
# Velocity S-wave (km/s) = 3.52016 4.10174 3.82203
# Velocity P-wave (km/s) = 5.44271 7.20330 6.38399
#
# Compressibility (1/GPa) = 0.03665172
#
# Stress axis : x y z
#
# Youngs Moduli (GPa) = 122.92536 34.78373 60.15750
#
# Poissons Ratio (x) = 0.21738 0.12079
# Poissons Ratio (y) = 0.76820 0.01025
# Poissons Ratio (z) = 0.24682 0.00593
#
# Static dielectric constant tensor:
#      x y z
#    x 1.774300 -0.006120 -0.024130 
#    y -0.006120 1.803070 -0.018500 
#    z -0.024130 -0.018500 1.800130 
# 
# From -- ./inp_files/178916.got.cif
#   From: 2010.05.17/outbox.cif.g08.bks.cpg/sg2_90_cif.got.tgz:178916.got - 2010.06.03 11:33:40.
