data_PCOD9023364
_publ_section_title
;
Structure prediction by ZEFSAII (Michael W. Deem and Ramdas Pophale) SiO2 
 PCOD9023364
Probable space group: P -1
;
_chemical_formula_sum "Si O2"
_cell_formula_units_Z 16
_cell_length_a 9.361178
_cell_length_b 9.784189
_cell_length_c 13.557395
_cell_angle_alpha 126.548264
_cell_angle_beta 79.075624
_cell_angle_gamma 64.554551
_cell_volume 711.040169
_symmetry_space_group_name_H-M "P -1"
_symmetry_group_IT_number 2
_symmetry_cell_setting 'triclinic'
loop_
_space_group_symop_operation_xyz
x,y,z
-x,-y,-z
loop_
_atom_site_type_symbol
_atom_site_label
_atom_site_fract_x
_atom_site_fract_y
_atom_site_fract_z
Si Si1 0.441568 0.624990 0.719043
Si Si2 0.424702 0.311223 0.696856
Si Si3 0.196144 0.646738 0.583447
Si Si4 0.309854 0.102571 0.002722
Si Si5 0.225077 0.839299 0.173621
Si Si6 0.358613 0.357095 0.952915
Si Si7 0.852114 0.964157 0.521904
Si Si8 0.084123 0.467366 0.659301
O O1 0.411585 0.526155 0.774393
O O2 0.323062 0.630089 0.647552
O O3 0.670874 0.450954 0.574810
O O4 0.353233 0.880964 0.860240
O O5 0.380148 0.291015 0.806037
O O6 0.263339 0.358689 0.665848
O O7 0.653816 0.092546 0.537458
O O8 0.154753 0.486485 0.553743
O O9 0.985813 0.914317 0.724893
O O10 0.284010 0.260225 0.985732
O O11 0.110025 0.275229 0.168221
O O12 0.500000 0.000000 0.000000
O O13 0.434443 0.744561 0.064417
O O14 0.246952 0.893053 0.303592
O O15 0.224951 0.635623 0.087796
O O16 0.958174 0.698731 0.407572
O O17 0.000000 0.000000 0.500000
#
# Coordination Sequence:
#
# PCOD9023364 Si02
#       8
#     2   2   2   2   2   2   2   2
#     4  10  25  44  69  98 136 181 230 275 345 400
#     4  10  24  45  72  98 138 183 226 286 332 413
#     4  10  23  45  69  99 134 179 228 285 333 408
#     4  12  28  43  67 102 140 178 225 289 336 413
#     4  10  22  39  68  91 131 179 220 276 338 404
#     4  10  24  43  66 101 134 176 226 277 345 402
#     4  11  23  41  67  99 135 179 228 281 339 403
#     4  11  26  43  70 103 136 182 231 279 347 400
#
# _framework density 22.502244000000001
#
# number of rings (size 3 to 8) (size 9 to 14) (size 15 to 20)
#    0.000    1.500    0.000    2.625   15.750    2.000 
#    4.500    0.000    0.000    0.000    0.000    0.000 
#    0.000    0.000    0.000    0.000    0.000    0.000 
#
# Total GULP energy -89359.038591 kJ/mol
# GULP energy per Si atom -5584.939912 kJ/mol
# Density = 2.245103 g / cm^3
# Si number density = 22.502244 Si / 1000 Ang^3
#
#
#
# Elastic Constant Matrix: (Units=GPa)
#
#
# Indices 1 2 3 4 5 6 
#
# 1 98.1476 38.0114 28.8199 12.4337 -8.0093 2.9103
# 2 38.0114 121.7916 41.2045 6.2139 -3.2476 13.4803
# 3 28.8199 41.2045 91.4865 22.4347 5.2304 10.2011
# 4 12.4337 6.2139 22.4347 39.9007 1.2067 0.4984
# 5 -8.0093 -3.2476 5.2304 1.2067 33.4506 16.0035
# 6 2.9103 13.4803 10.2011 0.4984 16.0035 48.2910
#
#
#
# Elastic Compliance Matrix: (Units=1/GPa)
#
#
# Indices 1 2 3 4 5 6 
#
# 1 0.012550 -0.002892 -0.002214 -0.002312 0.003440 -0.000597
# 2 -0.002892 0.010802 -0.004152 0.001519 0.002255 -0.002727
# 3 -0.002214 -0.004152 0.015559 -0.007320 -0.002595 -0.001059
# 4 -0.002312 0.001519 -0.007320 0.029675 -0.000938 0.001266
# 5 0.003440 0.002255 -0.002595 -0.000938 0.037448 -0.012689
# 6 -0.000597 -0.002727 -0.001059 0.001266 -0.012689 0.025921
#
#
# Mechanical properties :
#
#
# Convention : Reuss Voigt Hill
#
# Bulk Modulus (GPa) = 49.02759 58.61081 53.81920
# Shear Modulus (GPa) = 31.79253 37.88780 34.84017
#
# Velocity S-wave (km/s) = 3.76288 4.10778 3.93911
# Velocity P-wave (km/s) = 6.38077 6.97149 6.68266
#
# Compressibility (1/GPa) = 0.02039668
#
# Stress axis : x y z
#
# Youngs Moduli (GPa) = 79.67976 92.57161 64.26978
#
# Poissons Ratio (x) = 0.26773 0.14229
# Poissons Ratio (y) = 0.23044 0.26682
# Poissons Ratio (z) = 0.17641 0.38432
#
# Static dielectric constant tensor:
#      x y z
#    x 1.950820 -0.086480 -0.088770 
#    y -0.086480 1.789370 0.019730 
#    z -0.088770 0.019730 1.843580 
# 
# From -- ./inp_files/299152.got.cif
#   From: 2010.05.17/outbox.cif.g08.bks.cpg/sg2_150_cif.got.tgz:299152.got - 2010.06.03 11:33:40.
