data_PCOD9023392
_publ_section_title
;
Structure prediction by ZEFSAII (Michael W. Deem and Ramdas Pophale) SiO2 
 PCOD9023392
Probable space group: P -1
;
_chemical_formula_sum "Si O2"
_cell_formula_units_Z 14
_cell_length_a 20.269812
_cell_length_b 5.409967
_cell_length_c 4.988821
_cell_angle_alpha 81.738233
_cell_angle_beta 88.333263
_cell_angle_gamma 109.215786
_cell_volume 509.517892
_symmetry_space_group_name_H-M "P -1"
_symmetry_group_IT_number 2
_symmetry_cell_setting 'triclinic'
loop_
_space_group_symop_operation_xyz
x,y,z
-x,-y,-z
loop_
_atom_site_type_symbol
_atom_site_label
_atom_site_fract_x
_atom_site_fract_y
_atom_site_fract_z
Si Si1 0.592668 0.237002 0.197499
Si Si2 0.205651 0.209362 0.148858
Si Si3 0.951815 0.588600 0.282693
Si Si4 0.079416 0.922721 0.873045
Si Si5 0.270446 0.512136 0.624484
Si Si6 0.677442 0.000875 0.818631
Si Si7 0.541679 0.723732 0.666464
O O1 0.650787 0.477205 0.306967
O O2 0.519307 0.270409 0.120287
O O3 0.567972 0.996798 0.451403
O O4 0.635668 0.148974 0.977735
O O5 0.224709 0.458447 0.906371
O O6 0.127714 0.031245 0.109273
O O7 0.230828 0.308547 0.427862
O O8 0.258450 0.065570 0.054216
O O9 0.898261 0.304302 0.242306
O O10 0.000000 0.500000 0.500000
O O11 0.921739 0.820571 0.336254
O O12 0.001538 0.748141 0.008923
O O13 0.286114 0.803747 0.457647
O O14 0.615077 0.732408 0.782761
O O15 0.500000 0.500000 0.500000
#
# Coordination Sequence:
#
# PCOD9023392 Si02
#       7
#     2   2   2   2   2   2   2
#     4  10  22  42  65  99 133 184 236 306 362 429
#     4  12  28  44  73 105 141 195 238 290 370 435
#     4  10  22  46  74 108 150 190 245 302 363 425
#     4  10  25  43  72 111 146 193 247 300 360 441
#     4  11  26  46  67  99 144 182 239 296 357 438
#     4  11  25  44  70  97 144 182 240 303 367 438
#     4  10  22  39  68  96 133 182 238 299 371 433
#
# _framework density 27.476955
#
# number of rings (size 3 to 8) (size 9 to 14) (size 15 to 20)
#    0.000    1.429    1.429    1.714   10.000    1.714 
#    0.000    0.000    0.000    0.000    0.000    0.000 
#    0.000    0.000    0.000    0.000    0.000    0.000 
#
# Total GULP energy -78328.686769 kJ/mol
# GULP energy per Si atom -5594.906198 kJ/mol
# Density = 2.741442 g / cm^3
# Si number density = 27.476955 Si / 1000 Ang^3
#
#
#
# Elastic Constant Matrix: (Units=GPa)
#
#
# Indices 1 2 3 4 5 6 
#
# 1 124.3254 54.2462 18.5198 12.2537 24.4862 0.1787
# 2 54.2462 162.3916 28.7665 18.0626 20.1849 5.9731
# 3 18.5198 28.7665 93.8687 11.0589 13.4837 -4.7833
# 4 12.2537 18.0626 11.0589 53.2422 5.0056 14.0220
# 5 24.4862 20.1849 13.4837 5.0056 43.1922 3.1767
# 6 0.1787 5.9731 -4.7833 14.0220 3.1767 47.5687
#
#
#
# Elastic Compliance Matrix: (Units=1/GPa)
#
#
# Indices 1 2 3 4 5 6 
#
# 1 0.010261 -0.002720 -0.000379 -0.001189 -0.004356 0.000906
# 2 -0.002720 0.007677 -0.001486 -0.001381 -0.001377 -0.000604
# 3 -0.000379 -0.001486 0.011950 -0.002221 -0.002728 0.002226
# 4 -0.001189 -0.001381 -0.002221 0.021683 -0.000027 -0.006435
# 5 -0.004356 -0.001377 -0.002728 -0.000027 0.027260 -0.001898
# 6 0.000906 -0.000604 0.002226 -0.006435 -0.001898 0.023342
#
#
# Mechanical properties :
#
#
# Convention : Reuss Voigt Hill
#
# Bulk Modulus (GPa) = 48.26778 64.85008 56.55893
# Shear Modulus (GPa) = 42.28391 47.40418 44.84405
#
# Velocity S-wave (km/s) = 3.92712 4.15810 4.04426
# Velocity P-wave (km/s) = 6.17801 6.83417 6.51436
#
# Compressibility (1/GPa) = 0.02071775
#
# Stress axis : x y z
#
# Youngs Moduli (GPa) = 97.46113 130.26198 83.68004
#
# Poissons Ratio (x) = 0.35431 0.03169
# Poissons Ratio (y) = 0.26509 0.12437
# Poissons Ratio (z) = 0.03691 0.19360
#
# Static dielectric constant tensor:
#      x y z
#    x 2.192810 -0.064920 0.023450 
#    y -0.064920 2.205350 0.048600 
#    z 0.023450 0.048600 2.211470 
# 
# From -- ./inp_files/114017.got.cif
#   From: 2010.05.17/outbox.cif.g08.bks.cpg/sg2_58_cif.got.tgz:114017.got - 2010.06.03 11:33:40.
