data_PCOD9023160
_publ_section_title
;
Structure prediction by ZEFSAII (Michael W. Deem and Ramdas Pophale) SiO2 
 PCOD9023160
Probable space group: P -1
;
_chemical_formula_sum "Si O2"
_cell_formula_units_Z 14
_cell_length_a 6.016504
_cell_length_b 14.267822
_cell_length_c 11.845199
_cell_angle_alpha 44.222374
_cell_angle_beta 115.058096
_cell_angle_gamma 116.706050
_cell_volume 625.065912
_symmetry_space_group_name_H-M "P -1"
_symmetry_group_IT_number 2
_symmetry_cell_setting 'triclinic'
loop_
_space_group_symop_operation_xyz
x,y,z
-x,-y,-z
loop_
_atom_site_type_symbol
_atom_site_label
_atom_site_fract_x
_atom_site_fract_y
_atom_site_fract_z
Si Si1 0.751144 0.940269 0.076588
Si Si2 0.668809 0.716361 0.856412
Si Si3 0.086356 0.463977 0.427332
Si Si4 0.923877 0.992758 0.318552
Si Si5 0.308949 0.901306 0.627889
Si Si6 0.401662 0.536337 0.773249
Si Si7 0.518487 0.640307 0.268463
O O1 0.627403 0.793785 0.119703
O O2 0.859156 0.933219 0.232477
O O3 0.500000 0.000000 0.000000
O O4 0.000000 0.000000 0.000000
O O5 0.409565 0.764474 0.784513
O O6 0.624895 0.646222 0.784488
O O7 0.888378 0.854544 0.787348
O O8 0.689900 0.593906 0.050560
O O9 0.234402 0.607102 0.279898
O O10 0.298064 0.380514 0.570761
O O11 0.000000 0.500000 0.500000
O O12 0.837650 0.399260 0.360579
O O13 0.697832 0.024157 0.317952
O O14 0.048887 0.896266 0.510162
O O15 0.500000 0.000000 0.500000
O O16 0.476248 0.470520 0.731787
#
# Coordination Sequence:
#
# PCOD9023160 Si02
#       7
#     2   2   2   2   2   2   2
#     4  12  30  46  76 112 143 193 233 296 364 429
#     4  10  22  39  66  96 130 173 228 292 351 411
#     4   9  21  42  64  91 130 180 229 290 339 417
#     4  10  23  44  66  97 136 180 233 286 356 422
#     4   9  21  42  64  91 130 180 229 290 339 417
#     4  10  22  39  66  96 130 173 228 292 351 411
#     4  10  23  44  66  97 136 180 233 286 356 422
#
# _framework density 22.397635000000001
#
# number of rings (size 3 to 8) (size 9 to 14) (size 15 to 20)
#    0.000    2.000    0.000    0.857   14.000    1.143 
#   20.571    2.857    0.000    0.000    0.000    0.000 
#    0.000    0.000    0.000    0.000    0.000    0.000 
#
# Total GULP energy -78041.174719 kJ/mol
# GULP energy per Si atom -5574.369623 kJ/mol
# Density = 2.234666 g / cm^3
# Si number density = 22.397635 Si / 1000 Ang^3
#
#
#
# Elastic Constant Matrix: (Units=GPa)
#
#
# Indices 1 2 3 4 5 6 
#
# 1 99.1704 25.0968 13.0594 2.6450 -17.0171 -10.5925
# 2 25.0968 95.3658 6.1117 12.2729 -5.8543 -10.9620
# 3 13.0594 6.1117 37.3093 14.3344 6.1403 -3.9679
# 4 2.6450 12.2729 14.3344 37.3164 -1.8030 -6.5961
# 5 -17.0171 -5.8543 6.1403 -1.8030 35.9239 -0.2540
# 6 -10.5925 -10.9620 -3.9679 -6.5961 -0.2540 30.4366
#
#
#
# Elastic Compliance Matrix: (Units=1/GPa)
#
#
# Indices 1 2 3 4 5 6 
#
# 1 0.013055 -0.002622 -0.006172 0.003276 0.007001 0.003563
# 2 -0.002622 0.011925 0.000491 -0.003424 0.000465 0.002708
# 3 -0.006172 0.000491 0.035818 -0.014025 -0.009673 -0.000422
# 4 0.003276 -0.003424 -0.014025 0.034310 0.005152 0.005557
# 5 0.007001 0.000465 -0.009673 0.005152 0.033160 0.002736
# 6 0.003563 0.002708 -0.000422 0.005557 0.002736 0.036243
#
#
# Mechanical properties :
#
#
# Convention : Reuss Voigt Hill
#
# Bulk Modulus (GPa) = 22.62837 35.59793 29.11315
# Shear Modulus (GPa) = 25.53015 33.24056 29.38536
#
# Velocity S-wave (km/s) = 3.37984 3.85659 3.62606
# Velocity P-wave (km/s) = 5.03548 5.97990 5.52790
#
# Compressibility (1/GPa) = 0.04419231
#
# Stress axis : x y z
#
# Youngs Moduli (GPa) = 76.60191 83.85777 27.91869
#
# Poissons Ratio (x) = 0.21990 0.17231
# Poissons Ratio (y) = 0.20087 -0.01372
# Poissons Ratio (z) = 0.47278 -0.04121
#
# Static dielectric constant tensor:
#      x y z
#    x 1.909510 0.009970 0.033030 
#    y 0.009970 1.808460 -0.007870 
#    z 0.033030 -0.007870 1.885700 
# 
# From -- ./inp_files/70120.got.cif
#   From: 2010.05.17/outbox.cif.g08.bks.cpg/sg2_36_cif.got.tgz:70120.got - 2010.06.03 11:33:40.
