data_PCOD9023026
_publ_section_title
;
Structure prediction by ZEFSAII (Michael W. Deem and Ramdas Pophale) SiO2 
 PCOD9023026
Probable space group: P -1
;
_chemical_formula_sum "Si O2"
_cell_formula_units_Z 12
_cell_length_a 9.141437
_cell_length_b 8.999479
_cell_length_c 12.450709
_cell_angle_alpha 48.009800
_cell_angle_beta 35.980160
_cell_angle_gamma 56.220373
_cell_volume 447.027286
_symmetry_space_group_name_H-M "P -1"
_symmetry_group_IT_number 2
_symmetry_cell_setting 'triclinic'
loop_
_space_group_symop_operation_xyz
x,y,z
-x,-y,-z
loop_
_atom_site_type_symbol
_atom_site_label
_atom_site_fract_x
_atom_site_fract_y
_atom_site_fract_z
Si Si1 0.270134 0.930191 0.529522
Si Si2 0.650676 0.301495 0.970367
Si Si3 0.133177 0.692795 0.936065
Si Si4 0.142230 0.794537 0.321424
Si Si5 0.214406 0.223700 0.129897
Si Si6 0.454073 0.295418 0.687811
O O1 0.509355 0.870000 0.348580
O O2 0.060734 0.809615 0.644621
O O3 0.259023 0.824773 0.704472
O O4 0.148508 0.155061 0.499994
O O5 0.792252 0.236910 0.024210
O O6 0.832322 0.321096 0.750102
O O7 0.500000 0.500000 0.000000
O O8 0.430718 0.180327 0.106309
O O9 0.218592 0.458278 0.985895
O O10 0.833917 0.699565 0.107546
O O11 0.346438 0.718847 0.324293
O O12 0.219835 0.026932 0.146272
O O13 0.500000 0.500000 0.500000
#
# Coordination Sequence:
#
# PCOD9023026 Si02
#       6
#     2   2   2   2   2   2
#     4  10  23  41  69  92 131 166 220 260 313 382
#     4  10  22  39  65  97 133 169 207 267 328 383
#     4  11  23  41  66 101 131 166 214 262 328 377
#     4  10  23  41  64  97 124 174 221 257 319 385
#     4   9  20  40  66  91 125 174 213 259 311 384
#     4  12  24  40  69  96 126 172 222 267 311 382
#
# _framework density 26.843997999999999
#
# number of rings (size 3 to 8) (size 9 to 14) (size 15 to 20)
#    1.000    0.667    1.667    2.500    7.000    0.667 
#    0.000    3.333    0.000    0.000    0.000    0.000 
#    0.000    0.000    0.000    0.000    0.000    0.000 
#
# Total GULP energy -66948.941804 kJ/mol
# GULP energy per Si atom -5579.078484 kJ/mol
# Density = 2.678290 g / cm^3
# Si number density = 26.843998 Si / 1000 Ang^3
#
#
#
# Elastic Constant Matrix: (Units=GPa)
#
#
# Indices 1 2 3 4 5 6 
#
# 1 143.8537 37.9903 40.1801 11.8314 48.7872 -12.0598
# 2 37.9903 157.0214 65.4731 30.0580 29.6741 -14.4842
# 3 40.1801 65.4731 84.6026 15.9362 40.3991 -10.1894
# 4 11.8314 30.0580 15.9362 61.8876 4.5706 14.2062
# 5 48.7872 29.6741 40.3991 4.5706 42.3041 -7.5157
# 6 -12.0598 -14.4842 -10.1894 14.2062 -7.5157 48.0706
#
#
#
# Elastic Compliance Matrix: (Units=1/GPa)
#
#
# Indices 1 2 3 4 5 6 
#
# 1 0.011840 -0.000588 0.002698 -0.001890 -0.015344 0.001525
# 2 -0.000588 0.010247 -0.007239 -0.003716 0.001285 0.002705
# 3 0.002698 -0.007239 0.028784 -0.002931 -0.024927 0.001566
# 4 -0.001890 -0.003716 -0.002931 0.020542 0.004005 -0.007660
# 5 -0.015344 0.001285 -0.024927 0.004005 0.063814 0.000047
# 6 0.001525 0.002705 0.001566 -0.007660 0.000047 0.024603
#
#
# Mechanical properties :
#
#
# Convention : Reuss Voigt Hill
#
# Bulk Modulus (GPa) = 24.62112 74.75164 49.68638
# Shear Modulus (GPa) = 27.22936 46.57474 36.90205
#
# Velocity S-wave (km/s) = 3.18835 4.16987 3.71170
# Velocity P-wave (km/s) = 4.76927 7.14779 6.07605
#
# Compressibility (1/GPa) = 0.04061554
#
# Stress axis : x y z
#
# Youngs Moduli (GPa) = 84.45811 97.58731 34.74099
#
# Poissons Ratio (x) = 0.05734 -0.09374
# Poissons Ratio (y) = 0.04962 0.25148
# Poissons Ratio (z) = -0.22788 0.70641
#
# Static dielectric constant tensor:
#      x y z
#    x 2.193110 -0.008880 -0.058460 
#    y -0.008880 2.142960 0.048230 
#    z -0.058460 0.048230 2.334130 
# 
# From -- ./inp_files/381172.got.cif
#   From: 2010.05.17/outbox.cif.g08.bks.cpg/sg2_191_cif.got.tgz:381172.got - 2010.06.03 11:33:40.
