data_PCOD9023639
_publ_section_title
;
Structure prediction by ZEFSAII (Michael W. Deem and Ramdas Pophale) SiO2 
 PCOD9023639
Probable space group: P -1
;
_chemical_formula_sum "Si O2"
_cell_formula_units_Z 15
_cell_length_a 12.611965
_cell_length_b 11.715957
_cell_length_c 17.857567
_cell_angle_alpha 150.053148
_cell_angle_beta 137.323115
_cell_angle_gamma 66.534669
_cell_volume 632.518329
_symmetry_space_group_name_H-M "P -1"
_symmetry_group_IT_number 2
_symmetry_cell_setting 'triclinic'
loop_
_space_group_symop_operation_xyz
x,y,z
-x,-y,-z
loop_
_atom_site_type_symbol
_atom_site_label
_atom_site_fract_x
_atom_site_fract_y
_atom_site_fract_z
Si Si1 0.023800 0.943533 0.564303
Si Si2 0.146641 0.773773 0.295729
Si Si3 0.285727 0.594492 0.394265
Si Si4 0.885485 0.655331 0.673802
Si Si5 0.716652 0.231272 0.059278
Si Si6 0.472332 0.414616 0.613036
Si Si7 0.500000 0.000000 0.500000
Si Si8 0.602797 0.912208 0.079514
O O1 0.863918 0.565995 0.282255
O O2 0.954345 0.084259 0.660044
O O3 0.000000 0.000000 0.500000
O O4 0.267756 0.110617 0.806152
O O5 0.147651 0.624768 0.287222
O O6 0.388702 0.022524 0.527255
O O7 0.000000 0.500000 0.000000
O O8 0.156746 0.377150 0.277096
O O9 0.389581 0.513243 0.347260
O O10 0.497353 0.944664 0.736993
O O11 0.772643 0.755919 0.633951
O O12 0.134652 0.839023 0.892425
O O13 0.744796 0.290025 0.363474
O O14 0.634273 0.261641 0.110308
O O15 0.469775 0.196362 0.542693
O O16 0.586284 0.743576 0.901539
#
# Coordination Sequence:
#
# PCOD9023639 Si02
#       8
#     2   2   2   2   2   2   1   2
#     4  11  22  37  63  91 123 170 211 255 314 376
#     4  11  23  41  64  92 127 167 211 261 316 373
#     4  10  23  41  63  91 125 165 210 262 313 371
#     4  10  22  42  66  91 122 167 213 259 315 373
#     4  10  22  40  59  89 127 163 212 259 311 377
#     4  11  22  41  66  92 128 165 206 261 318 374
#     4  10  24  40  60  94 128 160 198 250 316 374
#     4  10  22  41  63  91 124 161 211 265 313 367
#
# _framework density 23.714728999999998
#
# number of rings (size 3 to 8) (size 9 to 14) (size 15 to 20)
#    0.000    1.600    0.000    5.600    0.000    9.600 
#    0.000   12.000    0.000    0.000    0.000    0.000 
#    0.000    0.000    0.000    0.000    0.000    0.000 
#
# Total GULP energy -83767.321171 kJ/mol
# GULP energy per Si atom -5584.488078 kJ/mol
# Density = 2.366075 g / cm^3
# Si number density = 23.714729 Si / 1000 Ang^3
#
#
#
# Elastic Constant Matrix: (Units=GPa)
#
#
# Indices 1 2 3 4 5 6 
#
# 1 153.9628 56.2886 17.3805 1.7617 -19.1641 -22.0161
# 2 56.2886 168.2713 36.8740 -11.1095 4.3884 -17.8791
# 3 17.3805 36.8740 61.7290 -4.8753 -14.2967 -1.4611
# 4 1.7617 -11.1095 -4.8753 30.1880 -2.7450 5.3159
# 5 -19.1641 4.3884 -14.2967 -2.7450 35.7170 -4.0891
# 6 -22.0161 -17.8791 -1.4611 5.3159 -4.0891 39.4702
#
#
#
# Elastic Compliance Matrix: (Units=1/GPa)
#
#
# Indices 1 2 3 4 5 6 
#
# 1 0.008852 -0.002858 0.000497 -0.001762 0.005678 0.004487
# 2 -0.002858 0.008369 -0.005010 0.001815 -0.004276 0.001324
# 3 0.000497 -0.005010 0.021468 0.002565 0.009610 -0.000548
# 4 -0.001762 0.001815 0.002565 0.035308 0.002044 -0.004609
# 5 0.005678 -0.004276 0.009610 0.002044 0.036152 0.005056
# 6 0.004487 0.001324 -0.000548 -0.004609 0.005056 0.029562
#
#
# Mechanical properties :
#
#
# Convention : Reuss Voigt Hill
#
# Bulk Modulus (GPa) = 41.75903 67.22769 54.49336
# Shear Modulus (GPa) = 30.78132 39.30303 35.04217
#
# Velocity S-wave (km/s) = 3.60666 4.07544 3.84820
# Velocity P-wave (km/s) = 5.91533 7.11025 6.54014
#
# Compressibility (1/GPa) = 0.02394692
#
# Stress axis : x y z
#
# Youngs Moduli (GPa) = 112.96439 119.49438 46.58110
#
# Poissons Ratio (x) = 0.34148 -0.02314
# Poissons Ratio (y) = 0.32282 0.23337
# Poissons Ratio (z) = -0.05611 0.59866
#
# Static dielectric constant tensor:
#      x y z
#    x 1.844120 -0.046880 0.012660 
#    y -0.046880 1.845720 -0.010020 
#    z 0.012660 -0.010020 1.953050 
# 
# From -- ./inp_files/569041.got.cif
#   From: 2010.05.17/outbox.cif.g08.bks.cpg/sg2_285_cif.got.tgz:569041.got - 2010.06.03 11:33:40.
