data_PCOD9023239
_publ_section_title
;
Structure prediction by ZEFSAII (Michael W. Deem and Ramdas Pophale) SiO2 
 PCOD9023239
Probable space group: P -1
;
_chemical_formula_sum "Si O2"
_cell_formula_units_Z 14
_cell_length_a 9.024500
_cell_length_b 18.852348
_cell_length_c 9.024501
_cell_angle_alpha 137.218323
_cell_angle_beta 50.140758
_cell_angle_gamma 112.964011
_cell_volume 790.962698
_symmetry_space_group_name_H-M "P -1"
_symmetry_group_IT_number 2
_symmetry_cell_setting 'triclinic'
loop_
_space_group_symop_operation_xyz
x,y,z
-x,-y,-z
loop_
_atom_site_type_symbol
_atom_site_label
_atom_site_fract_x
_atom_site_fract_y
_atom_site_fract_z
Si Si1 0.031059 0.292427 0.009410
Si Si2 0.144184 0.692475 0.529135
Si Si3 0.461768 0.100241 0.068561
Si Si4 0.131921 0.899759 0.337750
Si Si5 0.102232 0.478021 0.058274
Si Si6 0.424556 0.292427 0.615913
Si Si7 0.971690 0.897688 0.767067
O O1 0.264861 0.261401 0.787663
O O2 0.927208 0.204642 0.860679
O O3 0.986828 0.403888 0.121257
O O4 0.967015 0.303151 0.235861
O O5 0.121847 0.585845 0.293538
O O6 0.370442 0.696848 0.426681
O O7 0.056372 0.793165 0.642701
O O8 0.643331 0.095021 0.833373
O O9 0.451395 0.204642 0.336493
O O10 0.256036 0.101032 0.121323
O O11 0.500000 0.000000 0.000000
O O12 0.080741 0.898968 0.541900
O O13 0.000000 0.000000 0.500000
O O14 0.313481 0.403888 0.794604
O O15 0.000000 0.500000 0.000000
O O16 0.000000 0.000000 0.000000
#
# Coordination Sequence:
#
# PCOD9023239 Si02
#       7
#     2   2   2   2   2   2   2
#     4  10  22  39  67  92 125 166 213 255 321 365
#     4  12  22  42  65  94 131 167 213 264 313 375
#     4  12  22  41  67  91 126 168 212 260 319 376
#     4  12  22  41  67  91 126 168 212 260 319 376
#     4  10  22  42  64  92 132 167 211 264 313 373
#     4  10  22  39  67  92 125 166 213 255 321 365
#     4  12  26  40  64  98 130 166 208 266 314 380
#
# _framework density 17.699949
#
# number of rings (size 3 to 8) (size 9 to 14) (size 15 to 20)
#    0.857    0.000    4.286    4.286    0.000    1.714 
#    0.000    0.714    0.000    0.000    0.000    0.000 
#    0.000    0.000    0.000    0.000    0.000    0.000 
#
# Total GULP energy -78171.239876 kJ/mol
# GULP energy per Si atom -5583.659991 kJ/mol
# Density = 1.765966 g / cm^3
# Si number density = 17.699949 Si / 1000 Ang^3
#
#
#
# Elastic Constant Matrix: (Units=GPa)
#
#
# Indices 1 2 3 4 5 6 
#
# 1 175.4933 95.2384 92.5736 -0.3238 -0.8758 1.5744
# 2 95.2384 149.9839 89.8480 -2.4465 1.5329 -7.8946
# 3 92.5736 89.8480 159.7393 3.3515 15.1004 0.4317
# 4 -0.3238 -2.4465 3.3515 59.3782 8.6896 -5.0944
# 5 -0.8758 1.5329 15.1004 8.6896 42.6224 1.6897
# 6 1.5744 -7.8946 0.4317 -5.0944 1.6897 44.2813
#
#
#
# Elastic Compliance Matrix: (Units=1/GPa)
#
#
# Indices 1 2 3 4 5 6 
#
# 1 0.009861 -0.004271 -0.003463 -0.000274 0.001686 -0.001174
# 2 -0.004271 0.012200 -0.004487 0.000825 0.000798 0.002435
# 3 -0.003463 -0.004487 0.011156 -0.000341 -0.003766 -0.000681
# 4 -0.000274 0.000825 -0.000341 0.017619 -0.003599 0.002324
# 5 0.001686 0.000798 -0.003766 -0.003599 0.025586 -0.001271
# 6 -0.001174 0.002435 -0.000681 0.002324 -0.001271 0.023381
#
#
# Mechanical properties :
#
#
# Convention : Reuss Voigt Hill
#
# Bulk Modulus (GPa) = 113.94268 115.61518 114.77893
# Shear Modulus (GPa) = 39.31742 43.09347 41.20545
#
# Velocity S-wave (km/s) = 4.71821 4.93959 4.83017
# Velocity P-wave (km/s) = 9.70548 9.89919 9.80281
#
# Compressibility (1/GPa) = 0.00877634
#
# Stress axis : x y z
#
# Youngs Moduli (GPa) = 101.40854 81.96426 89.63947
#
# Poissons Ratio (x) = 0.35004 0.31043
# Poissons Ratio (y) = 0.43308 0.40219
# Poissons Ratio (z) = 0.35119 0.36775
#
# Static dielectric constant tensor:
#      x y z
#    x 1.567340 0.011270 -0.017290 
#    y 0.011270 1.598890 -0.004970 
#    z -0.017290 -0.004970 1.593490 
# 
# From -- ./inp_files/216092.got.cif
#   From: 2010.05.17/outbox.cif.g08.bks.cpg/sg2_109_cif.got.tgz:216092.got - 2010.06.03 11:33:40.
