data_PCOD9023250
_publ_section_title
;
Structure prediction by ZEFSAII (Michael W. Deem and Ramdas Pophale) SiO2 
 PCOD9023250
Probable space group: P -1
;
_chemical_formula_sum "Si O2"
_cell_formula_units_Z 16
_cell_length_a 9.502033
_cell_length_b 12.358290
_cell_length_c 18.060313
_cell_angle_alpha 129.624584
_cell_angle_beta 150.209424
_cell_angle_gamma 58.256073
_cell_volume 809.511391
_symmetry_space_group_name_H-M "P -1"
_symmetry_group_IT_number 2
_symmetry_cell_setting 'triclinic'
loop_
_space_group_symop_operation_xyz
x,y,z
-x,-y,-z
loop_
_atom_site_type_symbol
_atom_site_label
_atom_site_fract_x
_atom_site_fract_y
_atom_site_fract_z
Si Si1 0.842601 0.116216 0.930660
Si Si2 0.760309 0.014300 0.458112
Si Si3 0.114798 0.908275 0.710092
Si Si4 0.160594 0.387325 0.223329
Si Si5 0.723029 0.856787 0.991200
Si Si6 0.794689 0.619138 0.485674
Si Si7 0.429056 0.673947 0.488806
Si Si8 0.286654 0.444584 0.134276
O O1 0.524184 0.066304 0.740493
O O2 0.893289 0.273003 0.058286
O O3 0.016355 0.135045 0.942183
O O4 0.000000 0.000000 0.000000
O O5 0.903048 0.955845 0.571482
O O6 0.681973 0.173850 0.508533
O O7 0.000000 0.000000 0.500000
O O8 0.438121 0.878698 0.823125
O O9 0.962439 0.766783 0.612041
O O10 0.185528 0.024981 0.855753
O O11 0.171927 0.551711 0.323245
O O12 0.403677 0.326006 0.357640
O O13 0.254475 0.403158 0.187895
O O14 0.662186 0.708147 0.941665
O O15 0.655261 0.630863 0.509689
O O16 0.522009 0.572453 0.290566
O O17 0.000000 0.500000 0.500000
O O18 0.000000 0.500000 0.000000
#
# Coordination Sequence:
#
# PCOD9023250 Si02
#       8
#     2   2   2   2   2   2   2   2
#     4  11  21  40  67  94 127 169 219 264 331 390
#     4  12  27  43  66  96 135 173 219 276 322 389
#     4  11  25  40  63  97 132 171 224 271 322 389
#     4   9  21  39  68  90 125 171 219 262 324 388
#     4  10  23  43  64  90 132 176 213 269 330 389
#     4  11  23  42  67  97 127 171 217 269 326 391
#     4  10  22  42  67  96 129 174 218 264 329 387
#     4  10  22  39  67  93 131 169 216 269 331 386
#
# _framework density 19.765008000000002
#
# number of rings (size 3 to 8) (size 9 to 14) (size 15 to 20)
#    0.000    1.500    2.500    1.500    8.750    2.000 
#    0.000    0.625    0.000    0.000    0.000    0.000 
#    0.000    0.000    0.000    0.000    0.000    0.000 
#
# Total GULP energy -89076.606308 kJ/mol
# GULP energy per Si atom -5567.287894 kJ/mol
# Density = 1.972002 g / cm^3
# Si number density = 19.765008 Si / 1000 Ang^3
#
#
#
# Elastic Constant Matrix: (Units=GPa)
#
#
# Indices 1 2 3 4 5 6 
#
# 1 58.2695 26.0366 29.8067 -11.1758 1.5336 0.2050
# 2 26.0366 109.8233 76.2242 4.0379 -10.1876 3.8540
# 3 29.8067 76.2242 208.4642 8.9324 12.3808 2.6229
# 4 -11.1758 4.0379 8.9324 38.7181 -3.0170 6.1412
# 5 1.5336 -10.1876 12.3808 -3.0170 26.0882 -0.4008
# 6 0.2050 3.8540 2.6229 6.1412 -0.4008 19.2787
#
#
#
# Elastic Compliance Matrix: (Units=1/GPa)
#
#
# Indices 1 2 3 4 5 6 
#
# 1 0.021319 -0.004181 -0.001732 0.007121 -0.001263 -0.001450
# 2 -0.004181 0.014528 -0.005157 -0.000603 0.008269 -0.001794
# 3 -0.001732 -0.005157 0.007352 -0.002198 -0.005646 0.000632
# 4 0.007121 -0.000603 -0.002198 0.030204 0.003741 -0.009200
# 5 -0.001263 0.008269 -0.005646 0.003741 0.044729 -0.001133
# 6 -0.001450 -0.001794 0.000632 -0.009200 -0.001133 0.055066
#
#
# Mechanical properties :
#
#
# Convention : Reuss Voigt Hill
#
# Bulk Modulus (GPa) = 47.48142 71.18799 59.33470
# Shear Modulus (GPa) = 24.70874 33.11630 28.91252
#
# Velocity S-wave (km/s) = 3.53955 4.09773 3.82882
# Velocity P-wave (km/s) = 6.38589 7.64748 7.04498
#
# Compressibility (1/GPa) = 0.02106087
#
# Stress axis : x y z
#
# Youngs Moduli (GPa) = 46.90550 68.83121 136.02124
#
# Poissons Ratio (x) = 0.28776 0.23553
# Poissons Ratio (y) = 0.19610 0.70148
# Poissons Ratio (z) = 0.08122 0.35497
#
# Static dielectric constant tensor:
#      x y z
#    x 1.748730 -0.045060 -0.003470 
#    y -0.045060 1.759090 0.055780 
#    z -0.003470 0.055780 1.751540 
# 
# From -- ./inp_files/494823.got.cif
#   From: 2010.05.17/outbox.cif.g08.bks.cpg/sg2_248_cif.got.tgz:494823.got - 2010.06.03 11:33:40.
