data_PCOD9023984
_publ_section_title
;
Structure prediction by ZEFSAII (Michael W. Deem and Ramdas Pophale) SiO2 
 PCOD9023984
Probable space group: P -1
;
_chemical_formula_sum "Si O2"
_cell_formula_units_Z 16
_cell_length_a 8.892504
_cell_length_b 10.320732
_cell_length_c 12.089841
_cell_angle_alpha 128.409792
_cell_angle_beta 116.098419
_cell_angle_gamma 75.299338
_cell_volume 780.495784
_symmetry_space_group_name_H-M "P -1"
_symmetry_group_IT_number 2
_symmetry_cell_setting 'triclinic'
loop_
_space_group_symop_operation_xyz
x,y,z
-x,-y,-z
loop_
_atom_site_type_symbol
_atom_site_label
_atom_site_fract_x
_atom_site_fract_y
_atom_site_fract_z
Si Si1 0.782606 0.648820 0.458081
Si Si2 0.386541 0.023458 0.367552
Si Si3 0.151455 0.639608 0.508776
Si Si4 0.065638 0.464910 0.159508
Si Si5 0.473744 0.481254 0.852183
Si Si6 0.413168 0.934013 0.762397
Si Si7 0.807245 0.295786 0.849919
Si Si8 0.361423 0.221226 0.058922
O O1 0.678209 0.791208 0.556077
O O2 0.775657 0.485071 0.443669
O O3 0.697370 0.603542 0.289430
O O4 0.975456 0.701272 0.531414
O O5 0.495339 0.991741 0.276602
O O6 0.500000 0.000000 0.500000
O O7 0.226411 0.898164 0.255763
O O8 0.106554 0.529942 0.328579
O O9 0.281380 0.789534 0.608220
O O10 0.079090 0.626189 0.169556
O O11 0.203202 0.331223 0.096829
O O12 0.887884 0.374147 0.028737
O O13 0.624930 0.365859 0.803504
O O14 0.506207 0.655124 0.893726
O O15 0.500000 0.500000 0.000000
O O16 0.552828 0.854914 0.845551
O O17 0.325833 0.073323 0.882141
#
# Coordination Sequence:
#
# PCOD9023984 Si02
#       8
#     2   2   2   2   2   2   2   2
#     4  11  25  41  65  98 130 169 223 266 324 387
#     4  12  24  42  65 100 130 172 218 271 328 383
#     4  11  24  44  65  95 130 175 215 271 322 389
#     4  10  22  43  67  93 128 174 214 265 331 384
#     4  11  20  39  65  88 129 174 215 266 319 389
#     4  11  24  42  65  95 133 170 218 268 326 387
#     4  10  22  40  62  94 129 162 219 262 320 398
#     4  10  23  40  65  97 125 173 217 265 326 387
#
# _framework density 20.499790000000001
#
# number of rings (size 3 to 8) (size 9 to 14) (size 15 to 20)
#    0.000    1.250    2.500    3.000    3.500    1.000 
#    2.250    2.500    0.000    0.000    0.000    0.000 
#    0.000    0.000    0.000    0.000    0.000    0.000 
#
# Total GULP energy -89394.357753 kJ/mol
# GULP energy per Si atom -5587.147360 kJ/mol
# Density = 2.045313 g / cm^3
# Si number density = 20.499790 Si / 1000 Ang^3
#
#
#
# Elastic Constant Matrix: (Units=GPa)
#
#
# Indices 1 2 3 4 5 6 
#
# 1 40.3363 14.4738 19.9132 6.8786 0.0416 -3.0894
# 2 14.4738 42.4522 23.1205 -6.0685 4.6056 3.5051
# 3 19.9132 23.1205 123.5791 -4.7141 6.1718 2.3115
# 4 6.8786 -6.0685 -4.7141 31.1524 9.1673 -5.1943
# 5 0.0416 4.6056 6.1718 9.1673 33.7598 1.1397
# 6 -3.0894 3.5051 2.3115 -5.1943 1.1397 27.8047
#
#
#
# Elastic Compliance Matrix: (Units=1/GPa)
#
#
# Indices 1 2 3 4 5 6 
#
# 1 0.032985 -0.011531 -0.003898 -0.011110 0.005155 0.003156
# 2 -0.011531 0.031570 -0.003322 0.009516 -0.006170 -0.002954
# 3 -0.003898 -0.003322 0.009522 0.002145 -0.001854 -0.000329
# 4 -0.011110 0.009516 0.002145 0.041551 -0.013152 0.005689
# 5 0.005155 -0.006170 -0.001854 -0.013152 0.034446 -0.002364
# 6 0.003156 -0.002954 -0.000329 0.005689 -0.002364 0.037875
#
#
# Mechanical properties :
#
#
# Convention : Reuss Voigt Hill
#
# Bulk Modulus (GPa) = 27.34112 35.70917 31.52514
# Shear Modulus (GPa) = 21.03998 28.46740 24.75369
#
# Velocity S-wave (km/s) = 3.20715 3.73053 3.47869
# Velocity P-wave (km/s) = 5.20390 6.00107 5.61665
#
# Compressibility (1/GPa) = 0.03657495
#
# Stress axis : x y z
#
# Youngs Moduli (GPa) = 30.31717 31.67541 105.01767
#
# Poissons Ratio (x) = 0.36525 0.40936
# Poissons Ratio (y) = 0.34959 0.34887
# Poissons Ratio (z) = 0.11818 0.10523
#
# Static dielectric constant tensor:
#      x y z
#    x 1.726220 0.004010 -0.007600 
#    y 0.004010 1.726920 0.005140 
#    z -0.007600 0.005140 1.733500 
# 
# From -- ./inp_files/262827.got.cif
#   From: 2010.05.17/outbox.cif.g08.bks.cpg/sg2_132_cif.got.tgz:262827.got - 2010.06.03 11:33:40.
