data_PCOD9023798
_publ_section_title
;
Structure prediction by ZEFSAII (Michael W. Deem and Ramdas Pophale) SiO2 
 PCOD9023798
Probable space group: P -1
;
_chemical_formula_sum "Si O2"
_cell_formula_units_Z 14
_cell_length_a 6.010061
_cell_length_b 6.837874
_cell_length_c 18.318294
_cell_angle_alpha 75.332486
_cell_angle_beta 59.039540
_cell_angle_gamma 96.349879
_cell_volume 597.610943
_symmetry_space_group_name_H-M "P -1"
_symmetry_group_IT_number 2
_symmetry_cell_setting 'triclinic'
loop_
_space_group_symop_operation_xyz
x,y,z
-x,-y,-z
loop_
_atom_site_type_symbol
_atom_site_label
_atom_site_fract_x
_atom_site_fract_y
_atom_site_fract_z
Si Si1 0.444574 0.716464 0.475504
Si Si2 0.048850 0.923618 0.581190
Si Si3 0.840966 0.193344 0.167779
Si Si4 0.179359 0.982677 0.044130
Si Si5 0.591367 0.719731 0.298028
Si Si6 0.579848 0.606854 0.773284
Si Si7 0.972193 0.428437 0.797904
O O1 0.500000 0.500000 0.500000
O O2 0.192331 0.741404 0.560154
O O3 0.395730 0.723191 0.396934
O O4 0.716247 0.896595 0.435667
O O5 0.794534 0.820499 0.685816
O O6 0.000000 0.000000 0.500000
O O7 0.649486 0.319010 0.151730
O O8 0.897785 0.330084 0.219662
O O9 0.669513 0.951859 0.230010
O O10 0.109686 0.163565 0.088968
O O11 0.048961 0.742583 0.118530
O O12 0.500000 0.000000 0.000000
O O13 0.000000 0.000000 0.000000
O O14 0.494681 0.532691 0.274513
O O15 0.867764 0.664462 0.281504
O O16 0.686886 0.446919 0.818599
#
# Coordination Sequence:
#
# PCOD9023798 Si02
#       7
#     2   2   2   2   2   2   2
#     4  11  23  39  59  88 133 177 228 283 343 396
#     4  11  24  39  60  95 133 177 230 284 341 402
#     4  10  24  43  68  96 135 176 222 279 345 409
#     4  11  28  48  75 107 146 180 229 285 353 425
#     4  10  22  40  61  93 131 173 232 283 340 409
#     4  11  23  40  67  96 131 177 235 281 343 411
#     4  10  24  43  68  98 133 180 226 279 342 416
#
# _framework density 23.426611999999999
#
# number of rings (size 3 to 8) (size 9 to 14) (size 15 to 20)
#    0.000    1.429    0.000    3.429    8.000   12.571 
#    0.000    0.000    0.000    0.000    0.000    0.000 
#    0.000    0.000    0.000    0.000    0.000    0.000 
#
# Total GULP energy -77958.613229 kJ/mol
# GULP energy per Si atom -5568.472373 kJ/mol
# Density = 2.337329 g / cm^3
# Si number density = 23.426612 Si / 1000 Ang^3
#
#
#
# Elastic Constant Matrix: (Units=GPa)
#
#
# Indices 1 2 3 4 5 6 
#
# 1 73.5183 38.1808 21.0342 7.0222 -0.2325 -33.9096
# 2 38.1808 142.8338 19.3053 22.8106 -7.0517 -36.2878
# 3 21.0342 19.3053 47.4275 0.9049 -3.2658 -16.9384
# 4 7.0222 22.8106 0.9049 38.0276 -9.9069 -4.3942
# 5 -0.2325 -7.0517 -3.2658 -9.9069 35.2788 -1.6248
# 6 -33.9096 -36.2878 -16.9384 -4.3942 -1.6248 44.8142
#
#
#
# Elastic Compliance Matrix: (Units=1/GPa)
#
#
# Indices 1 2 3 4 5 6 
#
# 1 0.022102 -0.001649 -0.004266 -0.001516 -0.000378 0.013614
# 2 -0.001649 0.009879 -0.001024 -0.004697 0.000823 0.005933
# 3 -0.004266 -0.001024 0.025701 0.002281 0.003063 0.005992
# 4 -0.001516 -0.004697 0.002281 0.031349 0.008032 -0.000723
# 5 -0.000378 0.000823 0.003063 0.008032 0.031206 0.003458
# 6 0.013614 0.005933 0.005992 -0.000723 0.003458 0.039739
#
#
# Mechanical properties :
#
#
# Convention : Reuss Voigt Hill
#
# Bulk Modulus (GPa) = 22.82990 46.75780 34.79385
# Shear Modulus (GPa) = 26.53157 35.97473 31.25315
#
# Velocity S-wave (km/s) = 3.36897 3.92297 3.65648
# Velocity P-wave (km/s) = 4.98997 6.36570 5.71935
#
# Compressibility (1/GPa) = 0.04380221
#
# Stress axis : x y z
#
# Youngs Moduli (GPa) = 45.24507 101.22965 38.90909
#
# Poissons Ratio (x) = 0.16697 0.16598
# Poissons Ratio (y) = 0.07463 0.03985
# Poissons Ratio (z) = 0.19301 0.10368
#
# Static dielectric constant tensor:
#      x y z
#    x 2.136730 0.007710 -0.075360 
#    y 0.007710 1.792450 0.038970 
#    z -0.075360 0.038970 1.914240 
# 
# From -- ./inp_files/7553.got.cif
#   From: 2010.05.17/outbox.cif.g08.bks.cpg/sg2_4_cif.got.tgz:7553.got - 2010.06.03 11:33:40.
