data_PCOD9023230
_publ_section_title
;
Structure prediction by ZEFSAII (Michael W. Deem and Ramdas Pophale) SiO2 
 PCOD9023230
Probable space group: P -1
;
_chemical_formula_sum "Si O2"
_cell_formula_units_Z 14
_cell_length_a 13.393512
_cell_length_b 8.664233
_cell_length_c 5.500082
_cell_angle_alpha 81.738486
_cell_angle_beta 69.149655
_cell_angle_gamma 108.659021
_cell_volume 540.667214
_symmetry_space_group_name_H-M "P -1"
_symmetry_group_IT_number 2
_symmetry_cell_setting 'triclinic'
loop_
_space_group_symop_operation_xyz
x,y,z
-x,-y,-z
loop_
_atom_site_type_symbol
_atom_site_label
_atom_site_fract_x
_atom_site_fract_y
_atom_site_fract_z
Si Si1 0.235175 0.785008 0.229908
Si Si2 0.572521 0.857115 0.082451
Si Si3 0.477994 0.690920 0.689626
Si Si4 0.166679 0.406164 0.438366
Si Si5 0.948605 0.322971 0.941109
Si Si6 0.683265 0.642879 0.283690
Si Si7 0.989366 0.163579 0.361243
O O1 0.237211 0.607508 0.353314
O O2 0.183375 0.739011 0.012330
O O3 0.133698 0.825113 0.445478
O O4 0.355119 0.946478 0.086930
O O5 0.499915 0.817679 0.408752
O O6 0.670387 0.783100 0.085192
O O7 0.504314 0.766737 0.918961
O O8 0.355596 0.532724 0.792449
O O9 0.575760 0.614565 0.573735
O O10 0.213646 0.319859 0.623926
O O11 0.124803 0.307999 0.243308
O O12 0.033996 0.371652 0.629327
O O13 0.000000 0.500000 0.000000
O O14 0.967266 0.172417 0.094353
O O15 0.000000 0.000000 0.500000
#
# Coordination Sequence:
#
# PCOD9023230 Si02
#       7
#     2   2   2   2   2   2   2
#     4  11  24  39  59  89 131 162 210 259 323 376
#     4  10  22  39  67  91 126 166 214 258 326 370
#     4   9  21  42  65  94 126 165 206 278 312 378
#     4  11  23  41  58  96 119 171 209 257 318 385
#     4  11  21  42  60  84 128 175 200 258 319 379
#     4   9  22  38  67  88 128 160 221 254 328 367
#     4  11  25  37  62  87 125 161 214 259 309 373
#
# _framework density 25.893930000000001
#
# number of rings (size 3 to 8) (size 9 to 14) (size 15 to 20)
#    0.857    0.857    2.857    1.286    8.000    1.143 
#    0.000    1.429    0.000    0.000    0.000    0.000 
#    0.000    0.000    0.000    0.000    0.000    0.000 
#
# Total GULP energy -78071.774805 kJ/mol
# GULP energy per Si atom -5576.555343 kJ/mol
# Density = 2.583499 g / cm^3
# Si number density = 25.893930 Si / 1000 Ang^3
#
#
#
# Elastic Constant Matrix: (Units=GPa)
#
#
# Indices 1 2 3 4 5 6 
#
# 1 74.5507 21.9292 23.2864 11.2165 10.4605 -7.9208
# 2 21.9292 72.6289 24.6743 -17.7662 9.7177 9.6816
# 3 23.2864 24.6743 85.1429 -12.8628 27.9803 -4.1790
# 4 11.2165 -17.7662 -12.8628 41.0196 11.3436 7.8905
# 5 10.4605 9.7177 27.9803 11.3436 44.9921 1.2172
# 6 -7.9208 9.6816 -4.1790 7.8905 1.2172 37.9750
#
#
#
# Elastic Compliance Matrix: (Units=1/GPa)
#
#
# Indices 1 2 3 4 5 6 
#
# 1 0.020680 -0.009556 -0.006167 -0.014716 0.004558 0.008982
# 2 -0.009556 0.023065 0.000104 0.016628 -0.006716 -0.011102
# 3 -0.006167 0.000104 0.019689 0.011954 -0.013815 -0.001187
# 4 -0.014716 0.016628 0.011954 0.047597 -0.019192 -0.015268
# 5 0.004558 -0.006716 -0.013815 -0.019192 0.035940 0.003978
# 6 0.008982 -0.011102 -0.001187 -0.015268 0.003978 0.033951
#
#
# Mechanical properties :
#
#
# Convention : Reuss Voigt Hill
#
# Bulk Modulus (GPa) = 31.05999 41.34471 36.20235
# Shear Modulus (GPa) = 22.43254 35.62619 29.02936
#
# Velocity S-wave (km/s) = 2.94653 3.71327 3.35190
# Velocity P-wave (km/s) = 4.85769 5.86397 5.38439
#
# Compressibility (1/GPa) = 0.03219576
#
# Stress axis : x y z
#
# Youngs Moduli (GPa) = 48.35694 43.35648 50.78936
#
# Poissons Ratio (x) = 0.41430 0.31321
# Poissons Ratio (y) = 0.46209 -0.00527
# Poissons Ratio (z) = 0.29821 -0.00450
#
# Static dielectric constant tensor:
#      x y z
#    x 2.022170 -0.037450 -0.042210 
#    y -0.037450 1.914640 -0.023240 
#    z -0.042210 -0.023240 2.074880 
# 
# From -- ./inp_files/89898.got.cif
#   From: 2010.05.17/outbox.cif.g08.bks.cpg/sg2_45_cif.got.tgz:89898.got - 2010.06.03 11:33:40.
