data_PCOD9023483
_publ_section_title
;
Structure prediction by ZEFSAII (Michael W. Deem and Ramdas Pophale) SiO2 
 PCOD9023483
Probable space group: P -1
;
_chemical_formula_sum "Si O2"
_cell_formula_units_Z 16
_cell_length_a 11.867847
_cell_length_b 5.321071
_cell_length_c 17.097362
_cell_angle_alpha 70.139504
_cell_angle_beta 128.130197
_cell_angle_gamma 113.347710
_cell_volume 772.973575
_symmetry_space_group_name_H-M "P -1"
_symmetry_group_IT_number 2
_symmetry_cell_setting 'triclinic'
loop_
_space_group_symop_operation_xyz
x,y,z
-x,-y,-z
loop_
_atom_site_type_symbol
_atom_site_label
_atom_site_fract_x
_atom_site_fract_y
_atom_site_fract_z
Si Si1 0.163987 0.268384 0.973418
Si Si2 0.653406 0.778113 0.622937
Si Si3 0.661716 0.807604 0.225118
Si Si4 0.697883 0.395167 0.548282
Si Si5 0.350449 0.461083 0.191913
Si Si6 0.645982 0.429573 0.108657
Si Si7 0.100594 0.292331 0.539432
Si Si8 0.119960 0.740463 0.067820
O O1 0.259071 0.356200 0.084647
O O2 0.184561 0.961860 0.004345
O O3 0.226537 0.481443 0.911074
O O4 0.987074 0.193282 0.918555
O O5 0.720940 0.576166 0.618583
O O6 0.477803 0.681567 0.538605
O O7 0.658591 0.759009 0.721055
O O8 0.727694 0.094005 0.599836
O O9 0.513012 0.626944 0.221389
O O10 0.680384 0.642055 0.172458
O O11 0.797220 0.786999 0.340471
O O12 0.638308 0.114429 0.164886
O O13 0.792810 0.564175 0.500882
O O14 0.260169 0.661826 0.170295
O O15 0.500000 0.500000 0.000000
O O16 0.000000 0.500000 0.500000
O O17 0.000000 0.000000 0.500000
O O18 0.000000 0.500000 0.000000
#
# Coordination Sequence:
#
# PCOD9023483 Si02
#       8
#     2   2   2   2   2   2   2   2
#     4  10  22  41  63  93 141 182 215 278 334 408
#     4  10  22  39  70 100 130 160 222 286 341 397
#     4  12  27  45  71 104 134 188 239 285 343 421
#     4  10  22  44  65  99 130 169 212 290 349 399
#     4  11  22  40  68  98 130 173 231 273 339 416
#     4  12  25  43  70 106 144 180 234 283 336 408
#     4  12  26  51  72  97 142 190 234 292 359 417
#     4   9  21  40  61  91 127 180 214 265 344 390
#
# _framework density 20.699283000000001
#
# number of rings (size 3 to 8) (size 9 to 14) (size 15 to 20)
#    0.000    1.250    2.500    2.625    5.250    0.000 
#    6.750    0.000    0.000    0.000    0.000    0.000 
#    0.000    0.000    0.000    0.000    0.000    0.000 
#
# Total GULP energy -89169.344769 kJ/mol
# GULP energy per Si atom -5573.084048 kJ/mol
# Density = 2.065217 g / cm^3
# Si number density = 20.699283 Si / 1000 Ang^3
#
#
#
# Elastic Constant Matrix: (Units=GPa)
#
#
# Indices 1 2 3 4 5 6 
#
# 1 78.5606 46.6073 45.0640 2.0795 -12.6789 -1.2570
# 2 46.6073 137.7421 55.3168 -9.0748 -17.7124 -8.1878
# 3 45.0640 55.3168 117.6381 4.0439 -14.2783 -1.5091
# 4 2.0795 -9.0748 4.0439 33.1826 5.7291 -3.5910
# 5 -12.6789 -17.7124 -14.2783 5.7291 35.7028 -5.9608
# 6 -1.2570 -8.1878 -1.5091 -3.5910 -5.9608 32.9252
#
#
#
# Elastic Compliance Matrix: (Units=1/GPa)
#
#
# Indices 1 2 3 4 5 6 
#
# 1 0.018388 -0.004132 -0.004671 -0.002247 0.002930 -0.000254
# 2 -0.004132 0.010695 -0.003218 0.003485 0.002525 0.003191
# 3 -0.004671 -0.003218 0.012116 -0.002433 0.001924 -0.000340
# 4 -0.002247 0.003485 -0.002433 0.032709 -0.004726 0.003381
# 5 0.002930 0.002525 0.001924 -0.004726 0.032875 0.006264
# 6 -0.000254 0.003191 -0.000340 0.003381 0.006264 0.032643
#
#
# Mechanical properties :
#
#
# Convention : Reuss Voigt Hill
#
# Bulk Modulus (GPa) = 58.29169 69.76854 64.03012
# Shear Modulus (GPa) = 29.55272 32.82564 31.18918
#
# Velocity S-wave (km/s) = 3.78261 3.98657 3.88593
# Velocity P-wave (km/s) = 6.87749 7.41413 7.15085
#
# Compressibility (1/GPa) = 0.01715510
#
# Stress axis : x y z
#
# Youngs Moduli (GPa) = 54.38184 93.50437 82.53387
#
# Poissons Ratio (x) = 0.38640 0.38555
# Poissons Ratio (y) = 0.22473 0.26563
# Poissons Ratio (z) = 0.25404 0.30093
#
# Static dielectric constant tensor:
#      x y z
#    x 2.408930 -0.507810 0.763740 
#    y -0.507810 2.109830 -0.578620 
#    z 0.763740 -0.578620 2.737410 
# 
# From -- ./inp_files/564037.got.cif
#   From: 2010.05.17/outbox.cif.g08.bks.cpg/sg2_283_cif.got.tgz:564037.got - 2010.06.03 11:33:40.
