data_PCOD9023647
_publ_section_title
;
Structure prediction by ZEFSAII (Michael W. Deem and Ramdas Pophale) SiO2 
 PCOD9023647
Probable space group: P -1
;
_chemical_formula_sum "Si O2"
_cell_formula_units_Z 10
_cell_length_a 13.535059
_cell_length_b 8.086843
_cell_length_c 9.465176
_cell_angle_alpha 75.369652
_cell_angle_beta 140.368161
_cell_angle_gamma 77.976939
_cell_volume 484.414078
_symmetry_space_group_name_H-M "P -1"
_symmetry_group_IT_number 2
_symmetry_cell_setting 'triclinic'
loop_
_space_group_symop_operation_xyz
x,y,z
-x,-y,-z
loop_
_atom_site_type_symbol
_atom_site_label
_atom_site_fract_x
_atom_site_fract_y
_atom_site_fract_z
Si Si1 0.244975 0.427901 0.378330
Si Si2 0.154927 0.445453 0.974044
Si Si3 0.030696 0.171694 0.544644
Si Si4 0.354626 0.467323 0.775319
Si Si5 0.583971 0.915429 0.901272
O O1 0.349242 0.474431 0.598808
O O2 0.013219 0.563805 0.146120
O O3 0.369090 0.160210 0.585080
O O4 0.246062 0.474390 0.205282
O O5 0.033486 0.660428 0.691611
O O6 0.322748 0.232392 0.107604
O O7 0.871487 0.333757 0.457678
O O8 0.000000 0.000000 0.500000
O O9 0.746177 0.937929 0.131795
O O10 0.500000 0.500000 0.000000
O O11 0.419509 0.234710 0.955917
#
# Coordination Sequence:
#
# PCOD9023647 Si02
#       5
#     2   2   2   2   2
#     4  11  21  38  65  89 121 156 197 250 301 347
#     4  10  22  40  59  93 122 154 197 250 300 349
#     4  11  22  40  62  88 123 160 201 245 292 357
#     4  11  22  38  62  93 119 157 207 243 288 363
#     4  11  21  41  62  88 121 160 202 238 301 356
#
# _framework density 20.643495999999999
#
# number of rings (size 3 to 8) (size 9 to 14) (size 15 to 20)
#    0.000    1.200    4.000    3.600    2.800    0.000 
#    0.000   12.000    0.000    0.000    0.000    0.000 
#    0.000    0.000    0.000    0.000    0.000    0.000 
#
# Total GULP energy -55900.976950 kJ/mol
# GULP energy per Si atom -5590.097695 kJ/mol
# Density = 2.059651 g / cm^3
# Si number density = 20.643496 Si / 1000 Ang^3
#
#
#
# Elastic Constant Matrix: (Units=GPa)
#
#
# Indices 1 2 3 4 5 6 
#
# 1 54.5381 24.0763 18.8378 19.5262 -1.8134 -26.5736
# 2 24.0763 61.5893 18.0298 28.4062 -12.8385 -19.1269
# 3 18.8378 18.0298 70.3286 23.0947 -2.7830 -25.5484
# 4 19.5262 28.4062 23.0947 50.6599 -12.5989 -2.2100
# 5 -1.8134 -12.8385 -2.7830 -12.5989 29.5550 14.2978
# 6 -26.5736 -19.1269 -25.5484 -2.2100 14.2978 42.0626
#
#
#
# Elastic Compliance Matrix: (Units=1/GPa)
#
#
# Indices 1 2 3 4 5 6 
#
# 1 0.044884 -0.000774 0.012105 -0.027818 -0.029559 0.043942
# 2 -0.000774 0.026823 0.003433 -0.016075 -0.001423 0.013432
# 3 0.012105 0.003433 0.028804 -0.023476 -0.020804 0.032541
# 4 -0.027818 -0.016075 -0.023476 0.057277 0.037097 -0.048743
# 5 -0.029559 -0.001423 -0.020804 0.037097 0.071539 -0.054326
# 6 0.043942 0.013432 0.032541 -0.048743 -0.054326 0.093314
#
#
# Mechanical properties :
#
#
# Convention : Reuss Voigt Hill
#
# Bulk Modulus (GPa) = 7.69009 34.26041 20.97525
# Shear Modulus (GPa) = 14.86057 32.82299 23.84178
#
# Velocity S-wave (km/s) = 2.68594 3.99180 3.40211
# Velocity P-wave (km/s) = 3.65409 6.15452 5.06115
#
# Compressibility (1/GPa) = 0.13003742
#
# Stress axis : x y z
#
# Youngs Moduli (GPa) = 22.27946 37.28119 34.71755
#
# Poissons Ratio (x) = 0.02887 -0.42024
# Poissons Ratio (y) = 0.01725 -0.11918
# Poissons Ratio (z) = -0.26968 -0.12798
#
# Static dielectric constant tensor:
#      x y z
#    x 1.735620 -0.031690 0.011530 
#    y -0.031690 1.750480 0.032960 
#    z 0.011530 0.032960 1.754880 
# 
# From -- ./inp_files/130114.got.cif
#   From: 2010.05.17/outbox.cif.g08.bks.cpg/sg2_66_cif.got.tgz:130114.got - 2010.06.03 11:33:40.
