data_PCOD9023400
_publ_section_title
;
Structure prediction by ZEFSAII (Michael W. Deem and Ramdas Pophale) SiO2 
 PCOD9023400
Probable space group: P -1
;
_chemical_formula_sum "Si O2"
_cell_formula_units_Z 12
_cell_length_a 9.351430
_cell_length_b 9.900661
_cell_length_c 5.211998
_cell_angle_alpha 109.302709
_cell_angle_beta 96.557804
_cell_angle_gamma 78.989282
_cell_volume 446.364368
_symmetry_space_group_name_H-M "P -1"
_symmetry_group_IT_number 2
_symmetry_cell_setting 'triclinic'
loop_
_space_group_symop_operation_xyz
x,y,z
-x,-y,-z
loop_
_atom_site_type_symbol
_atom_site_label
_atom_site_fract_x
_atom_site_fract_y
_atom_site_fract_z
Si Si1 0.177476 0.129079 0.494393
Si Si2 0.900167 0.534737 0.248950
Si Si3 0.545441 0.617029 0.890626
Si Si4 0.279624 0.603215 0.517036
Si Si5 0.594238 0.077368 0.870102
Si Si6 0.876151 0.106354 0.268415
O O1 0.171416 0.297033 0.656470
O O2 0.131323 0.038843 0.667402
O O3 0.334714 0.042999 0.392771
O O4 0.044813 0.118057 0.255827
O O5 0.781575 0.435884 0.243286
O O6 0.000000 0.500000 0.500000
O O7 0.000000 0.500000 0.000000
O O8 0.439276 0.639607 0.633159
O O9 0.697448 0.538920 0.748574
O O10 0.509628 0.771828 0.117125
O O11 0.500000 0.500000 0.000000
O O12 0.178448 0.746601 0.482210
O O13 0.746178 0.117161 0.042859
O O14 0.500000 0.000000 0.000000
#
# Coordination Sequence:
#
# PCOD9023400 Si02
#       6
#     2   2   2   2   2   2
#     4  11  24  43  70 100 139 184 235 295 356 432
#     4  12  28  45  71 105 143 186 235 296 360 422
#     4  10  22  39  68  97 137 186 233 288 352 422
#     4  10  22  43  65 100 140 180 240 290 351 425
#     4  11  24  41  66  99 141 183 232 292 357 426
#     4  10  23  42  68  99 138 184 237 287 361 415
#
# _framework density 26.883866999999999
#
# number of rings (size 3 to 8) (size 9 to 14) (size 15 to 20)
#    0.000    1.333    1.667    2.500    4.667    7.333 
#    0.000    0.000    0.000    0.000    0.000    0.000 
#    0.000    0.000    0.000    0.000    0.000    0.000 
#
# Total GULP energy -67113.410539 kJ/mol
# GULP energy per Si atom -5592.784212 kJ/mol
# Density = 2.682268 g / cm^3
# Si number density = 26.883867 Si / 1000 Ang^3
#
#
#
# Elastic Constant Matrix: (Units=GPa)
#
#
# Indices 1 2 3 4 5 6 
#
# 1 116.8876 30.4921 38.6478 9.8712 -14.3826 -20.3447
# 2 30.4921 220.4027 57.7769 37.3016 -30.2500 -12.5519
# 3 38.6478 57.7769 128.9847 14.6501 -32.9586 -7.8069
# 4 9.8712 37.3016 14.6501 50.1379 -4.4490 -12.2298
# 5 -14.3826 -30.2500 -32.9586 -4.4490 56.2934 5.4732
# 6 -20.3447 -12.5519 -7.8069 -12.2298 5.4732 48.0836
#
#
#
# Elastic Compliance Matrix: (Units=1/GPa)
#
#
# Indices 1 2 3 4 5 6 
#
# 1 0.010217 -0.000481 -0.002487 0.000033 0.000535 0.003741
# 2 -0.000481 0.005895 -0.001620 -0.003673 0.001813 -0.000068
# 3 -0.002487 -0.001620 0.010491 -0.001102 0.004605 -0.000576
# 4 0.000033 -0.003673 -0.001102 0.024144 -0.001204 0.005154
# 5 0.000535 0.001813 0.004605 -0.001204 0.021604 -0.001318
# 6 0.003741 -0.000068 -0.000576 0.005154 -0.001318 0.023730
#
#
# Mechanical properties :
#
#
# Convention : Reuss Voigt Hill
#
# Bulk Modulus (GPa) = 57.38013 80.01207 68.69610
# Shear Modulus (GPa) = 45.01890 53.52685 49.27288
#
# Velocity S-wave (km/s) = 4.09659 4.46695 4.28577
# Velocity P-wave (km/s) = 6.61560 7.51209 7.07805
#
# Compressibility (1/GPa) = 0.01742763
#
# Stress axis : x y z
#
# Youngs Moduli (GPa) = 97.87586 169.63533 95.32253
#
# Poissons Ratio (x) = 0.08154 0.23703
# Poissons Ratio (y) = 0.04705 0.15445
# Poissons Ratio (z) = 0.24337 0.27486
#
# Static dielectric constant tensor:
#      x y z
#    x 2.284870 -0.037720 0.095490 
#    y -0.037720 2.015440 0.092890 
#    z 0.095490 0.092890 2.300490 
# 
# From -- ./inp_files/59864.got.cif
#   From: 2010.05.17/outbox.cif.g08.bks.cpg/sg2_30_cif.got.tgz:59864.got - 2010.06.03 11:33:40.
