data_PCOD9023546
_publ_section_title
;
Structure prediction by ZEFSAII (Michael W. Deem and Ramdas Pophale) SiO2 
 PCOD9023546
Probable space group: P -1
;
_chemical_formula_sum "Si O2"
_cell_formula_units_Z 12
_cell_length_a 5.267496
_cell_length_b 8.314096
_cell_length_c 13.692672
_cell_angle_alpha 56.478147
_cell_angle_beta 95.672496
_cell_angle_gamma 113.826167
_cell_volume 451.208245
_symmetry_space_group_name_H-M "P -1"
_symmetry_group_IT_number 2
_symmetry_cell_setting 'triclinic'
loop_
_space_group_symop_operation_xyz
x,y,z
-x,-y,-z
loop_
_atom_site_type_symbol
_atom_site_label
_atom_site_fract_x
_atom_site_fract_y
_atom_site_fract_z
Si Si1 0.222519 0.922555 0.581643
Si Si2 0.056262 0.453442 0.170935
Si Si3 0.079744 0.235593 0.056785
Si Si4 0.646664 0.814554 0.099672
Si Si5 0.771187 0.611550 0.341278
Si Si6 0.358569 0.746916 0.391615
O O1 0.068832 0.681867 0.691713
O O2 0.500000 0.000000 0.500000
O O3 0.368707 0.042143 0.646159
O O4 0.000000 0.000000 0.500000
O O5 0.136528 0.302404 0.149591
O O6 0.319523 0.668485 0.137747
O O7 0.876297 0.540531 0.067602
O O8 0.265148 0.156920 0.020196
O O9 0.777016 0.035479 0.090973
O O10 0.770780 0.666369 0.210062
O O11 0.490874 0.630999 0.363359
O O12 0.734010 0.394081 0.465467
O O13 0.082580 0.769507 0.337799
#
# Coordination Sequence:
#
# PCOD9023546 Si02
#       6
#     2   2   2   2   2   2
#     4  12  27  45  73 106 147 195 243 298 371 441
#     4  11  25  46  73 104 152 184 249 307 369 434
#     4  10  25  46  70 110 139 198 242 310 366 436
#     4  11  23  44  74 105 141 192 252 296 375 435
#     4  10  22  39  71  93 144 178 239 297 352 432
#     4  10  22  42  61 105 135 191 233 290 364 424
#
# _framework density 26.595255000000002
#
# number of rings (size 3 to 8) (size 9 to 14) (size 15 to 20)
#    0.000    1.333    0.000    4.000    7.000    1.333 
#   12.000    0.000    0.000    0.000    0.000    0.000 
#    0.000    0.000    0.000    0.000    0.000    0.000 
#
# Total GULP energy -67017.279395 kJ/mol
# GULP energy per Si atom -5584.773283 kJ/mol
# Density = 2.653472 g / cm^3
# Si number density = 26.595255 Si / 1000 Ang^3
#
#
#
# Elastic Constant Matrix: (Units=GPa)
#
#
# Indices 1 2 3 4 5 6 
#
# 1 129.7466 18.1398 61.7341 7.5986 -7.9775 19.7337
# 2 18.1398 56.2906 11.8396 -0.4723 -13.1197 6.9009
# 3 61.7341 11.8396 143.7250 -1.5070 -21.0794 -2.3124
# 4 7.5986 -0.4723 -1.5070 45.9927 -3.9599 -16.0662
# 5 -7.9775 -13.1197 -21.0794 -3.9599 44.4920 -2.1170
# 6 19.7337 6.9009 -2.3124 -16.0662 -2.1170 35.9579
#
#
#
# Elastic Compliance Matrix: (Units=1/GPa)
#
#
# Indices 1 2 3 4 5 6 
#
# 1 0.012318 -0.002163 -0.005623 -0.005691 -0.002046 -0.009370
# 2 -0.002163 0.019995 0.000048 0.000261 0.005449 -0.002210
# 3 -0.005623 0.000048 0.010142 0.003594 0.004397 0.005594
# 4 -0.005691 0.000261 0.003594 0.028908 0.004116 0.016463
# 5 -0.002046 0.005449 0.004397 0.004116 0.026344 0.003750
# 6 -0.009370 -0.002210 0.005594 0.016463 0.003750 0.041313
#
#
# Mechanical properties :
#
#
# Convention : Reuss Voigt Hill
#
# Bulk Modulus (GPa) = 37.06552 57.02103 47.04328
# Shear Modulus (GPa) = 30.58342 41.15843 35.87093
#
# Velocity S-wave (km/s) = 3.39478 3.93820 3.67655
# Velocity P-wave (km/s) = 5.41601 6.49354 5.97910
#
# Compressibility (1/GPa) = 0.02697925
#
# Stress axis : x y z
#
# Youngs Moduli (GPa) = 81.18364 50.01282 98.60351
#
# Poissons Ratio (x) = 0.10815 0.55446
# Poissons Ratio (y) = 0.17556 -0.00475
# Poissons Ratio (z) = 0.45651 -0.00241
#
# Static dielectric constant tensor:
#      x y z
#    x 2.090230 -0.062940 -0.033890 
#    y -0.062940 2.176780 0.018380 
#    z -0.033890 0.018380 2.108920 
# 
# From -- ./inp_files/286835.got.cif
#   From: 2010.05.17/outbox.cif.g08.bks.cpg/sg2_144_cif.got.tgz:286835.got - 2010.06.03 11:33:40.
