data_PCOD9023297
_publ_section_title
;
Structure prediction by ZEFSAII (Michael W. Deem and Ramdas Pophale) SiO2 
 PCOD9023297
Probable space group: P -1
;
_chemical_formula_sum "Si O2"
_cell_formula_units_Z 16
_cell_length_a 12.048463
_cell_length_b 14.727178
_cell_length_c 14.675396
_cell_angle_alpha 34.083007
_cell_angle_beta 143.892528
_cell_angle_gamma 141.757433
_cell_volume 804.893383
_symmetry_space_group_name_H-M "P -1"
_symmetry_group_IT_number 2
_symmetry_cell_setting 'triclinic'
loop_
_space_group_symop_operation_xyz
x,y,z
-x,-y,-z
loop_
_atom_site_type_symbol
_atom_site_label
_atom_site_fract_x
_atom_site_fract_y
_atom_site_fract_z
Si Si1 0.141549 0.675618 0.992448
Si Si2 0.541368 0.131075 0.638342
Si Si3 0.647555 0.246535 0.116219
Si Si4 0.869581 0.863977 0.734952
Si Si5 0.421171 0.430204 0.106113
Si Si6 0.336922 0.565654 0.386808
Si Si7 0.977417 0.249612 0.483558
Si Si8 0.666447 0.187030 0.489810
O O1 0.226715 0.631329 0.179175
O O2 0.307070 0.752286 0.961265
O O3 0.000000 0.500000 0.000000
O O4 0.001121 0.786346 0.825182
O O5 0.331527 0.127234 0.454907
O O6 0.580654 0.275222 0.621273
O O7 0.707177 0.162906 0.642200
O O8 0.511034 0.940960 0.811781
O O9 0.841411 0.255410 0.299773
O O10 0.588905 0.409550 0.973916
O O11 0.788178 0.732189 0.876534
O O12 0.001481 0.064679 0.667862
O O13 0.579028 0.340723 0.311279
O O14 0.500000 0.500000 0.000000
O O15 0.500000 0.500000 0.500000
O O16 0.182483 0.406563 0.472948
O O17 0.844161 0.251804 0.481595
O O18 0.500000 0.000000 0.500000
#
# Coordination Sequence:
#
# PCOD9023297 Si02
#       8
#     2   2   2   2   2   2   2   2
#     4  12  23  41  66  91 126 167 232 265 313 389
#     4  10  24  42  64  96 136 164 213 267 337 379
#     4  11  22  38  67  98 123 172 216 270 317 383
#     4  10  22  39  67  98 121 168 222 269 311 391
#     4  11  18  31  63 101 128 153 209 273 322 362
#     4  12  28  45  62  92 138 176 216 271 331 379
#     4  11  22  41  67  95 128 172 219 264 324 385
#     4  11  19  39  68  99 128 166 217 269 315 397
#
# _framework density 19.878408
#
# number of rings (size 3 to 8) (size 9 to 14) (size 15 to 20)
#    0.000    1.000    7.500    0.750    3.500    2.000 
#    0.000    0.000    0.000    1.500    0.000    0.000 
#    0.000    0.000    0.000    0.000    0.000    0.000 
#
# Total GULP energy -89163.552164 kJ/mol
# GULP energy per Si atom -5572.722010 kJ/mol
# Density = 1.983316 g / cm^3
# Si number density = 19.878408 Si / 1000 Ang^3
#
#
#
# Elastic Constant Matrix: (Units=GPa)
#
#
# Indices 1 2 3 4 5 6 
#
# 1 125.2707 7.2119 43.0418 -24.0106 -8.5309 13.0749
# 2 7.2119 45.8799 26.1664 -24.4362 -6.9202 5.7196
# 3 43.0418 26.1664 80.6450 -40.6970 -3.5845 5.4257
# 4 -24.0106 -24.4362 -40.6970 36.3432 -3.5416 -5.9013
# 5 -8.5309 -6.9202 -3.5845 -3.5416 48.3370 -12.0731
# 6 13.0749 5.7196 5.4257 -5.9013 -12.0731 28.2879
#
#
#
# Elastic Compliance Matrix: (Units=1/GPa)
#
#
# Indices 1 2 3 4 5 6 
#
# 1 0.010532 0.003689 -0.004505 0.004014 0.001533 -0.003258
# 2 0.003689 0.037789 0.001424 0.030318 0.008468 0.000320
# 3 -0.004505 0.001424 0.032056 0.035324 0.005739 0.005464
# 4 0.004014 0.030318 0.035324 0.093828 0.017624 0.012335
# 5 0.001533 0.008468 0.005739 0.017624 0.026782 0.011585
# 6 -0.003258 0.000320 0.005464 0.012335 0.011585 0.043262
#
#
# Mechanical properties :
#
#
# Convention : Reuss Voigt Hill
#
# Bulk Modulus (GPa) = 12.25580 44.95951 28.60766
# Shear Modulus (GPa) = 18.50283 34.28533 26.39408
#
# Velocity S-wave (km/s) = 3.05421 4.15752 3.64782
# Velocity P-wave (km/s) = 4.31467 6.76114 5.67139
#
# Compressibility (1/GPa) = 0.08159399
#
# Stress axis : x y z
#
# Youngs Moduli (GPa) = 94.94763 26.46289 31.19572
#
# Poissons Ratio (x) = -0.09763 0.14054
# Poissons Ratio (y) = -0.35030 -0.04443
# Poissons Ratio (z) = 0.42774 -0.03769
#
# Static dielectric constant tensor:
#      x y z
#    x 1.696050 0.029910 0.029830 
#    y 0.029910 1.708430 0.006970 
#    z 0.029830 0.006970 1.680870 
# 
# From -- ./inp_files/297872.got.cif
#   From: 2010.05.17/outbox.cif.g08.bks.cpg/sg2_149_cif.got.tgz:297872.got - 2010.06.03 11:33:40.
