data_PCOD9023848
_publ_section_title
;
Structure prediction by ZEFSAII (Michael W. Deem and Ramdas Pophale) SiO2 
 PCOD9023848
Probable space group: P -1
;
_chemical_formula_sum "Si O2"
_cell_formula_units_Z 16
_cell_length_a 11.444827
_cell_length_b 11.869217
_cell_length_c 6.570502
_cell_angle_alpha 107.450950
_cell_angle_beta 77.272405
_cell_angle_gamma 98.775707
_cell_volume 826.946634
_symmetry_space_group_name_H-M "P -1"
_symmetry_group_IT_number 2
_symmetry_cell_setting 'triclinic'
loop_
_space_group_symop_operation_xyz
x,y,z
-x,-y,-z
loop_
_atom_site_type_symbol
_atom_site_label
_atom_site_fract_x
_atom_site_fract_y
_atom_site_fract_z
Si Si1 0.557183 0.391197 0.804188
Si Si2 0.090161 0.437276 0.291377
Si Si3 0.172159 0.106848 0.375381
Si Si4 0.671449 0.729270 0.318884
Si Si5 0.112568 0.190998 0.021342
Si Si6 0.294536 0.501034 0.558789
Si Si7 0.057874 0.853535 0.280262
Si Si8 0.201449 0.624553 0.040481
O O1 0.455704 0.281998 0.753319
O O2 0.602456 0.432054 0.583185
O O3 0.672412 0.361665 0.876012
O O4 0.500000 0.500000 0.000000
O O5 0.047285 0.303193 0.184654
O O6 0.207979 0.437832 0.386800
O O7 0.123547 0.514727 0.120322
O O8 0.000000 0.500000 0.500000
O O9 0.289431 0.170648 0.473920
O O10 0.170555 0.123565 0.144268
O O11 0.052912 0.167269 0.530664
O O12 0.144476 0.969133 0.368508
O O13 0.671723 0.602364 0.360881
O O14 0.778933 0.750015 0.127192
O O15 0.015577 0.116726 0.879098
O O16 0.230069 0.590242 0.778992
O O17 0.130036 0.739917 0.158260
#
# Coordination Sequence:
#
# PCOD9023848 Si02
#       8
#     2   2   2   2   2   2   2   2
#     4  11  23  38  59  89 118 154 192 237 296 354
#     4  11  21  31  53  88 121 151 181 233 296 351
#     4  10  22  40  62  83 117 156 199 240 277 340
#     4  11  21  36  60  87 109 151 201 235 287 343
#     4  11  20  35  59  86 114 147 195 239 285 345
#     4  11  21  36  56  87 120 152 188 237 296 348
#     4  10  23  40  58  86 117 160 195 232 289 346
#     4  11  23  37  56  87 125 151 190 240 294 348
#
# _framework density 19.348286999999999
#
# number of rings (size 3 to 8) (size 9 to 14) (size 15 to 20)
#    0.000    1.250    3.750    3.000    1.750    2.000 
#    0.000    0.625    0.000    1.500    0.000    0.000 
#    0.000    0.000    0.000    0.000    0.000    0.000 
#
# Total GULP energy -89304.840868 kJ/mol
# GULP energy per Si atom -5581.552554 kJ/mol
# Density = 1.930425 g / cm^3
# Si number density = 19.348287 Si / 1000 Ang^3
#
#
#
# Elastic Constant Matrix: (Units=GPa)
#
#
# Indices 1 2 3 4 5 6 
#
# 1 56.5592 11.0699 3.2241 1.8242 17.0849 12.1028
# 2 11.0699 41.3884 17.6702 2.7305 4.5036 8.6136
# 3 3.2241 17.6702 90.1410 -10.9324 -0.6200 0.3390
# 4 1.8242 2.7305 -10.9324 26.2478 4.5262 6.0902
# 5 17.0849 4.5036 -0.6200 4.5262 29.5872 4.6921
# 6 12.1028 8.6136 0.3390 6.0902 4.6921 27.7861
#
#
#
# Elastic Compliance Matrix: (Units=1/GPa)
#
#
# Indices 1 2 3 4 5 6 
#
# 1 0.023657 -0.003623 0.000135 0.002696 -0.012298 -0.007697
# 2 -0.003623 0.029415 -0.006063 -0.003665 -0.000920 -0.006508
# 3 0.000135 -0.006063 0.012996 0.005929 0.000157 0.000336
# 4 0.002696 -0.003665 0.005929 0.043844 -0.006206 -0.008672
# 5 -0.012298 -0.000920 0.000157 -0.006206 0.042007 -0.000093
# 6 -0.007697 -0.006508 0.000336 -0.008672 -0.000093 0.043272
#
#
# Mechanical properties :
#
#
# Convention : Reuss Voigt Hill
#
# Bulk Modulus (GPa) = 21.29143 28.00190 24.64667
# Shear Modulus (GPa) = 21.74398 27.13250 24.43824
#
# Velocity S-wave (km/s) = 3.35598 3.74882 3.55782
# Velocity P-wave (km/s) = 5.10343 5.76560 5.44459
#
# Compressibility (1/GPa) = 0.04696725
#
# Stress axis : x y z
#
# Youngs Moduli (GPa) = 42.27093 33.99613 76.94480
#
# Poissons Ratio (x) = 0.12317 -0.01042
# Poissons Ratio (y) = 0.15315 0.46651
# Poissons Ratio (z) = -0.00572 0.20612
#
# Static dielectric constant tensor:
#      x y z
#    x 1.714940 0.012470 0.023440 
#    y 0.012470 1.666910 -0.001590 
#    z 0.023440 -0.001590 1.706690 
# 
# From -- ./inp_files/66203.got.cif
#   From: 2010.05.17/outbox.cif.g08.bks.cpg/sg2_34_cif.got.tgz:66203.got - 2010.06.03 11:33:40.
