data_PCOD9023017
_publ_section_title
;
Structure prediction by ZEFSAII (Michael W. Deem and Ramdas Pophale) SiO2 
 PCOD9023017
Probable space group: P -1
;
_chemical_formula_sum "Si O2"
_cell_formula_units_Z 14
_cell_length_a 11.829139
_cell_length_b 11.751886
_cell_length_c 6.520153
_cell_angle_alpha 90.327766
_cell_angle_beta 120.636431
_cell_angle_gamma 114.660966
_cell_volume 680.557622
_symmetry_space_group_name_H-M "P -1"
_symmetry_group_IT_number 2
_symmetry_cell_setting 'triclinic'
loop_
_space_group_symop_operation_xyz
x,y,z
-x,-y,-z
loop_
_atom_site_type_symbol
_atom_site_label
_atom_site_fract_x
_atom_site_fract_y
_atom_site_fract_z
Si Si1 0.331999 0.446462 0.922344
Si Si2 0.328280 0.615111 0.258249
Si Si3 0.163022 0.343154 0.354052
Si Si4 0.813715 0.197784 0.928517
Si Si5 0.371526 0.056816 0.987635
Si Si6 0.381661 0.959417 0.582703
Si Si7 0.666002 0.751408 0.749907
O O1 0.211039 0.376164 0.634064
O O2 0.500000 0.500000 0.000000
O O3 0.323027 0.564169 0.023000
O O4 0.319417 0.348451 0.086028
O O5 0.242587 0.485416 0.317780
O O6 0.499206 0.692374 0.499475
O O7 0.252897 0.705987 0.179172
O O8 0.224934 0.246978 0.329382
O O9 0.987145 0.275329 0.145944
O O10 0.723909 0.093072 0.023696
O O11 0.776053 0.117788 0.678639
O O12 0.372191 0.058182 0.740101
O O13 0.546134 0.110104 0.213299
O O14 0.310095 0.131430 0.076002
O O15 0.500000 0.000000 0.500000
#
# Coordination Sequence:
#
# PCOD9023017 Si02
#       7
#     2   2   2   2   2   2   2
#     4  11  21  38  64  91 120 164 217 261 311 371
#     4  11  22  40  65  92 122 168 217 267 313 370
#     4  11  24  42  60  94 130 168 212 263 320 370
#     4  11  24  40  63  93 135 164 203 269 323 375
#     4  10  22  39  65  97 123 166 212 255 321 380
#     4   9  20  40  62  92 124 161 208 256 308 375
#     4  11  22  40  66  91 124 166 219 262 308 380
#
# _framework density 20.571366000000001
#
# number of rings (size 3 to 8) (size 9 to 14) (size 15 to 20)
#    0.000    1.429    4.286    1.286    0.000   10.286 
#    0.000    1.429    0.000    0.000    0.000    0.000 
#    0.000    0.000    0.000    0.000    0.000    0.000 
#
# Total GULP energy -78015.015610 kJ/mol
# GULP energy per Si atom -5572.501115 kJ/mol
# Density = 2.052454 g / cm^3
# Si number density = 20.571366 Si / 1000 Ang^3
#
#
#
# Elastic Constant Matrix: (Units=GPa)
#
#
# Indices 1 2 3 4 5 6 
#
# 1 86.8688 36.2159 77.3775 8.9720 2.5946 -15.9985
# 2 36.2159 58.2731 24.8642 4.0415 -1.7219 -16.1678
# 3 77.3775 24.8642 201.7927 14.4562 -0.2030 -9.2030
# 4 8.9720 4.0415 14.4562 15.9309 -6.5105 -5.3447
# 5 2.5946 -1.7219 -0.2030 -6.5105 51.4300 8.1079
# 6 -15.9985 -16.1678 -9.2030 -5.3447 8.1079 24.0351
#
#
#
# Elastic Compliance Matrix: (Units=1/GPa)
#
#
# Indices 1 2 3 4 5 6 
#
# 1 0.023785 -0.009589 -0.007401 -0.003185 -0.003035 0.006864
# 2 -0.009589 0.025901 0.000892 0.001897 -0.000281 0.011898
# 3 -0.007401 0.000892 0.007854 -0.003822 0.000309 -0.002273
# 4 -0.003185 0.001897 -0.003822 0.074659 0.007822 0.011656
# 5 -0.003035 -0.000281 0.000309 0.007822 0.021794 -0.007704
# 6 0.006864 0.011898 -0.002273 0.011656 -0.007704 0.058499
#
#
# Mechanical properties :
#
#
# Convention : Reuss Voigt Hill
#
# Bulk Modulus (GPa) = 39.45646 69.31664 54.38655
# Shear Modulus (GPa) = 19.75240 32.17767 25.96503
#
# Velocity S-wave (km/s) = 3.10205 3.95928 3.55659
# Velocity P-wave (km/s) = 5.66147 7.39392 6.58492
#
# Compressibility (1/GPa) = 0.02534439
#
# Stress axis : x y z
#
# Youngs Moduli (GPa) = 42.04330 38.60920 127.32473
#
# Poissons Ratio (x) = 0.37021 0.94230
# Poissons Ratio (y) = 0.40314 -0.11355
# Poissons Ratio (z) = 0.31115 -0.03443
#
# Static dielectric constant tensor:
#      x y z
#    x 1.776270 -0.026780 -0.057370 
#    y -0.026780 1.775150 0.047340 
#    z -0.057370 0.047340 1.752090 
# 
# From -- ./inp_files/71531.got.cif
#   From: 2010.05.17/outbox.cif.g08.bks.cpg/sg2_36_cif.got.tgz:71531.got - 2010.06.03 11:33:40.
