data_PCOD9023258
_publ_section_title
;
Structure prediction by ZEFSAII (Michael W. Deem and Ramdas Pophale) SiO2 
 PCOD9023258
Probable space group: P -1
;
_chemical_formula_sum "Si O2"
_cell_formula_units_Z 16
_cell_length_a 25.178375
_cell_length_b 5.300981
_cell_length_c 5.117326
_cell_angle_alpha 89.543294
_cell_angle_beta 119.525304
_cell_angle_gamma 90.892123
_cell_volume 594.240929
_symmetry_space_group_name_H-M "P -1"
_symmetry_group_IT_number 2
_symmetry_cell_setting 'triclinic'
loop_
_space_group_symop_operation_xyz
x,y,z
-x,-y,-z
loop_
_atom_site_type_symbol
_atom_site_label
_atom_site_fract_x
_atom_site_fract_y
_atom_site_fract_z
Si Si1 0.647606 0.352197 0.635916
Si Si2 0.258419 0.989694 0.347187
Si Si3 0.944352 0.072081 0.681689
Si Si4 0.719267 0.736846 0.101010
Si Si5 0.155598 0.638291 0.310041
Si Si6 0.582702 0.970221 0.789475
Si Si7 0.901653 0.566527 0.341040
Si Si8 0.550267 0.702375 0.209355
O O1 0.675123 0.132841 0.527358
O O2 0.703178 0.465459 0.942226
O O3 0.595960 0.247375 0.708041
O O4 0.615135 0.557714 0.378729
O O5 0.216589 0.762416 0.348638
O O6 0.243595 0.102409 0.027068
O O7 0.255915 0.212038 0.551686
O O8 0.929051 0.841334 0.456052
O O9 0.051992 0.659166 0.463003
O O10 0.887072 0.122949 0.730828
O O11 0.000000 0.000000 0.000000
O O12 0.650997 0.854760 0.945776
O O13 0.152840 0.488098 0.578263
O O14 0.122410 0.478042 0.006023
O O15 0.543873 0.815622 0.481607
O O16 0.556556 0.922437 0.010197
O O17 0.500000 0.500000 0.000000
#
# Coordination Sequence:
#
# PCOD9023258 Si02
#       8
#     2   2   2   2   2   2   2   2
#     4  10  24  43  69  94 132 179 214 279 344 395
#     4  11  23  42  65  98 127 171 223 267 335 402
#     4  10  24  44  70 100 137 185 231 284 345 413
#     4  10  22  39  67  94 127 166 218 270 318 405
#     4  10  25  41  66  99 136 175 228 286 340 409
#     4  10  22  41  63  93 130 163 224 265 331 405
#     4  10  24  42  69  98 140 178 232 286 347 408
#     4  11  24  41  64  97 129 169 220 275 330 405
#
# _framework density 26.92511
#
# number of rings (size 3 to 8) (size 9 to 14) (size 15 to 20)
#    0.750    1.000    0.000    3.750    1.750   13.000 
#    0.000    0.000    0.000    2.250    0.000    0.000 
#    0.000    0.000    0.000    0.000    0.000    0.000 
#
# Total GULP energy -89741.647350 kJ/mol
# GULP energy per Si atom -5608.852959 kJ/mol
# Density = 2.686383 g / cm^3
# Si number density = 26.925110 Si / 1000 Ang^3
#
#
#
# Elastic Constant Matrix: (Units=GPa)
#
#
# Indices 1 2 3 4 5 6 
#
# 1 80.3538 24.3267 19.3042 -11.5566 -22.1428 -7.3857
# 2 24.3267 131.5772 43.0090 9.3132 -5.2495 0.2687
# 3 19.3042 43.0090 139.8827 14.0104 -17.8238 -11.7908
# 4 -11.5566 9.3132 14.0104 55.2870 0.2054 -2.1802
# 5 -22.1428 -5.2495 -17.8238 0.2054 40.6414 0.7746
# 6 -7.3857 0.2687 -11.7908 -2.1802 0.7746 22.9198
#
#
#
# Elastic Compliance Matrix: (Units=1/GPa)
#
#
# Indices 1 2 3 4 5 6 
#
# 1 0.016904 -0.003005 -0.000288 0.004296 0.008570 0.005454
# 2 -0.003005 0.009069 -0.002627 -0.001584 -0.001562 -0.002524
# 3 -0.000288 -0.002627 0.008958 -0.001732 0.003360 0.004268
# 4 0.004296 -0.001584 -0.001732 0.019779 0.001232 0.002352
# 5 0.008570 -0.001562 0.003360 0.001232 0.030472 0.003596
# 6 0.005454 -0.002524 0.004268 0.002352 0.003596 0.047715
#
#
# Mechanical properties :
#
#
# Convention : Reuss Voigt Hill
#
# Bulk Modulus (GPa) = 43.30325 58.34371 50.82348
# Shear Modulus (GPa) = 32.80120 41.44789 37.12454
#
# Velocity S-wave (km/s) = 3.49411 3.92775 3.71726
# Velocity P-wave (km/s) = 5.69177 6.50273 6.11072
#
# Compressibility (1/GPa) = 0.02309295
#
# Stress axis : x y z
#
# Youngs Moduli (GPa) = 59.15598 110.26284 111.63799
#
# Poissons Ratio (x) = 0.33130 0.03210
# Poissons Ratio (y) = 0.17774 0.29326
# Poissons Ratio (z) = 0.01701 0.28965
#
# Static dielectric constant tensor:
#      x y z
#    x 2.187290 -0.038140 0.051380 
#    y -0.038140 2.069430 -0.012760 
#    z 0.051380 -0.012760 2.038670 
# 
# From -- ./inp_files/121858.got.cif
#   From: 2010.05.17/outbox.cif.g08.bks.cpg/sg2_61_cif.got.tgz:121858.got - 2010.06.03 11:33:40.
