data_PCOD9023822
_publ_section_title
;
Structure prediction by ZEFSAII (Michael W. Deem and Ramdas Pophale) SiO2 
 PCOD9023822
Probable space group: P -1
;
_chemical_formula_sum "Si O2"
_cell_formula_units_Z 16
_cell_length_a 16.253693
_cell_length_b 12.351684
_cell_length_c 9.573539
_cell_angle_alpha 24.108871
_cell_angle_beta 127.653867
_cell_angle_gamma 129.681750
_cell_volume 601.785770
_symmetry_space_group_name_H-M "P -1"
_symmetry_group_IT_number 2
_symmetry_cell_setting 'triclinic'
loop_
_space_group_symop_operation_xyz
x,y,z
-x,-y,-z
loop_
_atom_site_type_symbol
_atom_site_label
_atom_site_fract_x
_atom_site_fract_y
_atom_site_fract_z
Si Si1 0.780280 0.837590 0.723656
Si Si2 0.824481 0.426528 0.832662
Si Si3 0.588629 0.371002 0.170113
Si Si4 0.472047 0.047420 0.166881
Si Si5 0.132280 0.826974 0.361293
Si Si6 0.984049 0.113375 0.499112
Si Si7 0.361426 0.036002 0.785942
Si Si8 0.112052 0.426464 0.555037
O O1 0.779659 0.105395 0.503608
O O2 0.907589 0.869786 0.796949
O O3 0.731790 0.836557 0.519669
O O4 0.698711 0.590348 0.002997
O O5 0.834278 0.357433 0.762011
O O6 0.892557 0.738941 0.513972
O O7 0.903071 0.310753 0.152213
O O8 0.700634 0.289005 0.897822
O O9 0.544293 0.255913 0.107088
O O10 0.600252 0.152189 0.558649
O O11 0.500000 0.500000 0.000000
O O12 0.548601 0.916902 0.298143
O O13 0.404158 0.135949 0.865973
O O14 0.132670 0.616912 0.487752
O O15 0.015445 0.693190 0.465067
O O16 0.143725 0.138408 0.952391
O O17 0.000000 0.000000 0.500000
#
# Coordination Sequence:
#
# PCOD9023822 Si02
#       8
#     2   2   2   2   2   2   2   2
#     4  11  23  43  68 106 132 186 233 295 356 427
#     4  10  22  40  61  96 135 179 229 290 348 428
#     4  11  24  45  71 100 136 176 235 292 370 417
#     4  10  24  47  69  99 137 180 228 307 352 441
#     4  10  23  40  65  96 140 182 238 286 355 425
#     4  10  23  40  63  94 137 180 232 284 352 437
#     4  10  23  45  69  98 137 179 239 287 368 418
#     4  10  22  41  63  96 138 191 228 293 348 424
#
# _framework density 26.587534000000002
#
# number of rings (size 3 to 8) (size 9 to 14) (size 15 to 20)
#    0.000    1.750    2.500    0.000    5.250    3.500 
#    0.000    0.000    0.000    0.000    0.000    0.000 
#    0.000    0.000    0.000    0.000    0.000    0.000 
#
# Total GULP energy -89195.625401 kJ/mol
# GULP energy per Si atom -5574.726588 kJ/mol
# Density = 2.652702 g / cm^3
# Si number density = 26.587534 Si / 1000 Ang^3
#
#
#
# Elastic Constant Matrix: (Units=GPa)
#
#
# Indices 1 2 3 4 5 6 
#
# 1 62.5396 46.9001 45.1925 -11.7511 -40.6283 8.7074
# 2 46.9001 168.1416 58.4782 8.9672 -27.7161 0.5851
# 3 45.1925 58.4782 105.5729 -1.4745 -29.0295 -4.6092
# 4 -11.7511 8.9672 -1.4745 47.0837 8.3373 -13.3738
# 5 -40.6283 -27.7161 -29.0295 8.3373 54.5937 -2.0712
# 6 8.7074 0.5851 -4.6092 -13.3738 -2.0712 35.9220
#
#
#
# Elastic Compliance Matrix: (Units=1/GPa)
#
#
# Indices 1 2 3 4 5 6 
#
# 1 0.045521 -0.005385 -0.010032 0.005179 0.024680 -0.008882
# 2 -0.005385 0.008399 -0.002588 -0.002996 -0.000674 -0.000318
# 3 -0.010032 -0.002588 0.015257 -0.000222 -0.000470 0.004322
# 4 0.005179 -0.002996 -0.000222 0.025684 -0.001394 0.008247
# 5 0.024680 -0.000674 -0.000470 -0.001394 0.036135 -0.004467
# 6 -0.008882 -0.000318 0.004322 0.008247 -0.004467 0.033364
#
#
# Mechanical properties :
#
#
# Convention : Reuss Voigt Hill
#
# Bulk Modulus (GPa) = 30.15209 70.82175 50.48692
# Shear Modulus (GPa) = 23.64878 39.89877 31.77378
#
# Velocity S-wave (km/s) = 2.98563 3.87803 3.46072
# Velocity P-wave (km/s) = 4.82189 6.83719 5.91599
#
# Compressibility (1/GPa) = 0.03316519
#
# Stress axis : x y z
#
# Youngs Moduli (GPa) = 21.96792 119.05589 65.54398
#
# Poissons Ratio (x) = 0.64114 0.65756
# Poissons Ratio (y) = 0.11830 0.16966
# Poissons Ratio (z) = 0.22039 0.30817
#
# Static dielectric constant tensor:
#      x y z
#    x 2.155870 -0.100030 -0.001440 
#    y -0.100030 2.250550 0.137600 
#    z -0.001440 0.137600 2.459240 
# 
# From -- ./inp_files/332651.got.cif
#   From: 2010.05.17/outbox.cif.g08.bks.cpg/sg2_167_cif.got.tgz:332651.got - 2010.06.03 11:33:40.
