data_PCOD9023588
_publ_section_title
;
Structure prediction by ZEFSAII (Michael W. Deem and Ramdas Pophale) SiO2 
 PCOD9023588
Probable space group: P -1
;
_chemical_formula_sum "Si O2"
_cell_formula_units_Z 16
_cell_length_a 7.224268
_cell_length_b 14.917871
_cell_length_c 6.818496
_cell_angle_alpha 90.322387
_cell_angle_beta 120.056512
_cell_angle_gamma 76.369098
_cell_volume 612.564029
_symmetry_space_group_name_H-M "P -1"
_symmetry_group_IT_number 2
_symmetry_cell_setting 'triclinic'
loop_
_space_group_symop_operation_xyz
x,y,z
-x,-y,-z
loop_
_atom_site_type_symbol
_atom_site_label
_atom_site_fract_x
_atom_site_fract_y
_atom_site_fract_z
Si Si1 0.196315 0.584024 0.910980
Si Si2 0.275615 0.437068 0.222719
Si Si3 0.572672 0.130252 0.187142
Si Si4 0.275454 0.069021 0.620264
Si Si5 0.914802 0.235135 0.298472
Si Si6 0.289279 0.633137 0.351023
Si Si7 0.707957 0.079613 0.680608
Si Si8 0.058629 0.187963 0.940151
O O1 0.300214 0.474204 0.013880
O O2 0.335127 0.628887 0.139208
O O3 0.152913 0.652633 0.703646
O O4 0.948235 0.591921 0.865289
O O5 0.252479 0.529700 0.349143
O O6 0.495326 0.364690 0.413193
O O7 0.696606 0.199255 0.159503
O O8 0.598315 0.141601 0.436558
O O9 0.293731 0.979178 0.765666
O O10 0.312792 0.150597 0.010377
O O11 0.515152 0.088898 0.737222
O O12 0.074138 0.160108 0.525111
O O13 0.244392 0.023052 0.389614
O O14 0.044670 0.219533 0.160386
O O15 0.079731 0.721031 0.251163
O O16 0.920986 0.111082 0.854361
#
# Coordination Sequence:
#
# PCOD9023588 Si02
#       8
#     2   2   2   2   2   2   2   2
#     4   8  16  28  50  81 105 134 178 224 265 323
#     4   8  14  30  49  81 108 132 175 225 270 321
#     4  10  22  40  52  80 122 143 181 238 264 327
#     4   9  19  39  57  76 113 153 182 228 275 316
#     4  11  20  36  61  83 108 149 190 226 272 325
#     4   8  16  27  51  80 106 133 177 221 269 326
#     4   9  20  38  58  77 114 148 182 231 271 327
#     4  11  21  36  59  86 105 150 186 225 278 324
#
# _framework density 26.119720999999998
#
# number of rings (size 3 to 8) (size 9 to 14) (size 15 to 20)
#    1.500    1.250    1.250    0.375    1.750    2.000 
#    2.250    1.250    0.000    1.500    0.000    0.000 
#    0.000    0.000    0.000    0.000    0.000    0.000 
#
# Total GULP energy -89261.096654 kJ/mol
# GULP energy per Si atom -5578.818541 kJ/mol
# Density = 2.606027 g / cm^3
# Si number density = 26.119721 Si / 1000 Ang^3
#
#
#
# Elastic Constant Matrix: (Units=GPa)
#
#
# Indices 1 2 3 4 5 6 
#
# 1 86.3471 37.3907 19.4140 -1.2574 12.8543 0.2688
# 2 37.3907 124.7346 39.6932 -27.2721 8.1318 15.2676
# 3 19.4140 39.6932 150.3647 -22.2848 26.4056 9.2271
# 4 -1.2574 -27.2721 -22.2848 42.8039 2.8037 -1.9307
# 5 12.8543 8.1318 26.4056 2.8037 29.7432 -0.0003
# 6 0.2688 15.2676 9.2271 -1.9307 -0.0003 44.7193
#
#
#
# Elastic Compliance Matrix: (Units=1/GPa)
#
#
# Indices 1 2 3 4 5 6 
#
# 1 0.014245 -0.004565 -0.000279 -0.002280 -0.004445 0.001432
# 2 -0.004565 0.011670 -0.001161 0.006595 -0.000808 -0.003432
# 3 -0.000279 -0.001161 0.009166 0.004497 -0.008123 -0.001299
# 4 -0.002280 0.006595 0.004497 0.030257 -0.007663 -0.001860
# 5 -0.004445 -0.000808 -0.008123 -0.007663 0.043697 0.001648
# 6 0.001432 -0.003432 -0.001299 -0.001860 0.001648 0.023713
#
#
# Mechanical properties :
#
#
# Convention : Reuss Voigt Hill
#
# Bulk Modulus (GPa) = 43.34759 61.60468 52.47614
# Shear Modulus (GPa) = 32.79808 41.11650 36.95729
#
# Velocity S-wave (km/s) = 3.54741 3.97187 3.76562
# Velocity P-wave (km/s) = 5.78019 6.68364 6.24826
#
# Compressibility (1/GPa) = 0.02306933
#
# Stress axis : x y z
#
# Youngs Moduli (GPa) = 70.20055 85.69191 109.10097
#
# Poissons Ratio (x) = 0.39120 0.03046
# Poissons Ratio (y) = 0.32048 0.12669
# Poissons Ratio (z) = 0.01960 0.09950
#
# Static dielectric constant tensor:
#      x y z
#    x 2.030980 -0.051020 -0.071160 
#    y -0.051020 2.070910 -0.027480 
#    z -0.071160 -0.027480 2.093830 
# 
# From -- ./inp_files/400524.got.cif
#   From: 2010.05.17/outbox.cif.g08.bks.cpg/sg2_201_cif.got.tgz:400524.got - 2010.06.03 11:33:40.
