data_PCOD9023146
_publ_section_title
;
Structure prediction by ZEFSAII (Michael W. Deem and Ramdas Pophale) SiO2 
 PCOD9023146
Probable space group: P -1
;
_chemical_formula_sum "Si O2"
_cell_formula_units_Z 16
_cell_length_a 11.293407
_cell_length_b 26.197699
_cell_length_c 5.277319
_cell_angle_alpha 106.908257
_cell_angle_beta 80.943052
_cell_angle_gamma 154.452121
_cell_volume 623.046651
_symmetry_space_group_name_H-M "P -1"
_symmetry_group_IT_number 2
_symmetry_cell_setting 'triclinic'
loop_
_space_group_symop_operation_xyz
x,y,z
-x,-y,-z
loop_
_atom_site_type_symbol
_atom_site_label
_atom_site_fract_x
_atom_site_fract_y
_atom_site_fract_z
Si Si1 0.970818 0.741766 0.646077
Si Si2 0.436599 0.881492 0.397534
Si Si3 0.892881 0.402403 0.538575
Si Si4 0.872352 0.004572 0.129533
Si Si5 0.868209 0.665939 0.071202
Si Si6 0.846985 0.535595 0.930606
Si Si7 0.120796 0.906607 0.112618
Si Si8 0.624202 0.739434 0.374023
O O1 0.199644 0.788102 0.563669
O O2 0.813718 0.683218 0.347134
O O3 0.768911 0.643247 0.798438
O O4 0.111678 0.853004 0.853410
O O5 0.216344 0.808137 0.144250
O O6 0.674682 0.019427 0.608143
O O7 0.623646 0.906627 0.282118
O O8 0.584513 0.293644 0.595498
O O9 0.000000 0.500000 0.500000
O O10 0.061484 0.451588 0.806188
O O11 0.920536 0.374226 0.247482
O O12 0.132313 0.146089 0.345675
O O13 0.757083 0.991355 0.912904
O O14 0.000000 0.000000 0.000000
O O15 0.782361 0.571741 0.030745
O O16 0.588582 0.395486 0.714786
O O17 0.807445 0.797291 0.150579
#
# Coordination Sequence:
#
# PCOD9023146 Si02
#       8
#     2   2   2   2   2   2   2   2
#     4  10  23  42  69  98 131 170 229 269 329 381
#     4   9  23  40  68  94 131 174 222 271 331 384
#     4  10  22  39  66  95 127 175 223 266 316 388
#     4  11  26  42  63  97 137 176 215 272 337 397
#     4  10  23  40  68 100 128 167 225 281 319 379
#     4  11  23  43  68  99 133 172 227 266 329 388
#     4  11  24  42  65  94 135 175 220 270 333 395
#     4  10  25  39  64  94 132 179 214 270 327 397
#
# _framework density 25.680260000000001
#
# number of rings (size 3 to 8) (size 9 to 14) (size 15 to 20)
#    0.750    1.000    0.000    3.375   10.500    4.000 
#    0.000    1.250    0.000    0.000    0.000    0.000 
#    0.000    0.000    0.000    0.000    0.000    0.000 
#
# Total GULP energy -89229.677158 kJ/mol
# GULP energy per Si atom -5576.854822 kJ/mol
# Density = 2.562181 g / cm^3
# Si number density = 25.680260 Si / 1000 Ang^3
#
#
#
# Elastic Constant Matrix: (Units=GPa)
#
#
# Indices 1 2 3 4 5 6 
#
# 1 73.7582 48.2285 48.7653 -17.8421 0.2740 1.3120
# 2 48.2285 83.7799 50.9674 -11.0551 -8.3518 13.7114
# 3 48.7653 50.9674 140.8377 -24.4113 -26.7847 10.2410
# 4 -17.8421 -11.0551 -24.4113 46.9157 2.8356 -3.4106
# 5 0.2740 -8.3518 -26.7847 2.8356 33.5079 -1.0479
# 6 1.3120 13.7114 10.2410 -3.4106 -1.0479 38.2055
#
#
#
# Elastic Compliance Matrix: (Units=1/GPa)
#
#
# Indices 1 2 3 4 5 6 
#
# 1 0.027164 -0.013222 -0.005723 0.005148 -0.008353 0.005577
# 2 -0.013222 0.022423 -0.002691 -0.001860 0.003486 -0.006942
# 3 -0.005723 -0.002691 0.012401 0.002979 0.008985 -0.001649
# 4 0.005148 -0.001860 0.002979 0.024529 -0.000141 0.001878
# 5 -0.008353 0.003486 0.008985 -0.000141 0.037902 -0.002346
# 6 0.005577 -0.006942 -0.001649 0.001878 -0.002346 0.029020
#
#
# Mechanical properties :
#
#
# Convention : Reuss Voigt Hill
#
# Bulk Modulus (GPa) = 53.42964 66.03312 59.73138
# Shear Modulus (GPa) = 24.63696 33.75344 29.19520
#
# Velocity S-wave (km/s) = 3.10074 3.62936 3.37541
# Velocity P-wave (km/s) = 5.80261 6.58274 6.20495
#
# Compressibility (1/GPa) = 0.01871620
#
# Stress axis : x y z
#
# Youngs Moduli (GPa) = 36.81382 44.59797 80.64041
#
# Poissons Ratio (x) = 0.58967 0.46147
# Poissons Ratio (y) = 0.48674 0.21700
# Poissons Ratio (z) = 0.21067 0.12001
#
# Static dielectric constant tensor:
#      x y z
#    x 2.043860 0.015280 0.067010 
#    y 0.015280 2.073480 -0.040460 
#    z 0.067010 -0.040460 2.131890 
# 
# From -- ./inp_files/85076.got.cif
#   From: 2010.05.17/outbox.cif.g08.bks.cpg/sg2_43_cif.got.tgz:85076.got - 2010.06.03 11:33:40.
