data_PCOD9023772
_publ_section_title
;
Structure prediction by ZEFSAII (Michael W. Deem and Ramdas Pophale) SiO2 
 PCOD9023772
Probable space group: P -1
;
_chemical_formula_sum "Si O2"
_cell_formula_units_Z 14
_cell_length_a 12.389984
_cell_length_b 7.483921
_cell_length_c 12.886443
_cell_angle_alpha 48.938727
_cell_angle_beta 43.762950
_cell_angle_gamma 76.896041
_cell_volume 548.420332
_symmetry_space_group_name_H-M "P -1"
_symmetry_group_IT_number 2
_symmetry_cell_setting 'triclinic'
loop_
_space_group_symop_operation_xyz
x,y,z
-x,-y,-z
loop_
_atom_site_type_symbol
_atom_site_label
_atom_site_fract_x
_atom_site_fract_y
_atom_site_fract_z
Si Si1 0.861562 0.643881 0.416174
Si Si2 0.198408 0.232419 0.241639
Si Si3 0.001271 0.227942 0.071181
Si Si4 0.686373 0.511018 0.365553
Si Si5 0.838342 0.294625 0.952844
Si Si6 0.468604 0.050215 0.382565
Si Si7 0.574260 0.438360 0.842320
O O1 0.764859 0.594715 0.392211
O O2 0.719400 0.418847 0.675448
O O3 0.045238 0.651241 0.252136
O O4 0.911975 0.947983 0.300897
O O5 0.151602 0.421779 0.128720
O O6 0.310659 0.431918 0.182815
O O7 0.368726 0.204605 0.089158
O O8 0.000000 0.000000 0.500000
O O9 0.199751 0.294343 0.880303
O O10 0.912058 0.184061 0.035544
O O11 0.000000 0.500000 0.000000
O O12 0.500000 0.500000 0.500000
O O13 0.683946 0.228946 0.448034
O O14 0.630585 0.097714 0.176096
O O15 0.448552 0.315377 0.285848
O O16 0.500000 0.000000 0.500000
#
# Coordination Sequence:
#
# PCOD9023772 Si02
#       7
#     2   2   2   2   2   2   2
#     4  11  23  39  61  94 133 157 207 268 335 388
#     4  10  24  44  69  89 122 172 230 265 317 383
#     4  11  22  36  61  93 125 166 206 252 319 392
#     4  11  21  34  56  89 133 165 196 251 322 386
#     4  10  22  40  61  91 127 164 208 268 321 376
#     4  11  21  39  65  94 129 169 214 259 323 392
#     4  10  23  44  66  91 127 166 218 276 314 390
#
# _framework density 25.527864999999998
#
# number of rings (size 3 to 8) (size 9 to 14) (size 15 to 20)
#    0.000    1.429    0.000    6.857    6.000    1.714 
#    2.571    0.714    0.000    0.000    0.000    0.000 
#    0.000    0.000    0.000    0.000    0.000    0.000 
#
# Total GULP energy -78069.537236 kJ/mol
# GULP energy per Si atom -5576.395517 kJ/mol
# Density = 2.546976 g / cm^3
# Si number density = 25.527865 Si / 1000 Ang^3
#
#
#
# Elastic Constant Matrix: (Units=GPa)
#
#
# Indices 1 2 3 4 5 6 
#
# 1 68.0802 3.0975 12.4537 -0.9367 -3.0120 -7.2254
# 2 3.0975 82.8577 31.1446 2.8498 -10.2035 6.4915
# 3 12.4537 31.1446 210.7804 42.3623 -41.8387 -8.5015
# 4 -0.9367 2.8498 42.3623 58.0803 -9.9443 -6.0666
# 5 -3.0120 -10.2035 -41.8387 -9.9443 35.0213 7.0119
# 6 -7.2254 6.4915 -8.5015 -6.0666 7.0119 26.9481
#
#
#
# Elastic Compliance Matrix: (Units=1/GPa)
#
#
# Indices 1 2 3 4 5 6 
#
# 1 0.015369 -0.000654 -0.001030 0.001392 -0.000589 0.004420
# 2 -0.000654 0.013418 -0.001657 0.000567 0.002950 -0.004570
# 3 -0.001030 -0.001657 0.007239 -0.004052 0.006991 -0.000325
# 4 0.001392 0.000567 -0.004052 0.020632 0.000613 0.003443
# 5 -0.000589 0.002950 0.006991 0.000613 0.039660 -0.008844
# 6 0.004420 -0.004570 -0.000325 0.003443 -0.008844 0.042368
#
#
# Mechanical properties :
#
#
# Convention : Reuss Voigt Hill
#
# Bulk Modulus (GPa) = 34.07795 50.56777 42.32286
# Shear Modulus (GPa) = 32.22707 45.01144 38.61926
#
# Velocity S-wave (km/s) = 3.55692 4.20364 3.89373
# Velocity P-wave (km/s) = 5.49975 6.58882 6.06876
#
# Compressibility (1/GPa) = 0.02934448
#
# Stress axis : x y z
#
# Youngs Moduli (GPa) = 65.06658 74.52740 138.14212
#
# Poissons Ratio (x) = 0.04875 0.14225
# Poissons Ratio (y) = 0.04256 0.22887
# Poissons Ratio (z) = 0.06700 0.12347
#
# Static dielectric constant tensor:
#      x y z
#    x 2.064970 -0.000640 -0.052920 
#    y -0.000640 2.112140 0.041320 
#    z -0.052920 0.041320 2.154000 
# 
# From -- ./inp_files/529379.got.cif
#   From: 2010.05.17/outbox.cif.g08.bks.cpg/sg2_265_cif.got.tgz:529379.got - 2010.06.03 11:33:40.
