data_PCOD9023910
_publ_section_title
;
Structure prediction by ZEFSAII (Michael W. Deem and Ramdas Pophale) SiO2 
 PCOD9023910
Probable space group: P -1
;
_chemical_formula_sum "Si O2"
_cell_formula_units_Z 16
_cell_length_a 7.356153
_cell_length_b 16.177152
_cell_length_c 10.715478
_cell_angle_alpha 126.142044
_cell_angle_beta 100.691121
_cell_angle_gamma 46.961312
_cell_volume 699.929563
_symmetry_space_group_name_H-M "P -1"
_symmetry_group_IT_number 2
_symmetry_cell_setting 'triclinic'
loop_
_space_group_symop_operation_xyz
x,y,z
-x,-y,-z
loop_
_atom_site_type_symbol
_atom_site_label
_atom_site_fract_x
_atom_site_fract_y
_atom_site_fract_z
Si Si1 0.697407 0.302197 0.644676
Si Si2 0.890614 0.996574 0.688834
Si Si3 0.132045 0.760848 0.132069
Si Si4 0.478911 0.993978 0.640693
Si Si5 0.665255 0.135698 0.165555
Si Si6 0.054893 0.806350 0.886845
Si Si7 0.712456 0.689824 0.510499
Si Si8 0.202173 0.608450 0.506235
O O1 0.791648 0.149069 0.782787
O O2 0.429407 0.350517 0.609080
O O3 0.780854 0.348480 0.589590
O O4 0.881293 0.084485 0.251004
O O5 0.056833 0.878272 0.492221
O O6 0.500000 0.000000 0.500000
O O7 0.662760 0.013922 0.726108
O O8 0.819345 0.877402 0.231828
O O9 0.141972 0.721341 0.953788
O O10 0.596125 0.837574 0.557235
O O11 0.725783 0.191604 0.113365
O O12 0.392959 0.257869 0.314155
O O13 0.952019 0.265997 0.294957
O O14 0.771228 0.979280 0.013969
O O15 0.703596 0.345357 0.822588
O O16 0.968353 0.426893 0.558058
O O17 0.500000 0.500000 0.500000
#
# Coordination Sequence:
#
# PCOD9023910 Si02
#       8
#     2   2   2   2   2   2   2   2
#     4  11  20  38  58  84 120 153 198 239 286 358
#     4  10  17  31  52  82 125 152 186 226 290 362
#     4  11  21  34  58  90 125 156 181 239 309 354
#     4  12  18  27  52  90 125 158 183 224 298 373
#     4   9  18  35  59  85 122 154 183 243 307 353
#     4  10  19  39  57  89 124 152 189 245 299 351
#     4  11  20  37  62  87 115 159 196 242 296 347
#     4  12  26  43  62  83 115 162 212 250 279 340
#
# _framework density 22.859445000000001
#
# number of rings (size 3 to 8) (size 9 to 14) (size 15 to 20)
#    0.000    1.250    8.750    1.125    0.000    1.000 
#    6.750    0.625    0.000    0.750    0.000    0.000 
#    0.000    0.000    0.000    0.000    0.000    0.000 
#
# Total GULP energy -89346.739363 kJ/mol
# GULP energy per Si atom -5584.171210 kJ/mol
# Density = 2.280742 g / cm^3
# Si number density = 22.859445 Si / 1000 Ang^3
#
#
#
# Elastic Constant Matrix: (Units=GPa)
#
#
# Indices 1 2 3 4 5 6 
#
# 1 154.8300 31.2989 20.9691 -5.7037 -6.3014 -1.8551
# 2 31.2989 83.3416 49.1588 -36.2294 -15.3272 8.7618
# 3 20.9691 49.1588 67.4760 -31.8382 -4.1891 5.0913
# 4 -5.7037 -36.2294 -31.8382 35.4561 8.8661 -8.4575
# 5 -6.3014 -15.3272 -4.1891 8.8661 19.7527 -6.5974
# 6 -1.8551 8.7618 5.0913 -8.4575 -6.5974 27.6790
#
#
#
# Elastic Compliance Matrix: (Units=1/GPa)
#
#
# Indices 1 2 3 4 5 6 
#
# 1 0.007267 -0.003194 -0.001676 -0.003730 0.001501 0.001024
# 2 -0.003194 0.029515 -0.012499 0.015406 0.012457 0.000419
# 3 -0.001676 -0.012499 0.032949 0.019727 -0.011764 0.001008
# 4 -0.003730 0.015406 0.019727 0.066074 -0.011833 0.008613
# 5 0.001501 0.012457 -0.011764 -0.011833 0.067166 0.010715
# 6 0.001024 0.000419 0.001008 0.008613 0.010715 0.041065
#
#
# Mechanical properties :
#
#
# Convention : Reuss Voigt Hill
#
# Bulk Modulus (GPa) = 28.57687 56.50015 42.53851
# Shear Modulus (GPa) = 17.21531 30.19228 23.70379
#
# Velocity S-wave (km/s) = 2.74723 3.63820 3.22364
# Velocity P-wave (km/s) = 4.75303 6.51296 5.70131
#
# Compressibility (1/GPa) = 0.03499334
#
# Stress axis : x y z
#
# Youngs Moduli (GPa) = 137.60319 33.88088 30.35001
#
# Poissons Ratio (x) = 0.10822 0.05086
# Poissons Ratio (y) = 0.43952 0.37935
# Poissons Ratio (z) = 0.23057 0.42349
#
# Static dielectric constant tensor:
#      x y z
#    x 1.892800 -0.015510 0.000090 
#    y -0.015510 1.935000 0.007510 
#    z 0.000090 0.007510 1.970020 
# 
# From -- ./inp_files/394428.got.cif
#   From: 2010.05.17/outbox.cif.g08.bks.cpg/sg2_198_cif.got.tgz:394428.got - 2010.06.03 11:33:40.
