data_PCOD9023724
_publ_section_title
;
Structure prediction by ZEFSAII (Michael W. Deem and Ramdas Pophale) SiO2 
 PCOD9023724
Probable space group: P -1
;
_chemical_formula_sum "Si O2"
_cell_formula_units_Z 15
_cell_length_a 7.026050
_cell_length_b 15.709811
_cell_length_c 12.963327
_cell_angle_alpha 40.221118
_cell_angle_beta 50.047898
_cell_angle_gamma 79.192049
_cell_volume 560.324685
_symmetry_space_group_name_H-M "P -1"
_symmetry_group_IT_number 2
_symmetry_cell_setting 'triclinic'
loop_
_space_group_symop_operation_xyz
x,y,z
-x,-y,-z
loop_
_atom_site_type_symbol
_atom_site_label
_atom_site_fract_x
_atom_site_fract_y
_atom_site_fract_z
Si Si1 0.000000 0.500000 0.500000
Si Si2 0.171407 0.754214 0.763914
Si Si3 0.682824 0.072976 0.762000
Si Si4 0.193210 0.597347 0.530243
Si Si5 0.739729 0.987196 0.217658
Si Si6 0.771787 0.812799 0.989665
Si Si7 0.304250 0.508507 0.973322
Si Si8 0.644301 0.659398 0.495924
O O1 0.104948 0.553196 0.285270
O O2 0.886604 0.622103 0.430952
O O3 0.509574 0.918765 0.460821
O O4 0.222882 0.632389 0.917093
O O5 0.932663 0.769158 0.893944
O O6 0.011746 0.667867 0.789007
O O7 0.845028 0.267584 0.538662
O O8 0.439506 0.999886 0.822211
O O9 0.856109 0.990580 0.766572
O O10 0.500000 0.000000 0.000000
O O11 0.391537 0.584635 0.558507
O O12 0.398960 0.671937 0.276666
O O13 0.781289 0.850385 0.290892
O O14 0.065910 0.152385 0.988012
O O15 0.475772 0.578636 0.738802
O O16 0.500000 0.500000 0.000000
#
# Coordination Sequence:
#
# PCOD9023724 Si02
#       8
#     1   2   2   2   2   2   2   2
#     4  12  22  36  62  88 116 158 198 240 294 348
#     4  10  23  40  61  91 117 151 201 245 289 350
#     4   9  21  39  59  86 117 155 195 235 290 353
#     4  10  23  39  59  89 124 155 194 244 296 353
#     4  10  22  40  61  84 121 158 190 242 297 345
#     4  11  22  39  61  89 119 152 196 241 290 351
#     4  10  23  43  63  84 119 160 196 243 300 349
#     4  10  23  40  60  89 119 154 198 246 294 351
#
# _framework density 26.770195000000001
#
# number of rings (size 3 to 8) (size 9 to 14) (size 15 to 20)
#    0.000    1.867    0.000    2.400    0.000   16.000 
#    0.000    0.000    0.000    0.000    0.000    0.000 
#    0.000    0.000    0.000    0.000    0.000    0.000 
#
# Total GULP energy -83891.368037 kJ/mol
# GULP energy per Si atom -5592.757869 kJ/mol
# Density = 2.670926 g / cm^3
# Si number density = 26.770195 Si / 1000 Ang^3
#
#
#
# Elastic Constant Matrix: (Units=GPa)
#
#
# Indices 1 2 3 4 5 6 
#
# 1 207.7953 71.8796 35.1477 12.3689 33.2874 1.2962
# 2 71.8796 167.4786 33.7480 24.3274 21.5620 -28.9055
# 3 35.1477 33.7480 80.7016 20.1688 -7.9407 -5.7016
# 4 12.3689 24.3274 20.1688 27.3672 4.2038 -5.6231
# 5 33.2874 21.5620 -7.9407 4.2038 33.0922 4.2350
# 6 1.2962 -28.9055 -5.7016 -5.6231 4.2350 68.6248
#
#
#
# Elastic Compliance Matrix: (Units=1/GPa)
#
#
# Indices 1 2 3 4 5 6 
#
# 1 0.007025 -0.001805 -0.003516 0.001959 -0.006906 -0.000599
# 2 -0.001805 0.008968 -0.002104 -0.004187 -0.004457 0.003568
# 3 -0.003516 -0.002104 0.018931 -0.012400 0.011147 -0.000951
# 4 0.001959 -0.004187 -0.012400 0.050249 -0.008835 0.001832
# 5 -0.006906 -0.004457 0.011147 -0.008835 0.044415 -0.004286
# 6 -0.000599 0.003568 -0.000951 0.001832 -0.004286 0.016422
#
#
# Mechanical properties :
#
#
# Convention : Reuss Voigt Hill
#
# Bulk Modulus (GPa) = 49.81655 81.94735 65.88195
# Shear Modulus (GPa) = 29.84170 46.83019 38.33595
#
# Velocity S-wave (km/s) = 3.34239 4.18705 3.78833
# Velocity P-wave (km/s) = 5.79178 7.35208 6.61807
#
# Compressibility (1/GPa) = 0.02007365
#
# Stress axis : x y z
#
# Youngs Moduli (GPa) = 142.34729 111.51350 52.82326
#
# Poissons Ratio (x) = 0.20131 0.18573
# Poissons Ratio (y) = 0.25697 0.11113
# Poissons Ratio (z) = 0.50050 0.23459
#
# Static dielectric constant tensor:
#      x y z
#    x 2.452800 0.243080 -0.177700 
#    y 0.243080 2.253950 -0.084910 
#    z -0.177700 -0.084910 2.344060 
# 
# From -- ./inp_files/94771.got.cif
#   From: 2010.05.17/outbox.cif.g08.bks.cpg/sg2_48_cif.got.tgz:94771.got - 2010.06.03 11:33:40.
