data_PCOD9023474
_publ_section_title
;
Structure prediction by ZEFSAII (Michael W. Deem and Ramdas Pophale) SiO2 
 PCOD9023474
Probable space group: P -1
;
_chemical_formula_sum "Si O2"
_cell_formula_units_Z 16
_cell_length_a 15.144543
_cell_length_b 9.294421
_cell_length_c 5.411874
_cell_angle_alpha 94.202021
_cell_angle_beta 71.367936
_cell_angle_gamma 103.105401
_cell_volume 703.048178
_symmetry_space_group_name_H-M "P -1"
_symmetry_group_IT_number 2
_symmetry_cell_setting 'triclinic'
loop_
_space_group_symop_operation_xyz
x,y,z
-x,-y,-z
loop_
_atom_site_type_symbol
_atom_site_label
_atom_site_fract_x
_atom_site_fract_y
_atom_site_fract_z
Si Si1 0.629306 0.893869 0.738377
Si Si2 0.157756 0.976423 0.354808
Si Si3 0.945494 0.530794 0.807169
Si Si4 0.400427 0.398006 0.490347
Si Si5 0.655081 0.313858 0.555870
Si Si6 0.237584 0.728359 0.040398
Si Si7 0.018861 0.129714 0.202630
Si Si8 0.563232 0.852892 0.295806
O O1 0.589908 0.715836 0.751484
O O2 0.742729 0.935904 0.613332
O O3 0.579691 0.943210 0.548489
O O4 0.600427 0.945406 0.034102
O O5 0.186533 0.866450 0.115458
O O6 0.086003 0.875130 0.593471
O O7 0.093644 0.082771 0.318612
O O8 0.843339 0.420369 0.889822
O O9 0.938951 0.700564 0.869377
O O10 0.000000 0.500000 0.500000
O O11 0.000000 0.500000 0.000000
O O12 0.500000 0.500000 0.500000
O O13 0.337119 0.509924 0.472502
O O14 0.373697 0.272996 0.714120
O O15 0.700520 0.273177 0.765090
O O16 0.543544 0.237973 0.649394
O O17 0.704150 0.265663 0.262821
O O18 0.000000 0.000000 0.000000
#
# Coordination Sequence:
#
# PCOD9023474 Si02
#       8
#     2   2   2   2   2   2   2   2
#     4  10  22  39  69  97 135 178 234 290 337 411
#     4  11  27  47  69 106 138 189 240 290 358 426
#     4  12  26  49  75 107 143 181 234 297 370 417
#     4   8  20  37  66  93 136 176 236 284 345 402
#     4  11  24  40  68 100 142 184 233 282 358 406
#     4  12  27  44  69 103 145 184 233 292 351 432
#     4  11  27  48  81  99 145 188 240 298 365 435
#     4   9  21  40  65 101 137 182 229 293 338 413
#
# _framework density 22.758040999999999
#
# number of rings (size 3 to 8) (size 9 to 14) (size 15 to 20)
#    0.750    0.750    1.250    2.250    8.750    2.000 
#    0.000    3.750    0.000    0.000    0.000    0.000 
#    0.000    0.000    0.000    0.000    0.000    0.000 
#
# Total GULP energy -89339.076410 kJ/mol
# GULP energy per Si atom -5583.692276 kJ/mol
# Density = 2.270624 g / cm^3
# Si number density = 22.758041 Si / 1000 Ang^3
#
#
#
# Elastic Constant Matrix: (Units=GPa)
#
#
# Indices 1 2 3 4 5 6 
#
# 1 124.9721 21.9976 55.5042 -15.2360 9.6373 23.8761
# 2 21.9976 121.5903 6.0768 2.7816 1.4382 -0.7451
# 3 55.5042 6.0768 134.1570 1.0940 13.3520 4.8682
# 4 -15.2360 2.7816 1.0940 30.4394 -3.1282 -2.1881
# 5 9.6373 1.4382 13.3520 -3.1282 40.8057 -1.1208
# 6 23.8761 -0.7451 4.8682 -2.1881 -1.1208 44.4206
#
#
#
# Elastic Compliance Matrix: (Units=1/GPa)
#
#
# Indices 1 2 3 4 5 6 
#
# 1 0.012468 -0.002180 -0.004795 0.006083 -0.000996 -0.005938
# 2 -0.002180 0.008644 0.000488 -0.001820 -0.000057 0.001172
# 3 -0.004795 0.000488 0.009612 -0.002922 -0.002217 0.001332
# 4 0.006083 -0.001820 -0.002922 0.036327 0.002337 -0.001131
# 5 -0.000996 -0.000057 -0.002217 0.002337 0.025691 0.001541
# 6 -0.005938 0.001172 0.001332 -0.001131 0.001541 0.025561
#
#
# Mechanical properties :
#
#
# Convention : Reuss Voigt Hill
#
# Bulk Modulus (GPa) = 56.33442 60.87517 58.60480
# Shear Modulus (GPa) = 36.44570 42.94252 39.69411
#
# Velocity S-wave (km/s) = 4.00614 4.34858 4.18087
# Velocity P-wave (km/s) = 6.79752 7.21252 7.00809
#
# Compressibility (1/GPa) = 0.01775114
#
# Stress axis : x y z
#
# Youngs Moduli (GPa) = 80.20718 115.69010 104.04071
#
# Poissons Ratio (x) = 0.25218 0.49882
# Poissons Ratio (y) = 0.17483 -0.05080
# Poissons Ratio (z) = 0.38455 -0.05649
#
# Static dielectric constant tensor:
#      x y z
#    x 1.889810 0.066930 0.051620 
#    y 0.066930 2.096570 0.049750 
#    z 0.051620 0.049750 1.909720 
# 
# From -- ./inp_files/90351.got.cif
#   From: 2010.05.17/outbox.cif.g08.bks.cpg/sg2_46_cif.got.tgz:90351.got - 2010.06.03 11:33:40.
