data_PCOD9023367
_publ_section_title
;
Structure prediction by ZEFSAII (Michael W. Deem and Ramdas Pophale) SiO2 
 PCOD9023367
Probable space group: P -1
;
_chemical_formula_sum "Si O2"
_cell_formula_units_Z 12
_cell_length_a 18.020805
_cell_length_b 11.942403
_cell_length_c 5.263835
_cell_angle_alpha 95.704214
_cell_angle_beta 88.698635
_cell_angle_gamma 30.149745
_cell_volume 552.621272
_symmetry_space_group_name_H-M "P -1"
_symmetry_group_IT_number 2
_symmetry_cell_setting 'triclinic'
loop_
_space_group_symop_operation_xyz
x,y,z
-x,-y,-z
loop_
_atom_site_type_symbol
_atom_site_label
_atom_site_fract_x
_atom_site_fract_y
_atom_site_fract_z
Si Si1 0.375393 0.862488 0.772716
Si Si2 0.156715 0.321989 0.090965
Si Si3 0.866350 0.085210 0.057185
Si Si4 0.790315 0.959348 0.679866
Si Si5 0.933481 0.315649 0.699000
Si Si6 0.270548 0.634769 0.364248
O O1 0.296825 0.088700 0.863377
O O2 0.321432 0.885309 0.514407
O O3 0.554077 0.627426 0.728651
O O4 0.299834 0.894199 0.020564
O O5 0.165959 0.229613 0.316465
O O6 0.159720 0.449002 0.180648
O O7 0.000000 0.500000 0.000000
O O8 0.764243 0.260125 0.341943
O O9 0.776594 0.221425 0.831755
O O10 0.962180 0.852745 0.104414
O O11 0.000000 0.000000 0.000000
O O12 0.946343 0.812771 0.558676
O O13 0.832320 0.341854 0.643111
#
# Coordination Sequence:
#
# PCOD9023367 Si02
#       6
#     2   2   2   2   2   2
#     4  10  23  41  62  90 137 157 196 266 323 348
#     4  10  22  39  68  92 129 158 212 254 312 373
#     4  10  23  42  64  93 125 166 211 257 304 366
#     4  10  22  40  61  94 122 164 205 249 313 375
#     4  11  21  40  69  93 117 172 216 250 304 377
#     4  11  24  44  63  93 130 161 209 266 304 363
#
# _framework density 21.714691999999999
#
# number of rings (size 3 to 8) (size 9 to 14) (size 15 to 20)
#    1.000    0.667    1.667    3.500    0.000    8.667 
#    0.000    5.833    0.000    0.000    0.000    0.000 
#    0.000    0.000    0.000    0.000    0.000    0.000 
#
# Total GULP energy -67026.826807 kJ/mol
# GULP energy per Si atom -5585.568901 kJ/mol
# Density = 2.166527 g / cm^3
# Si number density = 21.714692 Si / 1000 Ang^3
#
#
#
# Elastic Constant Matrix: (Units=GPa)
#
#
# Indices 1 2 3 4 5 6 
#
# 1 78.0082 28.9976 26.5289 -5.6795 -9.7112 11.8445
# 2 28.9976 128.2782 50.4266 12.5420 -6.9219 -5.0057
# 3 26.5289 50.4266 150.9588 -17.0127 3.2242 -7.1565
# 4 -5.6795 12.5420 -17.0127 34.1980 -0.4201 -3.4861
# 5 -9.7112 -6.9219 3.2242 -0.4201 33.4187 -3.2325
# 6 11.8445 -5.0057 -7.1565 -3.4861 -3.2325 38.6408
#
#
#
# Elastic Compliance Matrix: (Units=1/GPa)
#
#
# Indices 1 2 3 4 5 6 
#
# 1 0.016023 -0.003148 -0.001812 0.002437 0.003714 -0.005124
# 2 -0.003148 0.010697 -0.003688 -0.006132 0.001701 0.001257
# 3 -0.001812 -0.003688 0.008956 0.005697 -0.001880 0.002093
# 4 0.002437 -0.006132 0.005697 0.034993 -0.000417 0.002636
# 5 0.003714 0.001701 -0.001880 -0.000417 0.031661 0.001345
# 6 -0.005124 0.001257 0.002093 0.002636 0.001345 0.028351
#
#
# Mechanical properties :
#
#
# Convention : Reuss Voigt Hill
#
# Bulk Modulus (GPa) = 54.40260 63.23907 58.82084
# Shear Modulus (GPa) = 32.44562 38.00430 35.22496
#
# Velocity S-wave (km/s) = 3.86965 4.18804 4.03199
# Velocity P-wave (km/s) = 6.71367 7.25066 6.98733
#
# Compressibility (1/GPa) = 0.01838147
#
# Stress axis : x y z
#
# Youngs Moduli (GPa) = 62.40893 93.48279 111.65528
#
# Poissons Ratio (x) = 0.29425 0.20232
# Poissons Ratio (y) = 0.19644 0.41177
# Poissons Ratio (z) = 0.11309 0.34476
#
# Static dielectric constant tensor:
#      x y z
#    x 1.927720 0.041510 0.059940 
#    y 0.041510 1.743240 -0.007450 
#    z 0.059940 -0.007450 1.836800 
# 
# From -- ./inp_files/109028.got.cif
#   From: 2010.05.17/outbox.cif.g08.bks.cpg/sg2_55_cif.got.tgz:109028.got - 2010.06.03 11:33:40.
