data_PCOD9023141
_publ_section_title
;
Structure prediction by ZEFSAII (Michael W. Deem and Ramdas Pophale) SiO2 
 PCOD9023141
Probable space group: P -1
;
_chemical_formula_sum "Si O2"
_cell_formula_units_Z 16
_cell_length_a 9.748271
_cell_length_b 12.746170
_cell_length_c 18.082091
_cell_angle_alpha 29.838343
_cell_angle_beta 50.621532
_cell_angle_gamma 69.796190
_cell_volume 731.145004
_symmetry_space_group_name_H-M "P -1"
_symmetry_group_IT_number 2
_symmetry_cell_setting 'triclinic'
loop_
_space_group_symop_operation_xyz
x,y,z
-x,-y,-z
loop_
_atom_site_type_symbol
_atom_site_label
_atom_site_fract_x
_atom_site_fract_y
_atom_site_fract_z
Si Si1 0.081915 0.119018 0.181232
Si Si2 0.770876 0.458193 0.894573
Si Si3 0.304537 0.951938 0.547748
Si Si4 0.427059 0.489608 0.928688
Si Si5 0.752448 0.644890 0.316577
Si Si6 0.148751 0.741592 0.480144
Si Si7 0.640674 0.319864 0.429242
Si Si8 0.831066 0.011546 0.188030
O O1 0.890685 0.101283 0.303852
O O2 0.133139 0.921671 0.318715
O O3 0.003365 0.065072 0.157510
O O4 0.290884 0.385103 0.965149
O O5 0.732934 0.573598 0.910339
O O6 0.807106 0.244636 0.040020
O O7 0.562695 0.369335 0.972076
O O8 0.959012 0.642611 0.663783
O O9 0.404997 0.215131 0.309970
O O10 0.500000 0.000000 0.500000
O O11 0.253286 0.732029 0.643029
O O12 0.500000 0.500000 0.500000
O O13 0.844251 0.899274 0.173773
O O14 0.761817 0.595539 0.255601
O O15 0.850269 0.493357 0.411546
O O16 0.345787 0.834998 0.411102
O O17 0.396859 0.205918 0.567449
#
# Coordination Sequence:
#
# PCOD9023141 Si02
#       8
#     2   2   2   2   2   2   2   2
#     4  12  25  39  64  98 134 167 206 263 332 379
#     4  11  22  39  64  91 131 165 219 259 313 386
#     4  12  22  40  66  96 135 165 206 262 329 383
#     4  11  25  39  62  96 133 171 206 263 317 387
#     4   8  20  39  66  89 118 165 224 265 311 369
#     4  10  22  39  66  95 119 171 215 263 318 377
#     4   9  19  39  61  91 115 165 209 256 306 383
#     4  11  21  41  62  91 127 166 211 266 316 377
#
# _framework density 21.883485
#
# number of rings (size 3 to 8) (size 9 to 14) (size 15 to 20)
#    0.750    0.750    3.750    1.500    1.750    5.000 
#    0.000    0.000    0.000    0.750    0.000    0.000 
#    0.000    0.000    0.000    0.000    0.000    0.000 
#
# Total GULP energy -89262.279773 kJ/mol
# GULP energy per Si atom -5578.892486 kJ/mol
# Density = 2.183368 g / cm^3
# Si number density = 21.883485 Si / 1000 Ang^3
#
#
#
# Elastic Constant Matrix: (Units=GPa)
#
#
# Indices 1 2 3 4 5 6 
#
# 1 129.8725 30.2707 12.7156 -14.4013 -11.2864 13.8486
# 2 30.2707 93.4669 19.4087 -8.0391 -9.8703 6.3749
# 3 12.7156 19.4087 53.7539 -6.7794 -7.1361 14.6977
# 4 -14.4013 -8.0391 -6.7794 30.4753 5.0136 -11.9344
# 5 -11.2864 -9.8703 -7.1361 5.0136 37.8308 -4.2263
# 6 13.8486 6.3749 14.6977 -11.9344 -4.2263 34.5189
#
#
#
# Elastic Compliance Matrix: (Units=1/GPa)
#
#
# Indices 1 2 3 4 5 6 
#
# 1 0.008880 -0.002328 -0.000204 0.002516 0.001447 -0.001999
# 2 -0.002328 0.012487 -0.003806 0.001433 0.001763 0.000960
# 3 -0.000204 -0.003806 0.022682 0.000242 0.002241 -0.008515
# 4 0.002516 0.001433 0.000242 0.039572 -0.002737 0.011969
# 5 0.001447 0.001763 0.002241 -0.002737 0.028182 0.000644
# 6 -0.001999 0.000960 -0.008515 0.011969 0.000644 0.037437
#
#
# Mechanical properties :
#
#
# Convention : Reuss Voigt Hill
#
# Bulk Modulus (GPa) = 31.87379 44.65369 38.26374
# Shear Modulus (GPa) = 29.00663 34.87821 31.94242
#
# Velocity S-wave (km/s) = 3.64470 3.99659 3.82469
# Velocity P-wave (km/s) = 5.68406 6.46115 6.08503
#
# Compressibility (1/GPa) = 0.03137374
#
# Stress axis : x y z
#
# Youngs Moduli (GPa) = 112.60805 80.08202 44.08791
#
# Poissons Ratio (x) = 0.18644 0.00900
# Poissons Ratio (y) = 0.26217 0.16778
# Poissons Ratio (z) = 0.02299 0.30476
#
# Static dielectric constant tensor:
#      x y z
#    x 1.805640 -0.005180 -0.005060 
#    y -0.005180 1.813050 -0.021400 
#    z -0.005060 -0.021400 1.889580 
# 
# From -- ./inp_files/590231.got.cif
#   From: 2010.05.17/outbox.cif.g08.bks.cpg/sg2_296_cif.got.tgz:590231.got - 2010.06.03 11:33:40.
