data_PCOD9023399
_publ_section_title
;
Structure prediction by ZEFSAII (Michael W. Deem and Ramdas Pophale) SiO2 
 PCOD9023399
Probable space group: P -1
;
_chemical_formula_sum "Si O2"
_cell_formula_units_Z 16
_cell_length_a 13.931130
_cell_length_b 8.533221
_cell_length_c 15.482513
_cell_angle_alpha 132.768261
_cell_angle_beta 136.643007
_cell_angle_gamma 80.602169
_cell_volume 700.428960
_symmetry_space_group_name_H-M "P -1"
_symmetry_group_IT_number 2
_symmetry_cell_setting 'triclinic'
loop_
_space_group_symop_operation_xyz
x,y,z
-x,-y,-z
loop_
_atom_site_type_symbol
_atom_site_label
_atom_site_fract_x
_atom_site_fract_y
_atom_site_fract_z
Si Si1 0.956333 0.280107 0.116399
Si Si2 0.357380 0.169122 0.375298
Si Si3 0.884329 0.188201 0.765205
Si Si4 0.592314 0.034090 0.982563
Si Si5 0.605473 0.310243 0.440256
Si Si6 0.082600 0.824890 0.409309
Si Si7 0.115023 0.983687 0.842113
Si Si8 0.944461 0.693465 0.447862
O O1 0.175952 0.485992 0.327482
O O2 0.909273 0.486313 0.153483
O O3 0.913573 0.141161 0.129025
O O4 0.839956 0.035686 0.879769
O O5 0.494477 0.172246 0.405245
O O6 0.430380 0.482413 0.536504
O O7 0.297795 0.034031 0.379629
O O8 0.817976 0.128354 0.599517
O O9 0.030647 0.135743 0.843934
O O10 0.000000 0.500000 0.000000
O O11 0.675643 0.876780 0.989023
O O12 0.759446 0.368248 0.199154
O O13 0.500000 0.000000 0.000000
O O14 0.465494 0.904543 0.765533
O O15 0.095988 0.786336 0.507219
O O16 0.083428 0.081225 0.502627
O O17 0.007399 0.749407 0.608967
#
# Coordination Sequence:
#
# PCOD9023399 Si02
#       8
#     2   2   2   2   2   2   2   2
#     4  12  21  42  70 102 132 180 228 283 342 407
#     4  11  23  42  68  98 140 175 226 283 344 399
#     4  11  23  41  70 102 135 182 225 278 347 415
#     4  12  25  41  65 103 142 174 231 292 330 401
#     4  11  25  40  67 105 137 171 234 288 339 402
#     4  10  22  39  68  97 131 177 231 275 343 410
#     4  11  23  41  73 101 131 179 235 275 341 409
#     4  10  22  43  68  95 134 179 227 284 340 403
#
# _framework density 22.843145
#
# number of rings (size 3 to 8) (size 9 to 14) (size 15 to 20)
#    0.000    1.000    5.000    1.500    3.500    0.000 
#    0.000    2.500    0.000    0.000    0.000    0.000 
#    0.000    0.000    0.000    0.000    0.000    0.000 
#
# Total GULP energy -89083.381915 kJ/mol
# GULP energy per Si atom -5567.711370 kJ/mol
# Density = 2.279115 g / cm^3
# Si number density = 22.843145 Si / 1000 Ang^3
#
#
#
# Elastic Constant Matrix: (Units=GPa)
#
#
# Indices 1 2 3 4 5 6 
#
# 1 190.2615 45.7305 43.9883 0.2436 -6.2344 32.8677
# 2 45.7305 63.1843 1.4598 21.2878 -13.1889 15.0461
# 3 43.9883 1.4598 104.6053 1.7543 -20.7336 1.6007
# 4 0.2436 21.2878 1.7543 25.2846 -2.4347 -13.3434
# 5 -6.2344 -13.1889 -20.7336 -2.4347 37.4729 -4.2638
# 6 32.8677 15.0461 1.6007 -13.3434 -4.2638 63.7164
#
#
#
# Elastic Compliance Matrix: (Units=1/GPa)
#
#
# Indices 1 2 3 4 5 6 
#
# 1 0.008385 -0.008777 -0.004238 0.006724 -0.003714 -0.000987
# 2 -0.008777 0.041762 0.006510 -0.041334 0.012641 -0.013308
# 3 -0.004238 0.006510 0.013012 -0.005701 0.008380 -0.000311
# 4 0.006724 -0.041334 -0.005701 0.086560 -0.008227 0.024012
# 5 -0.003714 0.012641 0.008380 -0.008227 0.034541 -0.000691
# 6 -0.000987 -0.013308 -0.000311 0.024012 -0.000691 0.024336
#
#
# Mechanical properties :
#
#
# Convention : Reuss Voigt Hill
#
# Bulk Modulus (GPa) = 19.93942 60.04539 39.99240
# Shear Modulus (GPa) = 20.97993 43.08627 32.03310
#
# Velocity S-wave (km/s) = 3.03386 4.34773 3.74880
# Velocity P-wave (km/s) = 4.58478 7.17960 6.02357
#
# Compressibility (1/GPa) = 0.05015191
#
# Stress axis : x y z
#
# Youngs Moduli (GPa) = 119.25494 23.94494 76.85073
#
# Poissons Ratio (x) = 0.21016 0.32566
# Poissons Ratio (y) = 1.04669 -0.50033
# Poissons Ratio (z) = 0.50535 -0.15589
#
# Static dielectric constant tensor:
#      x y z
#    x 1.971880 -0.064230 -0.014810 
#    y -0.064230 1.945730 -0.014760 
#    z -0.014810 -0.014760 1.824990 
# 
# From -- ./inp_files/530155.got.cif
#   From: 2010.05.17/outbox.cif.g08.bks.cpg/sg2_266_cif.got.tgz:530155.got - 2010.06.03 11:33:40.
