data_PCOD9023865
_publ_section_title
;
Structure prediction by ZEFSAII (Michael W. Deem and Ramdas Pophale) SiO2 
 PCOD9023865
Probable space group: P -1
;
_chemical_formula_sum "Si O2"
_cell_formula_units_Z 14
_cell_length_a 9.904771
_cell_length_b 6.433250
_cell_length_c 13.474086
_cell_angle_alpha 57.371023
_cell_angle_beta 80.563251
_cell_angle_gamma 112.598544
_cell_volume 586.581374
_symmetry_space_group_name_H-M "P -1"
_symmetry_group_IT_number 2
_symmetry_cell_setting 'triclinic'
loop_
_space_group_symop_operation_xyz
x,y,z
-x,-y,-z
loop_
_atom_site_type_symbol
_atom_site_label
_atom_site_fract_x
_atom_site_fract_y
_atom_site_fract_z
Si Si1 0.097415 0.828375 0.263580
Si Si2 0.447031 0.886983 0.730223
Si Si3 0.953998 0.370186 0.931075
Si Si4 0.253521 0.114946 0.368709
Si Si5 0.208610 0.225683 0.967955
Si Si6 0.154100 0.773485 0.651319
Si Si7 0.412408 0.809751 0.161779
O O1 0.253355 0.814579 0.213771
O O2 0.923774 0.519385 0.336164
O O3 0.118861 0.915438 0.352458
O O4 0.134328 0.098737 0.117947
O O5 0.612775 0.972572 0.631827
O O6 0.317528 0.879405 0.670650
O O7 0.478718 0.070523 0.780118
O O8 0.375423 0.551505 0.866444
O O9 0.000762 0.634880 0.782983
O O10 0.089778 0.297268 0.907799
O O11 0.791987 0.037727 0.020296
O O12 0.000000 0.500000 0.000000
O O13 0.342697 0.463645 0.244709
O O14 0.184891 0.034559 0.509117
O O15 0.500000 0.000000 0.000000
#
# Coordination Sequence:
#
# PCOD9023865 Si02
#       7
#     2   2   2   2   2   2   2
#     4  10  22  40  62  88 120 157 201 247 297 356
#     4  10  22  40  62  88 120 157 201 247 297 356
#     4   9  19  35  57  88 120 149 190 245 300 351
#     4  11  23  41  61  84 123 165 196 244 304 353
#     4   9  18  35  58  86 114 150 194 242 296 344
#     4  10  22  40  62  90 120 155 202 249 299 357
#     4  11  24  41  62  90 122 160 205 244 293 362
#
# _framework density 23.867107000000001
#
# number of rings (size 3 to 8) (size 9 to 14) (size 15 to 20)
#    0.000    2.000    0.000    3.429    0.000   12.571 
#    0.000   12.857    0.000    0.000    0.000    0.000 
#    0.000    0.000    0.000    0.000    0.000    0.000 
#
# Total GULP energy -78059.091204 kJ/mol
# GULP energy per Si atom -5575.649372 kJ/mol
# Density = 2.381278 g / cm^3
# Si number density = 23.867107 Si / 1000 Ang^3
#
#
#
# Elastic Constant Matrix: (Units=GPa)
#
#
# Indices 1 2 3 4 5 6 
#
# 1 92.7216 31.6216 15.0131 12.5969 12.5878 9.5710
# 2 31.6216 138.2037 49.1792 26.9878 11.2421 30.3432
# 3 15.0131 49.1792 138.4245 6.8414 21.4740 7.0096
# 4 12.5969 26.9878 6.8414 34.3417 7.0820 4.1536
# 5 12.5878 11.2421 21.4740 7.0820 28.5156 12.1986
# 6 9.5710 30.3432 7.0096 4.1536 12.1986 37.5378
#
#
#
# Elastic Compliance Matrix: (Units=1/GPa)
#
#
# Indices 1 2 3 4 5 6 
#
# 1 0.012338 -0.002211 0.000206 -0.001962 -0.004341 0.000231
# 2 -0.002211 0.012455 -0.004118 -0.008086 0.005260 -0.009550
# 3 0.000206 -0.004118 0.009579 0.002424 -0.007904 0.003788
# 4 -0.001962 -0.008086 0.002424 0.036963 -0.009313 0.005520
# 5 -0.004341 0.005260 -0.007904 -0.009313 0.050464 -0.017038
# 6 0.000231 -0.009550 0.003788 0.005520 -0.017038 0.038519
#
#
# Mechanical properties :
#
#
# Convention : Reuss Voigt Hill
#
# Bulk Modulus (GPa) = 45.19427 62.33083 53.76255
# Shear Modulus (GPa) = 27.78723 38.31474 33.05098
#
# Velocity S-wave (km/s) = 3.41581 4.01101 3.72532
# Velocity P-wave (km/s) = 5.87656 6.90097 6.40926
#
# Compressibility (1/GPa) = 0.02212670
#
# Stress axis : x y z
#
# Youngs Moduli (GPa) = 81.05287 80.29164 104.39173
#
# Poissons Ratio (x) = 0.17749 -0.02151
# Poissons Ratio (y) = 0.17917 0.42987
# Poissons Ratio (z) = -0.01670 0.33063
#
# Static dielectric constant tensor:
#      x y z
#    x 2.025350 0.035550 -0.038660 
#    y 0.035550 1.981790 -0.034970 
#    z -0.038660 -0.034970 1.953150 
# 
# From -- ./inp_files/367539.got.cif
#   From: 2010.05.17/outbox.cif.g08.bks.cpg/sg2_184_cif.got.tgz:367539.got - 2010.06.03 11:33:40.
