data_PCOD9023425
_publ_section_title
;
Structure prediction by ZEFSAII (Michael W. Deem and Ramdas Pophale) SiO2 
 PCOD9023425
Probable space group: P -1
;
_chemical_formula_sum "Si O2"
_cell_formula_units_Z 16
_cell_length_a 14.874577
_cell_length_b 11.389749
_cell_length_c 9.483063
_cell_angle_alpha 152.768911
_cell_angle_beta 63.663406
_cell_angle_gamma 114.454319
_cell_volume 658.097397
_symmetry_space_group_name_H-M "P -1"
_symmetry_group_IT_number 2
_symmetry_cell_setting 'triclinic'
loop_
_space_group_symop_operation_xyz
x,y,z
-x,-y,-z
loop_
_atom_site_type_symbol
_atom_site_label
_atom_site_fract_x
_atom_site_fract_y
_atom_site_fract_z
Si Si1 0.779994 0.303712 0.206107
Si Si2 0.008606 0.769802 0.363835
Si Si3 0.775988 0.181562 0.765702
Si Si4 0.662282 0.649531 0.333103
Si Si5 0.298525 0.246777 0.074189
Si Si6 0.594856 0.885542 0.888034
Si Si7 0.443043 0.233001 0.725179
Si Si8 0.087740 0.015124 0.069920
O O1 0.730345 0.496539 0.552973
O O2 0.800088 0.336998 0.061602
O O3 0.694137 0.073957 0.009649
O O4 0.885076 0.241338 0.139668
O O5 0.122793 0.803003 0.376902
O O6 0.936624 0.803231 0.584894
O O7 0.000000 0.000000 0.500000
O O8 0.000000 0.500000 0.000000
O O9 0.746137 0.883643 0.502415
O O10 0.692385 0.367394 0.961987
O O11 0.623333 0.642441 0.513155
O O12 0.573479 0.762837 0.424972
O O13 0.398686 0.175391 0.016726
O O14 0.194593 0.082762 0.992674
O O15 0.334031 0.244478 0.887334
O O16 0.500000 0.000000 0.000000
O O17 0.500000 0.000000 0.500000
O O18 0.500000 0.500000 0.000000
O O19 0.000000 0.000000 0.000000
#
# Coordination Sequence:
#
# PCOD9023425 Si02
#       8
#     2   2   2   2   2   2   2   2
#     4  10  22  43  69 100 142 185 233 302 366 424
#     4  12  25  44  75 104 145 191 246 301 366 434
#     4  11  22  43  70 101 140 178 240 294 351 422
#     4  11  24  43  69 101 135 182 237 290 353 433
#     4  11  25  46  73  98 150 187 236 303 370 431
#     4  10  22  39  69 100 133 177 239 294 359 428
#     4  12  29  49  72 103 147 192 238 297 373 442
#     4  11  27  46  72 108 147 196 251 302 374 444
#
# _framework density 24.31251
#
# number of rings (size 3 to 8) (size 9 to 14) (size 15 to 20)
#    0.000    1.000    2.500    3.000    8.750    3.000 
#    0.000    0.000    0.000    0.000    0.000    0.000 
#    0.000    0.000    0.000    0.000    0.000    0.000 
#
# Total GULP energy -89252.438174 kJ/mol
# GULP energy per Si atom -5578.277386 kJ/mol
# Density = 2.425717 g / cm^3
# Si number density = 24.312510 Si / 1000 Ang^3
#
#
#
# Elastic Constant Matrix: (Units=GPa)
#
#
# Indices 1 2 3 4 5 6 
#
# 1 126.9645 14.8327 11.0203 -2.7820 -4.4350 -22.4355
# 2 14.8327 74.2138 35.3911 -7.7797 -2.8725 -3.0299
# 3 11.0203 35.3911 68.3804 -5.2330 -11.9476 -2.3814
# 4 -2.7820 -7.7797 -5.2330 37.7230 -5.7138 -4.2071
# 5 -4.4350 -2.8725 -11.9476 -5.7138 39.6823 -2.3791
# 6 -22.4355 -3.0299 -2.3814 -4.2071 -2.3791 38.6729
#
#
#
# Elastic Compliance Matrix: (Units=1/GPa)
#
#
# Indices 1 2 3 4 5 6 
#
# 1 0.009068 -0.001282 -0.000292 0.001161 0.001321 0.005350
# 2 -0.001282 0.018388 -0.009355 0.002236 -0.001290 0.000285
# 3 -0.000292 -0.009355 0.020716 0.001916 0.005860 0.000942
# 4 0.001161 0.002236 0.001916 0.028608 0.005251 0.004402
# 5 0.001321 -0.001290 0.005860 0.005251 0.027974 0.003318
# 6 0.005350 0.000285 0.000942 0.004402 0.003318 0.029725
#
#
# Mechanical properties :
#
#
# Convention : Reuss Voigt Hill
#
# Bulk Modulus (GPa) = 38.00126 43.56078 40.78102
# Shear Modulus (GPa) = 30.28331 37.10329 33.69330
#
# Velocity S-wave (km/s) = 3.53311 3.91077 3.72673
# Velocity P-wave (km/s) = 5.68402 6.19258 5.94374
#
# Compressibility (1/GPa) = 0.02631492
#
# Stress axis : x y z
#
# Youngs Moduli (GPa) = 110.27483 54.38344 48.27200
#
# Poissons Ratio (x) = 0.06972 0.01410
# Poissons Ratio (y) = 0.14136 0.45156
# Poissons Ratio (z) = 0.03221 0.50873
#
# Static dielectric constant tensor:
#      x y z
#    x 2.055950 0.009710 -0.000420 
#    y 0.009710 2.114490 0.070070 
#    z -0.000420 0.070070 1.941870 
# 
# From -- ./inp_files/308935.got.cif
#   From: 2010.05.17/outbox.cif.g08.bks.cpg/sg2_155_cif.got.tgz:308935.got - 2010.06.03 11:33:40.
