data_PCOD9023610
_publ_section_title
;
Structure prediction by ZEFSAII (Michael W. Deem and Ramdas Pophale) SiO2 
 PCOD9023610
Probable space group: P -1
;
_chemical_formula_sum "Si O2"
_cell_formula_units_Z 14
_cell_length_a 13.520371
_cell_length_b 14.010288
_cell_length_c 13.883625
_cell_angle_alpha 159.361241
_cell_angle_beta 104.986584
_cell_angle_gamma 64.094697
_cell_volume 734.250490
_symmetry_space_group_name_H-M "P -1"
_symmetry_group_IT_number 2
_symmetry_cell_setting 'triclinic'
loop_
_space_group_symop_operation_xyz
x,y,z
-x,-y,-z
loop_
_atom_site_type_symbol
_atom_site_label
_atom_site_fract_x
_atom_site_fract_y
_atom_site_fract_z
Si Si1 0.085892 0.596483 0.159079
Si Si2 0.082236 0.141611 0.130521
Si Si3 0.884579 0.077266 0.770766
Si Si4 0.958093 0.660379 0.909402
Si Si5 0.684963 0.633815 0.130944
Si Si6 0.292382 0.696083 0.900772
Si Si7 0.409012 0.002260 0.344336
O O1 0.106748 0.445453 0.130249
O O2 0.219587 0.386417 0.941187
O O3 0.000000 0.000000 0.500000
O O4 0.000000 0.500000 0.000000
O O5 0.098654 0.170333 0.047526
O O6 0.000000 0.500000 0.500000
O O7 0.222399 0.905563 0.986469
O O8 0.000000 0.000000 0.000000
O O9 0.825320 0.248213 0.018218
O O10 0.773659 0.262052 0.841356
O O11 0.928283 0.706719 0.437963
O O12 0.990016 0.144592 0.843988
O O13 0.649585 0.854228 0.427826
O O14 0.555508 0.736585 0.149868
O O15 0.348838 0.850390 0.125684
O O16 0.389529 0.303063 0.559226
#
# Coordination Sequence:
#
# PCOD9023610 Si02
#       7
#     2   2   2   2   2   2   2
#     4  12  24  37  60  86 121 159 189 237 298 354
#     4  12  22  35  60  84 116 156 188 246 305 342
#     4  11  20  33  59  79 123 147 185 234 286 357
#     4  12  21  37  52  91 115 151 186 233 298 354
#     4  10  22  40  58  87 120 161 195 236 294 351
#     4  11  21  37  56  87 115 152 197 247 288 345
#     4  10  24  37  61  84 118 159 200 242 283 344
#
# _framework density 19.067063000000001
#
# number of rings (size 3 to 8) (size 9 to 14) (size 15 to 20)
#    0.000    0.857    5.714    2.571    0.000    7.429 
#    0.000    0.000    0.000    1.714    0.000    0.000 
#    0.000    0.000    0.000    0.000    0.000    0.000 
#
# Total GULP energy -77945.114681 kJ/mol
# GULP energy per Si atom -5567.508192 kJ/mol
# Density = 1.902367 g / cm^3
# Si number density = 19.067063 Si / 1000 Ang^3
#
#
#
# Elastic Constant Matrix: (Units=GPa)
#
#
# Indices 1 2 3 4 5 6 
#
# 1 98.1208 68.3955 37.5973 2.5785 3.6490 0.6920
# 2 68.3955 177.1827 38.7872 20.6077 3.5053 1.6413
# 3 37.5973 38.7872 62.5546 5.8346 27.0522 -5.2559
# 4 2.5785 20.6077 5.8346 19.6974 -0.7754 1.6394
# 5 3.6490 3.5053 27.0522 -0.7754 40.4394 -4.5904
# 6 0.6920 1.6413 -5.2559 1.6394 -4.5904 34.3865
#
#
#
# Elastic Compliance Matrix: (Units=1/GPa)
#
#
# Indices 1 2 3 4 5 6 
#
# 1 0.017584 -0.005377 -0.010527 0.006778 0.005911 -0.001240
# 2 -0.005377 0.009101 -0.002048 -0.008165 0.000895 -0.000130
# 3 -0.010527 -0.002048 0.033723 -0.007554 -0.021237 0.002989
# 4 0.006778 -0.008165 -0.007554 0.061147 0.005979 -0.003018
# 5 0.005911 0.000895 -0.021237 0.005979 0.038605 0.001461
# 6 -0.001240 -0.000130 0.002989 -0.003018 0.001461 0.029908
#
#
# Mechanical properties :
#
#
# Convention : Reuss Voigt Hill
#
# Bulk Modulus (GPa) = 40.80934 69.71310 55.26122
# Shear Modulus (GPa) = 21.35479 31.77654 26.56567
#
# Velocity S-wave (km/s) = 3.35025 4.08679 3.73671
# Velocity P-wave (km/s) = 6.03449 7.67532 6.90383
#
# Compressibility (1/GPa) = 0.02450419
#
# Stress axis : x y z
#
# Youngs Moduli (GPa) = 56.86945 109.87896 29.65363
#
# Poissons Ratio (x) = 0.59082 0.31217
# Poissons Ratio (y) = 0.30579 0.06072
# Poissons Ratio (z) = 0.59867 0.22499
#
# Static dielectric constant tensor:
#      x y z
#    x 1.840590 0.001060 -0.173680 
#    y 0.001060 1.806210 0.092180 
#    z -0.173680 0.092180 1.929250 
# 
# From -- ./inp_files/520803.got.cif
#   From: 2010.05.17/outbox.cif.g08.bks.cpg/sg2_261_cif.got.tgz:520803.got - 2010.06.03 11:33:40.
