data_PCOD9023878
_publ_section_title
;
Structure prediction by ZEFSAII (Michael W. Deem and Ramdas Pophale) SiO2 
 PCOD9023878
Probable space group: P -1
;
_chemical_formula_sum "Si O2"
_cell_formula_units_Z 10
_cell_length_a 17.957270
_cell_length_b 8.417002
_cell_length_c 4.835536
_cell_angle_alpha 62.591677
_cell_angle_beta 52.433752
_cell_angle_gamma 40.782956
_cell_volume 378.412049
_symmetry_space_group_name_H-M "P -1"
_symmetry_group_IT_number 2
_symmetry_cell_setting 'triclinic'
loop_
_space_group_symop_operation_xyz
x,y,z
-x,-y,-z
loop_
_atom_site_type_symbol
_atom_site_label
_atom_site_fract_x
_atom_site_fract_y
_atom_site_fract_z
Si Si1 0.236535 0.531928 0.948417
Si Si2 0.962528 0.743910 0.276806
Si Si3 0.130631 0.944736 0.258436
Si Si4 0.416516 0.985786 0.917225
Si Si5 0.504828 0.676527 0.507619
O O1 0.291920 0.258381 0.066492
O O2 0.353105 0.476473 0.569989
O O3 0.096769 0.681099 0.021293
O O4 0.224283 0.676841 0.127257
O O5 0.000000 0.500000 0.500000
O O6 0.866650 0.972311 0.514276
O O7 0.894722 0.852852 0.049211
O O8 0.000000 0.000000 0.500000
O O9 0.519195 0.157809 0.828848
O O10 0.500000 0.000000 0.500000
O O11 0.404292 0.832852 0.858134
O O12 0.500000 0.500000 0.500000
#
# Coordination Sequence:
#
# PCOD9023878 Si02
#       5
#     2   2   2   2   2
#     4  10  22  40  64  84 122 160 190 246 300 338
#     4  11  24  40  61  91 120 153 201 244 290 355
#     4  10  22  40  62  89 119 156 200 241 292 355
#     4  10  22  40  62  89 119 156 200 241 292 355
#     4  11  24  40  61  91 120 153 201 244 290 355
#
# _framework density 26.426216
#
# number of rings (size 3 to 8) (size 9 to 14) (size 15 to 20)
#    0.000    1.600    0.000    6.000    0.000   17.600 
#    0.000    0.000    0.000    0.000    0.000    0.000 
#    0.000    0.000    0.000    0.000    0.000    0.000 
#
# Total GULP energy -55821.268794 kJ/mol
# GULP energy per Si atom -5582.126879 kJ/mol
# Density = 2.636607 g / cm^3
# Si number density = 26.426216 Si / 1000 Ang^3
#
#
#
# Elastic Constant Matrix: (Units=GPa)
#
#
# Indices 1 2 3 4 5 6 
#
# 1 75.8407 30.6936 31.2792 -1.1212 17.9127 -11.1562
# 2 30.6936 200.4585 43.0705 16.2765 7.6126 9.8399
# 3 31.2792 43.0705 90.2492 -12.7802 16.4331 -16.7517
# 4 -1.1212 16.2765 -12.7802 47.5954 -3.5813 -6.1404
# 5 17.9127 7.6126 16.4331 -3.5813 51.7402 -2.7443
# 6 -11.1562 9.8399 -16.7517 -6.1404 -2.7443 39.3437
#
#
#
# Elastic Compliance Matrix: (Units=1/GPa)
#
#
# Indices 1 2 3 4 5 6 
#
# 1 0.016915 -0.001863 -0.003515 0.000223 -0.004264 0.003503
# 2 -0.001863 0.006657 -0.003998 -0.003940 0.000425 -0.004481
# 3 -0.003515 -0.003998 0.017181 0.006746 -0.002751 0.008180
# 4 0.000223 -0.003940 0.006746 0.025233 0.000525 0.007896
# 5 -0.004264 0.000425 -0.002751 0.000525 0.021604 -0.000898
# 6 0.003503 -0.004481 0.008180 0.007896 -0.000898 0.032183
#
#
# Mechanical properties :
#
#
# Convention : Reuss Voigt Hill
#
# Bulk Modulus (GPa) = 45.45375 64.07054 54.76215
# Shear Modulus (GPa) = 34.27984 45.16953 39.72469
#
# Velocity S-wave (km/s) = 3.60556 4.13882 3.88136
# Velocity P-wave (km/s) = 5.87971 6.86567 6.39173
#
# Compressibility (1/GPa) = 0.02200038
#
# Stress axis : x y z
#
# Youngs Moduli (GPa) = 59.11918 150.22862 58.20253
#
# Poissons Ratio (x) = 0.27983 0.20460
# Poissons Ratio (y) = 0.11012 0.23270
# Poissons Ratio (z) = 0.20783 0.60064
#
# Static dielectric constant tensor:
#      x y z
#    x 2.174830 0.093090 -0.094500 
#    y 0.093090 2.266040 -0.082870 
#    z -0.094500 -0.082870 2.173710 
# 
# From -- ./inp_files/122133.got.cif
#   From: 2010.05.17/outbox.cif.g08.bks.cpg/sg2_62_cif.got.tgz:122133.got - 2010.06.03 11:33:40.
