data_PCOD9023943
_publ_section_title
;
Structure prediction by ZEFSAII (Michael W. Deem and Ramdas Pophale) SiO2 
 PCOD9023943
Probable space group: P -1
;
_chemical_formula_sum "Si O2"
_cell_formula_units_Z 14
_cell_length_a 12.673311
_cell_length_b 6.279014
_cell_length_c 14.075861
_cell_angle_alpha 66.491584
_cell_angle_beta 130.094718
_cell_angle_gamma 84.513639
_cell_volume 679.321544
_symmetry_space_group_name_H-M "P -1"
_symmetry_group_IT_number 2
_symmetry_cell_setting 'triclinic'
loop_
_space_group_symop_operation_xyz
x,y,z
-x,-y,-z
loop_
_atom_site_type_symbol
_atom_site_label
_atom_site_fract_x
_atom_site_fract_y
_atom_site_fract_z
Si Si1 0.583154 0.183442 0.605681
Si Si2 0.336648 0.023796 0.522956
Si Si3 0.147155 0.384949 0.676531
Si Si4 0.272505 0.768051 0.893858
Si Si5 0.074307 0.200011 0.034396
Si Si6 0.033001 0.581083 0.783314
Si Si7 0.615590 0.425455 0.223087
O O1 0.500000 0.500000 0.500000
O O2 0.597408 0.120050 0.513449
O O3 0.460721 0.120933 0.602061
O O4 0.758953 0.003521 0.782958
O O5 0.335661 0.831776 0.638059
O O6 0.157359 0.253190 0.355096
O O7 0.287835 0.430809 0.712375
O O8 0.000000 0.500000 0.500000
O O9 0.079249 0.537770 0.708190
O O10 0.215338 0.077042 0.794935
O O11 0.331843 0.651831 0.842495
O O12 0.126750 0.728237 0.849615
O O13 0.425240 0.615353 0.077529
O O14 0.000000 0.500000 0.000000
O O15 0.093102 0.308489 0.924476
O O16 0.000000 0.000000 0.000000
#
# Coordination Sequence:
#
# PCOD9023943 Si02
#       7
#     2   2   2   2   2   2   2
#     4  11  26  44  67  99 134 181 236 293 351 421
#     4  11  23  42  66  92 136 173 229 283 357 409
#     4  11  23  38  64  97 130 171 226 274 348 416
#     4  10  22  40  63  93 133 165 225 271 343 415
#     4  12  27  47  74 103 141 187 240 292 353 421
#     4  11  24  42  68  96 132 182 220 290 345 417
#     4  10  22  40  62  92 127 174 213 281 342 416
#
# _framework density 20.608795000000001
#
# number of rings (size 3 to 8) (size 9 to 14) (size 15 to 20)
#    0.000    1.143    1.429    3.857    4.000    8.000 
#    0.000    0.000    0.000    0.000    0.000    0.000 
#    0.000    0.000    0.000    0.000    0.000    0.000 
#
# Total GULP energy -78034.553102 kJ/mol
# GULP energy per Si atom -5573.896650 kJ/mol
# Density = 2.056189 g / cm^3
# Si number density = 20.608795 Si / 1000 Ang^3
#
#
#
# Elastic Constant Matrix: (Units=GPa)
#
#
# Indices 1 2 3 4 5 6 
#
# 1 64.9625 31.8192 20.5393 6.9991 2.3088 30.9858
# 2 31.8192 91.4265 43.4704 -3.5124 19.0582 34.4133
# 3 20.5393 43.4704 128.4725 -0.5237 6.1677 17.5911
# 4 6.9991 -3.5124 -0.5237 33.7370 2.0372 1.1616
# 5 2.3088 19.0582 6.1677 2.0372 44.7550 -5.2586
# 6 30.9858 34.4133 17.5911 1.1616 -5.2586 42.0177
#
#
#
# Elastic Compliance Matrix: (Units=1/GPa)
#
#
# Indices 1 2 3 4 5 6 
#
# 1 0.025196 -0.001561 -0.001082 -0.004684 -0.002271 -0.017004
# 2 -0.001561 0.022348 -0.004476 0.003820 -0.010962 -0.016756
# 3 -0.001082 -0.004476 0.009345 -0.000165 0.000758 0.000651
# 4 -0.004684 0.003820 -0.000165 0.031210 -0.002880 -0.000829
# 5 -0.002271 -0.010962 0.000758 -0.002880 0.028803 0.014020
# 6 -0.017004 -0.016756 0.000651 -0.000829 0.014020 0.051568
#
#
# Mechanical properties :
#
#
# Convention : Reuss Voigt Hill
#
# Bulk Modulus (GPa) = 23.44561 52.94657 38.19609
# Shear Modulus (GPa) = 25.39041 36.70411 31.04726
#
# Velocity S-wave (km/s) = 3.51382 4.22476 3.88558
# Velocity P-wave (km/s) = 5.27861 7.03883 6.22129
#
# Compressibility (1/GPa) = 0.04265192
#
# Stress axis : x y z
#
# Youngs Moduli (GPa) = 39.68874 44.74676 107.00799
#
# Poissons Ratio (x) = 0.06984 0.11577
# Poissons Ratio (y) = 0.06194 0.47898
# Poissons Ratio (z) = 0.04294 0.20029
#
# Static dielectric constant tensor:
#      x y z
#    x 1.763290 -0.005470 0.055630 
#    y -0.005470 1.883520 -0.043210 
#    z 0.055630 -0.043210 1.827710 
# 
# From -- ./inp_files/27789.got.cif
#   From: 2010.05.17/outbox.cif.g08.bks.cpg/sg2_14_cif.got.tgz:27789.got - 2010.06.03 11:33:40.
