data_PCOD9023916
_publ_section_title
;
Structure prediction by ZEFSAII (Michael W. Deem and Ramdas Pophale) SiO2 
 PCOD9023916
Probable space group: P -1
;
_chemical_formula_sum "Si O2"
_cell_formula_units_Z 8
_cell_length_a 6.865211
_cell_length_b 10.428450
_cell_length_c 7.331686
_cell_angle_alpha 48.583574
_cell_angle_beta 83.491626
_cell_angle_gamma 112.419650
_cell_volume 309.149730
_symmetry_space_group_name_H-M "P -1"
_symmetry_group_IT_number 2
_symmetry_cell_setting 'triclinic'
loop_
_space_group_symop_operation_xyz
x,y,z
-x,-y,-z
loop_
_atom_site_type_symbol
_atom_site_label
_atom_site_fract_x
_atom_site_fract_y
_atom_site_fract_z
Si Si1 0.442096 0.269177 0.236049
Si Si2 0.344439 0.728756 0.133588
Si Si3 0.905901 0.063604 0.115599
Si Si4 0.176589 0.539762 0.701837
O O1 0.217292 0.105884 0.547304
O O2 0.681999 0.316885 0.272631
O O3 0.500000 0.500000 0.000000
O O4 0.441144 0.189577 0.110245
O O5 0.354469 0.650820 0.403049
O O6 0.084579 0.513359 0.276773
O O7 0.283568 0.896719 0.986971
O O8 0.000000 0.000000 0.000000
O O9 0.107644 0.303588 0.949367
#
# Coordination Sequence:
#
# PCOD9023916 Si02
#       4
#     2   2   2   2
#     4  12  24  38  65  93 120 159 204 244 301 361
#     4   9  21  45  62  88 122 158 203 248 298 356
#     4  10  22  40  62  91 122 158 202 246 302 355
#     4   9  22  43  64  84 127 156 199 253 299 347
#
# _framework density 25.877427000000001
#
# number of rings (size 3 to 8) (size 9 to 14) (size 15 to 20)
#    1.500    0.500    0.000    3.000    0.000    6.000 
#    0.000    0.000    0.000    0.000    0.000    0.000 
#    0.000    0.000    0.000    0.000    0.000    0.000 
#
# Total GULP energy -44754.524953 kJ/mol
# GULP energy per Si atom -5594.315619 kJ/mol
# Density = 2.581853 g / cm^3
# Si number density = 25.877427 Si / 1000 Ang^3
#
#
#
# Elastic Constant Matrix: (Units=GPa)
#
#
# Indices 1 2 3 4 5 6 
#
# 1 62.9465 8.4297 25.2352 2.1039 -3.3215 -21.6380
# 2 8.4297 54.4380 49.1480 -1.5511 -15.1567 -2.4825
# 3 25.2352 49.1480 261.0529 -2.6003 -33.9746 -34.2894
# 4 2.1039 -1.5511 -2.6003 47.1706 -9.1936 -1.2509
# 5 -3.3215 -15.1567 -33.9746 -9.1936 39.2248 11.6327
# 6 -21.6380 -2.4825 -34.2894 -1.2509 11.6327 58.0568
#
#
#
# Elastic Compliance Matrix: (Units=1/GPa)
#
#
# Indices 1 2 3 4 5 6 
#
# 1 0.018832 -0.002640 -0.000741 -0.001255 -0.002415 0.006925
# 2 -0.002640 0.024144 -0.003785 0.002045 0.007381 -0.003622
# 3 -0.000741 -0.003785 0.005238 0.000751 0.002546 0.002162
# 4 -0.001255 0.002045 0.000751 0.022687 0.006898 -0.000830
# 5 -0.002415 0.007381 0.002546 0.006898 0.033646 -0.005674
# 6 0.006925 -0.003622 0.002162 -0.000830 -0.005674 0.022046
#
#
# Mechanical properties :
#
#
# Convention : Reuss Voigt Hill
#
# Bulk Modulus (GPa) = 29.51378 60.45147 44.98263
# Shear Modulus (GPa) = 32.84774 48.59874 40.72324
#
# Velocity S-wave (km/s) = 3.56667 4.33833 3.97129
# Velocity P-wave (km/s) = 5.32837 6.96464 6.20072
#
# Compressibility (1/GPa) = 0.03388248
#
# Stress axis : x y z
#
# Youngs Moduli (GPa) = 53.10105 41.41882 190.92642
#
# Poissons Ratio (x) = 0.10933 0.14139
# Poissons Ratio (y) = 0.14017 0.72267
# Poissons Ratio (z) = 0.03932 0.15677
#
# Static dielectric constant tensor:
#      x y z
#    x 2.132010 0.128420 -0.025050 
#    y 0.128420 2.045730 -0.006140 
#    z -0.025050 -0.006140 1.987620 
# 
# From -- ./inp_files/15421.got.cif
#   From: 2010.05.17/outbox.cif.g08.bks.cpg/sg2_8_cif.got.tgz:15421.got - 2010.06.03 11:33:40.
