data_PCOD9023273
_publ_section_title
;
Structure prediction by ZEFSAII (Michael W. Deem and Ramdas Pophale) SiO2 
 PCOD9023273
Probable space group: P -1
;
_chemical_formula_sum "Si O2"
_cell_formula_units_Z 16
_cell_length_a 12.235323
_cell_length_b 17.206843
_cell_length_c 15.693816
_cell_angle_alpha 149.220435
_cell_angle_beta 26.726214
_cell_angle_gamma 134.311434
_cell_volume 725.626997
_symmetry_space_group_name_H-M "P -1"
_symmetry_group_IT_number 2
_symmetry_cell_setting 'triclinic'
loop_
_space_group_symop_operation_xyz
x,y,z
-x,-y,-z
loop_
_atom_site_type_symbol
_atom_site_label
_atom_site_fract_x
_atom_site_fract_y
_atom_site_fract_z
Si Si1 0.347553 0.308072 0.264100
Si Si2 0.970929 0.582108 0.690010
Si Si3 0.427080 0.199187 0.296481
Si Si4 0.763849 0.156652 0.291532
Si Si5 0.765562 0.460722 0.171251
Si Si6 0.980685 0.157264 0.852888
Si Si7 0.611024 0.815219 0.272246
Si Si8 0.401244 0.016991 0.299692
O O1 0.093822 0.441673 0.538883
O O2 0.333594 0.234043 0.297646
O O3 0.574517 0.390511 0.185083
O O4 0.432838 0.161910 0.002103
O O5 0.133655 0.705952 0.686785
O O6 0.000000 0.500000 0.500000
O O7 0.697228 0.692082 0.018455
O O8 0.393863 0.374025 0.521245
O O9 0.305677 0.104192 0.358197
O O10 0.728669 0.109401 0.002373
O O11 0.595811 0.216890 0.549929
O O12 0.577919 0.108998 0.309230
O O13 0.000000 0.000000 0.000000
O O14 0.000000 0.500000 0.000000
O O15 0.886463 0.324277 0.026539
O O16 0.135839 0.188196 0.854419
O O17 0.170262 0.034602 0.541842
O O18 0.500000 0.000000 0.500000
#
# Coordination Sequence:
#
# PCOD9023273 Si02
#       8
#     2   2   2   2   2   2   2   2
#     4  11  25  42  65  99 141 169 223 282 331 391
#     4  12  26  47  70 100 140 174 222 286 336 398
#     4  11  22  42  66  94 134 175 223 269 336 397
#     4  11  23  43  72  96 130 181 225 273 338 403
#     4  11  21  40  67  93 129 175 216 269 331 397
#     4  10  22  39  67  95 130 171 226 266 329 397
#     4  11  23  41  71 100 129 175 230 273 333 403
#     4  11  23  42  66  98 133 178 223 271 337 396
#
# _framework density 22.049897000000001
#
# number of rings (size 3 to 8) (size 9 to 14) (size 15 to 20)
#    0.000    1.000    2.500    5.625    3.500    2.500 
#    2.250    0.000    0.000    0.000    0.000    0.000 
#    0.000    0.000    0.000    0.000    0.000    0.000 
#
# Total GULP energy -89508.955642 kJ/mol
# GULP energy per Si atom -5594.309728 kJ/mol
# Density = 2.199971 g / cm^3
# Si number density = 22.049897 Si / 1000 Ang^3
#
#
#
# Elastic Constant Matrix: (Units=GPa)
#
#
# Indices 1 2 3 4 5 6 
#
# 1 49.7192 -2.9736 29.8707 -14.7131 2.8382 1.5991
# 2 -2.9736 48.2985 31.4842 -1.5410 19.2653 -1.4485
# 3 29.8707 31.4842 155.6849 2.0139 28.4604 -1.7877
# 4 -14.7131 -1.5410 2.0139 37.6482 -7.7388 9.2512
# 5 2.8382 19.2653 28.4604 -7.7388 40.8676 4.0339
# 6 1.5991 -1.4485 -1.7877 9.2512 4.0339 22.1560
#
#
#
# Elastic Compliance Matrix: (Units=1/GPa)
#
#
# Indices 1 2 3 4 5 6 
#
# 1 0.030012 0.005310 -0.008071 0.015872 0.005027 -0.010013
# 2 0.005310 0.028506 -0.004823 0.000646 -0.010597 0.002751
# 3 -0.008071 -0.004823 0.010163 -0.006286 -0.005906 0.004787
# 4 0.015872 0.000646 -0.006286 0.040925 0.012796 -0.021028
# 5 0.005027 -0.010597 -0.005906 0.012796 0.036996 -0.013611
# 6 -0.010013 0.002751 0.004787 -0.021028 -0.013611 0.057682
#
#
# Mechanical properties :
#
#
# Convention : Reuss Voigt Hill
#
# Bulk Modulus (GPa) = 18.68756 41.16281 29.92519
# Shear Modulus (GPa) = 21.07143 33.15577 27.11360
#
# Velocity S-wave (km/s) = 3.09467 3.88193 3.51044
# Velocity P-wave (km/s) = 4.61117 6.22905 5.48014
#
# Compressibility (1/GPa) = 0.05351153
#
# Stress axis : x y z
#
# Youngs Moduli (GPa) = 33.32052 35.08094 98.39379
#
# Poissons Ratio (x) = -0.18628 0.79417
# Poissons Ratio (y) = -0.17693 0.47456
# Poissons Ratio (z) = 0.26894 0.16920
#
# Static dielectric constant tensor:
#      x y z
#    x 2.637710 1.465940 0.081560 
#    y 1.465940 4.489990 0.077900 
#    z 0.081560 0.077900 1.877150 
# 
# From -- ./inp_files/319099.got.cif
#   From: 2010.05.17/outbox.cif.g08.bks.cpg/sg2_160_cif.got.tgz:319099.got - 2010.06.03 11:33:40.
