data_PCOD9023394
_publ_section_title
;
Structure prediction by ZEFSAII (Michael W. Deem and Ramdas Pophale) SiO2 
 PCOD9023394
Probable space group: P -1
;
_chemical_formula_sum "Si O2"
_cell_formula_units_Z 16
_cell_length_a 10.404870
_cell_length_b 9.102771
_cell_length_c 14.515207
_cell_angle_alpha 129.720326
_cell_angle_beta 83.669553
_cell_angle_gamma 64.022991
_cell_volume 784.817646
_symmetry_space_group_name_H-M "P -1"
_symmetry_group_IT_number 2
_symmetry_cell_setting 'triclinic'
loop_
_space_group_symop_operation_xyz
x,y,z
-x,-y,-z
loop_
_atom_site_type_symbol
_atom_site_label
_atom_site_fract_x
_atom_site_fract_y
_atom_site_fract_z
Si Si1 0.277420 0.193488 0.010583
Si Si2 0.938698 0.276556 0.097926
Si Si3 0.370474 0.380267 0.247272
Si Si4 0.700063 0.532513 0.045808
Si Si5 0.304928 0.220793 0.564585
Si Si6 0.823161 0.061106 0.553887
Si Si7 0.679074 0.155652 0.792203
Si Si8 0.203510 0.333282 0.403963
O O1 0.305441 0.320739 0.140835
O O2 0.104442 0.250241 0.070145
O O3 0.276217 0.315708 0.964988
O O4 0.433193 0.886750 0.866858
O O5 0.846868 0.378248 0.047250
O O6 0.799038 0.501369 0.270446
O O7 0.000000 0.000000 0.000000
O O8 0.333980 0.638517 0.334501
O O9 0.262881 0.438238 0.371664
O O10 0.509766 0.712960 0.178746
O O11 0.690628 0.345530 0.914986
O O12 0.289537 0.263240 0.471192
O O13 0.500000 0.000000 0.500000
O O14 0.204864 0.120671 0.559220
O O15 0.815137 0.027750 0.649137
O O16 0.000000 0.000000 0.500000
O O17 0.726442 0.927152 0.758007
O O18 0.000000 0.500000 0.500000
#
# Coordination Sequence:
#
# PCOD9023394 Si02
#       8
#     2   2   2   2   2   2   2   2
#     4  11  24  42  66 101 143 173 228 285 350 407
#     4  12  28  44  71  99 137 181 231 282 345 421
#     4  11  23  40  70 103 131 174 232 293 336 399
#     4  11  23  43  67  93 137 178 219 279 346 411
#     4  11  27  48  70  97 143 189 226 281 363 428
#     4  11  22  43  68 100 134 177 235 285 344 412
#     4  10  22  39  68  97 125 176 226 271 349 398
#     4  11  22  41  68  99 135 169 236 290 339 407
#
# _framework density 20.386901999999999
#
# number of rings (size 3 to 8) (size 9 to 14) (size 15 to 20)
#    0.000    1.000    2.500    4.875    7.000    0.000 
#    0.000    0.625    0.000    0.000    0.000    0.000 
#    0.000    0.000    0.000    0.000    0.000    0.000 
#
# Total GULP energy -89293.981264 kJ/mol
# GULP energy per Si atom -5580.873829 kJ/mol
# Density = 2.034050 g / cm^3
# Si number density = 20.386902 Si / 1000 Ang^3
#
#
#
# Elastic Constant Matrix: (Units=GPa)
#
#
# Indices 1 2 3 4 5 6 
#
# 1 66.6450 24.3655 32.9636 2.0400 -5.2027 -4.8676
# 2 24.3655 113.3674 43.9211 7.2022 12.5471 -3.0412
# 3 32.9636 43.9211 90.6469 18.0098 -5.9132 -0.7266
# 4 2.0400 7.2022 18.0098 40.1702 12.2500 1.6143
# 5 -5.2027 12.5471 -5.9132 12.2500 27.1381 9.7499
# 6 -4.8676 -3.0412 -0.7266 1.6143 9.7499 36.6540
#
#
#
# Elastic Compliance Matrix: (Units=1/GPa)
#
#
# Indices 1 2 3 4 5 6 
#
# 1 0.018970 -0.001990 -0.006078 0.001446 0.001991 0.001640
# 2 -0.001990 0.013074 -0.007146 0.004215 -0.011126 0.003453
# 3 -0.006078 -0.007146 0.019690 -0.010983 0.012799 -0.003931
# 4 0.001446 0.004215 -0.010983 0.035418 -0.021681 0.004531
# 5 0.001991 -0.011126 0.012799 -0.021681 0.060537 -0.015553
# 6 0.001640 0.003453 -0.003931 0.004531 -0.015553 0.031646
#
#
# Mechanical properties :
#
#
# Convention : Reuss Voigt Hill
#
# Bulk Modulus (GPa) = 46.93983 52.57330 49.75656
# Shear Modulus (GPa) = 23.05562 32.08640 27.57101
#
# Velocity S-wave (km/s) = 3.36654 3.97151 3.68147
# Velocity P-wave (km/s) = 6.17948 6.84648 6.52151
#
# Compressibility (1/GPa) = 0.02130387
#
# Stress axis : x y z
#
# Youngs Moduli (GPa) = 52.71513 76.49009 50.78653
#
# Poissons Ratio (x) = 0.15225 0.30869
# Poissons Ratio (y) = 0.10493 0.36294
# Poissons Ratio (z) = 0.32041 0.54662
#
# Static dielectric constant tensor:
#      x y z
#    x 1.731470 -0.012540 -0.012130 
#    y -0.012540 1.737610 0.047440 
#    z -0.012130 0.047440 1.790620 
# 
# From -- ./inp_files/495709.got.cif
#   From: 2010.05.17/outbox.cif.g08.bks.cpg/sg2_248_cif.got.tgz:495709.got - 2010.06.03 11:33:40.
