data_PCOD9023521
_publ_section_title
;
Structure prediction by ZEFSAII (Michael W. Deem and Ramdas Pophale) SiO2 
 PCOD9023521
Probable space group: P -1
;
_chemical_formula_sum "Si O2"
_cell_formula_units_Z 16
_cell_length_a 11.854218
_cell_length_b 13.759238
_cell_length_c 8.609053
_cell_angle_alpha 76.733840
_cell_angle_beta 107.075571
_cell_angle_gamma 148.733916
_cell_volume 696.006397
_symmetry_space_group_name_H-M "P -1"
_symmetry_group_IT_number 2
_symmetry_cell_setting 'triclinic'
loop_
_space_group_symop_operation_xyz
x,y,z
-x,-y,-z
loop_
_atom_site_type_symbol
_atom_site_label
_atom_site_fract_x
_atom_site_fract_y
_atom_site_fract_z
Si Si1 0.292829 0.265955 0.572505
Si Si2 0.361537 0.096190 0.010381
Si Si3 0.487415 0.018126 0.303580
Si Si4 0.007548 0.597903 0.590248
Si Si5 0.664223 0.498206 0.401220
Si Si6 0.384684 0.317551 0.083472
Si Si7 0.768702 0.335728 0.869725
Si Si8 0.008212 0.113098 0.242044
O O1 0.491946 0.357409 0.525366
O O2 0.352006 0.394125 0.669139
O O3 0.172354 0.251601 0.400720
O O4 0.139833 0.076370 0.661721
O O5 0.582053 0.239326 0.947492
O O6 0.150951 0.916951 0.882586
O O7 0.381014 0.046786 0.194226
O O8 0.325604 0.188012 0.988104
O O9 0.750857 0.213898 0.307799
O O10 0.500000 0.000000 0.500000
O O11 0.348725 0.842312 0.202834
O O12 0.000000 0.500000 0.500000
O O13 0.906574 0.624949 0.462708
O O14 0.834453 0.451084 0.709341
O O15 0.552311 0.378939 0.243544
O O16 0.168491 0.190505 0.142238
O O17 0.500000 0.500000 0.000000
O O18 0.000000 0.500000 0.000000
#
# Coordination Sequence:
#
# PCOD9023521 Si02
#       8
#     2   2   2   2   2   2   2   2
#     4   9  20  42  66 106 135 180 240 303 371 443
#     4  12  26  46  73 104 148 194 246 313 379 438
#     4  12  28  49  74 110 149 198 261 306 377 457
#     4  12  25  47  73 106 149 198 249 308 374 450
#     4  10  22  39  70  96 139 185 236 295 369 438
#     4  11  25  43  67 103 146 190 243 296 377 455
#     4  12  28  48  75 106 152 192 256 318 368 446
#     4  10  22  41  68 101 141 179 240 301 369 442
#
# _framework density 22.988292000000001
#
# number of rings (size 3 to 8) (size 9 to 14) (size 15 to 20)
#    0.000    1.000    2.500    3.000    1.750    5.000 
#    0.000    0.000    0.000    0.000    0.000    0.000 
#    0.000    0.000    0.000    0.000    0.000    0.000 
#
# Total GULP energy -89182.554023 kJ/mol
# GULP energy per Si atom -5573.909626 kJ/mol
# Density = 2.293597 g / cm^3
# Si number density = 22.988292 Si / 1000 Ang^3
#
#
#
# Elastic Constant Matrix: (Units=GPa)
#
#
# Indices 1 2 3 4 5 6 
#
# 1 55.9792 25.1716 47.7759 2.9815 6.0682 9.1163
# 2 25.1716 101.0579 32.4736 10.9332 12.0719 -1.4974
# 3 47.7759 32.4736 132.2476 14.6105 10.0859 8.6885
# 4 2.9815 10.9332 14.6105 52.7697 7.9051 8.7269
# 5 6.0682 12.0719 10.0859 7.9051 36.7418 13.2245
# 6 9.1163 -1.4974 8.6885 8.7269 13.2245 34.3842
#
#
#
# Elastic Compliance Matrix: (Units=1/GPa)
#
#
# Indices 1 2 3 4 5 6 
#
# 1 0.028586 -0.004723 -0.009129 0.002819 0.001113 -0.006622
# 2 -0.004723 0.012155 -0.001018 -0.002051 -0.003962 0.004083
# 3 -0.009129 -0.001018 0.011413 -0.002367 -0.000946 0.000457
# 4 0.002819 -0.002051 -0.002367 0.020956 -0.001915 -0.004821
# 5 0.001113 -0.003962 -0.000946 -0.001915 0.033560 -0.012650
# 6 -0.006622 0.004083 0.000457 -0.004821 -0.012650 0.036990
#
#
# Mechanical properties :
#
#
# Convention : Reuss Voigt Hill
#
# Bulk Modulus (GPa) = 44.61350 55.56964 50.09157
# Shear Modulus (GPa) = 27.64432 37.03670 32.34051
#
# Velocity S-wave (km/s) = 3.47153 4.01822 3.75484
# Velocity P-wave (km/s) = 5.95968 6.76414 6.37462
#
# Compressibility (1/GPa) = 0.02241474
#
# Stress axis : x y z
#
# Youngs Moduli (GPa) = 34.98232 82.27388 87.61982
#
# Poissons Ratio (x) = 0.38858 0.79984
# Poissons Ratio (y) = 0.16522 0.08918
# Poissons Ratio (z) = 0.31934 0.08374
#
# Static dielectric constant tensor:
#      x y z
#    x 1.842000 -0.041050 0.009410 
#    y -0.041050 1.911420 0.059340 
#    z 0.009410 0.059340 1.951760 
# 
# From -- ./inp_files/272638.got.cif
#   From: 2010.05.17/outbox.cif.g08.bks.cpg/sg2_137_cif.got.tgz:272638.got - 2010.06.03 11:33:40.
