data_PCOD9023731
_publ_section_title
;
Structure prediction by ZEFSAII (Michael W. Deem and Ramdas Pophale) SiO2 
 PCOD9023731
Probable space group: P -1
;
_chemical_formula_sum "Si O2"
_cell_formula_units_Z 16
_cell_length_a 23.360662
_cell_length_b 8.013073
_cell_length_c 9.191365
_cell_angle_alpha 147.752480
_cell_angle_beta 113.663424
_cell_angle_gamma 50.681193
_cell_volume 671.447978
_symmetry_space_group_name_H-M "P -1"
_symmetry_group_IT_number 2
_symmetry_cell_setting 'triclinic'
loop_
_space_group_symop_operation_xyz
x,y,z
-x,-y,-z
loop_
_atom_site_type_symbol
_atom_site_label
_atom_site_fract_x
_atom_site_fract_y
_atom_site_fract_z
Si Si1 0.486380 0.402022 0.755227
Si Si2 0.363573 0.021246 0.588168
Si Si3 0.235750 0.610509 0.440815
Si Si4 0.118671 0.126688 0.110370
Si Si5 0.720915 0.100357 0.826247
Si Si6 0.979562 0.143500 0.249919
Si Si7 0.084272 0.759497 0.330595
Si Si8 0.674080 0.022194 0.152525
O O1 0.401562 0.721402 0.837969
O O2 0.500000 0.000000 0.500000
O O3 0.552358 0.309152 0.638898
O O4 0.500000 0.500000 0.000000
O O5 0.302731 0.993241 0.415885
O O6 0.355134 0.963518 0.705334
O O7 0.344330 0.448612 0.861939
O O8 0.142163 0.865753 0.510182
O O9 0.273152 0.822996 0.684645
O O10 0.263594 0.241921 0.303218
O O11 0.272701 0.414013 0.177732
O O12 0.055759 0.442635 0.400343
O O13 0.123209 0.341627 0.134173
O O14 0.202002 0.914987 0.113716
O O15 0.092561 0.883852 0.830728
O O16 0.058302 0.832751 0.191658
O O17 0.000000 0.000000 0.000000
O O18 0.000000 0.000000 0.500000
#
# Coordination Sequence:
#
# PCOD9023731 Si02
#       8
#     2   2   2   2   2   2   2   2
#     4  12  25  45  72  98 132 177 221 265 316 392
#     4  12  25  43  68 100 137 173 214 273 332 388
#     4  11  24  43  69  95 131 175 223 273 323 394
#     4  10  22  40  61  86 123 167 213 266 318 386
#     4  11  23  42  66  94 127 173 224 264 321 391
#     4  11  22  37  60  90 124 163 210 267 332 392
#     4   9  22  42  64  91 124 169 221 270 323 386
#     4  12  26  44  66 102 136 169 215 272 335 387
#
# _framework density 23.829098999999999
#
# number of rings (size 3 to 8) (size 9 to 14) (size 15 to 20)
#    0.000    1.000    0.000    7.125    0.000   10.000 
#    0.000    3.750    0.000    0.000    0.000    0.000 
#    0.000    0.000    0.000    0.000    0.000    0.000 
#
# Total GULP energy -89470.483645 kJ/mol
# GULP energy per Si atom -5591.905228 kJ/mol
# Density = 2.377486 g / cm^3
# Si number density = 23.829099 Si / 1000 Ang^3
#
#
#
# Elastic Constant Matrix: (Units=GPa)
#
#
# Indices 1 2 3 4 5 6 
#
# 1 89.9979 49.5709 29.1469 -17.1045 -9.0795 -18.3978
# 2 49.5709 116.2362 42.4777 -42.8331 -8.1859 -19.3582
# 3 29.1469 42.4777 142.0165 -28.5444 6.9717 -7.5338
# 4 -17.1045 -42.8331 -28.5444 42.2120 1.2197 0.8478
# 5 -9.0795 -8.1859 6.9717 1.2197 51.8881 -6.7537
# 6 -18.3978 -19.3582 -7.5338 0.8478 -6.7537 33.2761
#
#
#
# Elastic Compliance Matrix: (Units=1/GPa)
#
#
# Indices 1 2 3 4 5 6 
#
# 1 0.015935 -0.004890 -0.001585 0.000211 0.003034 0.006217
# 2 -0.004890 0.018391 -0.001056 0.015725 0.002851 0.007934
# 3 -0.001585 -0.001056 0.008600 0.004151 -0.001696 0.000007
# 4 0.000211 0.015725 0.004151 0.042282 0.002212 0.009576
# 5 0.003034 0.002851 -0.001696 0.002212 0.021370 0.007233
# 6 0.006217 0.007934 0.000007 0.009576 0.007233 0.039330
#
#
# Mechanical properties :
#
#
# Convention : Reuss Voigt Hill
#
# Bulk Modulus (GPa) = 35.88560 65.62684 50.75622
# Shear Modulus (GPa) = 29.36713 40.61225 34.98969
#
# Velocity S-wave (km/s) = 3.51437 4.13281 3.83608
# Velocity P-wave (km/s) = 5.61783 7.09746 6.40054
#
# Compressibility (1/GPa) = 0.02786633
#
# Stress axis : x y z
#
# Youngs Moduli (GPa) = 62.75474 54.37444 116.27329
#
# Poissons Ratio (x) = 0.26588 0.18424
# Poissons Ratio (y) = 0.30685 0.12276
# Poissons Ratio (z) = 0.09944 0.05741
#
# Static dielectric constant tensor:
#      x y z
#    x 2.033350 -0.002720 -0.058950 
#    y -0.002720 1.947240 0.046450 
#    z -0.058950 0.046450 1.882550 
# 
# From -- ./inp_files/352518.got.cif
#   From: 2010.05.17/outbox.cif.g08.bks.cpg/sg2_177_cif.got.tgz:352518.got - 2010.06.03 11:33:40.
