data_PCOD9023608
_publ_section_title
;
Structure prediction by ZEFSAII (Michael W. Deem and Ramdas Pophale) SiO2 
 PCOD9023608
Probable space group: P -1
;
_chemical_formula_sum "Si O2"
_cell_formula_units_Z 16
_cell_length_a 21.608477
_cell_length_b 24.661833
_cell_length_c 6.282685
_cell_angle_alpha 50.018911
_cell_angle_beta 56.241140
_cell_angle_gamma 18.275309
_cell_volume 783.582694
_symmetry_space_group_name_H-M "P -1"
_symmetry_group_IT_number 2
_symmetry_cell_setting 'triclinic'
loop_
_space_group_symop_operation_xyz
x,y,z
-x,-y,-z
loop_
_atom_site_type_symbol
_atom_site_label
_atom_site_fract_x
_atom_site_fract_y
_atom_site_fract_z
Si Si1 0.423042 0.232635 0.677882
Si Si2 0.368581 0.046430 0.686117
Si Si3 0.389783 0.884627 0.773449
Si Si4 0.725264 0.292890 0.192824
Si Si5 0.207895 0.500372 0.800170
Si Si6 0.988122 0.176096 0.731999
Si Si7 0.007927 0.937718 0.338568
Si Si8 0.037385 0.549024 0.340816
O O1 0.593015 0.122100 0.496309
O O2 0.300486 0.385360 0.700217
O O3 0.256496 0.357487 0.512101
O O4 0.526479 0.077185 0.992542
O O5 0.137871 0.268205 0.628466
O O6 0.500000 0.000000 0.500000
O O7 0.376687 0.974292 0.682502
O O8 0.594370 0.666429 0.009593
O O9 0.196950 0.007401 0.879564
O O10 0.787816 0.242782 0.450857
O O11 0.500000 0.500000 0.000000
O O12 0.851237 0.244741 0.960660
O O13 0.824226 0.129855 0.348487
O O14 0.108561 0.662196 0.530125
O O15 0.058529 0.578243 0.013931
O O16 0.018781 0.112357 0.604502
O O17 0.000000 0.000000 0.000000
O O18 0.000000 0.500000 0.500000
#
# Coordination Sequence:
#
# PCOD9023608 Si02
#       8
#     2   2   2   2   2   2   2   2
#     4  10  22  40  58  80 118 158 202 261 316 375
#     4  11  23  39  61  87 120 163 211 261 318 381
#     4  10  23  40  59  89 124 162 211 262 318 378
#     4  10  23  42  66  95 128 169 213 256 318 392
#     4  10  23  39  59  91 122 161 211 260 319 376
#     4  11  23  38  63  93 127 164 207 266 321 378
#     4   9  22  42  63  92 127 164 208 256 315 386
#     4  11  23  39  60  86 119 160 211 263 317 382
#
# _framework density 20.419031
#
# number of rings (size 3 to 8) (size 9 to 14) (size 15 to 20)
#    0.000    1.750    0.000    3.750    0.000   17.000 
#    0.000    0.000    0.000    0.000    0.000    0.000 
#    0.000    0.000    0.000    0.000    0.000    0.000 
#
# Total GULP energy -89236.321937 kJ/mol
# GULP energy per Si atom -5577.270121 kJ/mol
# Density = 2.037256 g / cm^3
# Si number density = 20.419031 Si / 1000 Ang^3
#
#
#
# Elastic Constant Matrix: (Units=GPa)
#
#
# Indices 1 2 3 4 5 6 
#
# 1 17.0891 -1.3968 12.9084 9.0305 13.0972 -36.4283
# 2 -1.3968 78.7913 14.8669 2.9785 0.9239 -31.0446
# 3 12.9084 14.8669 90.7026 1.5058 5.0038 -15.6081
# 4 9.0305 2.9785 1.5058 37.6437 -1.7826 0.9288
# 5 13.0972 0.9239 5.0038 -1.7826 27.8792 6.2679
# 6 -36.4283 -31.0446 -15.6081 0.9288 6.2679 23.9338
#
#
#
# Elastic Compliance Matrix: (Units=1/GPa)
#
#
# Indices 1 2 3 4 5 6 
#
# 1 -0.005726 -0.010235 -0.002633 0.003396 0.009647 -0.026368
# 2 -0.010235 0.011344 -0.001295 0.001950 0.005516 -0.003229
# 3 -0.002633 -0.001295 0.012141 0.000114 -0.001479 0.002613
# 4 0.003396 0.001950 0.000114 0.025333 -0.001687 0.007232
# 5 0.009647 0.005516 -0.001479 -0.001687 0.028269 0.013535
# 6 -0.026368 -0.003229 0.002613 0.007232 0.013535 -0.004660
#
#
# Mechanical properties :
#
#
# Convention : Reuss Voigt Hill
#
# Bulk Modulus (GPa) = -94.62222 26.59332 -34.01445
# Shear Modulus (GPa) = 54.64202 28.57165 41.60684
#
# Velocity S-wave (km/s) = 5.17865 3.74473 4.51893
# Velocity P-wave (km/s) = 3.26847 5.63466 3.24550
#
# Compressibility (1/GPa) = -0.01056834
#
# Stress axis : x y z
#
# Youngs Moduli (GPa) = -174.62815 88.15203 82.36256
#
# Poissons Ratio (x) = 0.90226 0.21689
# Poissons Ratio (y) = -1.78738 0.10666
# Poissons Ratio (z) = -0.45985 0.11416
#
# Static dielectric constant tensor:
#      x y z
#    x 1.743100 -0.003680 0.019760 
#    y -0.003680 1.772600 0.016960 
#    z 0.019760 0.016960 1.757560 
# 
# From -- ./inp_files/120625.got.cif
#   From: 2010.05.17/outbox.cif.g08.bks.cpg/sg2_61_cif.got.tgz:120625.got - 2010.06.03 11:33:40.
