data_PCOD9023137
_publ_section_title
;
Structure prediction by ZEFSAII (Michael W. Deem and Ramdas Pophale) SiO2 
 PCOD9023137
Probable space group: P -1
;
_chemical_formula_sum "Si O2"
_cell_formula_units_Z 14
_cell_length_a 9.649059
_cell_length_b 9.162151
_cell_length_c 8.826098
_cell_angle_alpha 46.518011
_cell_angle_beta 72.716356
_cell_angle_gamma 94.225567
_cell_volume 495.128067
_symmetry_space_group_name_H-M "P -1"
_symmetry_group_IT_number 2
_symmetry_cell_setting 'triclinic'
loop_
_space_group_symop_operation_xyz
x,y,z
-x,-y,-z
loop_
_atom_site_type_symbol
_atom_site_label
_atom_site_fract_x
_atom_site_fract_y
_atom_site_fract_z
Si Si1 0.063801 0.814848 0.076110
Si Si2 0.237473 0.355239 0.274366
Si Si3 0.655784 0.719950 0.107532
Si Si4 0.493338 0.236165 0.591255
Si Si5 0.978510 0.726743 0.856655
Si Si6 0.792801 0.408964 0.587578
Si Si7 0.487185 0.187012 0.204487
O O1 0.107964 0.848988 0.858492
O O2 0.926501 0.564439 0.318317
O O3 0.174735 0.777526 0.196523
O O4 0.000000 0.000000 0.000000
O O5 0.212652 0.421527 0.403333
O O6 0.341889 0.213589 0.319182
O O7 0.068377 0.242074 0.324374
O O8 0.351495 0.592376 0.992907
O O9 0.544652 0.461182 0.324185
O O10 0.651732 0.790705 0.232043
O O11 0.823703 0.741316 0.975473
O O12 0.572761 0.821534 0.944505
O O13 0.636770 0.296009 0.621820
O O14 0.485956 0.035094 0.636385
O O15 0.000000 0.500000 0.000000
#
# Coordination Sequence:
#
# PCOD9023137 Si02
#       7
#     2   2   2   2   2   2   2
#     4  11  26  45  68  95 127 180 229 268 328 397
#     4  10  22  41  65  97 138 169 214 277 329 399
#     4  10  22  39  66  94 133 168 223 277 319 390
#     4  11  22  39  70  99 130 173 225 275 327 392
#     4  11  22  44  64  92 135 175 212 274 334 381
#     4  11  23  44  67  96 134 170 226 278 323 394
#     4  10  22  41  65  97 133 175 212 267 344 387
#
# _framework density 28.275514000000001
#
# number of rings (size 3 to 8) (size 9 to 14) (size 15 to 20)
#    0.000    1.429    4.286    0.429    4.000    0.000 
#    2.571    7.143    0.000    0.000    0.000    0.000 
#    0.000    0.000    0.000    0.000    0.000    0.000 
#
# Total GULP energy -78367.921704 kJ/mol
# GULP energy per Si atom -5597.708693 kJ/mol
# Density = 2.821116 g / cm^3
# Si number density = 28.275514 Si / 1000 Ang^3
#
#
#
# Elastic Constant Matrix: (Units=GPa)
#
#
# Indices 1 2 3 4 5 6 
#
# 1 116.0107 6.3488 23.2681 -1.3166 32.3525 11.4332
# 2 6.3488 181.8010 37.6331 -4.4032 14.3847 -13.4098
# 3 23.2681 37.6331 88.9337 -16.0880 7.0474 7.1854
# 4 -1.3166 -4.4032 -16.0880 61.6976 -0.6519 16.9641
# 5 32.3525 14.3847 7.0474 -0.6519 54.2342 13.1180
# 6 11.4332 -13.4098 7.1854 16.9641 13.1180 43.7280
#
#
#
# Elastic Compliance Matrix: (Units=1/GPa)
#
#
# Indices 1 2 3 4 5 6 
#
# 1 0.010888 0.000655 -0.002698 -0.000452 -0.006289 -0.000141
# 2 0.000655 0.006617 -0.003326 -0.001442 -0.002639 0.003756
# 3 -0.002698 -0.003326 0.014519 0.004939 0.001920 -0.005192
# 4 -0.000452 -0.001442 0.004939 0.020079 0.002599 -0.009705
# 5 -0.006289 -0.002639 0.001920 0.002599 0.024573 -0.007860
# 6 -0.000141 0.003756 -0.005192 -0.009705 -0.007860 0.031033
#
#
# Mechanical properties :
#
#
# Convention : Reuss Voigt Hill
#
# Bulk Modulus (GPa) = 46.98292 57.91616 52.44954
# Shear Modulus (GPa) = 39.82688 53.23167 46.52928
#
# Velocity S-wave (km/s) = 3.75711 4.34361 4.06096
# Velocity P-wave (km/s) = 5.95595 6.75893 6.37011
#
# Compressibility (1/GPa) = 0.02128433
#
# Stress axis : x y z
#
# Youngs Moduli (GPa) = 91.84561 151.12225 68.87747
#
# Poissons Ratio (x) = -0.09891 0.18581
# Poissons Ratio (y) = -0.06011 0.22912
# Poissons Ratio (z) = 0.24777 0.50270
#
# Static dielectric constant tensor:
#      x y z
#    x 2.300170 0.072410 0.008570 
#    y 0.072410 2.167030 0.034620 
#    z 0.008570 0.034620 2.221080 
# 
# From -- ./inp_files/236647.got.cif
#   From: 2010.05.17/outbox.cif.g08.bks.cpg/sg2_119_cif.got.tgz:236647.got - 2010.06.03 11:33:40.
