data_PCOD9023315
_publ_section_title
;
Structure prediction by ZEFSAII (Michael W. Deem and Ramdas Pophale) SiO2 
 PCOD9023315
Probable space group: P -1
;
_chemical_formula_sum "Si O2"
_cell_formula_units_Z 16
_cell_length_a 9.957935
_cell_length_b 10.604874
_cell_length_c 14.225319
_cell_angle_alpha 100.019426
_cell_angle_beta 53.128268
_cell_angle_gamma 55.382861
_cell_volume 616.397022
_symmetry_space_group_name_H-M "P -1"
_symmetry_group_IT_number 2
_symmetry_cell_setting 'triclinic'
loop_
_space_group_symop_operation_xyz
x,y,z
-x,-y,-z
loop_
_atom_site_type_symbol
_atom_site_label
_atom_site_fract_x
_atom_site_fract_y
_atom_site_fract_z
Si Si1 0.955305 0.738011 0.271785
Si Si2 0.724600 0.028331 0.691200
Si Si3 0.752430 0.012704 0.006389
Si Si4 0.087746 0.361552 0.353100
Si Si5 0.005255 0.131626 0.913011
Si Si6 0.691678 0.500430 0.386205
Si Si7 0.312724 0.665617 0.249391
Si Si8 0.389371 0.230708 0.677360
O O1 0.929921 0.616356 0.218242
O O2 0.255946 0.596442 0.184439
O O3 0.665407 0.949656 0.494492
O O4 0.896569 0.869816 0.225652
O O5 0.706774 0.179107 0.765618
O O6 0.417232 0.219940 0.775436
O O7 0.773283 0.869738 0.709776
O O8 0.036528 0.832637 0.465619
O O9 0.766859 0.988043 0.110524
O O10 0.967287 0.767606 0.833625
O O11 0.380102 0.245921 0.165327
O O12 0.934275 0.028280 0.916615
O O13 0.000000 0.500000 0.500000
O O14 0.776633 0.536383 0.442891
O O15 0.656160 0.419538 0.120225
O O16 0.500000 0.500000 0.500000
O O17 0.526640 0.690302 0.397852
#
# Coordination Sequence:
#
# PCOD9023315 Si02
#       8
#     2   2   2   2   2   2   2   2
#     4  10  22  39  67  99 133 177 234 290 343 418
#     4  10  23  42  69  97 138 178 238 289 347 413
#     4  11  27  45  69 103 150 182 239 296 351 428
#     4  12  29  47  75 105 146 191 238 291 365 422
#     4  11  23  41  71  99 141 181 236 285 367 411
#     4  12  29  47  75 105 146 191 238 291 365 422
#     4  10  22  39  67  99 133 177 234 290 343 418
#     4  10  23  42  69  97 138 178 238 289 347 413
#
# _framework density 25.957294999999998
#
# number of rings (size 3 to 8) (size 9 to 14) (size 15 to 20)
#    0.000    1.250    0.000    3.750   21.000    1.000 
#    0.000    2.500    0.000    0.000    0.000    0.000 
#    0.000    0.000    0.000    0.000    0.000    0.000 
#
# Total GULP energy -89635.415406 kJ/mol
# GULP energy per Si atom -5602.213463 kJ/mol
# Density = 2.589821 g / cm^3
# Si number density = 25.957295 Si / 1000 Ang^3
#
#
#
# Elastic Constant Matrix: (Units=GPa)
#
#
# Indices 1 2 3 4 5 6 
#
# 1 127.8404 33.2420 21.2732 -1.3974 -5.6967 -5.1208
# 2 33.2420 110.0453 -25.8426 -10.1193 -3.4821 9.2839
# 3 21.2732 -25.8426 65.4820 4.3512 -1.2646 3.8645
# 4 -1.3974 -10.1193 4.3512 34.0837 1.9960 -1.6152
# 5 -5.6967 -3.4821 -1.2646 1.9960 37.3559 5.2840
# 6 -5.1208 9.2839 3.8645 -1.6152 5.2840 40.1067
#
#
#
# Elastic Compliance Matrix: (Units=1/GPa)
#
#
# Indices 1 2 3 4 5 6 
#
# 1 0.009961 -0.004439 -0.005127 -0.000159 0.000556 0.002714
# 2 -0.004439 0.012570 0.006508 0.002453 0.001172 -0.004159
# 3 -0.005127 0.006508 0.019852 -0.001083 0.001159 -0.004270
# 4 -0.000159 0.002453 -0.001083 0.030337 -0.001587 0.000947
# 5 0.000556 0.001172 0.001159 -0.001587 0.027656 -0.004020
# 6 0.002714 -0.004159 -0.004270 0.000947 -0.004020 0.027222
#
#
# Mechanical properties :
#
#
# Convention : Reuss Voigt Hill
#
# Bulk Modulus (GPa) = 27.57318 40.07919 33.82619
# Shear Modulus (GPa) = 34.29269 40.62226 37.45748
#
# Velocity S-wave (km/s) = 3.63866 3.96026 3.80286
# Velocity P-wave (km/s) = 5.31966 6.03204 5.68701
#
# Compressibility (1/GPa) = 0.03626713
#
# Stress axis : x y z
#
# Youngs Moduli (GPa) = 100.38733 79.55458 50.37364
#
# Poissons Ratio (x) = 0.35315 0.25826
# Poissons Ratio (y) = 0.44562 -0.32783
# Poissons Ratio (z) = 0.51468 -0.51774
#
# Static dielectric constant tensor:
#      x y z
#    x 2.071460 0.014790 -0.019990 
#    y 0.014790 2.027580 0.005580 
#    z -0.019990 0.005580 2.015710 
# 
# From -- ./inp_files/500540.got.cif
#   From: 2010.05.17/outbox.cif.g08.bks.cpg/sg2_251_cif.got.tgz:500540.got - 2010.06.03 11:33:40.
