data_PCOD9023434
_publ_section_title
;
Structure prediction by ZEFSAII (Michael W. Deem and Ramdas Pophale) SiO2 
 PCOD9023434
Probable space group: P -1
;
_chemical_formula_sum "Si O2"
_cell_formula_units_Z 16
_cell_length_a 11.822624
_cell_length_b 22.968334
_cell_length_c 18.595336
_cell_angle_alpha 150.617112
_cell_angle_beta 37.695039
_cell_angle_gamma 160.166127
_cell_volume 828.282351
_symmetry_space_group_name_H-M "P -1"
_symmetry_group_IT_number 2
_symmetry_cell_setting 'triclinic'
loop_
_space_group_symop_operation_xyz
x,y,z
-x,-y,-z
loop_
_atom_site_type_symbol
_atom_site_label
_atom_site_fract_x
_atom_site_fract_y
_atom_site_fract_z
Si Si1 0.197683 0.608866 0.899702
Si Si2 0.400600 0.947697 0.827148
Si Si3 0.335093 0.507956 0.269308
Si Si4 0.753438 0.519703 0.136391
Si Si5 0.427906 0.833018 0.321933
Si Si6 0.662382 0.848243 0.356811
Si Si7 0.267807 0.123605 0.433306
Si Si8 0.507333 0.009034 0.679081
O O1 0.387829 0.629728 0.885507
O O2 0.972779 0.410665 0.745342
O O3 0.908268 0.518001 0.995753
O O4 0.427213 0.838709 0.002512
O O5 0.652075 0.969999 0.723775
O O6 0.056744 0.725369 0.798370
O O7 0.322649 0.925092 0.757030
O O8 0.510207 0.482510 0.182030
O O9 0.512578 0.655159 0.266887
O O10 0.404890 0.637042 0.439703
O O11 0.092219 0.763935 0.260003
O O12 0.589849 0.822591 0.281496
O O13 0.571765 0.932561 0.276618
O O14 0.500000 0.000000 0.500000
O O15 0.477991 0.862426 0.502507
O O16 0.063061 0.067424 0.408865
O O17 0.000000 0.000000 0.500000
#
# Coordination Sequence:
#
# PCOD9023434 Si02
#       8
#     2   2   2   2   2   2   2   2
#     4   9  18  34  53  75 105 131 173 218 253 298
#     4  11  20  31  52  82 109 134 163 213 270 302
#     4  11  20  30  51  82 109 135 167 207 264 312
#     4   9  17  32  54  77 100 133 174 217 255 291
#     4   9  19  32  56  78  95 133 181 216 246 298
#     4  10  17  31  52  76 102 133 175 211 248 295
#     4  10  17  31  52  76 106 131 174 215 246 294
#     4   9  15  31  52  77 101 128 171 216 252 290
#
# _framework density 19.317084000000001
#
# number of rings (size 3 to 8) (size 9 to 14) (size 15 to 20)
#    0.000    2.250    3.750    3.375    0.000    0.500 
#    0.000    3.125    0.000    3.750    0.000    0.000 
#    0.000    0.000    0.000    0.000    0.000    0.000 
#
# Total GULP energy -89070.229075 kJ/mol
# GULP energy per Si atom -5566.889317 kJ/mol
# Density = 1.927312 g / cm^3
# Si number density = 19.317084 Si / 1000 Ang^3
#
#
#
# Elastic Constant Matrix: (Units=GPa)
#
#
# Indices 1 2 3 4 5 6 
#
# 1 123.3791 13.4732 14.0032 -1.3491 -13.9638 11.4536
# 2 13.4732 34.0821 17.8612 14.9964 -4.3715 5.2677
# 3 14.0032 17.8612 72.5473 21.6153 -15.2885 3.9739
# 4 -1.3491 14.9964 21.6153 21.8463 0.6989 -0.1830
# 5 -13.9638 -4.3715 -15.2885 0.6989 27.3909 -0.3319
# 6 11.4536 5.2677 3.9739 -0.1830 -0.3319 10.1549
#
#
#
# Elastic Compliance Matrix: (Units=1/GPa)
#
#
# Indices 1 2 3 4 5 6 
#
# 1 0.009841 -0.003014 -0.000827 0.003295 0.003881 -0.009027
# 2 -0.003014 0.050838 0.002599 -0.038139 0.008706 -0.024392
# 3 -0.000827 0.002599 0.025005 -0.027126 0.014518 -0.010215
# 4 0.003295 -0.038139 -0.027126 0.099926 -0.021761 0.027772
# 5 0.003881 0.008706 0.014518 -0.021761 0.048373 -0.013386
# 6 -0.009027 -0.024392 -0.010215 0.027772 -0.013386 0.125369
#
#
# Mechanical properties :
#
#
# Convention : Reuss Voigt Hill
#
# Bulk Modulus (GPa) = 12.01908 35.63153 23.82530
# Shear Modulus (GPa) = 12.83469 24.18982 18.51225
#
# Velocity S-wave (km/s) = 2.58043 3.54255 3.09906
# Velocity P-wave (km/s) = 3.88763 5.93452 5.01658
#
# Compressibility (1/GPa) = 0.08320105
#
# Stress axis : x y z
#
# Youngs Moduli (GPa) = 101.61204 19.67032 39.99208
#
# Poissons Ratio (x) = 0.05929 0.03307
# Poissons Ratio (y) = 0.30626 -0.10395
# Poissons Ratio (z) = 0.08403 -0.05113
#
# Static dielectric constant tensor:
#      x y z
#    x 1.743720 -0.011640 0.007900 
#    y -0.011640 1.668610 0.027970 
#    z 0.007900 0.027970 1.771860 
# 
# From -- ./inp_files/253988.got.cif
#   From: 2010.05.17/outbox.cif.g08.bks.cpg/sg2_127_cif.got.tgz:253988.got - 2010.06.03 11:33:40.
