data_PCOD9023954
_publ_section_title
;
Structure prediction by ZEFSAII (Michael W. Deem and Ramdas Pophale) SiO2 
 PCOD9023954
Probable space group: P -1
;
_chemical_formula_sum "Si O2"
_cell_formula_units_Z 16
_cell_length_a 12.002672
_cell_length_b 13.383779
_cell_length_c 9.078326
_cell_angle_alpha 119.078430
_cell_angle_beta 37.423528
_cell_angle_gamma 133.417761
_cell_volume 637.792055
_symmetry_space_group_name_H-M "P -1"
_symmetry_group_IT_number 2
_symmetry_cell_setting 'triclinic'
loop_
_space_group_symop_operation_xyz
x,y,z
-x,-y,-z
loop_
_atom_site_type_symbol
_atom_site_label
_atom_site_fract_x
_atom_site_fract_y
_atom_site_fract_z
Si Si1 0.705731 0.800033 0.142874
Si Si2 0.515500 0.846532 0.870155
Si Si3 0.272223 0.259345 0.256556
Si Si4 0.377731 0.535201 0.456162
Si Si5 0.129366 0.860194 0.225808
Si Si6 0.133961 0.795024 0.752368
Si Si7 0.154556 0.395500 0.866628
Si Si8 0.399947 0.022673 0.445570
O O1 0.471471 0.673339 0.365413
O O2 0.722501 0.932039 0.283568
O O3 0.691402 0.777853 0.968129
O O4 0.916599 0.799489 0.971925
O O5 0.555779 0.734197 0.802224
O O6 0.593276 0.910599 0.670500
O O7 0.675382 0.981257 0.901711
O O8 0.264523 0.800590 0.106375
O O9 0.282677 0.400292 0.356662
O O10 0.031181 0.140749 0.486490
O O11 0.215937 0.500248 0.740005
O O12 0.607717 0.563102 0.297033
O O13 0.968701 0.754622 0.194139
O O14 0.345603 0.896802 0.708439
O O15 0.259484 0.856594 0.505748
O O16 0.010984 0.641288 0.847997
#
# Coordination Sequence:
#
# PCOD9023954 Si02
#       8
#     2   2   2   2   2   2   2   2
#     4  11  24  41  65  93 128 172 213 266 321 378
#     4  11  24  38  64  99 130 168 212 261 321 392
#     4  11  24  41  65  93 128 172 213 266 321 378
#     4   9  21  40  66  90 126 170 222 262 312 376
#     4  10  22  40  62  92 133 165 209 261 323 376
#     4  10  22  40  62  92 133 165 209 261 323 376
#     4   9  18  38  65  90 119 172 203 264 312 373
#     4  11  24  38  64  99 130 168 212 261 321 392
#
# _framework density 25.086545999999998
#
# number of rings (size 3 to 8) (size 9 to 14) (size 15 to 20)
#    0.000    1.750    1.250    1.875   10.500    2.000 
#    0.000    6.250    0.000    7.500    0.000    0.000 
#    0.000    0.000    0.000    0.000    0.000    0.000 
#
# Total GULP energy -89280.910246 kJ/mol
# GULP energy per Si atom -5580.056890 kJ/mol
# Density = 2.502945 g / cm^3
# Si number density = 25.086546 Si / 1000 Ang^3
#
#
#
# Elastic Constant Matrix: (Units=GPa)
#
#
# Indices 1 2 3 4 5 6 
#
# 1 107.3724 15.5105 43.4576 -1.1303 10.3095 1.7016
# 2 15.5105 54.0575 10.5370 -9.9570 8.3151 1.7832
# 3 43.4576 10.5370 134.0788 -25.8237 9.8610 -8.9189
# 4 -1.1303 -9.9570 -25.8237 37.5317 -4.8237 7.5411
# 5 10.3095 8.3151 9.8610 -4.8237 51.2793 -7.7855
# 6 1.7016 1.7832 -8.9189 7.5411 -7.7855 36.2963
#
#
#
# Elastic Compliance Matrix: (Units=1/GPa)
#
#
# Indices 1 2 3 4 5 6 
#
# 1 0.011503 -0.002822 -0.004080 -0.003191 -0.001533 -0.001069
# 2 -0.002822 0.020817 0.000446 0.005915 -0.002732 -0.002596
# 3 -0.004080 0.000446 0.010141 0.006684 -0.000393 0.001188
# 4 -0.003191 0.005915 0.006684 0.033895 0.000769 -0.005376
# 5 -0.001533 -0.002732 -0.000393 0.000769 0.021079 0.004471
# 6 -0.001069 -0.002596 0.001188 -0.005376 0.004471 0.030097
#
#
# Mechanical properties :
#
#
# Convention : Reuss Voigt Hill
#
# Bulk Modulus (GPa) = 33.84137 48.27989 41.06063
# Shear Modulus (GPa) = 33.26872 40.08836 36.67854
#
# Velocity S-wave (km/s) = 3.64560 4.00184 3.82786
# Velocity P-wave (km/s) = 5.58924 6.37496 5.99499
#
# Compressibility (1/GPa) = 0.02954963
#
# Stress axis : x y z
#
# Youngs Moduli (GPa) = 86.93613 48.03797 98.61246
#
# Poissons Ratio (x) = 0.13556 0.40229
# Poissons Ratio (y) = 0.24534 -0.04400
# Poissons Ratio (z) = 0.35466 -0.02144
#
# Static dielectric constant tensor:
#      x y z
#    x 2.083600 -0.048270 0.092790 
#    y -0.048270 2.010730 -0.002240 
#    z 0.092790 -0.002240 2.046850 
# 
# From -- ./inp_files/273574.got.cif
#   From: 2010.05.17/outbox.cif.g08.bks.cpg/sg2_137_cif.got.tgz:273574.got - 2010.06.03 11:33:40.
