data_PCOD9023676
_publ_section_title
;
Structure prediction by ZEFSAII (Michael W. Deem and Ramdas Pophale) SiO2 
 PCOD9023676
Probable space group: P -1
;
_chemical_formula_sum "Si O2"
_cell_formula_units_Z 12
_cell_length_a 19.836249
_cell_length_b 5.141898
_cell_length_c 5.725972
_cell_angle_alpha 101.294898
_cell_angle_beta 76.114878
_cell_angle_gamma 64.383506
_cell_volume 480.354487
_symmetry_space_group_name_H-M "P -1"
_symmetry_group_IT_number 2
_symmetry_cell_setting 'triclinic'
loop_
_space_group_symop_operation_xyz
x,y,z
-x,-y,-z
loop_
_atom_site_type_symbol
_atom_site_label
_atom_site_fract_x
_atom_site_fract_y
_atom_site_fract_z
Si Si1 0.533345 0.238652 0.732324
Si Si2 0.240822 0.788779 0.157106
Si Si3 0.942376 0.355842 0.051941
Si Si4 0.325872 0.145232 0.193392
Si Si5 0.092174 0.415577 0.381696
Si Si6 0.377694 0.622785 0.702300
O O1 0.450104 0.310664 0.698092
O O2 0.586387 0.338984 0.555927
O O3 0.599528 0.909571 0.719654
O O4 0.500000 0.500000 0.000000
O O5 0.264668 0.489867 0.234202
O O6 0.277909 0.977515 0.289437
O O7 0.150293 0.051578 0.237956
O O8 0.291691 0.664377 0.849711
O O9 0.891281 0.488985 0.357840
O O10 0.900965 0.430558 0.840700
O O11 0.000000 0.500000 0.000000
O O12 0.000000 0.000000 0.000000
O O13 0.367441 0.928281 0.897500
O O14 0.000000 0.500000 0.500000
#
# Coordination Sequence:
#
# PCOD9023676 Si02
#       6
#     2   2   2   2   2   2
#     4   9  16  38  62  86 120 158 201 251 304 375
#     4  10  22  40  60  88 123 158 206 255 309 370
#     4  10  22  41  66  94 124 162 212 265 316 381
#     4   9  21  39  56  88 118 159 202 247 312 363
#     4  10  23  44  67  97 130 172 218 266 323 382
#     4   8  19  37  57  88 119 158 202 250 308 367
#
# _framework density 24.981546999999999
#
# number of rings (size 3 to 8) (size 9 to 14) (size 15 to 20)
#    1.000    1.667    0.000    0.500    0.000    7.333 
#    6.000    4.167    0.000    0.000    0.000    0.000 
#    0.000    0.000    0.000    0.000    0.000    0.000 
#
# Total GULP energy -66830.944395 kJ/mol
# GULP energy per Si atom -5569.245366 kJ/mol
# Density = 2.492469 g / cm^3
# Si number density = 24.981547 Si / 1000 Ang^3
#
#
#
# Elastic Constant Matrix: (Units=GPa)
#
#
# Indices 1 2 3 4 5 6 
#
# 1 59.4369 37.1911 10.9904 5.0994 -4.6734 -11.7368
# 2 37.1911 190.1995 10.0029 0.3673 -5.8928 -24.9503
# 3 10.9904 10.0029 116.4434 -1.0517 8.7799 -24.1085
# 4 5.0994 0.3673 -1.0517 31.6755 -15.4027 -11.5104
# 5 -4.6734 -5.8928 8.7799 -15.4027 23.1609 8.2933
# 6 -11.7368 -24.9503 -24.1085 -11.5104 8.2933 52.2527
#
#
#
# Elastic Compliance Matrix: (Units=1/GPa)
#
#
# Indices 1 2 3 4 5 6 
#
# 1 0.019907 -0.003567 -0.001450 -0.001725 0.002010 0.001400
# 2 -0.003567 0.006315 0.000256 0.002045 0.001223 0.002589
# 3 -0.001450 0.000256 0.010316 -0.000601 -0.006491 0.005454
# 4 -0.001725 0.002045 -0.000601 0.049034 0.030779 0.006228
# 5 0.002010 0.001223 -0.006491 0.030779 0.069019 -0.006134
# 6 0.001400 0.002589 0.005454 0.006228 -0.006134 0.025550
#
#
# Mechanical properties :
#
#
# Convention : Reuss Voigt Hill
#
# Bulk Modulus (GPa) = 37.01289 53.60540 45.30914
# Shear Modulus (GPa) = 25.16758 41.94418 33.55588
#
# Velocity S-wave (km/s) = 3.17747 4.10201 3.66898
# Velocity P-wave (km/s) = 5.32072 6.62872 6.01041
#
# Compressibility (1/GPa) = 0.02701762
#
# Stress axis : x y z
#
# Youngs Moduli (GPa) = 50.23306 158.34831 96.93807
#
# Poissons Ratio (x) = 0.56484 0.14054
# Poissons Ratio (y) = 0.17918 -0.02486
# Poissons Ratio (z) = 0.07283 -0.04061
#
# Static dielectric constant tensor:
#      x y z
#    x 2.083510 -0.011490 0.092740 
#    y -0.011490 1.955390 -0.033970 
#    z 0.092740 -0.033970 2.062260 
# 
# From -- ./inp_files/121524.got.cif
#   From: 2010.05.17/outbox.cif.g08.bks.cpg/sg2_61_cif.got.tgz:121524.got - 2010.06.03 11:33:40.
