data_PCOD9023850
_publ_section_title
;
Structure prediction by ZEFSAII (Michael W. Deem and Ramdas Pophale) SiO2 
 PCOD9023850
Probable space group: P -1
;
_chemical_formula_sum "Si O2"
_cell_formula_units_Z 16
_cell_length_a 25.814011
_cell_length_b 8.808800
_cell_length_c 8.808327
_cell_angle_alpha 73.219300
_cell_angle_beta 137.679740
_cell_angle_gamma 137.679130
_cell_volume 746.548102
_symmetry_space_group_name_H-M "P -1"
_symmetry_group_IT_number 2
_symmetry_cell_setting 'triclinic'
loop_
_space_group_symop_operation_xyz
x,y,z
-x,-y,-z
loop_
_atom_site_type_symbol
_atom_site_label
_atom_site_fract_x
_atom_site_fract_y
_atom_site_fract_z
Si Si1 0.194233 0.891841 0.920084
Si Si2 0.758502 0.913882 0.698263
Si Si3 0.529233 0.233570 0.031275
Si Si4 0.920722 0.587624 0.365098
Si Si5 0.758508 0.198268 0.413904
Si Si6 0.194217 0.420067 0.391819
Si Si7 0.079250 0.134847 0.912319
Si Si8 0.529233 0.531270 0.733584
O O1 0.135195 0.623410 0.824571
O O2 0.077538 0.820387 0.651493
O O3 0.226955 0.964460 0.147686
O O4 0.325330 0.147801 0.030611
O O5 0.601002 0.611606 0.429365
O O6 0.799541 0.096782 0.596791
O O7 0.848935 0.912914 0.910811
O O8 0.674670 0.469360 0.352222
O O9 0.534133 0.360355 0.860359
O O10 0.500000 0.000000 0.000000
O O11 0.398995 0.070616 0.888384
O O12 0.848919 0.410776 0.412884
O O13 0.891562 0.717667 0.217671
O O14 0.773073 0.352351 0.535603
O O15 0.135137 0.324456 0.123330
O O16 0.077564 0.151545 0.320479
O O17 0.500000 0.500000 0.500000
#
# Coordination Sequence:
#
# PCOD9023850 Si02
#       8
#     2   2   2   2   2   2   2   2
#     4  10  22  40  62  85 118 157 197 241 290 346
#     4  10  22  40  62  87 118 155 194 239 294 353
#     4   9  19  37  61  87 115 153 197 241 291 345
#     4  11  24  39  60  90 120 154 197 243 291 344
#     4  10  22  40  62  87 118 155 194 239 294 353
#     4  10  22  40  62  85 118 157 197 241 290 346
#     4  11  24  39  60  90 120 154 197 243 291 344
#     4   9  19  37  61  87 115 153 197 241 291 345
#
# _framework density 21.431975000000001
#
# number of rings (size 3 to 8) (size 9 to 14) (size 15 to 20)
#    0.000    2.000    0.000    2.250    0.000   15.000 
#    0.000    3.750    0.000    0.000    0.000    0.000 
#    0.000    0.000    0.000    0.000    0.000    0.000 
#
# Total GULP energy -89351.250081 kJ/mol
# GULP energy per Si atom -5584.453130 kJ/mol
# Density = 2.138320 g / cm^3
# Si number density = 21.431975 Si / 1000 Ang^3
#
#
#
# Elastic Constant Matrix: (Units=GPa)
#
#
# Indices 1 2 3 4 5 6 
#
# 1 60.4479 30.1377 25.2686 -3.2939 9.8634 4.9873
# 2 30.1377 118.9363 77.2295 -27.9751 11.7860 19.4216
# 3 25.2686 77.2295 106.8235 19.8530 28.3802 0.8838
# 4 -3.2939 -27.9751 19.8530 32.7318 -0.0503 9.8833
# 5 9.8634 11.7860 28.3802 -0.0503 16.6705 -4.6010
# 6 4.9873 19.4216 0.8838 9.8833 -4.6010 23.4338
#
#
#
# Elastic Compliance Matrix: (Units=1/GPa)
#
#
# Indices 1 2 3 4 5 6 
#
# 1 0.020263 -0.002253 -0.000652 0.002135 -0.010781 -0.005438
# 2 -0.002253 -0.014116 0.021881 -0.031879 -0.020289 0.020815
# 3 -0.000652 0.021881 -0.011336 0.035640 -0.004942 -0.033570
# 4 0.002135 -0.031879 0.035640 -0.027192 -0.031211 0.029962
# 5 -0.010781 -0.020289 -0.004942 -0.031211 0.103601 0.052801
# 6 -0.005438 0.020815 -0.033570 0.029962 0.052801 0.025576
#
#
# Mechanical properties :
#
#
# Convention : Reuss Voigt Hill
#
# Bulk Modulus (GPa) = 30.52260 61.27547 45.89904
# Shear Modulus (GPa) = 71.66918 24.80536 48.23727
#
# Velocity S-wave (km/s) = 5.78903 3.40575 4.74932
# Velocity P-wave (km/s) = 7.67831 6.64216 7.17895
#
# Compressibility (1/GPa) = 0.03276261
#
# Stress axis : x y z
#
# Youngs Moduli (GPa) = 49.35105 -70.84211 -88.21165
#
# Poissons Ratio (x) = -0.15959 -0.05752
# Poissons Ratio (y) = 0.11118 1.93014
# Poissons Ratio (z) = 0.03218 1.55008
#
# Static dielectric constant tensor:
#      x y z
#    x 1.777110 -0.006910 -0.013690 
#    y -0.006910 1.764160 0.024510 
#    z -0.013690 0.024510 1.800230 
# 
# From -- ./inp_files/356604.got.cif
#   From: 2010.05.17/outbox.cif.g08.bks.cpg/sg2_179_cif.got.tgz:356604.got - 2010.06.03 11:33:40.
