data_PCOD9023748
_publ_section_title
;
Structure prediction by ZEFSAII (Michael W. Deem and Ramdas Pophale) SiO2 
 PCOD9023748
Probable space group: P -1
;
_chemical_formula_sum "Si O2"
_cell_formula_units_Z 14
_cell_length_a 5.641189
_cell_length_b 15.798065
_cell_length_c 9.378229
_cell_angle_alpha 126.493232
_cell_angle_beta 52.338722
_cell_angle_gamma 109.727606
_cell_volume 531.471625
_symmetry_space_group_name_H-M "P -1"
_symmetry_group_IT_number 2
_symmetry_cell_setting 'triclinic'
loop_
_space_group_symop_operation_xyz
x,y,z
-x,-y,-z
loop_
_atom_site_type_symbol
_atom_site_label
_atom_site_fract_x
_atom_site_fract_y
_atom_site_fract_z
Si Si1 0.219660 0.612544 0.630588
Si Si2 0.562752 0.778574 0.221020
Si Si3 0.886095 0.309243 0.539622
Si Si4 0.174325 0.144495 0.073830
Si Si5 0.076519 0.118272 0.555253
Si Si6 0.841652 0.523211 0.228957
Si Si7 0.598861 0.142595 0.154831
O O1 0.043010 0.624102 0.559734
O O2 0.488514 0.534065 0.395511
O O3 0.062070 0.564939 0.777483
O O4 0.340523 0.730136 0.743010
O O5 0.450549 0.686197 0.272531
O O6 0.232576 0.831007 0.349459
O O7 0.793031 0.835183 0.297935
O O8 0.711158 0.774119 0.006736
O O9 0.978347 0.197018 0.326252
O O10 0.068051 0.359626 0.646992
O O11 0.919563 0.086056 0.020510
O O12 0.467366 0.106457 0.015601
O O13 0.354301 0.125929 0.350778
O O14 0.000000 0.000000 0.500000
O O15 0.000000 0.500000 0.000000
#
# Coordination Sequence:
#
# PCOD9023748 Si02
#       7
#     2   2   2   2   2   2   2
#     4  10  22  40  61  88 136 173 229 274 348 390
#     4  12  25  43  74 105 134 189 231 274 347 416
#     4  11  23  43  65  91 140 178 228 283 342 394
#     4  11  23  41  72  98 135 179 238 270 335 411
#     4  12  24  47  73 106 143 177 224 290 348 409
#     4  11  24  38  62  99 130 175 227 286 336 404
#     4  11  21  46  67  96 137 187 216 290 341 405
#
# _framework density 26.341951999999999
#
# number of rings (size 3 to 8) (size 9 to 14) (size 15 to 20)
#    0.000    0.857    5.714    1.714    2.000    2.857 
#    0.000    4.286    0.000    0.000    0.000    0.000 
#    0.000    0.000    0.000    0.000    0.000    0.000 
#
# Total GULP energy -78080.864662 kJ/mol
# GULP energy per Si atom -5577.204619 kJ/mol
# Density = 2.628200 g / cm^3
# Si number density = 26.341952 Si / 1000 Ang^3
#
#
#
# Elastic Constant Matrix: (Units=GPa)
#
#
# Indices 1 2 3 4 5 6 
#
# 1 164.1080 19.8964 45.5157 -0.5506 16.7921 5.5318
# 2 19.8964 85.8495 34.8517 -26.4524 6.4679 10.4494
# 3 45.5157 34.8517 172.8301 -50.3001 22.7327 -2.1298
# 4 -0.5506 -26.4524 -50.3001 45.5761 -3.5368 5.1680
# 5 16.7921 6.4679 22.7327 -3.5368 44.2553 -5.7464
# 6 5.5318 10.4494 -2.1298 5.1680 -5.7464 41.2279
#
#
#
# Elastic Compliance Matrix: (Units=1/GPa)
#
#
# Indices 1 2 3 4 5 6 
#
# 1 0.007112 -0.001599 -0.002377 -0.003538 -0.001585 -0.000449
# 2 -0.001599 0.015712 0.000291 0.009881 -0.001729 -0.005232
# 3 -0.002377 0.000291 0.010024 0.011055 -0.003551 -0.001118
# 4 -0.003538 0.009881 0.011055 0.040359 -0.003464 -0.007000
# 5 -0.001585 -0.001729 -0.003551 -0.003464 0.025577 0.004467
# 6 -0.000449 -0.005232 -0.001118 -0.007000 0.004467 0.027084
#
#
# Mechanical properties :
#
#
# Convention : Reuss Voigt Hill
#
# Bulk Modulus (GPa) = 39.24969 69.25727 54.25348
# Shear Modulus (GPa) = 35.27779 47.71346 41.49562
#
# Velocity S-wave (km/s) = 3.66351 4.26057 3.97327
# Velocity P-wave (km/s) = 5.72953 7.10999 6.45676
#
# Compressibility (1/GPa) = 0.02547791
#
# Stress axis : x y z
#
# Youngs Moduli (GPa) = 140.60244 63.64434 99.76076
#
# Poissons Ratio (x) = 0.10179 0.23717
# Poissons Ratio (y) = 0.22487 -0.02907
# Poissons Ratio (z) = 0.33426 -0.01855
#
# Static dielectric constant tensor:
#      x y z
#    x 2.298480 -0.135830 -0.038260 
#    y -0.135830 2.229140 -0.022580 
#    z -0.038260 -0.022580 2.061570 
# 
# From -- ./inp_files/139301.got.cif
#   From: 2010.05.17/outbox.cif.g08.bks.cpg/sg2_70_cif.got.tgz:139301.got - 2010.06.03 11:33:40.
