data_PCOD9023081
_publ_section_title
;
Structure prediction by ZEFSAII (Michael W. Deem and Ramdas Pophale) SiO2 
 PCOD9023081
Probable space group: P -1
;
_chemical_formula_sum "Si O2"
_cell_formula_units_Z 16
_cell_length_a 23.241321
_cell_length_b 9.605601
_cell_length_c 7.121455
_cell_angle_alpha 76.504214
_cell_angle_beta 131.722316
_cell_angle_gamma 137.911193
_cell_volume 679.026087
_symmetry_space_group_name_H-M "P -1"
_symmetry_group_IT_number 2
_symmetry_cell_setting 'triclinic'
loop_
_space_group_symop_operation_xyz
x,y,z
-x,-y,-z
loop_
_atom_site_type_symbol
_atom_site_label
_atom_site_fract_x
_atom_site_fract_y
_atom_site_fract_z
Si Si1 0.993727 0.351393 0.161675
Si Si2 0.430830 0.317848 0.583533
Si Si3 0.204401 0.171600 0.284374
Si Si4 0.317531 0.628106 0.324256
Si Si5 0.706171 0.643383 0.172405
Si Si6 0.233868 0.971995 0.982321
Si Si7 0.386221 0.986350 0.091715
Si Si8 0.278149 0.654804 0.661357
O O1 0.913995 0.275208 0.199760
O O2 0.138428 0.511501 0.453163
O O3 0.000000 0.500000 0.000000
O O4 0.910399 0.101002 0.955853
O O5 0.500000 0.500000 0.500000
O O6 0.339001 0.287160 0.505733
O O7 0.550295 0.436712 0.925228
O O8 0.326645 0.060298 0.330085
O O9 0.217090 0.347167 0.163346
O O10 0.206516 0.204077 0.500751
O O11 0.319284 0.761672 0.143059
O O12 0.294337 0.653601 0.475556
O O13 0.463812 0.778811 0.591448
O O14 0.713280 0.489123 0.181194
O O15 0.753495 0.837524 0.073003
O O16 0.299413 0.996469 0.937068
O O17 0.381741 0.919499 0.892709
#
# Coordination Sequence:
#
# PCOD9023081 Si02
#       8
#     2   2   2   2   2   2   2   2
#     4  11  26  48  68  92 136 181 229 280 329 400
#     4   9  18  34  64  93 135 163 217 270 330 394
#     4  10  22  42  67  94 133 179 226 276 335 398
#     4  10  23  43  67 105 138 175 219 283 345 402
#     4  10  22  39  66 104 129 171 227 276 342 401
#     4  10  23  42  66  98 131 183 224 272 332 405
#     4  11  24  41  72 101 143 175 219 279 347 397
#     4  11  26  44  67 103 139 181 225 278 337 400
#
# _framework density 23.563158999999999
#
# number of rings (size 3 to 8) (size 9 to 14) (size 15 to 20)
#    0.000    1.750    0.000    3.000   10.500    4.000 
#    6.750    0.000    0.000    0.000    0.000    0.000 
#    0.000    0.000    0.000    0.000    0.000    0.000 
#
# Total GULP energy -89460.642335 kJ/mol
# GULP energy per Si atom -5591.290146 kJ/mol
# Density = 2.350953 g / cm^3
# Si number density = 23.563159 Si / 1000 Ang^3
#
#
#
# Elastic Constant Matrix: (Units=GPa)
#
#
# Indices 1 2 3 4 5 6 
#
# 1 74.4833 3.2966 -17.0186 0.1766 -0.2196 -8.9755
# 2 3.2966 104.1823 9.0048 7.7939 -5.0788 -9.1471
# 3 -17.0186 9.0048 42.2161 1.4095 3.5555 -4.1611
# 4 0.1766 7.7939 1.4095 21.9154 -5.6156 -0.5756
# 5 -0.2196 -5.0788 3.5555 -5.6156 43.8884 6.7385
# 6 -8.9755 -9.1471 -4.1611 -0.5756 6.7385 35.0642
#
#
#
# Elastic Compliance Matrix: (Units=1/GPa)
#
#
# Indices 1 2 3 4 5 6 
#
# 1 0.015668 -0.000702 0.007089 -0.000563 -0.001406 0.004930
# 2 -0.000702 0.010270 -0.002213 -0.003290 0.000627 0.002062
# 3 0.007089 -0.002213 0.027886 -0.001827 -0.003511 0.005191
# 4 -0.000563 -0.003290 -0.001827 0.048472 0.006215 -0.001618
# 5 -0.001406 0.000627 -0.003511 0.006215 0.024739 -0.005265
# 6 0.004930 0.002062 0.005191 -0.001618 -0.005265 0.031920
#
#
# Mechanical properties :
#
#
# Convention : Reuss Voigt Hill
#
# Bulk Modulus (GPa) = 16.08466 23.49415 19.78941
# Shear Modulus (GPa) = 29.18336 35.21354 32.19845
#
# Velocity S-wave (km/s) = 3.52307 3.86998 3.70060
# Velocity P-wave (km/s) = 4.83636 5.47370 5.16487
#
# Compressibility (1/GPa) = 0.06217104
#
# Stress axis : x y z
#
# Youngs Moduli (GPa) = 63.82473 97.37309 35.86037
#
# Poissons Ratio (x) = 0.06837 -0.25422
# Poissons Ratio (y) = 0.04481 0.07937
# Poissons Ratio (z) = -0.45246 0.21552
#
# Static dielectric constant tensor:
#      x y z
#    x 1.914430 0.001930 -0.048490 
#    y 0.001930 1.903540 0.006560 
#    z -0.048490 0.006560 1.902500 
# 
# From -- ./inp_files/352219.got.cif
#   From: 2010.05.17/outbox.cif.g08.bks.cpg/sg2_177_cif.got.tgz:352219.got - 2010.06.03 11:33:40.
