data_PCOD9023047
_publ_section_title
;
Structure prediction by ZEFSAII (Michael W. Deem and Ramdas Pophale) SiO2 
 PCOD9023047
Probable space group: P -1
;
_chemical_formula_sum "Si O2"
_cell_formula_units_Z 14
_cell_length_a 22.725296
_cell_length_b 9.678054
_cell_length_c 5.229451
_cell_angle_alpha 107.726097
_cell_angle_beta 109.536150
_cell_angle_gamma 30.838827
_cell_volume 555.293574
_symmetry_space_group_name_H-M "P -1"
_symmetry_group_IT_number 2
_symmetry_cell_setting 'triclinic'
loop_
_space_group_symop_operation_xyz
x,y,z
-x,-y,-z
loop_
_atom_site_type_symbol
_atom_site_label
_atom_site_fract_x
_atom_site_fract_y
_atom_site_fract_z
Si Si1 0.669836 0.273169 0.480587
Si Si2 0.063879 0.180380 0.497726
Si Si3 0.512884 0.113843 0.763871
Si Si4 0.343985 0.879938 0.116513
Si Si5 0.111590 0.784704 0.214894
Si Si6 0.912600 0.494408 0.934042
Si Si7 0.652558 0.600118 0.903562
O O1 0.640755 0.234778 0.663095
O O2 0.624326 0.525224 0.618481
O O3 0.810097 0.005701 0.500060
O O4 0.623240 0.283065 0.169962
O O5 0.000276 0.365742 0.760340
O O6 0.091546 0.956683 0.474593
O O7 0.021659 0.637862 0.769948
O O8 0.584073 0.112214 0.775568
O O9 0.500000 0.000000 0.500000
O O10 0.597005 0.869351 0.958011
O O11 0.391640 0.377113 0.881385
O O12 0.206744 0.183953 0.058971
O O13 0.128474 0.591355 0.236410
O O14 0.214429 0.631626 0.090327
O O15 0.000000 0.000000 0.000000
#
# Coordination Sequence:
#
# PCOD9023047 Si02
#       7
#     2   2   2   2   2   2   2
#     4  11  27  46  69 107 146 188 234 291 365 428
#     4  10  22  39  65  98 142 187 230 285 356 419
#     4  11  27  47  77 103 135 191 245 300 357 410
#     4  12  27  45  71 105 144 188 240 293 356 426
#     4   9  19  39  67 103 136 180 232 292 355 415
#     4  11  21  39  65  99 141 185 236 288 341 425
#     4  10  24  49  72 101 145 184 239 300 352 427
#
# _framework density 25.211891999999999
#
# number of rings (size 3 to 8) (size 9 to 14) (size 15 to 20)
#    0.000    1.429    1.429    2.143    6.000    6.857 
#    5.143    0.000    0.000    0.000    0.000    0.000 
#    0.000    0.000    0.000    0.000    0.000    0.000 
#
# Total GULP energy -78384.930926 kJ/mol
# GULP energy per Si atom -5598.923638 kJ/mol
# Density = 2.515451 g / cm^3
# Si number density = 25.211892 Si / 1000 Ang^3
#
#
#
# Elastic Constant Matrix: (Units=GPa)
#
#
# Indices 1 2 3 4 5 6 
#
# 1 188.3325 37.0150 70.7303 8.2305 2.6051 3.8098
# 2 37.0150 80.0113 19.4372 16.2273 1.2237 5.5536
# 3 70.7303 19.4372 149.4037 15.4262 -20.7471 -0.4764
# 4 8.2305 16.2273 15.4262 39.7138 -3.0814 1.4787
# 5 2.6051 1.2237 -20.7471 -3.0814 40.4333 1.8893
# 6 3.8098 5.5536 -0.4764 1.4787 1.8893 56.7925
#
#
#
# Elastic Compliance Matrix: (Units=1/GPa)
#
#
# Indices 1 2 3 4 5 6 
#
# 1 0.007083 -0.002560 -0.003382 0.000740 -0.002048 -0.000204
# 2 -0.002560 0.014955 -0.000281 -0.005491 -0.000798 -0.001124
# 3 -0.003382 -0.000281 0.009244 -0.002413 0.004775 0.000236
# 4 0.000740 -0.005491 -0.002413 0.028301 0.001051 -0.000305
# 5 -0.002048 -0.000798 0.004775 0.001051 0.027450 -0.000685
# 6 -0.000204 -0.001124 0.000236 -0.000305 -0.000685 0.017764
#
#
# Mechanical properties :
#
#
# Convention : Reuss Voigt Hill
#
# Bulk Modulus (GPa) = 53.08988 74.67915 63.88452
# Shear Modulus (GPa) = 40.47910 46.75891 43.61901
#
# Velocity S-wave (km/s) = 4.01129 4.31122 4.16396
# Velocity P-wave (km/s) = 6.52358 7.38018 6.96506
#
# Compressibility (1/GPa) = 0.01883598
#
# Stress axis : x y z
#
# Youngs Moduli (GPa) = 141.18272 66.86913 108.18123
#
# Poissons Ratio (x) = 0.17118 0.36584
# Poissons Ratio (y) = 0.36141 0.03041
# Poissons Ratio (z) = 0.47744 0.01880
#
# Static dielectric constant tensor:
#      x y z
#    x 1.987180 0.063310 -0.002430 
#    y 0.063310 2.084530 -0.048880 
#    z -0.002430 -0.048880 2.050250 
# 
# From -- ./inp_files/89494.got.cif
#   From: 2010.05.17/outbox.cif.g08.bks.cpg/sg2_45_cif.got.tgz:89494.got - 2010.06.03 11:33:40.
