data_PCOD9023889
_publ_section_title
;
Structure prediction by ZEFSAII (Michael W. Deem and Ramdas Pophale) SiO2 
 PCOD9023889
Probable space group: P -1
;
_chemical_formula_sum "Si O2"
_cell_formula_units_Z 16
_cell_length_a 5.253704
_cell_length_b 10.477433
_cell_length_c 18.734393
_cell_angle_alpha 136.826604
_cell_angle_beta 94.512910
_cell_angle_gamma 99.163665
_cell_volume 666.975274
_symmetry_space_group_name_H-M "P -1"
_symmetry_group_IT_number 2
_symmetry_cell_setting 'triclinic'
loop_
_space_group_symop_operation_xyz
x,y,z
-x,-y,-z
loop_
_atom_site_type_symbol
_atom_site_label
_atom_site_fract_x
_atom_site_fract_y
_atom_site_fract_z
Si Si1 0.133699 0.185521 0.231406
Si Si2 0.808140 0.089189 0.435523
Si Si3 0.562968 0.647556 0.264128
Si Si4 0.722253 0.746966 0.034233
Si Si5 0.313496 0.128972 0.065914
Si Si6 0.303190 0.658508 0.114295
Si Si7 0.272480 0.062143 0.328875
Si Si8 0.968050 0.454172 0.694187
O O1 0.340641 0.191707 0.174118
O O2 0.269600 0.198454 0.316461
O O3 0.008504 0.353825 0.274566
O O4 0.911897 0.969539 0.138768
O O5 0.565582 0.111415 0.390285
O O6 0.895789 0.266844 0.564892
O O7 0.057217 0.083815 0.389864
O O8 0.694197 0.877193 0.384004
O O9 0.522241 0.665137 0.185435
O O10 0.276845 0.572471 0.266999
O O11 0.770858 0.540699 0.252629
O O12 0.470306 0.713159 0.067263
O O13 0.644839 0.725638 0.940600
O O14 0.854773 0.576307 0.984178
O O15 0.500000 0.000000 0.000000
O O16 0.000000 0.000000 0.000000
O O17 0.192762 0.833329 0.207597
#
# Coordination Sequence:
#
# PCOD9023889 Si02
#       8
#     2   2   2   2   2   2   2   2
#     4  11  25  43  68  98 140 180 222 274 332 403
#     4  11  24  45  72 100 134 174 223 284 335 393
#     4  11  23  43  69 100 136 174 225 278 331 396
#     4  10  22  43  67  99 135 176 225 275 330 395
#     4  10  22  40  62  89 128 173 213 261 321 385
#     4  10  22  41  71 100 133 178 226 279 334 389
#     4  11  24  44  69  99 134 175 225 279 336 395
#     4  12  26  43  70 102 136 179 221 273 341 402
#
# _framework density 23.988894999999999
#
# number of rings (size 3 to 8) (size 9 to 14) (size 15 to 20)
#    0.000    1.250    0.000    6.000    0.000    8.500 
#    0.000    8.750    0.000    0.000    0.000    0.000 
#    0.000    0.000    0.000    0.000    0.000    0.000 
#
# Total GULP energy -89612.389458 kJ/mol
# GULP energy per Si atom -5600.774341 kJ/mol
# Density = 2.393430 g / cm^3
# Si number density = 23.988895 Si / 1000 Ang^3
#
#
#
# Elastic Constant Matrix: (Units=GPa)
#
#
# Indices 1 2 3 4 5 6 
#
# 1 140.7400 58.1200 34.7974 -10.3084 -31.7666 -7.3550
# 2 58.1200 166.0035 21.2634 -0.8069 -11.0147 -7.1861
# 3 34.7974 21.2634 94.2180 -6.5499 -13.3651 13.3508
# 4 -10.3084 -0.8069 -6.5499 35.7406 3.2705 -4.3963
# 5 -31.7666 -11.0147 -13.3651 3.2705 36.2149 -3.2664
# 6 -7.3550 -7.1861 13.3508 -4.3963 -3.2664 41.3803
#
#
#
# Elastic Compliance Matrix: (Units=1/GPa)
#
#
# Indices 1 2 3 4 5 6 
#
# 1 0.011061 -0.002863 -0.002601 0.002313 0.007949 0.003181
# 2 -0.002863 0.007129 -0.000792 -0.000657 -0.000497 0.000876
# 3 -0.002601 -0.000792 0.012684 0.000853 0.001678 -0.004469
# 4 0.002313 -0.000657 0.000853 0.029189 -0.000212 0.003106
# 5 0.007949 -0.000497 0.001678 -0.000212 0.035394 0.003557
# 6 0.003181 0.000876 -0.004469 0.003106 0.003557 0.026936
#
#
# Mechanical properties :
#
#
# Convention : Reuss Voigt Hill
#
# Bulk Modulus (GPa) = 54.46087 69.92481 62.19284
# Shear Modulus (GPa) = 35.45438 41.78586 38.62012
#
# Velocity S-wave (km/s) = 3.84858 4.17812 4.01673
# Velocity P-wave (km/s) = 6.51925 7.24484 6.89160
#
# Compressibility (1/GPa) = 0.01836181
#
# Stress axis : x y z
#
# Youngs Moduli (GPa) = 90.41090 140.26261 78.84104
#
# Poissons Ratio (x) = 0.40155 0.20509
# Poissons Ratio (y) = 0.25883 0.06243
# Poissons Ratio (z) = 0.23518 0.11107
#
# Static dielectric constant tensor:
#      x y z
#    x 1.896920 -0.029370 0.078680 
#    y -0.029370 1.930760 0.047730 
#    z 0.078680 0.047730 2.013680 
# 
# From -- ./inp_files/534395.got.cif
#   From: 2010.05.17/outbox.cif.g08.bks.cpg/sg2_268_cif.got.tgz:534395.got - 2010.06.03 11:33:40.
