data_PCOD9023148
_publ_section_title
;
Structure prediction by ZEFSAII (Michael W. Deem and Ramdas Pophale) SiO2 
 PCOD9023148
Probable space group: P -1
;
_chemical_formula_sum "Si O2"
_cell_formula_units_Z 16
_cell_length_a 9.101678
_cell_length_b 7.643896
_cell_length_c 13.470128
_cell_angle_alpha 88.446384
_cell_angle_beta 110.119127
_cell_angle_gamma 132.429628
_cell_volume 620.454497
_symmetry_space_group_name_H-M "P -1"
_symmetry_group_IT_number 2
_symmetry_cell_setting 'triclinic'
loop_
_space_group_symop_operation_xyz
x,y,z
-x,-y,-z
loop_
_atom_site_type_symbol
_atom_site_label
_atom_site_fract_x
_atom_site_fract_y
_atom_site_fract_z
Si Si1 0.999849 0.043807 0.625668
Si Si2 0.069415 0.008708 0.153633
Si Si3 0.155813 0.818252 0.924914
Si Si4 0.322894 0.505420 0.433228
Si Si5 0.518109 0.445711 0.745379
Si Si6 0.151225 0.702441 0.210254
Si Si7 0.496551 0.916469 0.154681
Si Si8 0.844515 0.292336 0.552481
O O1 0.094484 0.225084 0.414956
O O2 0.260987 0.280892 0.663271
O O3 0.854170 0.089087 0.546515
O O4 0.966549 0.017335 0.736068
O O5 0.324429 0.269196 0.192742
O O6 0.910253 0.032915 0.073751
O O7 0.034610 0.777760 0.130390
O O8 0.938711 0.529786 0.871120
O O9 0.263077 0.870657 0.839936
O O10 0.331446 0.879887 0.040835
O O11 0.500000 0.500000 0.500000
O O12 0.361695 0.544661 0.323256
O O13 0.350223 0.714222 0.489154
O O14 0.513875 0.300997 0.833939
O O15 0.414824 0.925460 0.242008
O O16 0.097393 0.648777 0.315511
O O17 0.000000 0.500000 0.500000
#
# Coordination Sequence:
#
# PCOD9023148 Si02
#       8
#     2   2   2   2   2   2   2   2
#     4  10  23  44  65  93 134 170 213 275 328 381
#     4  10  22  39  66  95 129 172 220 268 323 392
#     4  11  23  44  65  98 133 172 225 272 333 390
#     4  11  24  44  68  97 127 171 222 265 328 393
#     4  11  21  42  66  93 132 175 216 271 328 385
#     4  11  23  44  67  95 134 176 217 273 331 388
#     4  11  23  41  69  96 132 176 218 277 330 392
#     4  11  24  42  66  99 130 171 217 267 323 391
#
# _framework density 25.787545999999999
#
# number of rings (size 3 to 8) (size 9 to 14) (size 15 to 20)
#    0.000    1.250    3.750    1.875    0.000    5.000 
#    0.000    3.750    0.000    0.000    0.000    0.000 
#    0.000    0.000    0.000    0.000    0.000    0.000 
#
# Total GULP energy -89259.766713 kJ/mol
# GULP energy per Si atom -5578.735420 kJ/mol
# Density = 2.572885 g / cm^3
# Si number density = 25.787546 Si / 1000 Ang^3
#
#
#
# Elastic Constant Matrix: (Units=GPa)
#
#
# Indices 1 2 3 4 5 6 
#
# 1 122.1588 51.6813 27.1844 -11.6561 25.5484 -2.4759
# 2 51.6813 86.9352 33.4502 -19.5971 4.6722 12.6173
# 3 27.1844 33.4502 73.9755 -28.8944 14.7870 -5.9464
# 4 -11.6561 -19.5971 -28.8944 37.6718 -2.6029 6.8664
# 5 25.5484 4.6722 14.7870 -2.6029 47.4387 -9.5609
# 6 -2.4759 12.6173 -5.9464 6.8664 -9.5609 44.1609
#
#
#
# Elastic Compliance Matrix: (Units=1/GPa)
#
#
# Indices 1 2 3 4 5 6 
#
# 1 0.012553 -0.007503 -0.000343 -0.000987 -0.005618 0.001739
# 2 -0.007503 0.020162 -0.005249 0.005632 0.002547 -0.007212
# 3 -0.000343 -0.005249 0.022621 0.013925 -0.005343 0.001205
# 4 -0.000987 0.005632 0.013925 0.040866 -0.003513 -0.006904
# 5 -0.005618 0.002547 -0.005343 -0.003513 0.026227 0.004462
# 6 0.001739 -0.007212 0.001205 -0.006904 0.004462 0.027004
#
#
# Mechanical properties :
#
#
# Convention : Reuss Voigt Hill
#
# Bulk Modulus (GPa) = 34.30953 56.41125 45.36039
# Shear Modulus (GPa) = 26.97755 37.23786 32.10771
#
# Velocity S-wave (km/s) = 3.23793 3.80416 3.53241
# Velocity P-wave (km/s) = 5.22613 6.42015 5.85367
#
# Compressibility (1/GPa) = 0.02914642
#
# Stress axis : x y z
#
# Youngs Moduli (GPa) = 79.66307 49.59705 44.20596
#
# Poissons Ratio (x) = 0.37215 0.01516
# Poissons Ratio (y) = 0.59775 0.23203
# Poissons Ratio (z) = 0.02731 0.26033
#
# Static dielectric constant tensor:
#      x y z
#    x 2.103130 -0.004130 0.042530 
#    y -0.004130 2.036900 -0.041490 
#    z 0.042530 -0.041490 2.121720 
# 
# From -- ./inp_files/494926.got.cif
#   From: 2010.05.17/outbox.cif.g08.bks.cpg/sg2_248_cif.got.tgz:494926.got - 2010.06.03 11:33:40.
