data_PCOD9023481
_publ_section_title
;
Structure prediction by ZEFSAII (Michael W. Deem and Ramdas Pophale) SiO2 
 PCOD9023481
Probable space group: P -1
;
_chemical_formula_sum "Si O2"
_cell_formula_units_Z 14
_cell_length_a 9.692418
_cell_length_b 8.597582
_cell_length_c 19.958973
_cell_angle_alpha 147.681253
_cell_angle_beta 50.461644
_cell_angle_gamma 114.159170
_cell_volume 651.482136
_symmetry_space_group_name_H-M "P -1"
_symmetry_group_IT_number 2
_symmetry_cell_setting 'triclinic'
loop_
_space_group_symop_operation_xyz
x,y,z
-x,-y,-z
loop_
_atom_site_type_symbol
_atom_site_label
_atom_site_fract_x
_atom_site_fract_y
_atom_site_fract_z
Si Si1 0.547440 0.252209 0.338050
Si Si2 0.907946 0.223434 0.429424
Si Si3 0.276555 0.891908 0.255934
Si Si4 0.489802 0.264576 0.009095
Si Si5 0.728574 0.148557 0.026377
Si Si6 0.908767 0.869931 0.157467
Si Si7 0.515939 0.646314 0.363890
O O1 0.500000 0.500000 0.500000
O O2 0.596098 0.431247 0.324924
O O3 0.360871 0.159135 0.347789
O O4 0.712019 0.966155 0.213182
O O5 0.700796 0.350055 0.571314
O O6 0.000000 0.500000 0.500000
O O7 0.896355 0.053451 0.299455
O O8 0.055611 0.983719 0.344696
O O9 0.359067 0.612926 0.179181
O O10 0.377288 0.785707 0.114656
O O11 0.625160 0.162170 0.992668
O O12 0.350817 0.060132 0.976424
O O13 0.650818 0.487866 0.203975
O O14 0.946875 0.032905 0.900487
O O15 0.000000 0.500000 0.000000
O O16 0.500000 0.000000 0.500000
#
# Coordination Sequence:
#
# PCOD9023481 Si02
#       7
#     2   2   2   2   2   2   2
#     4  12  25  46  68 102 143 185 231 287 353 429
#     4  12  23  46  71 101 135 192 235 284 347 433
#     4  11  22  43  72  98 130 182 240 280 342 425
#     4  10  22  39  69  99 133 169 230 301 339 389
#     4  11  23  44  66 101 140 172 230 296 348 403
#     4  12  26  43  75 104 140 188 240 288 357 429
#     4  12  27  45  68 101 150 184 225 295 368 411
#
# _framework density 21.489460999999999
#
# number of rings (size 3 to 8) (size 9 to 14) (size 15 to 20)
#    0.000    0.571    5.714    1.714    6.000    1.714 
#    0.000    0.714    0.000    0.000    0.000    0.000 
#    0.000    0.000    0.000    0.000    0.000    0.000 
#
# Total GULP energy -78200.570346 kJ/mol
# GULP energy per Si atom -5585.755025 kJ/mol
# Density = 2.144055 g / cm^3
# Si number density = 21.489461 Si / 1000 Ang^3
#
#
#
# Elastic Constant Matrix: (Units=GPa)
#
#
# Indices 1 2 3 4 5 6 
#
# 1 95.8684 6.0159 14.7323 -2.9558 -17.1837 3.5488
# 2 6.0159 36.6089 -4.4535 12.9258 -6.2245 -0.1138
# 3 14.7323 -4.4535 61.3937 1.0698 6.1275 -2.3162
# 4 -2.9558 12.9258 1.0698 43.8243 3.9472 -4.1349
# 5 -17.1837 -6.2245 6.1275 3.9472 44.9628 4.9454
# 6 3.5488 -0.1138 -2.3162 -4.1349 4.9454 12.3865
#
#
#
# Elastic Compliance Matrix: (Units=1/GPa)
#
#
# Indices 1 2 3 4 5 6 
#
# 1 0.012417 -0.001666 -0.003923 0.000295 0.005738 -0.006499
# 2 -0.001666 0.032432 0.002281 -0.010585 0.004945 -0.004306
# 3 -0.003923 0.002281 0.018059 -0.000418 -0.004278 0.006090
# 4 0.000295 -0.010585 -0.000418 0.027436 -0.004898 0.010854
# 5 0.005738 0.004945 -0.004278 -0.004898 0.027796 -0.015131
# 6 -0.006499 -0.004306 0.006090 0.010854 -0.015131 0.093359
#
#
# Mechanical properties :
#
#
# Convention : Reuss Voigt Hill
#
# Bulk Modulus (GPa) = 17.76509 25.16228 21.46369
# Shear Modulus (GPa) = 21.10776 32.07312 26.59044
#
# Velocity S-wave (km/s) = 3.13747 3.86749 3.52144
# Velocity P-wave (km/s) = 4.62707 5.62830 5.15207
#
# Compressibility (1/GPa) = 0.05629017
#
# Stress axis : x y z
#
# Youngs Moduli (GPa) = 80.53689 30.83383 55.37312
#
# Poissons Ratio (x) = 0.05138 0.21726
# Poissons Ratio (y) = 0.13420 -0.12630
# Poissons Ratio (z) = 0.31599 -0.07033
#
# Static dielectric constant tensor:
#      x y z
#    x 1.680440 0.066040 -0.002740 
#    y 0.066040 1.761600 0.036480 
#    z -0.002740 0.036480 1.799300 
# 
# From -- ./inp_files/207633.got.cif
#   From: 2010.05.17/outbox.cif.g08.bks.cpg/sg2_104_cif.got.tgz:207633.got - 2010.06.03 11:33:40.
