data_PCOD9023852
_publ_section_title
;
Structure prediction by ZEFSAII (Michael W. Deem and Ramdas Pophale) SiO2 
 PCOD9023852
Probable space group: P -1
;
_chemical_formula_sum "Si O2"
_cell_formula_units_Z 16
_cell_length_a 8.290835
_cell_length_b 16.838292
_cell_length_c 9.003684
_cell_angle_alpha 60.263702
_cell_angle_beta 51.737949
_cell_angle_gamma 53.152053
_cell_volume 774.081078
_symmetry_space_group_name_H-M "P -1"
_symmetry_group_IT_number 2
_symmetry_cell_setting 'triclinic'
loop_
_space_group_symop_operation_xyz
x,y,z
-x,-y,-z
loop_
_atom_site_type_symbol
_atom_site_label
_atom_site_fract_x
_atom_site_fract_y
_atom_site_fract_z
Si Si1 0.084020 0.252016 0.434476
Si Si2 0.740297 0.056743 0.155603
Si Si3 0.461996 0.461561 0.897239
Si Si4 0.975720 0.397739 0.610386
Si Si5 0.357894 0.273068 0.691052
Si Si6 0.422683 0.261483 0.015136
Si Si7 0.552280 0.902957 0.424283
Si Si8 0.373339 0.601723 0.576740
O O1 0.222774 0.238936 0.218599
O O2 0.217580 0.153532 0.551752
O O3 0.107185 0.335437 0.450185
O O4 0.822600 0.305469 0.484582
O O5 0.646510 0.169040 0.036045
O O6 0.659965 0.070948 0.364201
O O7 0.593057 0.995515 0.246003
O O8 0.000000 0.000000 0.000000
O O9 0.716789 0.418493 0.727161
O O10 0.297533 0.557166 0.803679
O O11 0.500000 0.500000 0.000000
O O12 0.396699 0.368699 0.995921
O O13 0.000000 0.500000 0.500000
O O14 0.091423 0.330769 0.750279
O O15 0.453230 0.172008 0.631444
O O16 0.457397 0.351635 0.509016
O O17 0.409124 0.260090 0.847433
O O18 0.500000 0.500000 0.500000
#
# Coordination Sequence:
#
# PCOD9023852 Si02
#       8
#     2   2   2   2   2   2   2   2
#     4  10  22  40  62  85 128 169 207 260 320 381
#     4  10  23  44  74  94 123 170 220 268 330 396
#     4  12  26  38  61  93 130 171 220 258 309 385
#     4  11  20  38  58  82 123 172 208 252 311 372
#     4  11  23  39  63  92 129 166 209 265 322 381
#     4  11  25  42  63  96 127 164 219 268 320 384
#     4   9  23  46  68  94 130 167 212 272 336 384
#     4  12  22  40  60  92 132 174 214 253 321 380
#
# _framework density 20.66967
#
# number of rings (size 3 to 8) (size 9 to 14) (size 15 to 20)
#    0.000    1.250    3.750    0.750   10.500    1.000 
#    2.250    0.625    0.000    0.000    0.000    0.000 
#    0.000    0.000    0.000    0.000    0.000    0.000 
#
# Total GULP energy -89101.439907 kJ/mol
# GULP energy per Si atom -5568.839994 kJ/mol
# Density = 2.062262 g / cm^3
# Si number density = 20.669670 Si / 1000 Ang^3
#
#
#
# Elastic Constant Matrix: (Units=GPa)
#
#
# Indices 1 2 3 4 5 6 
#
# 1 68.7125 21.5504 21.6237 2.5886 15.7989 5.3654
# 2 21.5504 80.6211 24.7958 1.2017 15.2147 14.4536
# 3 21.6237 24.7958 78.0729 5.4905 18.3463 2.0100
# 4 2.5886 1.2017 5.4905 33.7606 0.1825 -3.7345
# 5 15.7989 15.2147 18.3463 0.1825 31.9929 6.8727
# 6 5.3654 14.4536 2.0100 -3.7345 6.8727 42.8948
#
#
#
# Elastic Compliance Matrix: (Units=1/GPa)
#
#
# Indices 1 2 3 4 5 6 
#
# 1 0.017625 -0.002752 -0.002565 -0.000837 -0.005856 -0.000291
# 2 -0.002752 0.015521 -0.003281 -0.000259 -0.003229 -0.004237
# 3 -0.002565 -0.003281 0.016275 -0.002122 -0.006832 0.001574
# 4 -0.000837 -0.000259 -0.002122 0.030341 0.000984 0.002775
# 5 -0.005856 -0.003229 -0.006832 0.000984 0.040513 -0.004265
# 6 -0.000291 -0.004237 0.001574 0.002775 -0.004265 0.025628
#
#
# Mechanical properties :
#
#
# Convention : Reuss Voigt Hill
#
# Bulk Modulus (GPa) = 31.03221 40.37182 35.70202
# Shear Modulus (GPa) = 28.76191 32.35876 30.56033
#
# Velocity S-wave (km/s) = 3.73433 3.96096 3.84931
# Velocity P-wave (km/s) = 5.79997 6.36343 6.08822
#
# Compressibility (1/GPa) = 0.03222458
#
# Stress axis : x y z
#
# Youngs Moduli (GPa) = 56.73895 64.42693 61.44322
#
# Poissons Ratio (x) = 0.17733 0.15759
# Poissons Ratio (y) = 0.15617 0.20161
# Poissons Ratio (z) = 0.14552 0.21140
#
# Static dielectric constant tensor:
#      x y z
#    x 1.754360 -0.045250 0.037950 
#    y -0.045250 1.907020 -0.001370 
#    z 0.037950 -0.001370 1.805160 
# 
# From -- ./inp_files/216945.got.cif
#   From: 2010.05.17/outbox.cif.g08.bks.cpg/sg2_109_cif.got.tgz:216945.got - 2010.06.03 11:33:40.
