data_PCOD9023773
_publ_section_title
;
Structure prediction by ZEFSAII (Michael W. Deem and Ramdas Pophale) SiO2 
 PCOD9023773
Probable space group: P -1
;
_chemical_formula_sum "Si O2"
_cell_formula_units_Z 14
_cell_length_a 15.814593
_cell_length_b 8.231048
_cell_length_c 14.554526
_cell_angle_alpha 76.767199
_cell_angle_beta 24.752254
_cell_angle_gamma 61.915726
_cell_volume 590.084922
_symmetry_space_group_name_H-M "P -1"
_symmetry_group_IT_number 2
_symmetry_cell_setting 'triclinic'
loop_
_space_group_symop_operation_xyz
x,y,z
-x,-y,-z
loop_
_atom_site_type_symbol
_atom_site_label
_atom_site_fract_x
_atom_site_fract_y
_atom_site_fract_z
Si Si1 0.921718 0.065957 0.852967
Si Si2 0.521441 0.145916 0.585331
Si Si3 0.473078 0.826569 0.137023
Si Si4 0.529196 0.749628 0.584037
Si Si5 0.496587 0.540106 0.889129
Si Si6 0.728420 0.723435 0.704583
Si Si7 0.091256 0.309376 0.135872
O O1 0.885674 0.902998 0.864631
O O2 0.735007 0.169521 0.114387
O O3 0.794645 0.274592 0.886394
O O4 0.222670 0.930626 0.602006
O O5 0.493836 0.256231 0.502151
O O6 0.559656 0.930050 0.552266
O O7 0.261427 0.294524 0.885282
O O8 0.381147 0.684180 0.254221
O O9 0.284242 0.073228 0.327935
O O10 0.522466 0.820298 0.980316
O O11 0.752948 0.706776 0.926720
O O12 0.789934 0.520131 0.392719
O O13 0.634890 0.645939 0.728789
O O14 0.500000 0.500000 0.000000
O O15 0.000000 0.500000 0.500000
#
# Coordination Sequence:
#
# PCOD9023773 Si02
#       7
#     2   2   2   2   2   2   2
#     4  11  23  41  66  96 135 174 227 278 329 402
#     4  10  23  43  65  96 134 173 222 278 336 403
#     4  10  22  40  61  91 127 172 214 270 334 387
#     4  10  23  42  67  95 131 177 221 278 338 395
#     4  10  22  41  63  93 130 173 222 271 334 392
#     4  10  22  40  63  89 129 165 222 273 321 393
#     4  11  23  39  66  97 137 171 222 276 336 398
#
# _framework density 23.725397999999998
#
# number of rings (size 3 to 8) (size 9 to 14) (size 15 to 20)
#    0.000    1.714    1.429    1.714    2.000    5.714 
#    0.000    0.000    0.000    0.000    0.000    0.000 
#    0.000    0.000    0.000    0.000    0.000    0.000 
#
# Total GULP energy -78325.629852 kJ/mol
# GULP energy per Si atom -5594.687847 kJ/mol
# Density = 2.367140 g / cm^3
# Si number density = 23.725398 Si / 1000 Ang^3
#
#
#
# Elastic Constant Matrix: (Units=GPa)
#
#
# Indices 1 2 3 4 5 6 
#
# 1 110.7035 48.7621 16.4237 -6.0021 -3.7252 3.3330
# 2 48.7621 116.1749 36.4894 26.0735 7.4809 14.8857
# 3 16.4237 36.4894 97.3973 5.7902 5.9690 6.3591
# 4 -6.0021 26.0735 5.7902 31.5114 -9.7606 1.3757
# 5 -3.7252 7.4809 5.9690 -9.7606 28.7635 -4.7554
# 6 3.3330 14.8857 6.3591 1.3757 -4.7554 50.2996
#
#
#
# Elastic Compliance Matrix: (Units=1/GPa)
#
#
# Indices 1 2 3 4 5 6 
#
# 1 0.014586 -0.010199 -0.000258 0.014200 0.009848 0.002627
# 2 -0.010199 0.020775 -0.003427 -0.022806 -0.014712 -0.005806
# 3 -0.000258 -0.003427 0.011724 0.000156 -0.001623 -0.000609
# 4 0.014200 -0.022806 0.000156 0.062276 0.030016 0.006923
# 5 0.009848 -0.014712 -0.001623 0.030016 0.051709 0.007974
# 6 0.002627 -0.005806 -0.000609 0.006923 0.007974 0.022067
#
#
# Mechanical properties :
#
#
# Convention : Reuss Voigt Hill
#
# Bulk Modulus (GPa) = 51.76576 58.62511 55.19544
# Shear Modulus (GPa) = 23.00512 36.95495 29.98003
#
# Velocity S-wave (km/s) = 3.11728 3.95094 3.55861
# Velocity P-wave (km/s) = 5.90108 6.75105 6.34032
#
# Compressibility (1/GPa) = 0.01931779
#
# Stress axis : x y z
#
# Youngs Moduli (GPa) = 68.55877 48.13579 85.29169
#
# Poissons Ratio (x) = 0.49094 0.02199
# Poissons Ratio (y) = 0.69923 0.29227
# Poissons Ratio (z) = 0.01768 0.16495
#
# Static dielectric constant tensor:
#      x y z
#    x 1.879580 0.003770 0.013120 
#    y 0.003770 1.956730 -0.037580 
#    z 0.013120 -0.037580 1.891350 
# 
# From -- ./inp_files/348379.got.cif
#   From: 2010.05.17/outbox.cif.g08.bks.cpg/sg2_175_cif.got.tgz:348379.got - 2010.06.03 11:33:40.
