data_PCOD9023932
_publ_section_title
;
Structure prediction by ZEFSAII (Michael W. Deem and Ramdas Pophale) SiO2 
 PCOD9023932
Probable space group: P -1
;
_chemical_formula_sum "Si O2"
_cell_formula_units_Z 16
_cell_length_a 14.002101
_cell_length_b 6.762177
_cell_length_c 13.409474
_cell_angle_alpha 55.391742
_cell_angle_beta 44.081869
_cell_angle_gamma 51.955780
_cell_volume 677.197330
_symmetry_space_group_name_H-M "P -1"
_symmetry_group_IT_number 2
_symmetry_cell_setting 'triclinic'
loop_
_space_group_symop_operation_xyz
x,y,z
-x,-y,-z
loop_
_atom_site_type_symbol
_atom_site_label
_atom_site_fract_x
_atom_site_fract_y
_atom_site_fract_z
Si Si1 0.610997 0.250217 0.427558
Si Si2 0.128908 0.389528 0.136068
Si Si3 0.436514 0.921653 0.707392
Si Si4 0.196057 0.482545 0.718357
Si Si5 0.345598 0.563662 0.012466
Si Si6 0.957518 0.723920 0.545722
Si Si7 0.637052 0.172273 0.887431
Si Si8 0.235826 0.757075 0.421385
O O1 0.500000 0.500000 0.500000
O O2 0.577454 0.214191 0.347529
O O3 0.759944 0.312646 0.307246
O O4 0.577134 0.010488 0.570244
O O5 0.084443 0.356075 0.292882
O O6 0.977709 0.464421 0.167143
O O7 0.254157 0.118186 0.090058
O O8 0.212692 0.587044 0.031211
O O9 0.431640 0.735599 0.852821
O O10 0.296266 0.188743 0.750525
O O11 0.244488 0.532169 0.555024
O O12 0.462760 0.270627 0.012988
O O13 0.304177 0.661339 0.127518
O O14 0.000000 0.500000 0.500000
O O15 0.102842 0.788984 0.435641
O O16 0.823528 0.982845 0.543663
O O17 0.640213 0.243942 0.747626
#
# Coordination Sequence:
#
# PCOD9023932 Si02
#       8
#     2   2   2   2   2   2   2   2
#     4   9  21  41  63  93 123 162 209 258 317 366
#     4  10  22  40  62  91 133 165 208 257 312 384
#     4  10  23  42  65  94 124 162 214 259 311 375
#     4  10  22  40  66  98 125 163 202 264 327 369
#     4  11  24  42  64  90 128 172 215 257 303 379
#     4   9  17  33  56  87 122 162 198 250 312 361
#     4  10  23  42  62  89 126 175 215 253 311 369
#     4   9  19  34  58  90 124 152 204 257 303 370
#
# _framework density 23.62679
#
# number of rings (size 3 to 8) (size 9 to 14) (size 15 to 20)
#    0.000    2.250    0.000    1.875    5.250    5.500 
#    9.000    1.250    0.000    0.000    0.000    0.000 
#    0.000    0.000    0.000    0.000    0.000    0.000 
#
# Total GULP energy -89275.900938 kJ/mol
# GULP energy per Si atom -5579.743809 kJ/mol
# Density = 2.357301 g / cm^3
# Si number density = 23.626790 Si / 1000 Ang^3
#
#
#
# Elastic Constant Matrix: (Units=GPa)
#
#
# Indices 1 2 3 4 5 6 
#
# 1 121.1465 46.2019 21.2232 -2.0064 -36.4142 16.6582
# 2 46.2019 121.8850 24.5754 13.1969 -6.1007 15.5058
# 3 21.2232 24.5754 50.3777 -6.2458 -3.2300 7.9668
# 4 -2.0064 13.1969 -6.2458 29.4456 -0.2027 0.7396
# 5 -36.4142 -6.1007 -3.2300 -0.2027 40.4843 -7.1020
# 6 16.6582 15.5058 7.9668 0.7396 -7.1020 37.2897
#
#
#
# Elastic Compliance Matrix: (Units=1/GPa)
#
#
# Indices 1 2 3 4 5 6 
#
# 1 0.014083 -0.004293 -0.002504 0.002478 0.011512 -0.001828
# 2 -0.004293 0.011574 -0.004440 -0.006382 -0.002920 -0.002376
# 3 -0.002504 -0.004440 0.024267 0.007023 -0.001411 -0.002627
# 4 0.002478 -0.006382 0.007023 0.038502 0.001960 -0.000344
# 5 0.011512 -0.002920 -0.001411 0.001960 0.035041 0.003008
# 6 -0.001828 -0.002376 -0.002627 -0.000344 0.003008 0.029762
#
#
# Mechanical properties :
#
#
# Convention : Reuss Voigt Hill
#
# Bulk Modulus (GPa) = 36.43150 53.04557 44.73854
# Shear Modulus (GPa) = 27.04834 34.87118 30.95976
#
# Velocity S-wave (km/s) = 3.38718 3.84593 3.62383
# Velocity P-wave (km/s) = 5.54530 6.49783 6.04037
#
# Compressibility (1/GPa) = 0.02744877
#
# Stress axis : x y z
#
# Youngs Moduli (GPa) = 71.00685 86.39957 41.20833
#
# Poissons Ratio (x) = 0.37091 0.10320
# Poissons Ratio (y) = 0.30483 0.18298
# Poissons Ratio (z) = 0.17783 0.38364
#
# Static dielectric constant tensor:
#      x y z
#    x 1.950390 0.007280 -0.049250 
#    y 0.007280 1.927530 -0.010240 
#    z -0.049250 -0.010240 1.956290 
# 
# From -- ./inp_files/525535.got.cif
#   From: 2010.05.17/outbox.cif.g08.bks.cpg/sg2_263_cif.got.tgz:525535.got - 2010.06.03 11:33:40.
