data_PCOD9023754
_publ_section_title
;
Structure prediction by ZEFSAII (Michael W. Deem and Ramdas Pophale) SiO2 
 PCOD9023754
Probable space group: P -1
;
_chemical_formula_sum "Si O2"
_cell_formula_units_Z 16
_cell_length_a 8.502799
_cell_length_b 20.712362
_cell_length_c 19.887952
_cell_angle_alpha 159.388483
_cell_angle_beta 38.694888
_cell_angle_gamma 139.885127
_cell_volume 761.455169
_symmetry_space_group_name_H-M "P -1"
_symmetry_group_IT_number 2
_symmetry_cell_setting 'triclinic'
loop_
_space_group_symop_operation_xyz
x,y,z
-x,-y,-z
loop_
_atom_site_type_symbol
_atom_site_label
_atom_site_fract_x
_atom_site_fract_y
_atom_site_fract_z
Si Si1 0.206540 0.642008 0.530991
Si Si2 0.216576 0.977107 0.610201
Si Si3 0.758506 0.018582 0.232547
Si Si4 0.246342 0.142382 0.540538
Si Si5 0.048700 0.378267 0.056412
Si Si6 0.757867 0.668576 0.410426
Si Si7 0.741557 0.620191 0.866519
Si Si8 0.233893 0.482840 0.954739
O O1 0.110838 0.821462 0.705121
O O2 0.461793 0.692589 0.540628
O O3 0.275825 0.531929 0.333641
O O4 0.000000 0.500000 0.500000
O O5 0.500000 0.000000 0.500000
O O6 0.230742 0.954053 0.663710
O O7 0.094417 0.166893 0.825045
O O8 0.993801 0.806876 0.498977
O O9 0.461599 0.032083 0.333493
O O10 0.846340 0.821850 0.998967
O O11 0.194827 0.278216 0.630821
O O12 0.313757 0.280539 0.715199
O O13 0.000000 0.000000 0.500000
O O14 0.121204 0.426324 0.156256
O O15 0.782678 0.454532 0.208544
O O16 0.202911 0.488975 0.051111
O O17 0.461276 0.635117 0.002428
O O18 0.000000 0.500000 0.000000
#
# Coordination Sequence:
#
# PCOD9023754 Si02
#       8
#     2   2   2   2   2   2   2   2
#     4  11  25  48  70  90 119 166 226 287 328 366
#     4  11  24  38  61  97 139 178 204 244 316 396
#     4  10  22  40  61  89 126 164 210 266 316 387
#     4  11  20  34  53  86 129 170 210 251 306 378
#     4  11  24  37  61  93 136 175 205 251 316 394
#     4  11  23  39  61  91 127 166 218 262 316 379
#     4  11  23  40  61  91 126 166 214 266 323 388
#     4  12  20  34  54  90 133 171 211 250 304 390
#
# _framework density 21.0124
#
# number of rings (size 3 to 8) (size 9 to 14) (size 15 to 20)
#    0.000    1.000    3.750    4.125    5.250    3.500 
#    0.000    2.500    0.000    3.000    0.000    0.000 
#    0.000    0.000    0.000    0.000    0.000    0.000 
#
# Total GULP energy -89088.546695 kJ/mol
# GULP energy per Si atom -5568.034168 kJ/mol
# Density = 2.096457 g / cm^3
# Si number density = 21.012400 Si / 1000 Ang^3
#
#
#
# Elastic Constant Matrix: (Units=GPa)
#
#
# Indices 1 2 3 4 5 6 
#
# 1 73.0415 23.1148 29.1557 17.0160 -24.6539 -8.7229
# 2 23.1148 98.2886 -0.5870 27.9967 -11.4611 -3.4522
# 3 29.1557 -0.5870 66.7678 23.3610 -11.8108 -4.3384
# 4 17.0160 27.9967 23.3610 22.1287 -6.8893 -3.9009
# 5 -24.6539 -11.4611 -11.8108 -6.8893 33.5699 10.7288
# 6 -8.7229 -3.4522 -4.3384 -3.9009 10.7288 26.4849
#
#
#
# Elastic Compliance Matrix: (Units=1/GPa)
#
#
# Indices 1 2 3 4 5 6 
#
# 1 0.022028 -0.003383 -0.006970 -0.001435 0.012096 0.000561
# 2 -0.003383 0.025715 0.019730 -0.050116 0.004092 -0.003570
# 3 -0.006970 0.019730 0.040184 -0.061344 0.004436 -0.003974
# 4 -0.001435 -0.050116 -0.061344 0.174111 -0.007766 0.011737
# 5 0.012096 0.004092 0.004436 -0.007766 0.044485 -0.013920
# 6 0.000561 -0.003570 -0.003974 0.011737 -0.013920 0.044194
#
#
# Mechanical properties :
#
#
# Convention : Reuss Voigt Hill
#
# Bulk Modulus (GPa) = 9.37380 37.94053 23.65717
# Shear Modulus (GPa) = 13.60459 28.86433 21.23446
#
# Velocity S-wave (km/s) = 2.54727 3.71034 3.18239
# Velocity P-wave (km/s) = 3.62246 6.03746 4.97861
#
# Compressibility (1/GPa) = 0.10668034
#
# Stress axis : x y z
#
# Youngs Moduli (GPa) = 45.39673 38.88846 24.88534
#
# Poissons Ratio (x) = 0.13156 0.17346
# Poissons Ratio (y) = 0.15358 -0.49099
# Poissons Ratio (z) = 0.31644 -0.76728
#
# Static dielectric constant tensor:
#      x y z
#    x 1.824540 0.026510 -0.009150 
#    y 0.026510 1.794750 0.039860 
#    z -0.009150 0.039860 1.718000 
# 
# From -- ./inp_files/399377.got.cif
#   From: 2010.05.17/outbox.cif.g08.bks.cpg/sg2_200_cif.got.tgz:399377.got - 2010.06.03 11:33:40.
