data_PCOD9023070
_publ_section_title
;
Structure prediction by ZEFSAII (Michael W. Deem and Ramdas Pophale) SiO2 
 PCOD9023070
Probable space group: P -1
;
_chemical_formula_sum "Si O2"
_cell_formula_units_Z 14
_cell_length_a 15.069871
_cell_length_b 9.180332
_cell_length_c 9.273557
_cell_angle_alpha 99.296339
_cell_angle_beta 57.922765
_cell_angle_gamma 143.932198
_cell_volume 540.040543
_symmetry_space_group_name_H-M "P -1"
_symmetry_group_IT_number 2
_symmetry_cell_setting 'triclinic'
loop_
_space_group_symop_operation_xyz
x,y,z
-x,-y,-z
loop_
_atom_site_type_symbol
_atom_site_label
_atom_site_fract_x
_atom_site_fract_y
_atom_site_fract_z
Si Si1 0.931900 0.985396 0.406838
Si Si2 0.515607 0.188446 0.132217
Si Si3 0.198091 0.206356 0.961968
Si Si4 0.078191 0.477132 0.306785
Si Si5 0.734742 0.203015 0.431445
Si Si6 0.411151 0.239944 0.966202
Si Si7 0.616823 0.369954 0.550143
O O1 0.726139 0.658415 0.466623
O O2 0.000000 0.000000 0.500000
O O3 0.119059 0.167445 0.175276
O O4 0.941793 0.170631 0.426193
O O5 0.388524 0.951885 0.331356
O O6 0.617438 0.452891 0.172210
O O7 0.698510 0.313012 0.914412
O O8 0.370323 0.086010 0.115771
O O9 0.269533 0.129352 0.936217
O O10 0.000000 0.000000 0.000000
O O11 0.000000 0.500000 0.500000
O O12 0.954701 0.391287 0.263734
O O13 0.771457 0.420593 0.403642
O O14 0.580933 0.931170 0.412698
O O15 0.571501 0.337632 0.752322
O O16 0.500000 0.500000 0.000000
#
# Coordination Sequence:
#
# PCOD9023070 Si02
#       7
#     2   2   2   2   2   2   2
#     4  11  23  41  69 100 139 178 237 289 343 429
#     4  10  23  45  67 102 136 185 238 283 358 425
#     4  10  22  39  66 101 136 175 229 289 349 420
#     4  11  25  43  72 104 141 184 241 293 357 424
#     4  11  26  47  71 100 149 188 235 300 355 422
#     4  10  22  41  66  99 142 175 235 290 351 418
#     4  11  25  46  66 105 145 186 238 292 365 423
#
# _framework density 25.923977000000001
#
# number of rings (size 3 to 8) (size 9 to 14) (size 15 to 20)
#    0.000    1.429    0.000    5.143   10.000    2.857 
#    2.571    1.429    0.000    0.000    0.000    0.000 
#    0.000    0.000    0.000    0.000    0.000    0.000 
#
# Total GULP energy -78009.801762 kJ/mol
# GULP energy per Si atom -5572.128697 kJ/mol
# Density = 2.586497 g / cm^3
# Si number density = 25.923977 Si / 1000 Ang^3
#
#
#
# Elastic Constant Matrix: (Units=GPa)
#
#
# Indices 1 2 3 4 5 6 
#
# 1 142.5428 52.2826 -0.2226 11.0245 -26.5850 12.1342
# 2 52.2826 131.2120 31.0148 10.1665 -19.6515 -13.6943
# 3 -0.2226 31.0148 83.3934 14.8395 -11.1818 -4.4325
# 4 11.0245 10.1665 14.8395 36.3564 1.3287 -7.6843
# 5 -26.5850 -19.6515 -11.1818 1.3287 26.1967 4.7597
# 6 12.1342 -13.6943 -4.4325 -7.6843 4.7597 47.0584
#
#
#
# Elastic Compliance Matrix: (Units=1/GPa)
#
#
# Indices 1 2 3 4 5 6 
#
# 1 0.011594 -0.003922 0.003758 -0.005628 0.011783 -0.005887
# 2 -0.003922 0.010656 -0.003609 0.000389 0.001790 0.003655
# 3 0.003758 -0.003609 0.015681 -0.007402 0.008653 -0.002626
# 4 -0.005628 0.000389 -0.007402 0.034165 -0.011698 0.007629
# 5 0.011783 0.001790 0.008653 -0.011698 0.057472 -0.009426
# 6 -0.005887 0.003655 -0.002626 0.007629 -0.009426 0.025784
#
#
# Mechanical properties :
#
#
# Convention : Reuss Voigt Hill
#
# Bulk Modulus (GPa) = 32.90933 58.14420 45.52676
# Shear Modulus (GPa) = 28.89757 40.19387 34.54572
#
# Velocity S-wave (km/s) = 3.34234 3.94185 3.65441
# Velocity P-wave (km/s) = 5.25520 6.57229 5.95030
#
# Compressibility (1/GPa) = 0.03038652
#
# Stress axis : x y z
#
# Youngs Moduli (GPa) = 86.25361 93.84231 63.77031
#
# Poissons Ratio (x) = 0.36801 -0.23964
# Poissons Ratio (y) = 0.33825 0.23012
# Poissons Ratio (z) = -0.32413 0.33864
#
# Static dielectric constant tensor:
#      x y z
#    x 2.315610 0.050270 -0.031230 
#    y 0.050270 2.348860 -0.043890 
#    z -0.031230 -0.043890 2.018350 
# 
# From -- ./inp_files/298748.got.cif
#   From: 2010.05.17/outbox.cif.g08.bks.cpg/sg2_150_cif.got.tgz:298748.got - 2010.06.03 11:33:40.
