data_PCOD9023952
_publ_section_title
;
Structure prediction by ZEFSAII (Michael W. Deem and Ramdas Pophale) SiO2 
 PCOD9023952
Probable space group: P -1
;
_chemical_formula_sum "Si O2"
_cell_formula_units_Z 13
_cell_length_a 8.950266
_cell_length_b 13.504892
_cell_length_c 14.006407
_cell_angle_alpha 159.645121
_cell_angle_beta 62.938441
_cell_angle_gamma 118.301439
_cell_volume 518.185572
_symmetry_space_group_name_H-M "P -1"
_symmetry_group_IT_number 2
_symmetry_cell_setting 'triclinic'
loop_
_space_group_symop_operation_xyz
x,y,z
-x,-y,-z
loop_
_atom_site_type_symbol
_atom_site_label
_atom_site_fract_x
_atom_site_fract_y
_atom_site_fract_z
Si Si1 0.738024 0.846205 0.396704
Si Si2 0.500000 0.500000 0.000000
Si Si3 0.839592 0.587116 0.855897
Si Si4 0.388108 0.982163 0.921393
Si Si5 0.808091 0.550151 0.611492
Si Si6 0.008926 0.069705 0.363369
Si Si7 0.309348 0.771741 0.072081
O O1 0.906465 0.955095 0.385796
O O2 0.680302 0.095035 0.703794
O O3 0.593658 0.728454 0.257907
O O4 0.757777 0.566976 0.203591
O O5 0.685478 0.490735 0.884752
O O6 0.776078 0.536190 0.721287
O O7 0.992231 0.402214 0.660231
O O8 0.908924 0.912569 0.160167
O O9 0.510004 0.166271 0.974986
O O10 0.320328 0.675191 0.616768
O O11 0.225247 0.135964 0.126402
O O12 0.500000 0.000000 0.000000
O O13 0.000000 0.500000 0.500000
O O14 0.186800 0.957123 0.219685
#
# Coordination Sequence:
#
# PCOD9023952 Si02
#       7
#     2   1   2   2   2   2   2
#     4  11  23  40  65 100 134 188 222 287 348 420
#     4  10  22  40  62  92 132 166 226 274 336 422
#     4  11  24  41  69  99 138 182 236 280 363 400
#     4  12  28  48  75 108 139 191 239 303 362 416
#     4  12  28  49  77 104 146 187 245 299 357 430
#     4  11  24  40  67 102 138 185 225 290 337 443
#     4  12  24  42  69  94 147 173 238 281 362 413
#
# _framework density 25.087537000000001
#
# number of rings (size 3 to 8) (size 9 to 14) (size 15 to 20)
#    0.000    0.615    0.000    8.308    4.308    6.769 
#    0.000    0.000    0.000    0.000    0.000    0.000 
#    0.000    0.000    0.000    0.000    0.000    0.000 
#
# Total GULP energy -72662.876312 kJ/mol
# GULP energy per Si atom -5589.452024 kJ/mol
# Density = 2.503044 g / cm^3
# Si number density = 25.087537 Si / 1000 Ang^3
#
#
#
# Elastic Constant Matrix: (Units=GPa)
#
#
# Indices 1 2 3 4 5 6 
#
# 1 88.8676 24.4207 13.3914 -29.9970 14.1458 -5.8287
# 2 24.4207 76.4897 37.1598 -21.8666 -7.5677 -7.4031
# 3 13.3914 37.1598 123.8402 -20.7375 16.3134 -17.2289
# 4 -29.9970 -21.8666 -20.7375 26.8561 -3.1565 -0.9786
# 5 14.1458 -7.5677 16.3134 -3.1565 52.0450 -16.9704
# 6 -5.8287 -7.4031 -17.2289 -0.9786 -16.9704 31.9597
#
#
#
# Elastic Compliance Matrix: (Units=1/GPa)
#
#
# Indices 1 2 3 4 5 6 
#
# 1 0.019834 -0.001268 0.003151 0.023220 -0.003973 0.003624
# 2 -0.001268 0.020653 -0.003820 0.013603 0.007642 0.006968
# 3 0.003151 -0.003820 0.011418 0.009045 -0.002958 0.004551
# 4 0.023220 0.013603 0.009045 0.082206 0.003188 0.016472
# 5 -0.003973 0.007642 -0.002958 0.003188 0.027065 0.013920
# 6 0.003624 0.006968 0.004551 0.016472 0.013920 0.043914
#
#
# Mechanical properties :
#
#
# Convention : Reuss Voigt Hill
#
# Bulk Modulus (GPa) = 20.81879 48.79347 34.80613
# Shear Modulus (GPa) = 22.22496 36.45387 29.33941
#
# Velocity S-wave (km/s) = 2.97963 3.81605 3.42348
# Velocity P-wave (km/s) = 4.48933 6.23761 5.43424
#
# Compressibility (1/GPa) = 0.04803354
#
# Stress axis : x y z
#
# Youngs Moduli (GPa) = 50.41782 48.41852 87.58364
#
# Poissons Ratio (x) = 0.06138 -0.27602
# Poissons Ratio (y) = 0.06392 0.33453
# Poissons Ratio (z) = -0.15889 0.18494
#
# Static dielectric constant tensor:
#      x y z
#    x 2.029150 -0.095630 -0.034620 
#    y -0.095630 1.985410 -0.011450 
#    z -0.034620 -0.011450 1.957040 
# 
# From -- ./inp_files/87440.got.cif
#   From: 2010.05.17/outbox.cif.g08.bks.cpg/sg2_44_cif.got.tgz:87440.got - 2010.06.03 11:33:40.
