data_PCOD9023819
_publ_section_title
;
Structure prediction by ZEFSAII (Michael W. Deem and Ramdas Pophale) SiO2 
 PCOD9023819
Probable space group: P -1
;
_chemical_formula_sum "Si O2"
_cell_formula_units_Z 14
_cell_length_a 12.023729
_cell_length_b 14.473819
_cell_length_c 11.745434
_cell_angle_alpha 139.467711
_cell_angle_beta 130.486196
_cell_angle_gamma 29.418528
_cell_volume 651.958279
_symmetry_space_group_name_H-M "P -1"
_symmetry_group_IT_number 2
_symmetry_cell_setting 'triclinic'
loop_
_space_group_symop_operation_xyz
x,y,z
-x,-y,-z
loop_
_atom_site_type_symbol
_atom_site_label
_atom_site_fract_x
_atom_site_fract_y
_atom_site_fract_z
Si Si1 0.297790 0.224133 0.505239
Si Si2 0.366864 0.149640 0.221301
Si Si3 0.039442 0.014208 0.169424
Si Si4 0.027481 0.738443 0.052781
Si Si5 0.096927 0.610817 0.456085
Si Si6 0.098869 0.273571 0.816838
Si Si7 0.549302 0.631481 0.148279
O O1 0.307460 0.167271 0.329920
O O2 0.335423 0.367238 0.671343
O O3 0.068325 0.356223 0.540390
O O4 0.500000 0.000000 0.500000
O O5 0.320254 0.349687 0.348800
O O6 0.630651 0.920471 0.170319
O O7 0.187346 0.193168 0.069532
O O8 0.882772 0.252353 0.341681
O O9 0.296879 0.880436 0.209911
O O10 0.024982 0.888401 0.123915
O O11 0.000000 0.000000 0.000000
O O12 0.002690 0.762798 0.194206
O O13 0.267626 0.486869 0.941813
O O14 0.974383 0.709861 0.344667
O O15 0.000000 0.500000 0.000000
O O16 0.500000 0.500000 0.000000
#
# Coordination Sequence:
#
# PCOD9023819 Si02
#       7
#     2   2   2   2   2   2   2
#     4  12  21  40  67  98 133 174 221 286 343 386
#     4  12  25  42  71 101 134 174 237 278 335 407
#     4  11  25  44  67 102 139 173 228 285 345 403
#     4  11  25  42  68  99 136 186 221 279 339 404
#     4  12  25  43  69 101 134 181 227 284 336 402
#     4  12  25  46  70  99 140 178 233 278 333 407
#     4  10  22  40  61  96 130 171 216 277 343 388
#
# _framework density 21.473766999999999
#
# number of rings (size 3 to 8) (size 9 to 14) (size 15 to 20)
#    0.000    0.571    5.714    1.714    4.000    0.571 
#    0.000    0.714    0.000    0.000    0.000    0.000 
#    0.000    0.000    0.000    0.000    0.000    0.000 
#
# Total GULP energy -78232.143392 kJ/mol
# GULP energy per Si atom -5588.010242 kJ/mol
# Density = 2.142489 g / cm^3
# Si number density = 21.473767 Si / 1000 Ang^3
#
#
#
# Elastic Constant Matrix: (Units=GPa)
#
#
# Indices 1 2 3 4 5 6 
#
# 1 111.6799 34.1301 41.6411 -3.5356 -21.7123 11.3336
# 2 34.1301 102.3401 28.0467 24.7296 -13.1257 -1.7185
# 3 41.6411 28.0467 110.9027 4.7703 1.5004 6.6007
# 4 -3.5356 24.7296 4.7703 36.6791 9.3829 -7.2484
# 5 -21.7123 -13.1257 1.5004 9.3829 37.4055 7.7301
# 6 11.3336 -1.7185 6.6007 -7.2484 7.7301 25.4596
#
#
#
# Elastic Compliance Matrix: (Units=1/GPa)
#
#
# Indices 1 2 3 4 5 6 
#
# 1 0.013834 -0.002270 -0.004234 -0.000564 0.009235 -0.008178
# 2 -0.002270 0.015302 -0.002359 -0.013005 0.008136 -0.003518
# 3 -0.004234 -0.002359 0.011208 0.000795 -0.003988 0.000257
# 4 -0.000564 -0.013005 0.000795 0.044449 -0.019755 0.017820
# 5 0.009235 0.008136 -0.003988 -0.019755 0.044545 -0.021677
# 6 -0.008178 -0.003518 0.000257 0.017820 -0.021677 0.054269
#
#
# Mechanical properties :
#
#
# Convention : Reuss Voigt Hill
#
# Bulk Modulus (GPa) = 44.21273 59.17316 51.69294
# Shear Modulus (GPa) = 23.93815 34.64915 29.29365
#
# Velocity S-wave (km/s) = 3.34243 4.02127 3.69746
# Velocity P-wave (km/s) = 5.96067 7.01261 6.50793
#
# Compressibility (1/GPa) = 0.02261792
#
# Stress axis : x y z
#
# Youngs Moduli (GPa) = 72.28462 65.35233 89.22421
#
# Poissons Ratio (x) = 0.14834 0.37780
# Poissons Ratio (y) = 0.16407 0.21046
# Poissons Ratio (z) = 0.30607 0.15415
#
# Static dielectric constant tensor:
#      x y z
#    x 1.779230 0.026000 0.026800 
#    y 0.026000 1.836850 0.035380 
#    z 0.026800 0.035380 1.848540 
# 
# From -- ./inp_files/419246.got.cif
#   From: 2010.05.17/outbox.cif.g08.bks.cpg/sg2_210_cif.got.tgz:419246.got - 2010.06.03 11:33:40.
