data_PCOD9023881
_publ_section_title
;
Structure prediction by ZEFSAII (Michael W. Deem and Ramdas Pophale) SiO2 
 PCOD9023881
Probable space group: P -1
;
_chemical_formula_sum "Si O2"
_cell_formula_units_Z 10
_cell_length_a 13.224037
_cell_length_b 10.897685
_cell_length_c 4.994289
_cell_angle_alpha 73.802640
_cell_angle_beta 95.032701
_cell_angle_gamma 41.905100
_cell_volume 409.779356
_symmetry_space_group_name_H-M "P -1"
_symmetry_group_IT_number 2
_symmetry_cell_setting 'triclinic'
loop_
_space_group_symop_operation_xyz
x,y,z
-x,-y,-z
loop_
_atom_site_type_symbol
_atom_site_label
_atom_site_fract_x
_atom_site_fract_y
_atom_site_fract_z
Si Si1 0.181007 0.308541 0.516344
Si Si2 0.364410 0.879305 0.636803
Si Si3 0.611406 0.515681 0.541777
Si Si4 0.365237 0.213303 0.147708
Si Si5 0.802014 0.229566 0.269293
O O1 0.211600 0.374240 0.232520
O O2 0.000000 0.500000 0.500000
O O3 0.217923 0.132030 0.499865
O O4 0.304900 0.212782 0.856713
O O5 0.463572 0.764992 0.445152
O O6 0.523022 0.776027 0.901991
O O7 0.296258 0.808310 0.733186
O O8 0.500000 0.500000 0.500000
O O9 0.735718 0.384384 0.399811
O O10 0.742916 0.360924 0.910334
O O11 0.500000 0.000000 0.500000
O O12 0.000000 0.000000 0.500000
#
# Coordination Sequence:
#
# PCOD9023881 Si02
#       5
#     2   2   2   2   2
#     4  11  24  41  62  96 125 154 208 260 300 359
#     4  10  22  40  66  86 126 170 198 248 310 358
#     4  10  22  40  62  89 120 162 208 243 298 378
#     4  10  22  40  62  89 120 162 208 243 298 378
#     4  11  24  41  62  96 125 154 208 260 300 359
#
# _framework density 24.403375
#
# number of rings (size 3 to 8) (size 9 to 14) (size 15 to 20)
#    0.000    1.600    0.000    6.000    0.000   17.600 
#    0.000    0.000    0.000    0.000    0.000    0.000 
#    0.000    0.000    0.000    0.000    0.000    0.000 
#
# Total GULP energy -55763.909962 kJ/mol
# GULP energy per Si atom -5576.390996 kJ/mol
# Density = 2.434783 g / cm^3
# Si number density = 24.403375 Si / 1000 Ang^3
#
#
#
# Elastic Constant Matrix: (Units=GPa)
#
#
# Indices 1 2 3 4 5 6 
#
# 1 95.0981 51.6941 25.6141 0.3301 2.5497 6.3528
# 2 51.6941 224.6130 63.8156 7.4489 2.9596 -0.5125
# 3 25.6141 63.8156 138.1150 30.6646 10.6871 -2.3299
# 4 0.3301 7.4489 30.6646 49.3222 -2.5765 4.2610
# 5 2.5497 2.9596 10.6871 -2.5765 26.9885 6.1764
# 6 6.3528 -0.5125 -2.3299 4.2610 6.1764 38.9231
#
#
#
# Elastic Compliance Matrix: (Units=1/GPa)
#
#
# Indices 1 2 3 4 5 6 
#
# 1 0.012425 -0.002476 -0.001562 0.001489 0.000403 -0.002381
# 2 -0.002476 0.005657 -0.002334 0.000626 0.000556 0.000182
# 3 -0.001562 -0.002334 0.010501 -0.006627 -0.004927 0.002360
# 4 0.001489 0.000626 -0.006627 0.024962 0.005778 -0.004281
# 5 0.000403 0.000556 -0.004927 0.005778 0.041178 -0.007520
# 6 -0.002381 0.000182 0.002360 -0.004281 -0.007520 0.027886
#
#
# Mechanical properties :
#
#
# Convention : Reuss Voigt Hill
#
# Bulk Modulus (GPa) = 63.13364 82.23042 72.68203
# Shear Modulus (GPa) = 35.55366 44.16025 39.85695
#
# Velocity S-wave (km/s) = 3.82110 4.25855 4.04574
# Velocity P-wave (km/s) = 6.73756 7.61248 7.18834
#
# Compressibility (1/GPa) = 0.01583942
#
# Stress axis : x y z
#
# Youngs Moduli (GPa) = 80.48174 176.76272 95.23057
#
# Poissons Ratio (x) = 0.43764 0.14878
# Poissons Ratio (y) = 0.19926 0.22225
# Poissons Ratio (z) = 0.12573 0.41253
#
# Static dielectric constant tensor:
#      x y z
#    x 2.163370 -0.013000 -0.252480 
#    y -0.013000 2.015550 0.027960 
#    z -0.252480 0.027960 2.321840 
# 
# From -- ./inp_files/92321.got.cif
#   From: 2010.05.17/outbox.cif.g08.bks.cpg/sg2_47_cif.got.tgz:92321.got - 2010.06.03 11:33:40.
