data_PCOD9023967
_publ_section_title
;
Structure prediction by ZEFSAII (Michael W. Deem and Ramdas Pophale) SiO2 
 PCOD9023967
Probable space group: P -1
;
_chemical_formula_sum "Si O2"
_cell_formula_units_Z 15
_cell_length_a 11.564645
_cell_length_b 12.017585
_cell_length_c 10.833235
_cell_angle_alpha 37.088954
_cell_angle_beta 83.588349
_cell_angle_gamma 110.143492
_cell_volume 623.065009
_symmetry_space_group_name_H-M "P -1"
_symmetry_group_IT_number 2
_symmetry_cell_setting 'triclinic'
loop_
_space_group_symop_operation_xyz
x,y,z
-x,-y,-z
loop_
_atom_site_type_symbol
_atom_site_label
_atom_site_fract_x
_atom_site_fract_y
_atom_site_fract_z
Si Si1 0.892838 0.232395 0.029403
Si Si2 0.500000 0.500000 0.000000
Si Si3 0.018636 0.995838 0.148994
Si Si4 0.751225 0.255505 0.542942
Si Si5 0.816352 0.418197 0.671520
Si Si6 0.612261 0.466187 0.294674
Si Si7 0.462256 0.641671 0.132760
Si Si8 0.601076 0.929900 0.523618
O O1 0.825879 0.241476 0.901692
O O2 0.085672 0.531414 0.753870
O O3 0.907836 0.029180 0.196231
O O4 0.753772 0.134700 0.231469
O O5 0.403978 0.524206 0.105596
O O6 0.659730 0.839029 0.689177
O O7 0.966113 0.727312 0.419640
O O8 0.000000 0.000000 0.000000
O O9 0.204942 0.254161 0.942963
O O10 0.815893 0.383540 0.557415
O O11 0.614522 0.257504 0.519489
O O12 0.644176 0.949020 0.835996
O O13 0.655444 0.353129 0.786097
O O14 0.553211 0.388983 0.224909
O O15 0.483488 0.471111 0.353601
O O16 0.500000 0.000000 0.500000
#
# Coordination Sequence:
#
# PCOD9023967 Si02
#       8
#     2   1   2   2   2   2   2   2
#     4  11  24  40  66  97 131 173 214 264 325 386
#     4  10  22  44  64  86 124 164 214 278 322 364
#     4  11  22  41  62  91 137 173 208 259 315 389
#     4  11  23  40  61  95 135 170 212 264 322 394
#     4  12  23  39  64  96 135 178 210 263 326 384
#     4  10  22  40  62  93 127 168 216 261 317 383
#     4  11  24  40  66  94 126 172 225 271 319 387
#     4  11  23  44  69  92 127 168 221 277 321 381
#
# _framework density 24.074532999999999
#
# number of rings (size 3 to 8) (size 9 to 14) (size 15 to 20)
#    0.000    1.067    2.667    5.600    1.867    0.533 
#    0.000    7.333    0.000   17.600    0.000    0.000 
#    0.000    0.000    0.000    0.000    0.000    0.000 
#
# Total GULP energy -83518.576842 kJ/mol
# GULP energy per Si atom -5567.905123 kJ/mol
# Density = 2.401974 g / cm^3
# Si number density = 24.074533 Si / 1000 Ang^3
#
#
#
# Elastic Constant Matrix: (Units=GPa)
#
#
# Indices 1 2 3 4 5 6 
#
# 1 110.3501 9.4996 11.5024 4.8154 -0.7519 -26.3140
# 2 9.4996 62.9549 19.9414 -7.3401 -19.7715 -21.7505
# 3 11.5024 19.9414 87.0378 5.6145 -15.3136 -14.2294
# 4 4.8154 -7.3401 5.6145 38.0629 -2.6271 -7.0794
# 5 -0.7519 -19.7715 -15.3136 -2.6271 50.7651 1.5460
# 6 -26.3140 -21.7505 -14.2294 -7.0794 1.5460 37.4671
#
#
#
# Elastic Compliance Matrix: (Units=1/GPa)
#
#
# Indices 1 2 3 4 5 6 
#
# 1 0.010996 0.001668 -0.000380 0.000627 0.000467 0.008646
# 2 0.001668 0.026206 -0.002395 0.008970 0.009462 0.016779
# 3 -0.000380 -0.002395 0.013174 -0.001616 0.002863 0.002922
# 4 0.000627 0.008970 -0.001616 0.030428 0.004267 0.010607
# 5 0.000467 0.009462 0.002863 0.004267 0.024271 0.006713
# 6 0.008646 0.016779 0.002922 0.010607 0.006713 0.045340
#
#
# Mechanical properties :
#
#
# Convention : Reuss Voigt Hill
#
# Bulk Modulus (GPa) = 20.76387 38.02552 29.39469
# Shear Modulus (GPa) = 29.64148 39.88567 34.76357
#
# Velocity S-wave (km/s) = 3.51271 4.07474 3.80412
# Velocity P-wave (km/s) = 5.00956 6.16176 5.61529
#
# Compressibility (1/GPa) = 0.04816059
#
# Stress axis : x y z
#
# Youngs Moduli (GPa) = 90.94609 38.15936 75.90730
#
# Poissons Ratio (x) = -0.06365 0.02885
# Poissons Ratio (y) = -0.15169 0.18182
# Poissons Ratio (z) = 0.03457 0.09140
#
# Static dielectric constant tensor:
#      x y z
#    x 2.060260 0.095100 0.078680 
#    y 0.095100 2.141140 0.088270 
#    z 0.078680 0.088270 2.045160 
# 
# From -- ./inp_files/425636.got.cif
#   From: 2010.05.17/outbox.cif.g08.bks.cpg/sg2_213_cif.got.tgz:425636.got - 2010.06.03 11:33:40.
