data_PCOD9023028
_publ_section_title
;
Structure prediction by ZEFSAII (Michael W. Deem and Ramdas Pophale) SiO2 
 PCOD9023028
Probable space group: P -1
;
_chemical_formula_sum "Si O2"
_cell_formula_units_Z 14
_cell_length_a 14.682742
_cell_length_b 7.160290
_cell_length_c 8.610448
_cell_angle_alpha 125.016622
_cell_angle_beta 59.924848
_cell_angle_gamma 83.995441
_cell_volume 534.395260
_symmetry_space_group_name_H-M "P -1"
_symmetry_group_IT_number 2
_symmetry_cell_setting 'triclinic'
loop_
_space_group_symop_operation_xyz
x,y,z
-x,-y,-z
loop_
_atom_site_type_symbol
_atom_site_label
_atom_site_fract_x
_atom_site_fract_y
_atom_site_fract_z
Si Si1 0.999728 0.641934 0.803134
Si Si2 0.797331 0.718720 0.778600
Si Si3 0.493411 0.739064 0.435025
Si Si4 0.704686 0.027098 0.503388
Si Si5 0.907865 0.377266 0.966760
Si Si6 0.254526 0.791107 0.151829
Si Si7 0.521921 0.962674 0.143948
O O1 0.869697 0.762417 0.876815
O O2 0.102669 0.545173 0.533761
O O3 0.029931 0.761748 0.985771
O O4 0.001643 0.398024 0.780182
O O5 0.753482 0.957858 0.806526
O O6 0.669955 0.744808 0.950873
O O7 0.358236 0.813343 0.526511
O O8 0.609472 0.473019 0.133864
O O9 0.506085 0.760480 0.617894
O O10 0.500000 0.000000 0.500000
O O11 0.794718 0.699499 0.247353
O O12 0.579141 0.097788 0.737465
O O13 0.763851 0.145637 0.619519
O O14 0.848757 0.243500 0.858080
O O15 0.500000 0.000000 0.000000
#
# Coordination Sequence:
#
# PCOD9023028 Si02
#       7
#     2   2   2   2   2   2   2
#     4  10  24  46  68  91 137 181 221 277 325 384
#     4  11  24  42  67  99 134 179 219 268 342 387
#     4  10  22  39  65  97 137 170 210 269 337 397
#     4  11  22  44  66 105 130 170 220 276 333 397
#     4  11  22  45  75  92 130 179 226 278 323 385
#     4  12  23  40  73 101 132 170 229 272 331 403
#     4  11  20  40  69  94 141 169 205 272 346 394
#
# _framework density 26.197837
#
# number of rings (size 3 to 8) (size 9 to 14) (size 15 to 20)
#    0.000    1.143    5.714    1.286    2.000    1.714 
#    0.000    0.000    3.143    0.000    0.000    0.000 
#    0.000    0.000    0.000    0.000    0.000    0.000 
#
# Total GULP energy -78315.857986 kJ/mol
# GULP energy per Si atom -5593.989856 kJ/mol
# Density = 2.613821 g / cm^3
# Si number density = 26.197837 Si / 1000 Ang^3
#
#
#
# Elastic Constant Matrix: (Units=GPa)
#
#
# Indices 1 2 3 4 5 6 
#
# 1 185.0516 14.5053 52.3585 -10.5715 26.7219 -29.7091
# 2 14.5053 38.3123 17.9379 0.2722 0.1312 -13.9916
# 3 52.3585 17.9379 124.8154 -14.7520 1.1561 -2.4182
# 4 -10.5715 0.2722 -14.7520 34.8277 -2.4055 -0.1954
# 5 26.7219 0.1312 1.1561 -2.4055 70.0803 -15.4260
# 6 -29.7091 -13.9916 -2.4182 -0.1954 -15.4260 48.6907
#
#
#
# Elastic Compliance Matrix: (Units=1/GPa)
#
#
# Indices 1 2 3 4 5 6 
#
# 1 0.007084 -0.000075 -0.002772 0.000870 -0.001836 0.003585
# 2 -0.000075 0.031764 -0.004608 -0.002027 0.002067 0.009499
# 3 -0.002772 -0.004608 0.010205 0.003539 0.000505 -0.002334
# 4 0.000870 -0.002027 0.003539 0.030548 0.000770 0.000491
# 5 -0.001836 0.002067 0.000505 0.000770 0.015989 0.004567
# 6 0.003585 0.009499 -0.002334 0.000491 0.004567 0.026788
#
#
# Mechanical properties :
#
#
# Convention : Reuss Voigt Hill
#
# Bulk Modulus (GPa) = 29.28810 57.53139 43.40975
# Shear Modulus (GPa) = 33.63169 48.27826 40.95497
#
# Velocity S-wave (km/s) = 3.58684 4.29748 3.95814
# Velocity P-wave (km/s) = 5.32520 6.82880 6.12333
#
# Compressibility (1/GPa) = 0.03414356
#
# Stress axis : x y z
#
# Youngs Moduli (GPa) = 141.15338 31.48243 97.98951
#
# Poissons Ratio (x) = 0.00236 0.27160
# Poissons Ratio (y) = 0.01060 0.45154
# Poissons Ratio (z) = 0.39124 0.14507
#
# Static dielectric constant tensor:
#      x y z
#    x 2.139440 -0.059060 0.046010 
#    y -0.059060 2.148190 -0.059070 
#    z 0.046010 -0.059070 2.121100 
# 
# From -- ./inp_files/296682.got.cif
#   From: 2010.05.17/outbox.cif.g08.bks.cpg/sg2_149_cif.got.tgz:296682.got - 2010.06.03 11:33:40.
