data_PCOD9023099
_publ_section_title
;
Structure prediction by ZEFSAII (Michael W. Deem and Ramdas Pophale) SiO2 
 PCOD9023099
Probable space group: P -1
;
_chemical_formula_sum "Si O2"
_cell_formula_units_Z 16
_cell_length_a 10.920080
_cell_length_b 15.164829
_cell_length_c 8.082727
_cell_angle_alpha 127.474426
_cell_angle_beta 45.619983
_cell_angle_gamma 105.889874
_cell_volume 731.553905
_symmetry_space_group_name_H-M "P -1"
_symmetry_group_IT_number 2
_symmetry_cell_setting 'triclinic'
loop_
_space_group_symop_operation_xyz
x,y,z
-x,-y,-z
loop_
_atom_site_type_symbol
_atom_site_label
_atom_site_fract_x
_atom_site_fract_y
_atom_site_fract_z
Si Si1 0.154393 0.074193 0.770182
Si Si2 0.471180 0.996642 0.829279
Si Si3 0.149264 0.838180 0.396637
Si Si4 0.216001 0.850104 0.973709
Si Si5 0.041417 0.468478 0.617504
Si Si6 0.804571 0.797474 0.790826
Si Si7 0.688583 0.413059 0.915346
Si Si8 0.321616 0.593211 0.483988
O O1 0.345237 0.067254 0.502140
O O2 0.154017 0.940245 0.635603
O O3 0.142247 0.151313 0.030983
O O4 0.982940 0.127729 0.881562
O O5 0.320124 0.929422 0.871790
O O6 0.500000 0.000000 0.000000
O O7 0.389446 0.125735 0.986166
O O8 0.270847 0.714942 0.196702
O O9 0.950843 0.821203 0.552827
O O10 0.204124 0.875467 0.209187
O O11 0.318037 0.717531 0.697320
O O12 0.165696 0.338268 0.370925
O O13 0.152020 0.555358 0.671112
O O14 0.000000 0.500000 0.500000
O O15 0.851987 0.466433 0.869666
O O16 0.690893 0.401577 0.699347
O O17 0.502406 0.496621 0.240706
#
# Coordination Sequence:
#
# PCOD9023099 Si02
#       8
#     2   2   2   2   2   2   2   2
#     4  12  24  42  68  95 130 171 219 267 321 386
#     4  12  26  43  62  97 137 173 211 264 328 391
#     4  11  22  41  66  91 136 169 210 269 326 383
#     4  12  25  43  65  96 134 178 211 263 331 390
#     4   9  19  39  62  91 127 157 210 272 317 369
#     4  11  24  42  69 100 128 172 220 270 324 385
#     4   9  21  39  61  93 124 165 217 270 313 376
#     4  10  22  39  66  88 125 170 215 265 319 379
#
# _framework density 21.87125
#
# number of rings (size 3 to 8) (size 9 to 14) (size 15 to 20)
#    0.000    1.250    2.500    4.125    3.500    4.500 
#    0.000    2.500    0.000    0.000    0.000    0.000 
#    0.000    0.000    0.000    0.000    0.000    0.000 
#
# Total GULP energy -89485.874957 kJ/mol
# GULP energy per Si atom -5592.867185 kJ/mol
# Density = 2.182147 g / cm^3
# Si number density = 21.871250 Si / 1000 Ang^3
#
#
#
# Elastic Constant Matrix: (Units=GPa)
#
#
# Indices 1 2 3 4 5 6 
#
# 1 56.4519 -2.2363 5.0667 2.4269 -15.3952 -5.7037
# 2 -2.2363 61.9546 -2.2559 3.6494 -3.7982 2.7240
# 3 5.0667 -2.2559 52.8188 3.4275 -12.8055 2.5744
# 4 2.4269 3.6494 3.4275 37.4205 0.5442 -3.6460
# 5 -15.3952 -3.7982 -12.8055 0.5442 21.1685 2.0856
# 6 -5.7037 2.7240 2.5744 -3.6460 2.0856 15.9065
#
#
#
# Elastic Compliance Matrix: (Units=1/GPa)
#
#
# Indices 1 2 3 4 5 6 
#
# 1 0.023056 0.001891 0.002086 -0.001657 0.017931 0.004875
# 2 0.001891 0.017013 0.002448 -0.002492 0.006371 -0.004038
# 3 0.002086 0.002448 0.023463 -0.003398 0.016874 -0.006460
# 4 -0.001657 -0.002492 -0.003398 0.028193 -0.005174 0.007523
# 5 0.017931 0.006371 0.016874 -0.005174 0.072562 -0.008092
# 6 0.004875 -0.004038 -0.006460 0.007523 -0.008092 0.069138
#
#
# Mechanical properties :
#
#
# Convention : Reuss Voigt Hill
#
# Bulk Modulus (GPa) = 13.09193 19.15271 16.12232
# Shear Modulus (GPa) = 20.32226 26.27582 23.29904
#
# Velocity S-wave (km/s) = 3.05155 3.46986 3.26741
# Velocity P-wave (km/s) = 4.29125 4.98290 4.64995
#
# Compressibility (1/GPa) = 0.07638290
#
# Stress axis : x y z
#
# Youngs Moduli (GPa) = 43.37311 58.77804 42.61954
#
# Poissons Ratio (x) = -0.11113 -0.08892
# Poissons Ratio (y) = -0.08201 -0.10435
# Poissons Ratio (z) = -0.09049 -0.14391
#
# Static dielectric constant tensor:
#      x y z
#    x 1.804370 0.013300 -0.017820 
#    y 0.013300 1.807720 -0.042000 
#    z -0.017820 -0.042000 1.777880 
# 
# From -- ./inp_files/258573.got.cif
#   From: 2010.05.17/outbox.cif.g08.bks.cpg/sg2_130_cif.got.tgz:258573.got - 2010.06.03 11:33:40.
