data_PCOD9023428
_publ_section_title
;
Structure prediction by ZEFSAII (Michael W. Deem and Ramdas Pophale) SiO2 
 PCOD9023428
Probable space group: P -1
;
_chemical_formula_sum "Si O2"
_cell_formula_units_Z 16
_cell_length_a 14.971746
_cell_length_b 15.049064
_cell_length_c 8.564211
_cell_angle_alpha 44.263636
_cell_angle_beta 31.793893
_cell_angle_gamma 37.561876
_cell_volume 614.344008
_symmetry_space_group_name_H-M "P -1"
_symmetry_group_IT_number 2
_symmetry_cell_setting 'triclinic'
loop_
_space_group_symop_operation_xyz
x,y,z
-x,-y,-z
loop_
_atom_site_type_symbol
_atom_site_label
_atom_site_fract_x
_atom_site_fract_y
_atom_site_fract_z
Si Si1 0.024649 0.233353 0.297210
Si Si2 0.454811 0.020204 0.859333
Si Si3 0.678635 0.541747 0.370296
Si Si4 0.640207 0.068088 0.166966
Si Si5 0.311966 0.488814 0.947673
Si Si6 0.154640 0.010679 0.648330
Si Si7 0.914082 0.175043 0.229947
Si Si8 0.565682 0.621528 0.774196
O O1 0.890093 0.406121 0.272791
O O2 0.915010 0.177671 0.412449
O O3 0.053791 0.163653 0.511649
O O4 0.240670 0.165518 0.988353
O O5 0.421999 0.902670 0.961736
O O6 0.654259 0.013376 0.517224
O O7 0.500000 0.000000 0.000000
O O8 0.521211 0.484663 0.656040
O O9 0.691303 0.588689 0.113909
O O10 0.617360 0.638119 0.497533
O O11 0.500000 0.000000 0.500000
O O12 0.864252 0.941185 0.999597
O O13 0.156021 0.661310 0.932663
O O14 0.284794 0.436518 0.225655
O O15 0.213404 0.884298 0.589700
O O16 0.406397 0.780633 0.874166
O O17 0.000000 0.000000 0.000000
O O18 0.500000 0.500000 0.000000
#
# Coordination Sequence:
#
# PCOD9023428 Si02
#       8
#     2   2   2   2   2   2   2   2
#     4   9  20  40  66  94 143 190 238 303 378 447
#     4   9  21  44  62  98 146 189 235 301 379 439
#     4   9  19  39  67  96 138 187 239 295 378 445
#     4  11  24  46  70 102 147 196 239 306 382 447
#     4   9  20  40  64 100 142 180 238 311 371 433
#     4  11  22  34  65 108 135 179 247 314 357 434
#     4  10  22  39  69 100 135 184 250 302 358 439
#     4  10  23  42  70 103 147 188 244 313 371 439
#
# _framework density 26.044038
#
# number of rings (size 3 to 8) (size 9 to 14) (size 15 to 20)
#    0.000    2.250    0.000    1.125    5.250    3.000 
#   18.000    0.625    0.000    4.500    0.000    0.000 
#    0.000    0.000    0.000    0.000    0.000    0.000 
#
# Total GULP energy -89357.110774 kJ/mol
# GULP energy per Si atom -5584.819423 kJ/mol
# Density = 2.598476 g / cm^3
# Si number density = 26.044038 Si / 1000 Ang^3
#
#
#
# Elastic Constant Matrix: (Units=GPa)
#
#
# Indices 1 2 3 4 5 6 
#
# 1 162.7783 59.6565 70.9678 12.6686 26.0298 -9.0601
# 2 59.6565 172.1277 43.7833 15.2197 13.1796 -13.4233
# 3 70.9678 43.7833 95.9011 5.3446 22.4340 -0.3918
# 4 12.6686 15.2197 5.3446 42.6388 -3.7254 10.7450
# 5 26.0298 13.1796 22.4340 -3.7254 51.5688 -0.6310
# 6 -9.0601 -13.4233 -0.3918 10.7450 -0.6310 41.4605
#
#
#
# Elastic Compliance Matrix: (Units=1/GPa)
#
#
# Indices 1 2 3 4 5 6 
#
# 1 0.009966 -0.001334 -0.006107 -0.002490 -0.002185 0.002300
# 2 -0.001334 0.007283 -0.002074 -0.002671 -0.000445 0.002732
# 3 -0.006107 -0.002074 0.016696 0.000668 -0.003628 -0.002076
# 4 -0.002490 -0.002671 0.000668 0.027507 0.003532 -0.008478
# 5 -0.002185 -0.000445 -0.003628 0.003532 0.022427 -0.001230
# 6 0.002300 0.002732 -0.002076 -0.008478 -0.001230 0.027665
#
#
# Mechanical properties :
#
#
# Convention : Reuss Voigt Hill
#
# Bulk Modulus (GPa) = 67.04046 86.62470 76.83258
# Shear Modulus (GPa) = 36.88857 44.22692 40.55775
#
# Velocity S-wave (km/s) = 3.76758 4.12534 3.95051
# Velocity P-wave (km/s) = 6.68755 7.48494 7.09745
#
# Compressibility (1/GPa) = 0.01491637
#
# Stress axis : x y z
#
# Youngs Moduli (GPa) = 100.34520 137.31167 59.89454
#
# Poissons Ratio (x) = 0.18315 0.36575
# Poissons Ratio (y) = 0.13384 0.12420
# Poissons Ratio (z) = 0.61276 0.28474
#
# Static dielectric constant tensor:
#      x y z
#    x 2.085680 0.013070 0.039090 
#    y 0.013070 2.006220 -0.045770 
#    z 0.039090 -0.045770 2.481460 
# 
# From -- ./inp_files/349856.got.cif
#   From: 2010.05.17/outbox.cif.g08.bks.cpg/sg2_175_cif.got.tgz:349856.got - 2010.06.03 11:33:40.
