data_PCOD9023904
_publ_section_title
;
Structure prediction by ZEFSAII (Michael W. Deem and Ramdas Pophale) SiO2 
 PCOD9023904
Probable space group: P -1
;
_chemical_formula_sum "Si O2"
_cell_formula_units_Z 14
_cell_length_a 5.546616
_cell_length_b 20.566576
_cell_length_c 5.500396
_cell_angle_alpha 115.387257
_cell_angle_beta 100.691752
_cell_angle_gamma 74.857630
_cell_volume 545.233692
_symmetry_space_group_name_H-M "P -1"
_symmetry_group_IT_number 2
_symmetry_cell_setting 'triclinic'
loop_
_space_group_symop_operation_xyz
x,y,z
-x,-y,-z
loop_
_atom_site_type_symbol
_atom_site_label
_atom_site_fract_x
_atom_site_fract_y
_atom_site_fract_z
Si Si1 0.948006 0.546999 0.811838
Si Si2 0.629645 0.905565 0.277275
Si Si3 0.448673 0.583155 0.022380
Si Si4 0.647092 0.708288 0.498692
Si Si5 0.736158 0.739732 0.056172
Si Si6 0.280585 0.818269 0.890195
Si Si7 0.840446 0.936902 0.870739
O O1 0.000000 0.500000 0.500000
O O2 0.653087 0.582715 0.845229
O O3 0.000000 0.500000 0.000000
O O4 0.158076 0.596317 0.925919
O O5 0.688203 0.939069 0.594871
O O6 0.791532 0.821169 0.171092
O O7 0.357092 0.887170 0.155950
O O8 0.691763 0.944136 0.106908
O O9 0.506638 0.641820 0.321711
O O10 0.500000 0.500000 0.000000
O O11 0.815189 0.698502 0.754417
O O12 0.455354 0.786145 0.638787
O O13 0.801443 0.712195 0.291018
O O14 0.422974 0.753419 0.995319
O O15 0.013014 0.854274 0.794246
O O16 0.000000 0.000000 0.000000
#
# Coordination Sequence:
#
# PCOD9023904 Si02
#       7
#     2   2   2   2   2   2   2
#     4  10  22  40  62  90 127 172 204 267 330 395
#     4   9  22  40  57  88 121 162 205 258 323 369
#     4  10  22  42  66  96 135 169 224 277 337 399
#     4   9  19  38  62  88 113 165 208 256 325 380
#     4   8  19  40  60  80 122 157 210 253 319 375
#     4   8  23  40  61  80 132 152 215 259 314 376
#     4  12  23  36  63  93 120 164 211 255 323 392
#
# _framework density 25.677067000000001
#
# number of rings (size 3 to 8) (size 9 to 14) (size 15 to 20)
#    1.714    0.571    0.000    2.571    2.000    5.714 
#    7.714    0.000    0.000    0.000    0.000    0.000 
#    0.000    0.000    0.000    0.000    0.000    0.000 
#
# Total GULP energy -77993.350334 kJ/mol
# GULP energy per Si atom -5570.953595 kJ/mol
# Density = 2.561862 g / cm^3
# Si number density = 25.677067 Si / 1000 Ang^3
#
#
#
# Elastic Constant Matrix: (Units=GPa)
#
#
# Indices 1 2 3 4 5 6 
#
# 1 104.7031 29.0615 63.1278 -7.1357 -12.1413 -5.3779
# 2 29.0615 102.7790 77.5024 -19.4931 -0.0407 5.8063
# 3 63.1278 77.5024 259.8501 -16.4007 -4.5006 15.4810
# 4 -7.1357 -19.4931 -16.4007 52.1420 7.2196 2.0116
# 5 -12.1413 -0.0407 -4.5006 7.2196 30.3022 9.5055
# 6 -5.3779 5.8063 15.4810 2.0116 9.5055 43.7820
#
#
#
# Elastic Compliance Matrix: (Units=1/GPa)
#
#
# Indices 1 2 3 4 5 6 
#
# 1 0.012044 -0.001710 -0.002474 -0.000391 0.004007 0.001729
# 2 -0.001710 0.013559 -0.003371 0.004067 -0.001955 -0.000579
# 3 -0.002474 -0.003371 0.005588 0.000178 0.000396 -0.001927
# 4 -0.000391 0.004067 0.000178 0.021423 -0.005061 -0.000536
# 5 0.004007 -0.001955 0.000396 -0.005061 0.038205 -0.007451
# 6 0.001729 -0.000579 -0.001927 -0.000536 -0.007451 0.025453
#
#
# Mechanical properties :
#
#
# Convention : Reuss Voigt Hill
#
# Bulk Modulus (GPa) = 62.19072 89.63506 75.91289
# Shear Modulus (GPa) = 36.56506 45.08796 40.82651
#
# Velocity S-wave (km/s) = 3.77773 4.19497 3.99180
# Velocity P-wave (km/s) = 6.58037 7.64513 7.13265
#
# Compressibility (1/GPa) = 0.01607957
#
# Stress axis : x y z
#
# Youngs Moduli (GPa) = 83.02892 73.75392 178.95979
#
# Poissons Ratio (x) = 0.12612 0.44279
# Poissons Ratio (y) = 0.14198 0.60331
# Poissons Ratio (z) = 0.20543 0.24864
#
# Static dielectric constant tensor:
#      x y z
#    x 2.226070 -0.267720 0.116580 
#    y -0.267720 2.625160 -0.167550 
#    z 0.116580 -0.167550 2.078730 
# 
# From -- ./inp_files/14245.got.cif
#   From: 2010.05.17/outbox.cif.g08.bks.cpg/sg2_8_cif.got.tgz:14245.got - 2010.06.03 11:33:40.
