data_PCOD9023401
_publ_section_title
;
Structure prediction by ZEFSAII (Michael W. Deem and Ramdas Pophale) SiO2 
 PCOD9023401
Probable space group: P -1
;
_chemical_formula_sum "Si O2"
_cell_formula_units_Z 15
_cell_length_a 11.239568
_cell_length_b 4.940811
_cell_length_c 28.707845
_cell_angle_alpha 52.313693
_cell_angle_beta 30.650634
_cell_angle_gamma 50.465124
_cell_volume 618.526267
_symmetry_space_group_name_H-M "P -1"
_symmetry_group_IT_number 2
_symmetry_cell_setting 'triclinic'
loop_
_space_group_symop_operation_xyz
x,y,z
-x,-y,-z
loop_
_atom_site_type_symbol
_atom_site_label
_atom_site_fract_x
_atom_site_fract_y
_atom_site_fract_z
Si Si1 0.410398 0.801592 0.779149
Si Si2 0.317288 0.611356 0.730947
Si Si3 0.165729 0.393445 0.152453
Si Si4 0.637192 0.964523 0.007003
Si Si5 0.000000 0.500000 0.000000
Si Si6 0.904370 0.474251 0.327712
Si Si7 0.448064 0.369480 0.449424
Si Si8 0.962408 0.337264 0.640754
O O1 0.341582 0.835852 0.744071
O O2 0.221086 0.636232 0.887120
O O3 0.685668 0.558510 0.711491
O O4 0.395271 0.193460 0.762113
O O5 0.467909 0.654986 0.629751
O O6 0.038704 0.698305 0.800100
O O7 0.412766 0.080361 0.106108
O O8 0.060121 0.499632 0.227542
O O9 0.231124 0.722661 0.070989
O O10 0.500000 0.000000 0.000000
O O11 0.830519 0.615770 0.996662
O O12 0.623429 0.559126 0.398204
O O13 0.955181 0.703684 0.328711
O O14 0.992424 0.053824 0.355390
O O15 0.157768 0.521303 0.533629
O O16 0.500000 0.000000 0.500000
#
# Coordination Sequence:
#
# PCOD9023401 Si02
#       8
#     2   2   2   2   1   2   2   2
#     4  12  27  44  68 100 145 193 235 300 364 431
#     4  11  25  47  68 104 142 185 237 297 367 434
#     4  10  23  41  66  99 137 185 239 294 365 422
#     4  11  24  44  70 102 136 191 247 305 361 434
#     4  12  26  48  70 106 150 194 254 302 368 426
#     4  10  22  39  68  97 138 172 232 291 352 431
#     4   9  22  43  73 101 135 179 233 299 366 439
#     4  11  23  42  65 105 133 183 232 289 359 432
#
# _framework density 24.251192
#
# number of rings (size 3 to 8) (size 9 to 14) (size 15 to 20)
#    0.000    1.333    1.333    2.800    3.733    9.067 
#    2.400    0.000    0.000    0.000    0.000    0.000 
#    0.000    0.000    0.000    0.000    0.000    0.000 
#
# Total GULP energy -83706.884192 kJ/mol
# GULP energy per Si atom -5580.458946 kJ/mol
# Density = 2.419600 g / cm^3
# Si number density = 24.251192 Si / 1000 Ang^3
#
#
#
# Elastic Constant Matrix: (Units=GPa)
#
#
# Indices 1 2 3 4 5 6 
#
# 1 90.1428 9.6784 33.5213 -4.9411 5.7655 -9.9266
# 2 9.6784 66.9241 20.8143 2.4790 -15.3926 -7.9494
# 3 33.5213 20.8143 166.6668 3.2485 -22.0137 -23.4586
# 4 -4.9411 2.4790 3.2485 16.7312 -11.8460 1.9745
# 5 5.7655 -15.3926 -22.0137 -11.8460 35.5722 8.6570
# 6 -9.9266 -7.9494 -23.4586 1.9745 8.6570 32.2301
#
#
#
# Elastic Compliance Matrix: (Units=1/GPa)
#
#
# Indices 1 2 3 4 5 6 
#
# 1 0.012958 -0.001889 -0.002638 0.000724 -0.005017 0.002908
# 2 -0.001889 0.017272 -0.000641 0.002583 0.008025 0.000898
# 3 -0.002638 -0.000641 0.007638 0.000373 0.004162 0.003448
# 4 0.000724 0.002583 0.000373 0.083844 0.032234 -0.012663
# 5 -0.005017 0.008025 0.004162 0.032234 0.048516 -0.011543
# 6 0.002908 0.000898 0.003448 -0.012663 -0.011543 0.038530
#
#
# Mechanical properties :
#
#
# Convention : Reuss Voigt Hill
#
# Bulk Modulus (GPa) = 36.32042 50.19574 43.25808
# Shear Modulus (GPa) = 21.90378 34.22136 28.06257
#
# Velocity S-wave (km/s) = 3.00860 3.76056 3.40540
# Velocity P-wave (km/s) = 5.20367 6.29277 5.77396
#
# Compressibility (1/GPa) = 0.02753272
#
# Stress axis : x y z
#
# Youngs Moduli (GPa) = 77.17248 57.89883 130.91763
#
# Poissons Ratio (x) = 0.10936 0.34532
# Poissons Ratio (y) = 0.14576 0.08393
# Poissons Ratio (z) = 0.20356 0.03712
#
# Static dielectric constant tensor:
#      x y z
#    x 1.904950 -0.031070 -0.010860 
#    y -0.031070 1.977860 0.011940 
#    z -0.010860 0.011940 1.950840 
# 
# From -- ./inp_files/51610.got.cif
#   From: 2010.05.17/outbox.cif.g08.bks.cpg/sg2_26_cif.got.tgz:51610.got - 2010.06.03 11:33:40.
