data_PCOD9023688
_publ_section_title
;
Structure prediction by ZEFSAII (Michael W. Deem and Ramdas Pophale) SiO2 
 PCOD9023688
Probable space group: P -1
;
_chemical_formula_sum "Si O2"
_cell_formula_units_Z 16
_cell_length_a 8.469599
_cell_length_b 7.865529
_cell_length_c 25.767970
_cell_angle_alpha 145.922451
_cell_angle_beta 127.189222
_cell_angle_gamma 51.504000
_cell_volume 737.162776
_symmetry_space_group_name_H-M "P -1"
_symmetry_group_IT_number 2
_symmetry_cell_setting 'triclinic'
loop_
_space_group_symop_operation_xyz
x,y,z
-x,-y,-z
loop_
_atom_site_type_symbol
_atom_site_label
_atom_site_fract_x
_atom_site_fract_y
_atom_site_fract_z
Si Si1 0.955071 0.332784 0.602313
Si Si2 0.475753 0.656863 0.427072
Si Si3 0.034219 0.792461 0.049300
Si Si4 0.474821 0.488714 0.085281
Si Si5 0.870343 0.485343 0.216717
Si Si6 0.284320 0.575185 0.273205
Si Si7 0.147933 0.336849 0.440171
Si Si8 0.324607 0.187065 0.081571
O O1 0.739066 0.357009 0.594201
O O2 0.939806 0.563857 0.609086
O O3 0.117002 0.365873 0.686807
O O4 0.000000 0.000000 0.500000
O O5 0.470764 0.475092 0.326397
O O6 0.651178 0.545648 0.476603
O O7 0.500000 0.000000 0.500000
O O8 0.279053 0.741153 0.085747
O O9 0.908951 0.108689 0.133593
O O10 0.000000 0.500000 0.000000
O O11 0.915471 0.793313 0.971986
O O12 0.664818 0.612956 0.174456
O O13 0.400827 0.345190 0.086605
O O14 0.555575 0.182773 0.987307
O O15 0.074190 0.504384 0.231893
O O16 0.349139 0.394939 0.187426
O O17 0.217654 0.957239 0.356562
O O18 0.000000 0.500000 0.500000
#
# Coordination Sequence:
#
# PCOD9023688 Si02
#       8
#     2   2   2   2   2   2   2   2
#     4  11  23  41  65  93 125 166 211 260 323 380
#     4   9  20  41  62  87 125 161 201 261 313 370
#     4   9  19  37  61  87 126 157 209 260 305 379
#     4   9  19  37  62  87 122 160 209 253 308 379
#     4  10  22  40  60  91 127 164 206 265 312 375
#     4  10  22  41  59  89 129 159 205 262 317 369
#     4  11  23  41  63  90 126 168 212 262 317 382
#     4   9  19  37  60  88 120 163 201 261 311 364
#
# _framework density 21.704840000000001
#
# number of rings (size 3 to 8) (size 9 to 14) (size 15 to 20)
#    0.000    2.250    0.000    3.375    3.500    5.000 
#   11.250    1.250    0.000    0.000    0.000    0.000 
#    0.000    0.000    0.000    0.000    0.000    0.000 
#
# Total GULP energy -89228.405982 kJ/mol
# GULP energy per Si atom -5576.775374 kJ/mol
# Density = 2.165544 g / cm^3
# Si number density = 21.704840 Si / 1000 Ang^3
#
#
#
# Elastic Constant Matrix: (Units=GPa)
#
#
# Indices 1 2 3 4 5 6 
#
# 1 50.9726 6.7645 27.0363 -12.1829 -5.1083 1.0825
# 2 6.7645 41.7366 27.7093 1.0343 -8.5404 -18.3887
# 3 27.0363 27.7093 156.4045 -17.5587 -27.0892 -12.4609
# 4 -12.1829 1.0343 -17.5587 23.5859 -0.5306 12.3065
# 5 -5.1083 -8.5404 -27.0892 -0.5306 41.4916 -6.0361
# 6 1.0825 -18.3887 -12.4609 12.3065 -6.0361 32.9103
#
#
#
# Elastic Compliance Matrix: (Units=1/GPa)
#
#
# Indices 1 2 3 4 5 6 
#
# 1 0.027590 -0.011596 -0.002016 0.021981 -0.002472 -0.016823
# 2 -0.011596 0.050792 -0.005591 -0.033648 0.010946 0.041235
# 3 -0.002016 -0.005591 0.009170 0.006816 0.004484 -0.001312
# 4 0.021981 -0.033648 0.006816 0.086449 -0.005992 -0.050369
# 5 -0.002472 0.010946 0.004484 -0.005992 0.031208 0.015860
# 6 -0.016823 0.041235 -0.001312 -0.050369 0.015860 0.075227
#
#
# Mechanical properties :
#
#
# Convention : Reuss Voigt Hill
#
# Bulk Modulus (GPa) = 20.34717 41.34822 30.84769
# Shear Modulus (GPa) = 14.91547 32.10447 23.50997
#
# Velocity S-wave (km/s) = 2.62429 3.85013 3.29472
# Velocity P-wave (km/s) = 4.31014 6.23348 5.35881
#
# Compressibility (1/GPa) = 0.04914690
#
# Stress axis : x y z
#
# Youngs Moduli (GPa) = 36.24550 19.68807 109.05241
#
# Poissons Ratio (x) = 0.22831 0.21980
# Poissons Ratio (y) = 0.42032 0.60966
# Poissons Ratio (z) = 0.07305 0.11007
#
# Static dielectric constant tensor:
#      x y z
#    x 1.808080 -0.115200 -0.060300 
#    y -0.115200 2.035490 0.247900 
#    z -0.060300 0.247900 2.125900 
# 
# From -- ./inp_files/328385.got.cif
#   From: 2010.05.17/outbox.cif.g08.bks.cpg/sg2_165_cif.got.tgz:328385.got - 2010.06.03 11:33:40.
