data_PCOD9023684
_publ_section_title
;
Structure prediction by ZEFSAII (Michael W. Deem and Ramdas Pophale) SiO2 
 PCOD9023684
Probable space group: P -1
;
_chemical_formula_sum "Si O2"
_cell_formula_units_Z 14
_cell_length_a 20.316659
_cell_length_b 12.155138
_cell_length_c 5.627522
_cell_angle_alpha 92.923616
_cell_angle_beta 82.039183
_cell_angle_gamma 24.543665
_cell_volume 516.096161
_symmetry_space_group_name_H-M "P -1"
_symmetry_group_IT_number 2
_symmetry_cell_setting 'triclinic'
loop_
_space_group_symop_operation_xyz
x,y,z
-x,-y,-z
loop_
_atom_site_type_symbol
_atom_site_label
_atom_site_fract_x
_atom_site_fract_y
_atom_site_fract_z
Si Si1 0.272794 0.175936 0.460253
Si Si2 0.913203 0.251895 0.800738
Si Si3 0.186563 0.364614 0.025932
Si Si4 0.672169 0.153158 0.646634
Si Si5 0.410093 0.211398 0.329411
Si Si6 0.250950 0.649534 0.705691
Si Si7 0.696473 0.187649 0.132048
O O1 0.180249 0.307054 0.778506
O O2 0.373683 0.141774 0.433216
O O3 0.373110 0.907497 0.315989
O O4 0.148495 0.378217 0.309758
O O5 0.768754 0.492684 0.699042
O O6 0.923675 0.355423 0.928280
O O7 0.834882 0.294802 0.045682
O O8 0.106215 0.908856 0.607647
O O9 0.396683 0.077681 0.916266
O O10 0.747857 0.046525 0.331216
O O11 0.519554 0.483437 0.748347
O O12 0.772201 0.029438 0.827209
O O13 0.401831 0.339900 0.492916
O O14 0.284764 0.711974 0.824160
#
# Coordination Sequence:
#
# PCOD9023684 Si02
#       7
#     2   2   2   2   2   2   2
#     4  11  21  38  62  91 127 157 204 270 309 371
#     4  10  23  40  58  99 129 170 202 253 329 386
#     4  11  23  37  64  97 129 162 211 257 325 370
#     4  10  22  40  60  91 121 163 218 258 307 351
#     4  11  23  36  64  97 125 166 207 265 319 379
#     4  11  23  40  65  90 135 166 206 259 322 385
#     4  10  23  39  61  88 123 168 211 258 303 372
#
# _framework density 27.126729999999998
#
# number of rings (size 3 to 8) (size 9 to 14) (size 15 to 20)
#    0.000    1.429    1.429    4.286    8.000    1.143 
#    0.000    0.000    0.000   12.000    0.000    0.000 
#    0.000    0.000    0.000    0.000    0.000    0.000 
#
# Total GULP energy -78127.514167 kJ/mol
# GULP energy per Si atom -5580.536726 kJ/mol
# Density = 2.706499 g / cm^3
# Si number density = 27.126730 Si / 1000 Ang^3
#
#
#
# Elastic Constant Matrix: (Units=GPa)
#
#
# Indices 1 2 3 4 5 6 
#
# 1 95.2202 54.0880 45.1288 -3.4219 27.7108 33.4013
# 2 54.0880 128.0390 42.2090 11.3959 10.5564 37.0719
# 3 45.1288 42.2090 147.3708 -25.5740 31.1060 11.9927
# 4 -3.4219 11.3959 -25.5740 52.8201 0.0353 9.2649
# 5 27.7108 10.5564 31.1060 0.0353 41.5094 8.0074
# 6 33.4013 37.0719 11.9927 9.2649 8.0074 42.9024
#
#
#
# Elastic Compliance Matrix: (Units=1/GPa)
#
#
# Indices 1 2 3 4 5 6 
#
# 1 0.020297 -0.004604 -0.001506 0.003412 -0.009244 -0.010414
# 2 -0.004604 0.012599 -0.002959 -0.003333 0.003319 -0.006375
# 3 -0.001506 -0.002959 0.010238 0.005353 -0.006082 0.000847
# 4 0.003412 -0.003333 0.005353 0.023434 -0.004398 -0.005512
# 5 -0.009244 0.003319 -0.006082 -0.004398 0.033852 0.000661
# 6 -0.010414 -0.006375 0.000847 -0.005512 0.000661 0.037756
#
#
# Mechanical properties :
#
#
# Convention : Reuss Voigt Hill
#
# Bulk Modulus (GPa) = 40.00561 72.60907 56.30734
# Shear Modulus (GPa) = 30.36810 42.72665 36.54738
#
# Velocity S-wave (km/s) = 3.34951 3.97303 3.67452
# Velocity P-wave (km/s) = 5.45331 6.91891 6.22936
#
# Compressibility (1/GPa) = 0.02499649
#
# Stress axis : x y z
#
# Youngs Moduli (GPa) = 49.26888 79.36974 97.67348
#
# Poissons Ratio (x) = 0.36540 0.14710
# Poissons Ratio (y) = 0.22682 0.28902
# Poissons Ratio (z) = 0.07420 0.23486
#
# Static dielectric constant tensor:
#      x y z
#    x 4.307440 0.002930 1.330460 
#    y 0.002930 2.212250 0.029860 
#    z 1.330460 0.029860 2.951560 
# 
# From -- ./inp_files/118275.got.cif
#   From: 2010.05.17/outbox.cif.g08.bks.cpg/sg2_60_cif.got.tgz:118275.got - 2010.06.03 11:33:40.
