data_PCOD9023409
_publ_section_title
;
Structure prediction by ZEFSAII (Michael W. Deem and Ramdas Pophale) SiO2 
 PCOD9023409
Probable space group: P -1
;
_chemical_formula_sum "Si O2"
_cell_formula_units_Z 14
_cell_length_a 14.790262
_cell_length_b 5.537978
_cell_length_c 13.867483
_cell_angle_alpha 83.543453
_cell_angle_beta 150.008125
_cell_angle_gamma 105.745450
_cell_volume 528.451184
_symmetry_space_group_name_H-M "P -1"
_symmetry_group_IT_number 2
_symmetry_cell_setting 'triclinic'
loop_
_space_group_symop_operation_xyz
x,y,z
-x,-y,-z
loop_
_atom_site_type_symbol
_atom_site_label
_atom_site_fract_x
_atom_site_fract_y
_atom_site_fract_z
Si Si1 0.286562 0.513774 0.324953
Si Si2 0.998726 0.226722 0.916860
Si Si3 0.415476 0.915871 0.765430
Si Si4 0.354595 0.665289 0.911733
Si Si5 0.283265 0.271787 0.529631
Si Si6 0.006482 0.265993 0.442837
Si Si7 0.312794 0.300543 0.051380
O O1 0.500000 0.500000 0.500000
O O2 0.221778 0.312646 0.363609
O O3 0.212210 0.744611 0.285577
O O4 0.162945 0.461291 0.114926
O O5 0.112852 0.220572 0.925220
O O6 0.000000 0.000000 0.000000
O O7 0.377576 0.680570 0.817501
O O8 0.592052 0.917856 0.862114
O O9 0.268407 0.979626 0.555906
O O10 0.454555 0.149204 0.868376
O O11 0.201890 0.797274 0.793574
O O12 0.284601 0.396652 0.914192
O O13 0.155450 0.345808 0.488902
O O14 0.507778 0.466564 0.742629
O O15 0.000000 0.500000 0.500000
O O16 0.000000 0.000000 0.500000
#
# Coordination Sequence:
#
# PCOD9023409 Si02
#       7
#     2   2   2   2   2   2   2
#     4  11  25  50  74 100 147 184 244 316 377 451
#     4  11  27  46  73 107 136 187 250 309 383 452
#     4  10  22  39  68  98 137 181 240 288 369 441
#     4  10  22  41  63  97 136 189 233 295 363 444
#     4  11  24  43  70 103 137 196 236 294 382 448
#     4  12  26  44  68 102 149 192 249 311 372 456
#     4  11  23  41  69  99 139 184 240 304 372 452
#
# _framework density 26.492512999999999
#
# number of rings (size 3 to 8) (size 9 to 14) (size 15 to 20)
#    0.000    1.143    2.857    2.143    4.000    4.000 
#    0.000    0.000    0.000    0.000    0.000    0.000 
#    0.000    0.000    0.000    0.000    0.000    0.000 
#
# Total GULP energy -78025.050254 kJ/mol
# GULP energy per Si atom -5573.217875 kJ/mol
# Density = 2.643222 g / cm^3
# Si number density = 26.492513 Si / 1000 Ang^3
#
#
#
# Elastic Constant Matrix: (Units=GPa)
#
#
# Indices 1 2 3 4 5 6 
#
# 1 196.8143 63.1477 56.4734 -24.9140 35.5183 15.7328
# 2 63.1477 83.2961 19.2542 -32.3131 7.9502 6.1640
# 3 56.4734 19.2542 116.9534 -28.4661 28.6403 2.3355
# 4 -24.9140 -32.3131 -28.4661 55.4809 -4.0230 -2.5500
# 5 35.5183 7.9502 28.6403 -4.0230 65.9679 -2.6571
# 6 15.7328 6.1640 2.3355 -2.5500 -2.6571 34.4405
#
#
#
# Elastic Compliance Matrix: (Units=1/GPa)
#
#
# Indices 1 2 3 4 5 6 
#
# 1 0.008211 -0.005633 -0.002600 -0.001264 -0.002806 -0.002876
# 2 -0.005633 0.019665 0.001768 0.009852 0.000484 -0.000299
# 3 -0.002600 0.001768 0.011758 0.005646 -0.003565 0.000217
# 4 -0.001264 0.009852 0.005646 0.026005 -0.001362 0.000251
# 5 -0.002806 0.000484 -0.003565 -0.001362 0.018186 0.002739
# 6 -0.002876 -0.000299 0.000217 0.000251 0.002739 0.030618
#
#
# Mechanical properties :
#
#
# Convention : Reuss Voigt Hill
#
# Bulk Modulus (GPa) = 37.44931 74.97937 56.21434
# Shear Modulus (GPa) = 36.69058 48.39044 42.54051
#
# Velocity S-wave (km/s) = 3.72552 4.27848 4.01154
# Velocity P-wave (km/s) = 5.71598 7.26434 6.53617
#
# Compressibility (1/GPa) = 0.02670276
#
# Stress axis : x y z
#
# Youngs Moduli (GPa) = 121.79084 50.85142 85.04960
#
# Poissons Ratio (x) = 0.28645 0.22116
# Poissons Ratio (y) = 0.68606 -0.15037
# Poissons Ratio (z) = 0.31670 -0.08990
#
# Static dielectric constant tensor:
#      x y z
#    x 2.078690 -0.064500 -0.019230 
#    y -0.064500 2.282890 0.160250 
#    z -0.019230 0.160250 2.269750 
# 
# From -- ./inp_files/480746.got.cif
#   From: 2010.05.17/outbox.cif.g08.bks.cpg/sg2_241_cif.got.tgz:480746.got - 2010.06.03 11:33:40.
