data_PCOD9023222
_publ_section_title
;
Structure prediction by ZEFSAII (Michael W. Deem and Ramdas Pophale) SiO2 
 PCOD9023222
Probable space group: P -1
;
_chemical_formula_sum "Si O2"
_cell_formula_units_Z 16
_cell_length_a 11.602572
_cell_length_b 9.937773
_cell_length_c 16.750021
_cell_angle_alpha 149.590751
_cell_angle_beta 113.664460
_cell_angle_gamma 49.939564
_cell_volume 686.829350
_symmetry_space_group_name_H-M "P -1"
_symmetry_group_IT_number 2
_symmetry_cell_setting 'triclinic'
loop_
_space_group_symop_operation_xyz
x,y,z
-x,-y,-z
loop_
_atom_site_type_symbol
_atom_site_label
_atom_site_fract_x
_atom_site_fract_y
_atom_site_fract_z
Si Si1 0.070254 0.705524 0.767894
Si Si2 0.739079 0.796367 0.585620
Si Si3 0.229721 0.663228 0.056275
Si Si4 0.878572 0.471012 0.624787
Si Si5 0.179691 0.307814 0.984099
Si Si6 0.792962 0.311806 0.673521
Si Si7 0.615336 0.552968 0.179105
Si Si8 0.541281 0.260410 0.142329
O O1 0.150898 0.448357 0.582561
O O2 0.218059 0.566457 0.796360
O O3 0.932491 0.703811 0.769455
O O4 0.957654 0.100161 0.907664
O O5 0.796924 0.565571 0.563610
O O6 0.768147 0.069775 0.754191
O O7 0.543914 0.046215 0.645535
O O8 0.267551 0.362036 0.967752
O O9 0.352391 0.518166 0.942128
O O10 0.771655 0.483748 0.670564
O O11 0.052810 0.089008 0.485744
O O12 0.163790 0.518238 0.164175
O O13 0.000000 0.500000 0.000000
O O14 0.301569 0.911576 0.845025
O O15 0.626747 0.389633 0.692322
O O16 0.578393 0.329367 0.101629
O O17 0.500000 0.000000 0.000000
#
# Coordination Sequence:
#
# PCOD9023222 Si02
#       8
#     2   2   2   2   2   2   2   2
#     4  11  23  41  66  92 131 164 210 262 333 365
#     4  11  23  40  67  92 127 164 220 254 322 373
#     4  11  24  40  65  96 126 165 221 255 307 390
#     4  10  22  39  67  87 120 170 212 260 295 394
#     4  11  23  38  64  90 132 163 202 258 325 368
#     4  10  22  41  61  89 125 165 215 245 317 376
#     4  12  25  40  67  99 129 160 214 274 315 373
#     4  10  23  39  63  89 131 166 205 251 322 375
#
# _framework density 23.295451
#
# number of rings (size 3 to 8) (size 9 to 14) (size 15 to 20)
#    0.000    1.250    0.000    7.125   10.500    0.000 
#    0.000    0.000    0.000    3.750    0.000    0.000 
#    0.000    0.000    0.000    0.000    0.000    0.000 
#
# Total GULP energy -89508.264837 kJ/mol
# GULP energy per Si atom -5594.266552 kJ/mol
# Density = 2.324243 g / cm^3
# Si number density = 23.295451 Si / 1000 Ang^3
#
#
#
# Elastic Constant Matrix: (Units=GPa)
#
#
# Indices 1 2 3 4 5 6 
#
# 1 78.2189 31.3669 15.6419 -13.4508 -22.9197 19.2600
# 2 31.3669 126.1908 13.0152 0.4490 -7.5335 11.5378
# 3 15.6419 13.0152 38.5964 -4.7394 -22.1456 16.4694
# 4 -13.4508 0.4490 -4.7394 36.0099 -2.9002 -5.8229
# 5 -22.9197 -7.5335 -22.1456 -2.9002 27.5934 -4.4039
# 6 19.2600 11.5378 16.4694 -5.8229 -4.4039 60.7198
#
#
#
# Elastic Compliance Matrix: (Units=1/GPa)
#
#
# Indices 1 2 3 4 5 6 
#
# 1 0.025015 -0.005195 0.013812 0.012515 0.030599 -0.007274
# 2 -0.005195 0.009346 -0.005219 -0.003157 -0.006198 0.000535
# 3 0.013812 -0.005219 0.066759 0.016598 0.062923 -0.015342
# 4 0.012515 -0.003157 0.016598 0.036385 0.026283 -0.002476
# 5 0.030599 -0.006198 0.062923 0.026283 0.110828 -0.015036
# 6 -0.007274 0.000535 -0.015342 -0.002476 -0.015036 0.021508
#
#
# Mechanical properties :
#
#
# Convention : Reuss Voigt Hill
#
# Bulk Modulus (GPa) = 9.26636 40.33934 24.80285
# Shear Modulus (GPa) = 16.72140 37.06341 26.89241
#
# Velocity S-wave (km/s) = 2.68208 3.99308 3.40134
# Velocity P-wave (km/s) = 3.68481 6.21398 5.10839
#
# Compressibility (1/GPa) = 0.10791719
#
# Stress axis : x y z
#
# Youngs Moduli (GPa) = 39.97533 106.99324 14.97918
#
# Poissons Ratio (x) = 0.55585 -0.20689
# Poissons Ratio (y) = 0.20768 0.07817
# Poissons Ratio (z) = -0.55213 0.55835
#
# Static dielectric constant tensor:
#      x y z
#    x 1.927650 -0.012000 0.015000 
#    y -0.012000 1.937910 0.058430 
#    z 0.015000 0.058430 1.909820 
# 
# From -- ./inp_files/505219.got.cif
#   From: 2010.05.17/outbox.cif.g08.bks.cpg/sg2_253_cif.got.tgz:505219.got - 2010.06.03 11:33:40.
