data_PCOD9023747
_publ_section_title
;
Structure prediction by ZEFSAII (Michael W. Deem and Ramdas Pophale) SiO2 
 PCOD9023747
Probable space group: P -1
;
_chemical_formula_sum "Si O2"
_cell_formula_units_Z 14
_cell_length_a 7.970695
_cell_length_b 10.098016
_cell_length_c 20.363952
_cell_angle_alpha 49.751727
_cell_angle_beta 143.867157
_cell_angle_gamma 143.254849
_cell_volume 578.204103
_symmetry_space_group_name_H-M "P -1"
_symmetry_group_IT_number 2
_symmetry_cell_setting 'triclinic'
loop_
_space_group_symop_operation_xyz
x,y,z
-x,-y,-z
loop_
_atom_site_type_symbol
_atom_site_label
_atom_site_fract_x
_atom_site_fract_y
_atom_site_fract_z
Si Si1 0.061203 0.653164 0.217800
Si Si2 0.879608 0.810378 0.221798
Si Si3 0.896328 0.916275 0.407629
Si Si4 0.094338 0.808736 0.908722
Si Si5 0.119671 0.315431 0.404247
Si Si6 0.934298 0.430650 0.904970
Si Si7 0.860024 0.253463 0.554358
O O1 0.489469 0.834336 0.312115
O O2 0.952363 0.426618 0.287963
O O3 0.019804 0.624221 0.135731
O O4 0.869020 0.736426 0.168232
O O5 0.483236 0.689000 0.167091
O O6 0.088524 0.748591 0.351263
O O7 0.073436 0.070756 0.201622
O O8 0.056954 0.859691 0.535871
O O9 0.854680 0.768149 0.382749
O O10 0.147924 0.181938 0.398305
O O11 0.111495 0.684721 0.892921
O O12 0.923262 0.647937 0.968993
O O13 0.500000 0.000000 0.000000
O O14 0.500000 0.500000 0.500000
O O15 0.000000 0.500000 0.500000
O O16 0.500000 0.000000 0.500000
#
# Coordination Sequence:
#
# PCOD9023747 Si02
#       7
#     2   2   2   2   2   2   2
#     4  11  23  39  65  95 133 178 227 287 353 420
#     4  11  25  42  66 101 138 180 234 290 348 426
#     4  10  22  40  61  88 135 188 228 292 341 414
#     4   9  22  45  71  97 130 173 224 293 359 427
#     4   9  21  36  58  85 128 179 234 278 345 406
#     4  10  22  45  70  95 132 175 230 290 361 426
#     4  12  29  43  69 105 145 195 245 293 352 424
#
# _framework density 24.212903000000001
#
# number of rings (size 3 to 8) (size 9 to 14) (size 15 to 20)
#    0.000    1.714    1.429    0.857   14.000    1.714 
#    0.000    6.429    0.000    0.000    0.000    0.000 
#    0.000    0.000    0.000    0.000    0.000    0.000 
#
# Total GULP energy -78075.965398 kJ/mol
# GULP energy per Si atom -5576.854671 kJ/mol
# Density = 2.415779 g / cm^3
# Si number density = 24.212903 Si / 1000 Ang^3
#
#
#
# Elastic Constant Matrix: (Units=GPa)
#
#
# Indices 1 2 3 4 5 6 
#
# 1 98.8601 38.4254 16.5247 6.5162 -18.3120 -24.2497
# 2 38.4254 158.1373 32.1020 -12.5256 -2.7347 -21.8853
# 3 16.5247 32.1020 71.2624 -7.6637 -16.8597 1.7166
# 4 6.5162 -12.5256 -7.6637 38.6815 -9.2536 2.1875
# 5 -18.3120 -2.7347 -16.8597 -9.2536 31.7170 14.6250
# 6 -24.2497 -21.8853 1.7166 2.1875 14.6250 43.9209
#
#
#
# Elastic Compliance Matrix: (Units=1/GPa)
#
#
# Indices 1 2 3 4 5 6 
#
# 1 0.013431 -0.002348 -0.001699 -0.002859 0.003353 0.005338
# 2 -0.002348 0.008419 -0.004433 0.000807 -0.004901 0.004663
# 3 -0.001699 -0.004433 0.021504 0.007730 0.016940 -0.010013
# 4 -0.002859 0.000807 0.007730 0.032388 0.015834 -0.008364
# 5 0.003353 -0.004901 0.016940 0.015834 0.056244 -0.020770
# 6 0.005338 0.004663 -0.010013 -0.008364 -0.020770 0.035763
#
#
# Mechanical properties :
#
#
# Convention : Reuss Voigt Hill
#
# Bulk Modulus (GPa) = 37.88984 55.81821 46.85402
# Shear Modulus (GPa) = 25.83890 38.94438 32.39164
#
# Velocity S-wave (km/s) = 3.27028 4.01486 3.66154
# Velocity P-wave (km/s) = 5.47195 6.67796 6.10481
#
# Compressibility (1/GPa) = 0.02639230
#
# Stress axis : x y z
#
# Youngs Moduli (GPa) = 74.45458 118.78295 46.50322
#
# Poissons Ratio (x) = 0.27895 0.07902
# Poissons Ratio (y) = 0.17485 0.20615
# Poissons Ratio (z) = 0.12652 0.52656
#
# Static dielectric constant tensor:
#      x y z
#    x 2.161320 -0.020560 0.002480 
#    y -0.020560 2.080690 -0.000780 
#    z 0.002480 -0.000780 1.972830 
# 
# From -- ./inp_files/587262.got.cif
#   From: 2010.05.17/outbox.cif.g08.bks.cpg/sg2_294_cif.got.tgz:587262.got - 2010.06.03 11:33:40.
