data_PCOD9023599
_publ_section_title
;
Structure prediction by ZEFSAII (Michael W. Deem and Ramdas Pophale) SiO2 
 PCOD9023599
Probable space group: P -1
;
_chemical_formula_sum "Si O2"
_cell_formula_units_Z 16
_cell_length_a 8.521611
_cell_length_b 19.044023
_cell_length_c 21.937750
_cell_angle_alpha 22.934155
_cell_angle_beta 34.236967
_cell_angle_gamma 43.437105
_cell_volume 770.374189
_symmetry_space_group_name_H-M "P -1"
_symmetry_group_IT_number 2
_symmetry_cell_setting 'triclinic'
loop_
_space_group_symop_operation_xyz
x,y,z
-x,-y,-z
loop_
_atom_site_type_symbol
_atom_site_label
_atom_site_fract_x
_atom_site_fract_y
_atom_site_fract_z
Si Si1 0.898694 0.198262 0.940259
Si Si2 0.472031 0.159600 0.834835
Si Si3 0.316233 0.804023 0.707082
Si Si4 0.486386 0.547156 0.105866
Si Si5 0.627027 0.840876 0.269087
Si Si6 0.325391 0.525655 0.397314
Si Si7 0.803025 0.565339 0.118472
Si Si8 0.985200 0.793722 0.692790
O O1 0.653282 0.024194 0.153328
O O2 0.798191 0.385545 0.837441
O O3 0.138843 0.170442 0.932842
O O4 0.059398 0.190545 0.830361
O O5 0.532328 0.138639 0.759986
O O6 0.646592 0.344386 0.656915
O O7 0.500000 0.000000 0.000000
O O8 0.522126 0.652172 0.758941
O O9 0.152868 0.806423 0.693162
O O10 0.500000 0.000000 0.500000
O O11 0.078397 0.722110 0.898843
O O12 0.668875 0.551970 0.104887
O O13 0.663095 0.698050 0.884921
O O14 0.555496 0.659023 0.475802
O O15 0.555916 0.611772 0.204446
O O16 0.000000 0.500000 0.500000
O O17 0.892788 0.364016 0.259354
O O18 0.000000 0.000000 0.500000
#
# Coordination Sequence:
#
# PCOD9023599 Si02
#       8
#     2   2   2   2   2   2   2   2
#     4   9  19  38  63  85 118 160 215 246 314 358
#     4  10  22  40  57  85 126 161 213 259 302 361
#     4   9  19  42  63  88 124 157 199 259 316 369
#     4   9  18  37  65  85 121 162 198 252 306 381
#     4   9  21  38  60  83 123 163 201 260 305 362
#     4  12  23  38  63  89 126 165 211 252 310 373
#     4   9  21  38  60  90 122 163 204 246 312 370
#     4   9  19  38  60  87 121 156 199 247 303 378
#
# _framework density 20.769127000000001
#
# number of rings (size 3 to 8) (size 9 to 14) (size 15 to 20)
#    0.750    1.750    0.000    3.375    3.500    0.000 
#    4.500    3.750    0.000    0.000    0.000    0.000 
#    0.000    0.000    0.000    0.000    0.000    0.000 
#
# Total GULP energy -89074.894077 kJ/mol
# GULP energy per Si atom -5567.180880 kJ/mol
# Density = 2.072186 g / cm^3
# Si number density = 20.769127 Si / 1000 Ang^3
#
#
#
# Elastic Constant Matrix: (Units=GPa)
#
#
# Indices 1 2 3 4 5 6 
#
# 1 74.0961 22.0647 37.0943 -10.8207 -8.9623 -4.9697
# 2 22.0647 98.7131 46.3220 -0.4752 -1.1515 -8.8371
# 3 37.0943 46.3220 113.0734 -21.6661 -0.1442 3.7238
# 4 -10.8207 -0.4752 -21.6661 25.9585 0.3442 4.5668
# 5 -8.9623 -1.1515 -0.1442 0.3442 34.6487 -13.4845
# 6 -4.9697 -8.8371 3.7238 4.5668 -13.4845 15.2988
#
#
#
# Elastic Compliance Matrix: (Units=1/GPa)
#
#
# Indices 1 2 3 4 5 6 
#
# 1 0.020146 0.001809 -0.008692 -0.003103 0.014313 0.023246
# 2 0.001809 0.017652 -0.011331 -0.013518 0.012150 0.028287
# 3 -0.008692 -0.011331 0.021385 0.020417 -0.016412 -0.035135
# 4 -0.003103 -0.013518 0.020417 0.063509 -0.022134 -0.052253
# 5 0.014313 0.012150 -0.016412 -0.022134 0.063603 0.078330
# 6 0.023246 0.028287 -0.035135 -0.052253 0.078330 0.182446
#
#
# Mechanical properties :
#
#
# Convention : Reuss Voigt Hill
#
# Bulk Modulus (GPa) = 43.94572 55.20495 49.57533
# Shear Modulus (GPa) = 12.11370 27.20797 19.66083
#
# Velocity S-wave (km/s) = 2.41769 3.62335 3.08009
# Velocity P-wave (km/s) = 5.38504 6.64401 6.04738
#
# Compressibility (1/GPa) = 0.02275535
#
# Stress axis : x y z
#
# Youngs Moduli (GPa) = 49.63790 56.65006 46.76070
#
# Poissons Ratio (x) = -0.10247 0.40644
# Poissons Ratio (y) = -0.08978 0.52985
# Poissons Ratio (z) = 0.43145 0.64190
#
# Static dielectric constant tensor:
#      x y z
#    x 1.730000 0.000030 0.025350 
#    y 0.000030 1.773710 0.007180 
#    z 0.025350 0.007180 1.837770 
# 
# From -- ./inp_files/608629.got.cif
#   From: 2010.05.17/outbox.cif.g08.bks.cpg/sg2_305_cif.got.tgz:608629.got - 2010.06.03 11:33:40.
