data_PCOD9023783
_publ_section_title
;
Structure prediction by ZEFSAII (Michael W. Deem and Ramdas Pophale) SiO2 
 PCOD9023783
Probable space group: P -1
;
_chemical_formula_sum "Si O2"
_cell_formula_units_Z 16
_cell_length_a 14.319277
_cell_length_b 13.954924
_cell_length_c 8.353756
_cell_angle_alpha 81.396414
_cell_angle_beta 57.041357
_cell_angle_gamma 36.271763
_cell_volume 673.711864
_symmetry_space_group_name_H-M "P -1"
_symmetry_group_IT_number 2
_symmetry_cell_setting 'triclinic'
loop_
_space_group_symop_operation_xyz
x,y,z
-x,-y,-z
loop_
_atom_site_type_symbol
_atom_site_label
_atom_site_fract_x
_atom_site_fract_y
_atom_site_fract_z
Si Si1 0.015572 0.150136 0.164346
Si Si2 0.774982 0.187521 0.840309
Si Si3 0.003862 0.348646 0.445948
Si Si4 0.558270 0.080647 0.714869
Si Si5 0.831074 0.496845 0.909321
Si Si6 0.880618 0.707910 0.989351
Si Si7 0.049997 0.124003 0.789552
Si Si8 0.658229 0.439592 0.654426
O O1 0.749966 0.363297 0.407570
O O2 0.136216 0.988121 0.218993
O O3 0.132691 0.165367 0.041387
O O4 0.045050 0.083355 0.979501
O O5 0.675772 0.320590 0.748948
O O6 0.981908 0.096466 0.731547
O O7 0.584817 0.335909 0.120479
O O8 0.921679 0.460234 0.659454
O O9 0.841156 0.378154 0.569289
O O10 0.261188 0.115206 0.296252
O O11 0.001127 0.405690 0.264567
O O12 0.364499 0.155688 0.811988
O O13 0.710628 0.010264 0.449346
O O14 0.420579 0.269591 0.887970
O O15 0.973258 0.421464 0.954019
O O16 0.868827 0.351626 0.906996
#
# Coordination Sequence:
#
# PCOD9023783 Si02
#       8
#     2   2   2   2   2   2   2   2
#     4  10  23  39  63  92 122 166 202 262 321 365
#     4  11  21  41  64  88 126 165 204 262 315 378
#     4  10  22  43  63  98 130 159 220 264 307 394
#     4  11  22  42  68  92 129 173 206 262 318 375
#     4  10  22  41  65  90 130 173 203 263 324 358
#     4  10  23  43  65  97 132 163 219 260 309 390
#     4  10  23  41  61  95 127 155 219 256 306 391
#     4  10  22  40  61  92 127 157 213 260 307 385
#
# _framework density 23.749025
#
# number of rings (size 3 to 8) (size 9 to 14) (size 15 to 20)
#    0.000    1.750    2.500    1.500    0.000   11.500 
#    0.000    7.500    0.000    0.000    0.000    0.000 
#    0.000    0.000    0.000    0.000    0.000    0.000 
#
# Total GULP energy -89419.077262 kJ/mol
# GULP energy per Si atom -5588.692329 kJ/mol
# Density = 2.369497 g / cm^3
# Si number density = 23.749025 Si / 1000 Ang^3
#
#
#
# Elastic Constant Matrix: (Units=GPa)
#
#
# Indices 1 2 3 4 5 6 
#
# 1 65.0452 18.8866 33.6166 -16.3409 -3.4605 5.2685
# 2 18.8866 58.3017 43.6335 -3.8770 8.9008 14.4503
# 3 33.6166 43.6335 160.2975 -6.0404 4.5236 -1.9786
# 4 -16.3409 -3.8770 -6.0404 36.5130 -2.8044 13.6302
# 5 -3.4605 8.9008 4.5236 -2.8044 44.6486 -7.6519
# 6 5.2685 14.4503 -1.9786 13.6302 -7.6519 33.0650
#
#
#
# Elastic Compliance Matrix: (Units=1/GPa)
#
#
# Indices 1 2 3 4 5 6 
#
# 1 0.021422 -0.001965 -0.003664 0.011570 0.001934 -0.007096
# 2 -0.001965 0.029267 -0.007287 0.006995 -0.007827 -0.017608
# 3 -0.003664 -0.007287 0.008918 -0.003019 0.001069 0.005794
# 4 0.011570 0.006995 -0.003019 0.041034 -0.001441 -0.022330
# 5 0.001934 -0.007827 0.001069 -0.001441 0.025569 0.009687
# 6 -0.007096 -0.017608 0.005794 -0.022330 0.009687 0.050863
#
#
# Mechanical properties :
#
#
# Convention : Reuss Voigt Hill
#
# Bulk Modulus (GPa) = 29.60765 52.87979 41.24372
# Shear Modulus (GPa) = 23.34680 35.34583 29.34631
#
# Velocity S-wave (km/s) = 3.13879 3.86204 3.51904
# Velocity P-wave (km/s) = 5.06260 6.49628 5.82372
#
# Compressibility (1/GPa) = 0.03377505
#
# Stress axis : x y z
#
# Youngs Moduli (GPa) = 46.68054 34.16848 112.13246
#
# Poissons Ratio (x) = 0.06713 0.41085
# Poissons Ratio (y) = 0.09171 0.81715
# Poissons Ratio (z) = 0.17103 0.24900
#
# Static dielectric constant tensor:
#      x y z
#    x 1.926550 0.009200 0.053290 
#    y 0.009200 1.917520 -0.026390 
#    z 0.053290 -0.026390 1.907910 
# 
# From -- ./inp_files/313291.got.cif
#   From: 2010.05.17/outbox.cif.g08.bks.cpg/sg2_157_cif.got.tgz:313291.got - 2010.06.03 11:33:40.
