data_PCOD9023342
_publ_section_title
;
Structure prediction by ZEFSAII (Michael W. Deem and Ramdas Pophale) SiO2 
 PCOD9023342
Probable space group: P -1
;
_chemical_formula_sum "Si O2"
_cell_formula_units_Z 16
_cell_length_a 12.043564
_cell_length_b 13.167662
_cell_length_c 12.185589
_cell_angle_alpha 32.711393
_cell_angle_beta 98.530190
_cell_angle_gamma 123.351264
_cell_volume 626.247912
_symmetry_space_group_name_H-M "P -1"
_symmetry_group_IT_number 2
_symmetry_cell_setting 'triclinic'
loop_
_space_group_symop_operation_xyz
x,y,z
-x,-y,-z
loop_
_atom_site_type_symbol
_atom_site_label
_atom_site_fract_x
_atom_site_fract_y
_atom_site_fract_z
Si Si1 0.671130 0.560085 0.173428
Si Si2 0.384485 0.158802 0.325656
Si Si3 0.897050 0.579388 0.335392
Si Si4 0.169915 0.969721 0.819746
Si Si5 0.010186 0.791788 0.721876
Si Si6 0.717333 0.258631 0.007882
Si Si7 0.620745 0.920041 0.852202
Si Si8 0.065978 0.221983 0.599201
O O1 0.523660 0.262286 0.343612
O O2 0.745498 0.517604 0.314156
O O3 0.594986 0.664094 0.104257
O O4 0.861531 0.876637 0.851502
O O5 0.355786 0.023563 0.327500
O O6 0.191853 0.955589 0.538187
O O7 0.500000 0.500000 0.000000
O O8 0.946596 0.737448 0.313754
O O9 0.800576 0.249473 0.634819
O O10 0.060473 0.785468 0.083509
O O11 0.039798 0.790065 0.855819
O O12 0.211688 0.245709 0.584379
O O13 0.319226 0.008021 0.780891
O O14 0.825770 0.446262 0.965567
O O15 0.000000 0.000000 0.500000
O O16 0.867394 0.522811 0.699069
O O17 0.548442 0.175093 0.051266
#
# Coordination Sequence:
#
# PCOD9023342 Si02
#       8
#     2   2   2   2   2   2   2   2
#     4  10  22  43  70  98 132 174 227 279 337 400
#     4  10  22  39  68 103 137 177 215 273 351 405
#     4  11  26  46  71 100 130 186 235 278 334 403
#     4  11  25  43  71 101 133 176 230 279 338 403
#     4  12  23  42  71 104 141 175 219 282 345 410
#     4  12  26  43  68 105 140 180 224 279 340 407
#     4  11  26  42  68 103 141 181 219 282 342 400
#     4  11  25  47  74  95 134 185 234 280 335 396
#
# _framework density 25.548987
#
# number of rings (size 3 to 8) (size 9 to 14) (size 15 to 20)
#    0.000    1.000    1.250    6.375    8.750    4.000 
#    0.000    1.250    0.000    0.000    0.000    0.000 
#    0.000    0.000    0.000    0.000    0.000    0.000 
#
# Total GULP energy -89644.685670 kJ/mol
# GULP energy per Si atom -5602.792854 kJ/mol
# Density = 2.549084 g / cm^3
# Si number density = 25.548987 Si / 1000 Ang^3
#
#
#
# Elastic Constant Matrix: (Units=GPa)
#
#
# Indices 1 2 3 4 5 6 
#
# 1 166.8335 19.1868 5.2942 0.8501 9.3299 -21.1840
# 2 19.1868 90.6108 15.6580 14.1374 -5.1326 -19.5225
# 3 5.2942 15.6580 66.8216 -1.8986 3.4881 -5.6867
# 4 0.8501 14.1374 -1.8986 36.6118 -1.9210 3.6133
# 5 9.3299 -5.1326 3.4881 -1.9210 41.8429 -4.5945
# 6 -21.1840 -19.5225 -5.6867 3.6133 -4.5945 36.1441
#
#
#
# Elastic Compliance Matrix: (Units=1/GPa)
#
#
# Indices 1 2 3 4 5 6 
#
# 1 0.006567 -0.000689 -0.000019 -0.000281 -0.001192 0.003350
# 2 -0.000689 0.014582 -0.003009 -0.006414 0.002776 0.007993
# 3 -0.000019 -0.003009 0.015846 0.001856 -0.001549 0.000474
# 4 -0.000281 -0.006414 0.001856 0.030516 -0.000182 -0.006411
# 5 -0.001192 0.002776 -0.001549 -0.000182 0.025039 0.003758
# 6 0.003350 0.007993 0.000474 -0.006411 0.003758 0.035141
#
#
# Mechanical properties :
#
#
# Convention : Reuss Voigt Hill
#
# Bulk Modulus (GPa) = 33.83003 44.94935 39.38969
# Shear Modulus (GPa) = 34.48728 41.86153 38.17441
#
# Velocity S-wave (km/s) = 3.67802 4.05221 3.86964
# Velocity P-wave (km/s) = 5.59527 6.28693 5.95115
#
# Compressibility (1/GPa) = 0.02955954
#
# Stress axis : x y z
#
# Youngs Moduli (GPa) = 152.26724 68.57608 63.10808
#
# Poissons Ratio (x) = 0.04726 0.00123
# Poissons Ratio (y) = 0.10494 0.18992
# Poissons Ratio (z) = 0.00296 0.20637
#
# Static dielectric constant tensor:
#      x y z
#    x 2.070900 0.020900 0.031150 
#    y 0.020900 2.027260 0.000890 
#    z 0.031150 0.000890 2.004880 
# 
# From -- ./inp_files/427409.got.cif
#   From: 2010.05.17/outbox.cif.g08.bks.cpg/sg2_214_cif.got.tgz:427409.got - 2010.06.03 11:33:40.
