data_PCOD9023204
_publ_section_title
;
Structure prediction by ZEFSAII (Michael W. Deem and Ramdas Pophale) SiO2 
 PCOD9023204
Probable space group: P -1
;
_chemical_formula_sum "Si O2"
_cell_formula_units_Z 15
_cell_length_a 6.151517
_cell_length_b 12.031839
_cell_length_c 8.893267
_cell_angle_alpha 107.625394
_cell_angle_beta 106.594146
_cell_angle_gamma 76.957170
_cell_volume 594.176791
_symmetry_space_group_name_H-M "P -1"
_symmetry_group_IT_number 2
_symmetry_cell_setting 'triclinic'
loop_
_space_group_symop_operation_xyz
x,y,z
-x,-y,-z
loop_
_atom_site_type_symbol
_atom_site_label
_atom_site_fract_x
_atom_site_fract_y
_atom_site_fract_z
Si Si1 0.237825 0.369083 0.588712
Si Si2 0.303417 0.804007 0.284661
Si Si3 0.443699 0.585823 0.719277
Si Si4 0.090841 0.577441 0.175910
Si Si5 0.000000 0.000000 0.500000
Si Si6 0.191487 0.790044 0.936183
Si Si7 0.633603 0.038508 0.189623
Si Si8 0.265293 0.229638 0.276218
O O1 0.458259 0.274838 0.647161
O O2 0.289860 0.494259 0.583158
O O3 0.079535 0.409362 0.713308
O O4 0.125160 0.290016 0.414538
O O5 0.204243 0.906389 0.421221
O O6 0.129285 0.708602 0.200516
O O7 0.306528 0.840061 0.124706
O O8 0.323029 0.660508 0.865390
O O9 0.551111 0.681868 0.682654
O O10 0.661762 0.494922 0.773076
O O11 0.000000 0.500000 0.000000
O O12 0.183917 0.029014 0.685566
O O13 0.217646 0.872084 0.830303
O O14 0.921852 0.781506 0.892268
O O15 0.422404 0.105922 0.273315
O O16 0.500000 0.000000 0.000000
#
# Coordination Sequence:
#
# PCOD9023204 Si02
#       8
#     2   2   2   2   1   2   2   2
#     4  11  23  40  67 105 142 190 238 293 367 433
#     4  11  25  45  68 103 143 189 244 307 360 441
#     4  10  22  39  67 100 149 186 234 297 359 441
#     4  11  23  40  66 102 144 189 243 296 364 442
#     4  12  26  50  78 104 148 190 246 316 366 432
#     4  11  25  46  73 103 144 191 241 293 376 441
#     4  11  27  51  75 108 146 190 247 313 367 440
#     4  11  23  42  68 104 143 187 239 299 363 437
#
# _framework density 25.245011999999999
#
# number of rings (size 3 to 8) (size 9 to 14) (size 15 to 20)
#    0.000    1.067    1.333    4.400    1.867   10.667 
#    0.000    2.000    0.000    0.000    0.000    0.000 
#    0.000    0.000    0.000    0.000    0.000    0.000 
#
# Total GULP energy -83554.207424 kJ/mol
# GULP energy per Si atom -5570.280495 kJ/mol
# Density = 2.518755 g / cm^3
# Si number density = 25.245012 Si / 1000 Ang^3
#
#
#
# Elastic Constant Matrix: (Units=GPa)
#
#
# Indices 1 2 3 4 5 6 
#
# 1 68.6729 34.0512 26.2334 2.9151 10.1279 -21.2005
# 2 34.0512 68.3040 30.4040 8.3355 -1.0760 -35.3467
# 3 26.2334 30.4040 132.0911 8.6185 26.3437 -26.8808
# 4 2.9151 8.3355 8.6185 32.2871 -8.2072 -2.5108
# 5 10.1279 -1.0760 26.3437 -8.2072 36.9553 3.5059
# 6 -21.2005 -35.3467 -26.8808 -2.5108 3.5059 53.9657
#
#
#
# Elastic Compliance Matrix: (Units=1/GPa)
#
#
# Indices 1 2 3 4 5 6 
#
# 1 0.020840 -0.008934 -0.000260 -0.000889 -0.006228 0.002570
# 2 -0.008934 0.027262 -0.002142 -0.003979 0.002659 0.012922
# 3 -0.000260 -0.002142 0.011184 -0.004445 -0.009375 0.004468
# 4 -0.000889 -0.003979 -0.004445 0.035902 0.011673 -0.004257
# 5 -0.006228 0.002659 -0.009375 0.011673 0.038817 -0.007353
# 6 0.002570 0.012922 0.004468 -0.004257 -0.007353 0.030509
#
#
# Mechanical properties :
#
#
# Convention : Reuss Voigt Hill
#
# Bulk Modulus (GPa) = 27.31075 50.04948 38.68011
# Shear Modulus (GPa) = 25.07662 36.53359 30.80511
#
# Velocity S-wave (km/s) = 3.15513 3.80828 3.49699
# Velocity P-wave (km/s) = 4.91069 6.26146 5.62676
#
# Compressibility (1/GPa) = 0.03661562
#
# Stress axis : x y z
#
# Youngs Moduli (GPa) = 47.98434 36.68140 89.41302
#
# Poissons Ratio (x) = 0.32770 0.02322
# Poissons Ratio (y) = 0.42867 0.19152
# Poissons Ratio (z) = 0.01246 0.07857
#
# Static dielectric constant tensor:
#      x y z
#    x 2.151310 0.141010 -0.042320 
#    y 0.141010 2.064870 -0.073100 
#    z -0.042320 -0.073100 2.048750 
# 
# From -- ./inp_files/133658.got.cif
#   From: 2010.05.17/outbox.cif.g08.bks.cpg/sg2_67_cif.got.tgz:133658.got - 2010.06.03 11:33:40.
