data_PCOD9023679
_publ_section_title
;
Structure prediction by ZEFSAII (Michael W. Deem and Ramdas Pophale) SiO2 
 PCOD9023679
Probable space group: P -1
;
_chemical_formula_sum "Si O2"
_cell_formula_units_Z 16
_cell_length_a 9.456298
_cell_length_b 7.800125
_cell_length_c 16.792086
_cell_angle_alpha 54.454139
_cell_angle_beta 123.031028
_cell_angle_gamma 87.800922
_cell_volume 721.268306
_symmetry_space_group_name_H-M "P -1"
_symmetry_group_IT_number 2
_symmetry_cell_setting 'triclinic'
loop_
_space_group_symop_operation_xyz
x,y,z
-x,-y,-z
loop_
_atom_site_type_symbol
_atom_site_label
_atom_site_fract_x
_atom_site_fract_y
_atom_site_fract_z
Si Si1 0.991881 0.500985 0.242155
Si Si2 0.196523 0.995148 0.029038
Si Si3 0.670713 0.305257 0.545633
Si Si4 0.475717 0.568600 0.716274
Si Si5 0.347532 0.150574 0.342665
Si Si6 0.659018 0.434139 0.165667
Si Si7 0.532978 0.106082 0.119207
Si Si8 0.035549 0.371963 0.630742
O O1 0.863680 0.384261 0.206139
O O2 0.028473 0.448159 0.360924
O O3 0.174966 0.386463 0.270708
O O4 0.885351 0.796427 0.120883
O O5 0.349449 0.070758 0.096554
O O6 0.346638 0.707529 0.138857
O O7 0.000000 0.000000 0.000000
O O8 0.500000 0.500000 0.500000
O O9 0.591814 0.384897 0.408747
O O10 0.880318 0.283085 0.616268
O O11 0.708916 0.039545 0.654563
O O12 0.548989 0.755453 0.709154
O O13 0.315289 0.610346 0.720460
O O14 0.500000 0.000000 0.500000
O O15 0.577868 0.271280 0.148148
O O16 0.522140 0.724696 0.023116
O O17 0.734332 0.845194 0.238846
O O18 0.000000 0.500000 0.500000
#
# Coordination Sequence:
#
# PCOD9023679 Si02
#       8
#     2   2   2   2   2   2   2   2
#     4  11  22  42  66  96 131 174 216 272 334 382
#     4  11  22  40  70  96 129 169 220 276 326 394
#     4  11  25  43  65  94 136 176 217 275 328 391
#     4  11  22  42  65  98 127 173 225 263 330 393
#     4  10  22  40  60  88 131 168 212 266 323 384
#     4  10  22  42  68  92 131 171 217 279 323 390
#     4  10  23  42  65  98 135 168 220 276 331 380
#     4  12  24  40  65  97 130 176 220 266 326 397
#
# _framework density 22.183146000000001
#
# number of rings (size 3 to 8) (size 9 to 14) (size 15 to 20)
#    0.000    1.250    1.250    5.250    0.000    6.000 
#    0.000    5.000    0.000    0.000    0.000    0.000 
#    0.000    0.000    0.000    0.000    0.000    0.000 
#
# Total GULP energy -89151.557293 kJ/mol
# GULP energy per Si atom -5571.972331 kJ/mol
# Density = 2.213266 g / cm^3
# Si number density = 22.183146 Si / 1000 Ang^3
#
#
#
# Elastic Constant Matrix: (Units=GPa)
#
#
# Indices 1 2 3 4 5 6 
#
# 1 124.4237 36.8115 14.1924 15.9620 -1.8201 33.8484
# 2 36.8115 66.2405 17.6996 -6.2173 -11.6585 32.7214
# 3 14.1924 17.6996 39.1439 4.5039 -6.5824 -1.8861
# 4 15.9620 -6.2173 4.5039 26.7515 1.1243 -1.9503
# 5 -1.8201 -11.6585 -6.5824 1.1243 37.2404 4.4952
# 6 33.8484 32.7214 -1.8861 -1.9503 4.4952 44.6096
#
#
#
# Elastic Compliance Matrix: (Units=1/GPa)
#
#
# Indices 1 2 3 4 5 6 
#
# 1 0.012384 -0.003277 -0.002359 -0.008313 0.000317 -0.007488
# 2 -0.003277 0.037244 -0.016248 0.010956 0.011459 -0.026194
# 3 -0.002359 -0.016248 0.035200 -0.007182 -0.000567 0.014939
# 4 -0.008313 0.010956 -0.007182 0.046077 0.000370 -0.000055
# 5 0.000317 0.011459 -0.000567 0.000370 0.031775 -0.011855
# 6 -0.007488 -0.026194 0.014939 -0.000055 -0.011855 0.049136
#
#
# Mechanical properties :
#
#
# Convention : Reuss Voigt Hill
#
# Bulk Modulus (GPa) = 24.35547 40.80169 32.57858
# Shear Modulus (GPa) = 18.56873 32.46062 25.51468
#
# Velocity S-wave (km/s) = 2.89635 3.82946 3.39511
# Velocity P-wave (km/s) = 4.71043 6.16328 5.48517
#
# Compressibility (1/GPa) = 0.04105854
#
# Stress axis : x y z
#
# Youngs Moduli (GPa) = 80.75091 26.85009 28.40923
#
# Poissons Ratio (x) = 0.08800 0.06702
# Poissons Ratio (y) = 0.26465 0.46159
# Poissons Ratio (z) = 0.19050 0.43626
#
# Static dielectric constant tensor:
#      x y z
#    x 1.807550 0.042210 0.025350 
#    y 0.042210 1.853650 0.027520 
#    z 0.025350 0.027520 1.827010 
# 
# From -- ./inp_files/556912.got.cif
#   From: 2010.05.17/outbox.cif.g08.bks.cpg/sg2_279_cif.got.tgz:556912.got - 2010.06.03 11:33:40.
