data_PCOD9023545
_publ_section_title
;
Structure prediction by ZEFSAII (Michael W. Deem and Ramdas Pophale) SiO2 
 PCOD9023545
Probable space group: P -1
;
_chemical_formula_sum "Si O2"
_cell_formula_units_Z 16
_cell_length_a 10.989868
_cell_length_b 9.443564
_cell_length_c 9.201304
_cell_angle_alpha 60.565788
_cell_angle_beta 98.652568
_cell_angle_gamma 127.170921
_cell_volume 647.784006
_symmetry_space_group_name_H-M "P -1"
_symmetry_group_IT_number 2
_symmetry_cell_setting 'triclinic'
loop_
_space_group_symop_operation_xyz
x,y,z
-x,-y,-z
loop_
_atom_site_type_symbol
_atom_site_label
_atom_site_fract_x
_atom_site_fract_y
_atom_site_fract_z
Si Si1 0.064819 0.443697 0.310511
Si Si2 0.685336 0.469319 0.923492
Si Si3 0.620012 0.213154 0.498658
Si Si4 0.083559 0.092729 0.123183
Si Si5 0.456559 0.396577 0.384129
Si Si6 0.900208 0.242928 0.645849
Si Si7 0.572396 0.037360 0.148260
Si Si8 0.174906 0.975902 0.683732
O O1 0.206821 0.514739 0.195758
O O2 0.068328 0.636198 0.259275
O O3 0.053629 0.354317 0.514768
O O4 0.920835 0.244044 0.302129
O O5 0.793230 0.663079 0.952400
O O6 0.567024 0.489322 0.803479
O O7 0.616973 0.254975 0.098034
O O8 0.587222 0.372020 0.371781
O O9 0.784489 0.258291 0.519433
O O10 0.500000 0.000000 0.500000
O O11 0.557148 0.151677 0.682102
O O12 0.949318 0.015873 0.258396
O O13 0.165717 0.987745 0.223360
O O14 0.000000 0.000000 0.000000
O O15 0.500000 0.500000 0.500000
O O16 0.289791 0.168086 0.499111
O O17 0.716597 0.032422 0.180209
O O18 0.500000 0.000000 0.000000
#
# Coordination Sequence:
#
# PCOD9023545 Si02
#       8
#     2   2   2   2   2   2   2   2
#     4  10  22  39  71  92 127 170 215 274 321 394
#     4  11  23  43  68  98 131 170 222 271 331 385
#     4  11  24  44  68  93 134 176 217 265 322 396
#     4  11  26  40  63  94 136 170 212 278 325 381
#     4  11  22  43  69  97 124 172 219 267 322 397
#     4  11  22  41  65 101 128 168 218 268 328 389
#     4  11  24  42  70  95 130 178 220 269 322 401
#     4  10  23  43  65  92 128 174 220 260 330 394
#
# _framework density 24.699594000000001
#
# number of rings (size 3 to 8) (size 9 to 14) (size 15 to 20)
#    0.000    1.250    0.000    6.750    5.250    4.000 
#    2.250    1.250    0.000    0.000    0.000    0.000 
#    0.000    0.000    0.000    0.000    0.000    0.000 
#
# Total GULP energy -89484.976276 kJ/mol
# GULP energy per Si atom -5592.811017 kJ/mol
# Density = 2.464338 g / cm^3
# Si number density = 24.699594 Si / 1000 Ang^3
#
#
#
# Elastic Constant Matrix: (Units=GPa)
#
#
# Indices 1 2 3 4 5 6 
#
# 1 88.0746 24.5881 16.8869 -3.9248 8.4515 -16.2827
# 2 24.5881 132.9289 1.9085 8.5131 -0.1689 -15.4149
# 3 16.8869 1.9085 29.7518 -6.7164 1.5054 -2.4339
# 4 -3.9248 8.5131 -6.7164 49.8542 -9.0474 -0.2896
# 5 8.4515 -0.1689 1.5054 -9.0474 30.5799 1.5187
# 6 -16.2827 -15.4149 -2.4339 -0.2896 1.5187 31.7301
#
#
#
# Elastic Compliance Matrix: (Units=1/GPa)
#
#
# Indices 1 2 3 4 5 6 
#
# 1 0.014914 -0.001903 -0.007671 -0.000250 -0.004143 0.006336
# 2 -0.001903 0.008323 0.000463 -0.001499 -0.000048 0.003091
# 3 -0.007671 0.000463 0.038885 0.004857 0.001683 -0.000765
# 4 -0.000250 -0.001499 0.004857 0.022106 0.006391 -0.000588
# 5 -0.004143 -0.000048 0.001683 0.006391 0.035837 -0.003677
# 6 0.006336 0.003091 -0.000765 -0.000588 -0.003677 0.036381
#
#
# Mechanical properties :
#
#
# Convention : Reuss Voigt Hill
#
# Bulk Modulus (GPa) = 22.77981 37.50249 30.14115
# Shear Modulus (GPa) = 26.41314 36.25761 31.33538
#
# Velocity S-wave (km/s) = 3.27368 3.83553 3.56569
# Velocity P-wave (km/s) = 4.85099 5.90182 5.40202
#
# Compressibility (1/GPa) = 0.04389852
#
# Stress axis : x y z
#
# Youngs Moduli (GPa) = 67.05095 120.15541 25.71715
#
# Poissons Ratio (x) = 0.22866 0.19729
# Poissons Ratio (y) = 0.12760 -0.01191
# Poissons Ratio (z) = 0.51437 -0.05564
#
# Static dielectric constant tensor:
#      x y z
#    x 1.970930 0.045920 -0.117120 
#    y 0.045920 2.006170 0.020650 
#    z -0.117120 0.020650 1.828260 
# 
# From -- ./inp_files/242585.got.cif
#   From: 2010.05.17/outbox.cif.g08.bks.cpg/sg2_122_cif.got.tgz:242585.got - 2010.06.03 11:33:40.
