data_PCOD9023694
_publ_section_title
;
Structure prediction by ZEFSAII (Michael W. Deem and Ramdas Pophale) SiO2 
 PCOD9023694
Probable space group: P -1
;
_chemical_formula_sum "Si O2"
_cell_formula_units_Z 15
_cell_length_a 5.639729
_cell_length_b 4.861328
_cell_length_c 19.999830
_cell_angle_alpha 83.083252
_cell_angle_beta 71.344504
_cell_angle_gamma 93.254543
_cell_volume 513.082407
_symmetry_space_group_name_H-M "P -1"
_symmetry_group_IT_number 2
_symmetry_cell_setting 'triclinic'
loop_
_space_group_symop_operation_xyz
x,y,z
-x,-y,-z
loop_
_atom_site_type_symbol
_atom_site_label
_atom_site_fract_x
_atom_site_fract_y
_atom_site_fract_z
Si Si1 0.011231 0.766080 0.539460
Si Si2 0.286015 0.400234 0.614079
Si Si3 0.637160 0.717675 0.245473
Si Si4 0.883066 0.833796 0.824607
Si Si5 0.389412 0.935861 0.939256
Si Si6 0.500000 0.000000 0.500000
Si Si7 0.184003 0.059353 0.315078
Si Si8 0.828207 0.554033 0.105266
O O1 0.285262 0.689118 0.564008
O O2 0.000000 0.500000 0.500000
O O3 0.839340 0.764675 0.621316
O O4 0.198112 0.060598 0.495810
O O5 0.344155 0.460782 0.684247
O O6 0.463500 0.203677 0.566228
O O7 0.023177 0.204726 0.646672
O O8 0.620613 0.536184 0.184882
O O9 0.431236 0.920391 0.277439
O O10 0.891111 0.918686 0.201764
O O11 0.878539 0.761313 0.748880
O O12 0.944617 0.583908 0.875448
O O13 0.631760 0.957131 0.868140
O O14 0.183204 0.136482 0.929197
O O15 0.263496 0.629085 0.944840
O O16 0.500000 0.000000 0.000000
#
# Coordination Sequence:
#
# PCOD9023694 Si02
#       8
#     2   2   2   2   2   1   2   2
#     4  11  23  39  61  92 136 182 234 299 366 435
#     4  10  23  39  66  98 136 188 242 307 367 438
#     4  11  23  45  71 107 140 192 251 311 365 440
#     4  11  24  46  76 105 152 189 251 303 367 439
#     4  12  29  50  77 114 155 197 245 301 370 450
#     4  10  22  40  60  92 132 180 238 294 366 432
#     4  10  22  41  66 102 136 184 243 304 370 429
#     4  12  25  48  75 110 149 197 244 305 369 436
#
# _framework density 29.235071999999999
#
# number of rings (size 3 to 8) (size 9 to 14) (size 15 to 20)
#    0.000    1.067    2.667    2.400    1.867    6.400 
#    0.000    0.000    0.000    0.000    0.000    0.000 
#    0.000    0.000    0.000    0.000    0.000    0.000 
#
# Total GULP energy -84101.913751 kJ/mol
# GULP energy per Si atom -5606.794250 kJ/mol
# Density = 2.916853 g / cm^3
# Si number density = 29.235072 Si / 1000 Ang^3
#
#
#
# Elastic Constant Matrix: (Units=GPa)
#
#
# Indices 1 2 3 4 5 6 
#
# 1 115.9258 44.3690 46.7281 -11.2899 -21.4465 -4.4346
# 2 44.3690 179.9206 68.2090 12.6801 -2.5593 -29.4524
# 3 46.7281 68.2090 234.8732 12.2064 42.4602 -9.1985
# 4 -11.2899 12.6801 12.2064 56.3474 2.5682 2.9711
# 5 -21.4465 -2.5593 42.4602 2.5682 78.4006 -10.5485
# 6 -4.4346 -29.4524 -9.1985 2.9711 -10.5485 63.2095
#
#
#
# Elastic Compliance Matrix: (Units=1/GPa)
#
#
# Indices 1 2 3 4 5 6 
#
# 1 0.011617 -0.001980 -0.002708 0.003150 0.004490 0.000100
# 2 -0.001980 0.007401 -0.001733 -0.001915 0.001151 0.003340
# 3 -0.002708 -0.001733 0.006086 -0.001242 -0.004153 -0.000747
# 4 0.003150 -0.001915 -0.001242 0.019137 0.000623 -0.001648
# 5 0.004490 0.001151 -0.004153 0.000623 0.016653 0.002996
# 6 0.000100 0.003340 -0.000747 -0.001648 0.002996 0.017852
#
#
# Mechanical properties :
#
#
# Convention : Reuss Voigt Hill
#
# Bulk Modulus (GPa) = 81.55205 94.37021 87.96113
# Shear Modulus (GPa) = 52.26072 64.35240 58.30656
#
# Velocity S-wave (km/s) = 4.23259 4.69679 4.47072
# Velocity P-wave (km/s) = 7.20016 7.85894 7.53675
#
# Compressibility (1/GPa) = 0.01226211
#
# Stress axis : x y z
#
# Youngs Moduli (GPa) = 86.08398 135.10972 164.32035
#
# Poissons Ratio (x) = 0.26753 0.44490
# Poissons Ratio (y) = 0.17045 0.28480
# Poissons Ratio (z) = 0.23307 0.23417
#
# Static dielectric constant tensor:
#      x y z
#    x 2.664280 0.101210 -0.031970 
#    y 0.101210 2.288970 -0.127910 
#    z -0.031970 -0.127910 2.221980 
# 
# From -- ./inp_files/9706.got.cif
#   From: 2010.05.17/outbox.cif.g08.bks.cpg/sg2_5_cif.got.tgz:9706.got - 2010.06.03 11:33:40.
