data_PCOD9023388
_publ_section_title
;
Structure prediction by ZEFSAII (Michael W. Deem and Ramdas Pophale) SiO2 
 PCOD9023388
Probable space group: P -1
;
_chemical_formula_sum "Si O2"
_cell_formula_units_Z 14
_cell_length_a 12.396579
_cell_length_b 11.370152
_cell_length_c 8.795199
_cell_angle_alpha 139.908006
_cell_angle_beta 88.863171
_cell_angle_gamma 111.995618
_cell_volume 662.343995
_symmetry_space_group_name_H-M "P -1"
_symmetry_group_IT_number 2
_symmetry_cell_setting 'triclinic'
loop_
_space_group_symop_operation_xyz
x,y,z
-x,-y,-z
loop_
_atom_site_type_symbol
_atom_site_label
_atom_site_fract_x
_atom_site_fract_y
_atom_site_fract_z
Si Si1 0.998259 0.466442 0.218439
Si Si2 0.598071 0.165341 0.034767
Si Si3 0.648653 0.666529 0.105229
Si Si4 0.362442 0.944790 0.394726
Si Si5 0.150120 0.445642 0.930711
Si Si6 0.191860 0.801943 0.783628
Si Si7 0.585234 0.694900 0.812327
O O1 0.116494 0.676274 0.509870
O O2 0.918105 0.551904 0.220093
O O3 0.914016 0.277199 0.158368
O O4 0.046042 0.370810 0.993757
O O5 0.627509 0.054222 0.787684
O O6 0.729041 0.302265 0.262564
O O7 0.525247 0.274003 0.082486
O O8 0.500000 0.000000 0.000000
O O9 0.674650 0.898710 0.379502
O O10 0.761695 0.651042 0.161067
O O11 0.500000 0.500000 0.000000
O O12 0.643086 0.634913 0.891482
O O13 0.500000 0.000000 0.500000
O O14 0.255703 0.702071 0.209767
O O15 0.296040 0.065601 0.018432
O O16 0.500000 0.500000 0.500000
#
# Coordination Sequence:
#
# PCOD9023388 Si02
#       7
#     2   2   2   2   2   2   2
#     4  10  23  44  72  94 139 191 231 274 328 426
#     4  10  22  39  68  96 128 179 219 285 349 395
#     4  12  26  40  70 107 137 179 228 293 353 407
#     4  12  22  43  67 100 140 173 225 290 350 403
#     4  11  24  44  70 102 134 181 237 279 345 409
#     4  10  22  44  70  95 131 189 233 268 348 407
#     4  11  25  41  67 110 139 171 228 295 351 406
#
# _framework density 21.137051
#
# number of rings (size 3 to 8) (size 9 to 14) (size 15 to 20)
#    0.000    1.143    4.286    0.857    8.000    0.000 
#    0.000    7.143    3.143    0.000    0.000    0.000 
#    0.000    0.000    0.000    0.000    0.000    0.000 
#
# Total GULP energy -78073.200196 kJ/mol
# GULP energy per Si atom -5576.657157 kJ/mol
# Density = 2.108894 g / cm^3
# Si number density = 21.137051 Si / 1000 Ang^3
#
#
#
# Elastic Constant Matrix: (Units=GPa)
#
#
# Indices 1 2 3 4 5 6 
#
# 1 115.1011 21.3454 39.4506 -10.1102 16.2442 -23.8067
# 2 21.3454 91.2899 26.9169 -13.2411 4.8520 10.7749
# 3 39.4506 26.9169 103.7204 -1.3622 10.6339 -9.3407
# 4 -10.1102 -13.2411 -1.3622 32.5555 -1.3789 5.8269
# 5 16.2442 4.8520 10.6339 -1.3789 36.4097 -5.5321
# 6 -23.8067 10.7749 -9.3407 5.8269 -5.5321 38.5732
#
#
#
# Elastic Compliance Matrix: (Units=1/GPa)
#
#
# Indices 1 2 3 4 5 6 
#
# 1 0.012131 -0.002376 -0.003050 0.001330 -0.003127 0.006763
# 2 -0.002376 0.014286 -0.003303 0.006210 -0.000754 -0.007303
# 3 -0.003050 -0.003303 0.011965 -0.002221 -0.001464 0.002063
# 4 0.001330 0.006210 -0.002221 0.034754 -0.000485 -0.006771
# 5 -0.003127 -0.000754 -0.001464 -0.000485 0.029713 0.002261
# 6 0.006763 -0.007303 0.002063 -0.006771 0.002261 0.033985
#
#
# Mechanical properties :
#
#
# Convention : Reuss Voigt Hill
#
# Bulk Modulus (GPa) = 47.79108 53.94859 50.86983
# Shear Modulus (GPa) = 31.00423 36.33422 33.66923
#
# Velocity S-wave (km/s) = 3.83406 4.15056 3.99545
# Velocity P-wave (km/s) = 6.50071 6.96765 6.73823
#
# Compressibility (1/GPa) = 0.02092441
#
# Stress axis : x y z
#
# Youngs Moduli (GPa) = 82.43282 69.99779 83.57478
#
# Poissons Ratio (x) = 0.16632 0.25494
# Poissons Ratio (y) = 0.19587 0.27601
# Poissons Ratio (z) = 0.25145 0.23117
#
# Static dielectric constant tensor:
#      x y z
#    x 1.774010 0.001420 0.016700 
#    y 0.001420 1.830070 -0.023760 
#    z 0.016700 -0.023760 1.775880 
# 
# From -- ./inp_files/261062.got.cif
#   From: 2010.05.17/outbox.cif.g08.bks.cpg/sg2_131_cif.got.tgz:261062.got - 2010.06.03 11:33:40.
