data_PCOD9023413
_publ_section_title
;
Structure prediction by ZEFSAII (Michael W. Deem and Ramdas Pophale) SiO2 
 PCOD9023413
Probable space group: P -1
;
_chemical_formula_sum "Si O2"
_cell_formula_units_Z 14
_cell_length_a 13.971320
_cell_length_b 18.190996
_cell_length_c 9.167392
_cell_angle_alpha 129.031071
_cell_angle_beta 29.359465
_cell_angle_gamma 147.589311
_cell_volume 560.193239
_symmetry_space_group_name_H-M "P -1"
_symmetry_group_IT_number 2
_symmetry_cell_setting 'triclinic'
loop_
_space_group_symop_operation_xyz
x,y,z
-x,-y,-z
loop_
_atom_site_type_symbol
_atom_site_label
_atom_site_fract_x
_atom_site_fract_y
_atom_site_fract_z
Si Si1 0.714439 0.532381 0.875672
Si Si2 0.105704 0.965091 0.663146
Si Si3 0.737841 0.693066 0.291070
Si Si4 0.783654 0.035568 0.177254
Si Si5 0.288383 0.686196 0.765482
Si Si6 0.722047 0.736857 0.669390
Si Si7 0.162552 0.621445 0.159632
O O1 0.004845 0.605795 0.490620
O O2 0.500000 0.500000 0.000000
O O3 0.796584 0.632209 0.023588
O O4 0.500165 0.375436 0.043530
O O5 0.077671 0.891526 0.753767
O O6 0.044678 0.885635 0.496974
O O7 0.440450 0.143470 0.439437
O O8 0.826217 0.937617 0.005066
O O9 0.458264 0.651659 0.547059
O O10 0.732397 0.665853 0.434307
O O11 0.026128 0.870111 0.102705
O O12 0.500000 0.000000 0.500000
O O13 0.025653 0.548451 0.832835
O O14 0.145125 0.669128 0.087314
O O15 0.525493 0.745060 0.862177
#
# Coordination Sequence:
#
# PCOD9023413 Si02
#       7
#     2   2   2   2   2   2   2
#     4  12  23  40  66  95 135 171 225 286 332 394
#     4  10  23  44  72  96 141 180 219 283 344 405
#     4  10  22  42  63  95 138 173 222 285 339 393
#     4  10  23  42  68 100 135 181 229 274 338 405
#     4   9  20  43  67  96 131 177 222 275 337 404
#     4  11  25  43  66  99 133 180 221 271 351 405
#     4  10  22  39  68  99 125 174 231 266 332 411
#
# _framework density 24.991377
#
# number of rings (size 3 to 8) (size 9 to 14) (size 15 to 20)
#    0.000    1.714    1.429    1.714    6.000    6.286 
#    2.571    0.714    0.000    0.000    0.000    0.000 
#    0.000    0.000    0.000    0.000    0.000    0.000 
#
# Total GULP energy -78109.136820 kJ/mol
# GULP energy per Si atom -5579.224059 kJ/mol
# Density = 2.493450 g / cm^3
# Si number density = 24.991377 Si / 1000 Ang^3
#
#
#
# Elastic Constant Matrix: (Units=GPa)
#
#
# Indices 1 2 3 4 5 6 
#
# 1 95.7563 15.3425 30.0355 16.3805 -0.7594 13.5737
# 2 15.3425 72.1603 24.0325 8.9424 9.7214 24.2714
# 3 30.0355 24.0325 107.4615 6.4619 29.9051 6.7404
# 4 16.3805 8.9424 6.4619 30.5566 7.6766 13.5714
# 5 -0.7594 9.7214 29.9051 7.6766 42.5988 6.9918
# 6 13.5737 24.2714 6.7404 13.5714 6.9918 35.5783
#
#
#
# Elastic Compliance Matrix: (Units=1/GPa)
#
#
# Indices 1 2 3 4 5 6 
#
# 1 0.013400 -0.000368 -0.004531 -0.006223 0.005056 -0.002623
# 2 -0.000368 0.019240 -0.003442 0.000943 -0.000070 -0.012679
# 3 -0.004531 -0.003442 0.013773 0.001766 -0.009726 0.002705
# 4 -0.006223 0.000943 0.001766 0.043294 -0.007116 -0.013720
# 5 0.005056 -0.000070 -0.009726 -0.007116 0.032294 -0.003671
# 6 -0.002623 -0.012679 0.002705 -0.013720 -0.003671 0.043199
#
#
# Mechanical properties :
#
#
# Convention : Reuss Voigt Hill
#
# Bulk Modulus (GPa) = 33.63562 46.02211 39.82886
# Shear Modulus (GPa) = 26.07009 35.47794 30.77401
#
# Velocity S-wave (km/s) = 3.23331 3.77185 3.51292
# Velocity P-wave (km/s) = 5.23709 6.11755 5.69436
#
# Compressibility (1/GPa) = 0.02973039
#
# Stress axis : x y z
#
# Youngs Moduli (GPa) = 74.62843 51.97597 72.60744
#
# Poissons Ratio (x) = 0.01911 0.32900
# Poissons Ratio (y) = 0.02744 0.24991
# Poissons Ratio (z) = 0.33816 0.17890
#
# Static dielectric constant tensor:
#      x y z
#    x 1.986070 0.010100 -0.002740 
#    y 0.010100 2.105350 0.038800 
#    z -0.002740 0.038800 2.116560 
# 
# From -- ./inp_files/319453.got.cif
#   From: 2010.05.17/outbox.cif.g08.bks.cpg/sg2_160_cif.got.tgz:319453.got - 2010.06.03 11:33:40.
