data_PCOD9023849
_publ_section_title
;
Structure prediction by ZEFSAII (Michael W. Deem and Ramdas Pophale) SiO2 
 PCOD9023849
Probable space group: P -1
;
_chemical_formula_sum "Si O2"
_cell_formula_units_Z 16
_cell_length_a 11.656534
_cell_length_b 18.019950
_cell_length_c 20.253443
_cell_angle_alpha 19.582200
_cell_angle_beta 147.907259
_cell_angle_gamma 148.007189
_cell_volume 727.155172
_symmetry_space_group_name_H-M "P -1"
_symmetry_group_IT_number 2
_symmetry_cell_setting 'triclinic'
loop_
_space_group_symop_operation_xyz
x,y,z
-x,-y,-z
loop_
_atom_site_type_symbol
_atom_site_label
_atom_site_fract_x
_atom_site_fract_y
_atom_site_fract_z
Si Si1 0.252031 0.967988 0.985481
Si Si2 0.354619 0.945583 0.658791
Si Si3 0.460442 0.811960 0.328897
Si Si4 0.939937 0.016158 0.327593
Si Si5 0.615131 0.385351 0.751302
Si Si6 0.892591 0.115041 0.603729
Si Si7 0.468986 0.732134 0.759064
Si Si8 0.035189 0.515258 0.926146
O O1 0.265790 0.894960 0.128832
O O2 0.287847 0.747784 0.146654
O O3 0.470897 0.177852 0.899583
O O4 0.047919 0.064433 0.780600
O O5 0.443142 0.886423 0.681111
O O6 0.256869 0.702586 0.853467
O O7 0.135866 0.030133 0.463936
O O8 0.519142 0.128611 0.633382
O O9 0.699816 0.962476 0.288986
O O10 0.457637 0.553746 0.522490
O O11 0.951317 0.837266 0.425715
O O12 0.006849 0.248606 0.122580
O O13 0.825043 0.552491 0.752578
O O14 0.748081 0.299403 0.368290
O O15 0.684753 0.881081 0.700151
O O16 0.500000 0.500000 0.000000
O O17 0.000000 0.500000 0.000000
#
# Coordination Sequence:
#
# PCOD9023849 Si02
#       8
#     2   2   2   2   2   2   2   2
#     4  11  22  39  56  85 127 163 198 239 288 368
#     4  11  23  37  60  91 124 156 201 250 304 349
#     4  12  22  36  56  92 128 163 193 237 299 369
#     4  11  19  34  58  86 124 153 193 241 294 357
#     4  11  22  35  55  88 126 165 199 227 294 362
#     4  10  22  40  62  85 112 155 201 253 296 342
#     4  10  23  42  66  87 112 148 209 261 299 348
#     4  12  19  32  56  85 124 160 187 238 295 352
#
# _framework density 22.003557000000001
#
# number of rings (size 3 to 8) (size 9 to 14) (size 15 to 20)
#    0.000    1.000    5.000    3.000    0.000    1.000 
#    0.000    0.625    0.000    1.500    0.000    0.000 
#    0.000    0.000    0.000    0.000    0.000    0.000 
#
# Total GULP energy -89187.544367 kJ/mol
# GULP energy per Si atom -5574.221523 kJ/mol
# Density = 2.195348 g / cm^3
# Si number density = 22.003557 Si / 1000 Ang^3
#
#
#
# Elastic Constant Matrix: (Units=GPa)
#
#
# Indices 1 2 3 4 5 6 
#
# 1 67.2357 11.9366 3.3244 4.5609 -0.9243 -5.7101
# 2 11.9366 67.3048 31.7633 16.2049 3.1334 -21.8175
# 3 3.3244 31.7633 138.0514 24.9692 -11.5832 -15.5391
# 4 4.5609 16.2049 24.9692 44.3337 -1.8869 -13.0807
# 5 -0.9243 3.1334 -11.5832 -1.8869 26.0045 7.0774
# 6 -5.7101 -21.8175 -15.5391 -13.0807 7.0774 19.1430
#
#
#
# Elastic Compliance Matrix: (Units=1/GPa)
#
#
# Indices 1 2 3 4 5 6 
#
# 1 0.015451 -0.002248 0.000486 -0.000441 0.000469 0.001966
# 2 -0.002248 0.029191 -0.004223 0.001948 -0.015164 0.036109
# 3 0.000486 -0.004223 0.009124 -0.003952 0.004773 -0.001726
# 4 -0.000441 0.001948 -0.003952 0.030267 -0.005713 0.021675
# 5 0.000469 -0.015164 0.004773 -0.005713 0.051907 -0.036363
# 6 0.001966 0.036109 -0.001726 0.021675 -0.036363 0.120833
#
#
# Mechanical properties :
#
#
# Convention : Reuss Voigt Hill
#
# Bulk Modulus (GPa) = 23.92461 40.73783 32.33122
# Shear Modulus (GPa) = 17.68812 32.93408 25.31110
#
# Velocity S-wave (km/s) = 2.83835 3.87300 3.39531
# Velocity P-wave (km/s) = 4.65170 6.20923 5.48602
#
# Compressibility (1/GPa) = 0.04179797
#
# Stress axis : x y z
#
# Youngs Moduli (GPa) = 64.71876 34.25697 109.59524
#
# Poissons Ratio (x) = 0.07700 -0.05322
# Poissons Ratio (y) = 0.14546 0.46277
# Poissons Ratio (z) = -0.03143 0.14465
#
# Static dielectric constant tensor:
#      x y z
#    x 1.819530 -0.063560 0.034860 
#    y -0.063560 1.880770 -0.015740 
#    z 0.034860 -0.015740 1.948850 
# 
# From -- ./inp_files/595979.got.cif
#   From: 2010.05.17/outbox.cif.g08.bks.cpg/sg2_298_cif.got.tgz:595979.got - 2010.06.03 11:33:40.
