data_PCOD9023816
_publ_section_title
;
Structure prediction by ZEFSAII (Michael W. Deem and Ramdas Pophale) SiO2 
 PCOD9023816
Probable space group: P -1
;
_chemical_formula_sum "Si O2"
_cell_formula_units_Z 16
_cell_length_a 5.071816
_cell_length_b 11.961106
_cell_length_c 13.276245
_cell_angle_alpha 108.680658
_cell_angle_beta 66.925261
_cell_angle_gamma 110.688952
_cell_volume 677.532510
_symmetry_space_group_name_H-M "P -1"
_symmetry_group_IT_number 2
_symmetry_cell_setting 'triclinic'
loop_
_space_group_symop_operation_xyz
x,y,z
-x,-y,-z
loop_
_atom_site_type_symbol
_atom_site_label
_atom_site_fract_x
_atom_site_fract_y
_atom_site_fract_z
Si Si1 0.360297 0.516901 0.174887
Si Si2 0.259156 0.248766 0.925708
Si Si3 0.866302 0.394108 0.068863
Si Si4 0.659009 0.888931 0.920324
Si Si5 0.133558 0.053189 0.389349
Si Si6 0.404877 0.286202 0.311251
Si Si7 0.269144 0.015205 0.755753
Si Si8 0.019998 0.551851 0.623728
O O1 0.511977 0.623500 0.105257
O O2 0.095869 0.420316 0.132606
O O3 0.332686 0.605786 0.648962
O O4 0.198376 0.553081 0.305736
O O5 0.281320 0.155543 0.809240
O O6 0.325871 0.190393 0.004090
O O7 0.931352 0.271688 0.980651
O O8 0.579786 0.436856 0.152994
O O9 0.000000 0.500000 0.000000
O O10 0.525918 0.798934 0.817552
O O11 0.006041 0.947119 0.852730
O O12 0.500000 0.000000 0.000000
O O13 0.396655 0.996948 0.291003
O O14 0.862203 0.029557 0.345552
O O15 0.292878 0.196309 0.396659
O O16 0.000000 0.000000 0.500000
O O17 0.131693 0.335745 0.328965
O O18 0.000000 0.500000 0.500000
#
# Coordination Sequence:
#
# PCOD9023816 Si02
#       8
#     2   2   2   2   2   2   2   2
#     4  11  25  41  65  97 133 176 237 279 332 416
#     4  11  23  41  67  99 142 184 218 286 348 410
#     4  10  22  40  61  95 132 174 220 272 339 411
#     4  11  25  45  71 109 148 188 233 283 355 444
#     4  11  25  47  72  99 131 177 236 293 347 413
#     4  11  25  47  72  99 139 183 223 288 357 410
#     4  11  25  42  66 104 137 176 232 281 348 430
#     4  12  27  47  69 100 136 182 238 290 344 410
#
# _framework density 23.615102
#
# number of rings (size 3 to 8) (size 9 to 14) (size 15 to 20)
#    0.000    1.000    0.000    7.125    0.000   13.000 
#    0.000    0.000    0.000    0.000    0.000    0.000 
#    0.000    0.000    0.000    0.000    0.000    0.000 
#
# Total GULP energy -89331.284837 kJ/mol
# GULP energy per Si atom -5583.205302 kJ/mol
# Density = 2.356135 g / cm^3
# Si number density = 23.615102 Si / 1000 Ang^3
#
#
#
# Elastic Constant Matrix: (Units=GPa)
#
#
# Indices 1 2 3 4 5 6 
#
# 1 100.1382 12.7373 -1.8803 7.1382 -2.0802 -4.0856
# 2 12.7373 104.7032 25.9496 -9.1773 -0.2651 -10.8294
# 3 -1.8803 25.9496 102.4058 -21.3882 6.6929 -2.9063
# 4 7.1382 -9.1773 -21.3882 43.4575 -1.9978 4.0859
# 5 -2.0802 -0.2651 6.6929 -1.9978 31.3803 1.9393
# 6 -4.0856 -10.8294 -2.9063 4.0859 1.9393 39.1797
#
#
#
# Elastic Compliance Matrix: (Units=1/GPa)
#
#
# Indices 1 2 3 4 5 6 
#
# 1 0.010351 -0.001369 0.000115 -0.001995 0.000468 0.000894
# 2 -0.001369 0.010681 -0.002470 0.001050 0.000439 0.002495
# 3 0.000115 -0.002470 0.011589 0.005087 -0.002147 -0.000235
# 4 -0.001995 0.001050 0.005087 0.026310 0.000610 -0.002314
# 5 0.000468 0.000439 -0.002147 0.000610 0.032501 -0.001661
# 6 0.000894 0.002495 -0.000235 -0.002314 -0.001661 0.026612
#
#
# Mechanical properties :
#
#
# Convention : Reuss Voigt Hill
#
# Bulk Modulus (GPa) = 39.72556 42.31783 41.02169
# Shear Modulus (GPa) = 37.34603 40.83287 39.08945
#
# Velocity S-wave (km/s) = 3.98106 4.16276 4.07292
# Velocity P-wave (km/s) = 6.16363 6.40808 6.28704
#
# Compressibility (1/GPa) = 0.02517271
#
# Stress axis : x y z
#
# Youngs Moduli (GPa) = 96.60979 93.62626 86.28786
#
# Poissons Ratio (x) = 0.12816 -0.00992
# Poissons Ratio (y) = 0.13225 0.21314
# Poissons Ratio (z) = -0.01111 0.23127
#
# Static dielectric constant tensor:
#      x y z
#    x 1.947300 0.084810 -0.017460 
#    y 0.084810 2.040600 -0.041520 
#    z -0.017460 -0.041520 2.009980 
# 
# From -- ./inp_files/481639.got.cif
#   From: 2010.05.17/outbox.cif.g08.bks.cpg/sg2_241_cif.got.tgz:481639.got - 2010.06.03 11:33:40.
