data_PCOD9023547
_publ_section_title
;
Structure prediction by ZEFSAII (Michael W. Deem and Ramdas Pophale) SiO2 
 PCOD9023547
Probable space group: P -1
;
_chemical_formula_sum "Si O2"
_cell_formula_units_Z 14
_cell_length_a 12.403012
_cell_length_b 5.002549
_cell_length_c 12.511621
_cell_angle_alpha 109.422129
_cell_angle_beta 65.345363
_cell_angle_gamma 124.512599
_cell_volume 576.548404
_symmetry_space_group_name_H-M "P -1"
_symmetry_group_IT_number 2
_symmetry_cell_setting 'triclinic'
loop_
_space_group_symop_operation_xyz
x,y,z
-x,-y,-z
loop_
_atom_site_type_symbol
_atom_site_label
_atom_site_fract_x
_atom_site_fract_y
_atom_site_fract_z
Si Si1 0.328035 0.678221 0.866926
Si Si2 0.845307 0.505853 0.492799
Si Si3 0.140950 0.837986 0.362230
Si Si4 0.025037 0.212106 0.912176
Si Si5 0.754812 0.956360 0.873684
Si Si6 0.512584 0.371986 0.793456
Si Si7 0.580639 0.382115 0.524027
O O1 0.184815 0.398259 0.837578
O O2 0.402535 0.494616 0.860991
O O3 0.434522 0.981473 0.790116
O O4 0.290051 0.863872 0.997822
O O5 0.794337 0.220463 0.565060
O O6 0.735272 0.473271 0.447537
O O7 0.983612 0.547552 0.391491
O O8 0.873039 0.837421 0.584839
O O9 0.219645 0.860081 0.225779
O O10 0.902163 0.003109 0.852867
O O11 0.000000 0.500000 0.000000
O O12 0.000000 0.000000 0.000000
O O13 0.634035 0.586881 0.854439
O O14 0.575542 0.468468 0.661413
O O15 0.500000 0.500000 0.500000
O O16 0.500000 0.000000 0.500000
#
# Coordination Sequence:
#
# PCOD9023547 Si02
#       7
#     2   2   2   2   2   2   2
#     4  11  25  45  67 106 149 182 229 281 351 429
#     4  10  22  44  62  98 131 167 233 288 345 398
#     4  10  22  39  71  94 129 173 224 296 339 398
#     4  10  23  44  66  95 139 185 231 282 337 407
#     4  11  24  43  74 104 138 190 234 285 348 418
#     4  12  26  44  70 104 144 185 234 288 347 417
#     4  12  26  45  71  97 137 187 232 288 355 421
#
# _framework density 24.282435
#
# number of rings (size 3 to 8) (size 9 to 14) (size 15 to 20)
#    0.000    1.143    1.429    4.286    2.000    8.000 
#    0.000    0.000    0.000    0.000    0.000    0.000 
#    0.000    0.000    0.000    0.000    0.000    0.000 
#
# Total GULP energy -78317.186825 kJ/mol
# GULP energy per Si atom -5594.084773 kJ/mol
# Density = 2.422717 g / cm^3
# Si number density = 24.282435 Si / 1000 Ang^3
#
#
#
# Elastic Constant Matrix: (Units=GPa)
#
#
# Indices 1 2 3 4 5 6 
#
# 1 166.5497 72.4239 4.5773 -4.5835 10.7229 18.0076
# 2 72.4239 103.0839 2.5207 -11.5696 12.7632 9.8783
# 3 4.5773 2.5207 59.1107 -12.2023 0.4966 2.4086
# 4 -4.5835 -11.5696 -12.2023 36.0091 -1.6031 6.1873
# 5 10.7229 12.7632 0.4966 -1.6031 23.1713 -5.2331
# 6 18.0076 9.8783 2.4086 6.1873 -5.2331 66.3915
#
#
#
# Elastic Compliance Matrix: (Units=1/GPa)
#
#
# Indices 1 2 3 4 5 6 
#
# 1 0.008844 -0.005997 -0.000517 -0.000769 -0.001172 -0.001508
# 2 -0.005997 0.015241 0.000839 0.004428 -0.005677 -0.001531
# 3 -0.000517 0.000839 0.018346 0.006624 -0.000452 -0.001303
# 4 -0.000769 0.004428 0.006624 0.031944 -0.000858 -0.003735
# 5 -0.001172 -0.005677 -0.000452 -0.000858 0.047914 0.005036
# 6 -0.001508 -0.001531 -0.001303 -0.003735 0.005036 0.016491
#
#
# Mechanical properties :
#
#
# Convention : Reuss Voigt Hill
#
# Bulk Modulus (GPa) = 32.17540 54.19866 43.18703
# Shear Modulus (GPa) = 31.15461 41.72921 36.44191
#
# Velocity S-wave (km/s) = 3.58580 4.14997 3.87816
# Velocity P-wave (km/s) = 5.51572 6.73287 6.15446
#
# Compressibility (1/GPa) = 0.03107965
#
# Stress axis : x y z
#
# Youngs Moduli (GPa) = 113.07427 65.61437 54.50769
#
# Poissons Ratio (x) = 0.39352 0.02816
# Poissons Ratio (y) = 0.67816 -0.04571
# Poissons Ratio (z) = 0.05841 -0.05503
#
# Static dielectric constant tensor:
#      x y z
#    x 1.966110 0.062100 -0.015160 
#    y 0.062100 1.956500 -0.036990 
#    z -0.015160 -0.036990 1.953630 
# 
# From -- ./inp_files/410769.got.cif
#   From: 2010.05.17/outbox.cif.g08.bks.cpg/sg2_206_cif.got.tgz:410769.got - 2010.06.03 11:33:40.
