data_PCOD9023274
_publ_section_title
;
Structure prediction by ZEFSAII (Michael W. Deem and Ramdas Pophale) SiO2 
 PCOD9023274
Probable space group: P -1
;
_chemical_formula_sum "Si O2"
_cell_formula_units_Z 16
_cell_length_a 11.584109
_cell_length_b 16.764753
_cell_length_c 8.057427
_cell_angle_alpha 45.918568
_cell_angle_beta 103.491337
_cell_angle_gamma 70.266500
_cell_volume 763.380591
_symmetry_space_group_name_H-M "P -1"
_symmetry_group_IT_number 2
_symmetry_cell_setting 'triclinic'
loop_
_space_group_symop_operation_xyz
x,y,z
-x,-y,-z
loop_
_atom_site_type_symbol
_atom_site_label
_atom_site_fract_x
_atom_site_fract_y
_atom_site_fract_z
Si Si1 0.755772 0.458328 0.269171
Si Si2 0.334791 0.306575 0.655704
Si Si3 0.655400 0.915349 0.797748
Si Si4 0.033880 0.644374 0.181255
Si Si5 0.176800 0.820919 0.280848
Si Si6 0.485705 0.612290 0.209895
Si Si7 0.491724 0.771152 0.525023
Si Si8 0.868630 0.175461 0.135381
O O1 0.880755 0.418532 0.513849
O O2 0.837049 0.290632 0.472047
O O3 0.594349 0.515155 0.228042
O O4 0.662528 0.612565 0.905160
O O5 0.138379 0.482050 0.346516
O O6 0.438966 0.327278 0.770614
O O7 0.430524 0.242989 0.604526
O O8 0.342313 0.182076 0.922410
O O9 0.500000 0.000000 0.500000
O O10 0.610357 0.063023 0.654261
O O11 0.832867 0.782899 0.948274
O O12 0.079596 0.730400 0.983367
O O13 0.348318 0.771948 0.455395
O O14 0.175954 0.812371 0.091375
O O15 0.000000 0.000000 0.000000
O O16 0.500000 0.500000 0.500000
O O17 0.289976 0.747552 0.913764
O O18 0.000000 0.000000 0.500000
#
# Coordination Sequence:
#
# PCOD9023274 Si02
#       8
#     2   2   2   2   2   2   2   2
#     4  10  22  39  67  95 131 172 211 258 338 397
#     4  11  23  43  67  95 131 170 219 278 319 380
#     4  12  27  46  69  93 128 179 228 266 327 395
#     4  10  23  45  67  94 130 172 219 271 324 394
#     4  11  23  39  59  98 140 170 207 268 332 389
#     4  11  18  40  66  93 128 167 214 266 321 392
#     4  12  24  42  67  97 132 173 221 273 331 380
#     4  11  23  36  65 100 133 165 213 260 326 392
#
# _framework density 20.959401
#
# number of rings (size 3 to 8) (size 9 to 14) (size 15 to 20)
#    0.000    1.000    5.000    4.125    5.250    1.000 
#    0.000    3.750    0.000    0.000    0.000    0.000 
#    0.000    0.000    0.000    0.000    0.000    0.000 
#
# Total GULP energy -89252.090505 kJ/mol
# GULP energy per Si atom -5578.255657 kJ/mol
# Density = 2.091170 g / cm^3
# Si number density = 20.959401 Si / 1000 Ang^3
#
#
#
# Elastic Constant Matrix: (Units=GPa)
#
#
# Indices 1 2 3 4 5 6 
#
# 1 52.7712 9.9060 16.5970 -3.6065 17.5409 -13.7640
# 2 9.9060 46.5091 10.5048 -13.2054 2.1957 -7.4257
# 3 16.5970 10.5048 128.0530 -15.4177 12.8937 -3.8968
# 4 -3.6065 -13.2054 -15.4177 26.1248 -5.8888 4.6079
# 5 17.5409 2.1957 12.8937 -5.8888 46.2061 -14.1448
# 6 -13.7640 -7.4257 -3.8968 4.6079 -14.1448 30.2117
#
#
#
# Elastic Compliance Matrix: (Units=1/GPa)
#
#
# Indices 1 2 3 4 5 6 
#
# 1 0.024263 -0.003985 -0.002271 -0.002740 -0.006554 0.007131
# 2 -0.003985 0.026545 -0.000337 0.012653 0.003263 0.004264
# 3 -0.002271 -0.000337 0.008788 0.004625 -0.001396 -0.001343
# 4 -0.002740 0.012653 0.004625 0.048533 0.004459 -0.002856
# 5 -0.006554 0.003263 -0.001396 0.004459 0.028017 0.010073
# 6 0.007131 0.004264 -0.001343 -0.002856 0.010073 0.042375
#
#
# Mechanical properties :
#
#
# Convention : Reuss Voigt Hill
#
# Bulk Modulus (GPa) = 21.54647 33.48322 27.51485
# Shear Modulus (GPa) = 24.13407 33.19690 28.66549
#
# Velocity S-wave (km/s) = 3.39701 3.98410 3.70221
# Velocity P-wave (km/s) = 5.06840 6.09705 5.60637
#
# Compressibility (1/GPa) = 0.04641131
#
# Stress axis : x y z
#
# Youngs Moduli (GPa) = 41.21468 37.67174 113.79545
#
# Poissons Ratio (x) = 0.15012 0.25841
# Poissons Ratio (y) = 0.16424 0.03830
# Poissons Ratio (z) = 0.09359 0.01268
#
# Static dielectric constant tensor:
#      x y z
#    x 1.751870 0.029170 -0.023220 
#    y 0.029170 1.793590 0.024460 
#    z -0.023220 0.024460 1.648950 
# 
# From -- ./inp_files/257493.got.cif
#   From: 2010.05.17/outbox.cif.g08.bks.cpg/sg2_129_cif.got.tgz:257493.got - 2010.06.03 11:33:40.
