data_PCOD9023706
_publ_section_title
;
Structure prediction by ZEFSAII (Michael W. Deem and Ramdas Pophale) SiO2 
 PCOD9023706
Probable space group: P -1
;
_chemical_formula_sum "Si O2"
_cell_formula_units_Z 13
_cell_length_a 8.309512
_cell_length_b 13.778674
_cell_length_c 7.624231
_cell_angle_alpha 123.610180
_cell_angle_beta 100.677452
_cell_angle_gamma 122.011494
_cell_volume 453.199828
_symmetry_space_group_name_H-M "P -1"
_symmetry_group_IT_number 2
_symmetry_cell_setting 'triclinic'
loop_
_space_group_symop_operation_xyz
x,y,z
-x,-y,-z
loop_
_atom_site_type_symbol
_atom_site_label
_atom_site_fract_x
_atom_site_fract_y
_atom_site_fract_z
Si Si1 0.985727 0.402354 0.740458
Si Si2 0.687840 0.603973 0.326634
Si Si3 0.500000 0.500000 0.500000
Si Si4 0.866701 0.124057 0.037722
Si Si5 0.290269 0.134443 0.526353
Si Si6 0.439155 0.730460 0.647968
Si Si7 0.569416 0.976429 0.306822
O O1 0.857092 0.394876 0.540606
O O2 0.254353 0.485181 0.841249
O O3 0.801176 0.186415 0.500477
O O4 0.000000 0.500000 0.000000
O O5 0.419665 0.470292 0.236868
O O6 0.769866 0.761997 0.391626
O O7 0.854302 0.701509 0.644736
O O8 0.489150 0.637778 0.654707
O O9 0.327012 0.050741 0.040771
O O10 0.696254 0.142294 0.969834
O O11 0.905280 0.058856 0.814476
O O12 0.509121 0.243158 0.527222
O O13 0.354282 0.109722 0.698474
O O14 0.500000 0.000000 0.500000
#
# Coordination Sequence:
#
# PCOD9023706 Si02
#       7
#     2   2   1   2   2   2   2
#     4  11  24  41  61  91 131 173 211 255 313 392
#     4  11  22  39  66  93 129 167 213 263 318 372
#     4  10  22  40  60  94 132 164 200 264 324 380
#     4   8  17  35  66  92 121 158 210 272 312 372
#     4   8  17  36  64  95 122 155 205 266 318 368
#     4   8  19  38  62  87 133 155 212 259 312 377
#     4   9  17  38  67  89 127 164 205 265 316 376
#
# _framework density 28.684916999999999
#
# number of rings (size 3 to 8) (size 9 to 14) (size 15 to 20)
#    0.923    1.846    1.538    0.462    0.000    6.154 
#    0.000    4.615    3.385    0.000    0.000    0.000 
#    0.000    0.000    0.000    0.000    0.000    0.000 
#
# Total GULP energy -72401.873156 kJ/mol
# GULP energy per Si atom -5569.374858 kJ/mol
# Density = 2.861963 g / cm^3
# Si number density = 28.684917 Si / 1000 Ang^3
#
#
#
# Elastic Constant Matrix: (Units=GPa)
#
#
# Indices 1 2 3 4 5 6 
#
# 1 89.6467 49.1301 57.5570 4.0733 -13.5631 -24.5034
# 2 49.1301 166.9643 49.8693 24.4003 1.6008 -49.2031
# 3 57.5570 49.8693 170.0933 3.1867 -6.9798 -17.6194
# 4 4.0733 24.4003 3.1867 35.5531 3.0760 -1.8288
# 5 -13.5631 1.6008 -6.9798 3.0760 60.8084 1.1940
# 6 -24.5034 -49.2031 -17.6194 -1.8288 1.1940 52.1419
#
#
#
# Elastic Compliance Matrix: (Units=1/GPa)
#
#
# Indices 1 2 3 4 5 6 
#
# 1 0.016992 -0.002532 -0.004460 0.000115 0.003260 0.004018
# 2 -0.002532 0.010389 -0.001279 -0.006243 -0.000826 0.007981
# 3 -0.004460 -0.001279 0.007676 0.000675 -0.000101 -0.000683
# 4 0.000115 -0.006243 0.000675 0.032219 -0.001275 -0.004450
# 5 0.003260 -0.000826 -0.000101 -0.001275 0.017241 0.000279
# 6 0.004018 0.007981 -0.000683 -0.004450 0.000279 0.028205
#
#
# Mechanical properties :
#
#
# Convention : Reuss Voigt Hill
#
# Bulk Modulus (GPa) = 54.01082 82.20192 68.10637
# Shear Modulus (GPa) = 36.91799 47.71053 42.31426
#
# Velocity S-wave (km/s) = 3.59139 4.08274 3.84492
# Velocity P-wave (km/s) = 6.00561 7.13751 6.59588
#
# Compressibility (1/GPa) = 0.01851481
#
# Stress axis : x y z
#
# Youngs Moduli (GPa) = 58.85060 96.25912 130.28051
#
# Poissons Ratio (x) = 0.24372 0.58101
# Poissons Ratio (y) = 0.14900 0.16666
# Poissons Ratio (z) = 0.26246 0.12314
#
# Static dielectric constant tensor:
#      x y z
#    x -0.403950 -2.582510 0.056190 
#    y -2.582510 -0.247680 -0.038820 
#    z 0.056190 -0.038820 2.396570 
# 
# From -- ./inp_files/198702.got.cif
#   From: 2010.05.17/outbox.cif.g08.bks.cpg/sg2_100_cif.got.tgz:198702.got - 2010.06.03 11:33:40.
