data_PCOD9023384
_publ_section_title
;
Structure prediction by ZEFSAII (Michael W. Deem and Ramdas Pophale) SiO2 
 PCOD9023384
Probable space group: P -1
;
_chemical_formula_sum "Si O2"
_cell_formula_units_Z 16
_cell_length_a 14.093960
_cell_length_b 25.648953
_cell_length_c 19.245916
_cell_angle_alpha 18.758028
_cell_angle_beta 159.099572
_cell_angle_gamma 157.197437
_cell_volume 754.856604
_symmetry_space_group_name_H-M "P -1"
_symmetry_group_IT_number 2
_symmetry_cell_setting 'triclinic'
loop_
_space_group_symop_operation_xyz
x,y,z
-x,-y,-z
loop_
_atom_site_type_symbol
_atom_site_label
_atom_site_fract_x
_atom_site_fract_y
_atom_site_fract_z
Si Si1 0.206749 0.329677 0.755022
Si Si2 0.292307 0.810814 0.753805
Si Si3 0.512214 0.657121 0.861058
Si Si4 0.634439 0.594137 0.801193
Si Si5 0.121830 0.523640 0.158464
Si Si6 0.761028 0.679050 0.370462
Si Si7 0.418483 0.844969 0.426920
Si Si8 0.196145 0.004124 0.314845
O O1 0.362496 0.504270 0.681481
O O2 0.170327 0.369990 0.598151
O O3 0.916112 0.221009 0.728792
O O4 0.430470 0.226489 0.038316
O O5 0.160909 0.907784 0.485727
O O6 0.051177 0.627097 0.822297
O O7 0.416563 0.953666 0.716988
O O8 0.425416 0.781154 0.592172
O O9 0.779716 0.799298 0.900849
O O10 0.500000 0.500000 0.000000
O O11 0.351746 0.553540 0.948220
O O12 0.575961 0.745422 0.612440
O O13 0.915691 0.630580 0.902774
O O14 0.424810 0.635844 0.196623
O O15 0.176957 0.430427 0.384866
O O16 0.948814 0.877442 0.259639
O O17 0.500000 0.000000 0.500000
#
# Coordination Sequence:
#
# PCOD9023384 Si02
#       8
#     2   2   2   2   2   2   2   2
#     4  11  20  31  50  78 105 131 168 210 257 299
#     4   9  19  31  50  74 101 135 166 210 251 293
#     4   9  18  32  51  72 100 134 164 198 248 299
#     4  10  20  33  52  75 106 138 164 207 256 302
#     4   9  19  37  55  73  98 132 177 208 246 298
#     4  10  20  33  56  79  98 130 172 215 245 295
#     4  10  19  33  52  76 105 135 170 206 252 302
#     4  10  17  31  52  75  99 126 166 208 249 291
#
# _framework density 21.196079000000001
#
# number of rings (size 3 to 8) (size 9 to 14) (size 15 to 20)
#    0.000    2.250    0.000    5.250    0.000    3.000 
#    0.000    0.000    0.000   26.250    0.000    0.000 
#    0.000    0.000    0.000    0.000    0.000    0.000 
#
# Total GULP energy -89128.728573 kJ/mol
# GULP energy per Si atom -5570.545536 kJ/mol
# Density = 2.114784 g / cm^3
# Si number density = 21.196079 Si / 1000 Ang^3
#
#
#
# Elastic Constant Matrix: (Units=GPa)
#
#
# Indices 1 2 3 4 5 6 
#
# 1 78.6422 70.1522 22.6807 -5.4962 12.1575 -3.6997
# 2 70.1522 183.8507 59.1383 17.4567 35.9881 -3.6714
# 3 22.6807 59.1383 53.7364 -7.1986 2.2480 -1.1393
# 4 -5.4962 17.4567 -7.1986 29.8741 -3.2628 0.9606
# 5 12.1575 35.9881 2.2480 -3.2628 36.2004 2.4766
# 6 -3.6997 -3.6714 -1.1393 0.9606 2.4766 36.8975
#
#
#
# Elastic Compliance Matrix: (Units=1/GPa)
#
#
# Indices 1 2 3 4 5 6 
#
# 1 0.022954 -0.013844 0.007247 0.014805 0.006917 0.000298
# 2 -0.013844 0.025253 -0.024431 -0.025609 -0.021416 0.002475
# 3 0.007247 -0.024431 0.045357 0.029004 0.021824 -0.002524
# 4 0.014805 -0.025609 0.029004 0.060926 0.024409 -0.003393
# 5 0.006917 -0.021416 0.021824 0.024409 0.047751 -0.004604
# 6 0.000298 0.002475 -0.002524 -0.003393 -0.004604 0.027698
#
#
# Mechanical properties :
#
#
# Convention : Reuss Voigt Hill
#
# Bulk Modulus (GPa) = 31.73733 68.90797 50.32265
# Shear Modulus (GPa) = 16.52908 31.54494 24.03701
#
# Velocity S-wave (km/s) = 2.79555 3.86196 3.37119
# Velocity P-wave (km/s) = 5.04241 7.24339 6.24069
#
# Compressibility (1/GPa) = 0.03150864
#
# Stress axis : x y z
#
# Youngs Moduli (GPa) = 43.56516 39.59867 22.04753
#
# Poissons Ratio (x) = 0.54819 -0.15978
# Poissons Ratio (y) = 0.60310 0.53865
# Poissons Ratio (z) = -0.31572 0.96744
#
# Static dielectric constant tensor:
#      x y z
#    x 1.780090 -0.024210 -0.057300 
#    y -0.024210 1.812070 0.027140 
#    z -0.057300 0.027140 1.835690 
# 
# From -- ./inp_files/252806.got.cif
#   From: 2010.05.17/outbox.cif.g08.bks.cpg/sg2_127_cif.got.tgz:252806.got - 2010.06.03 11:33:40.
