data_PCOD9023933
_publ_section_title
;
Structure prediction by ZEFSAII (Michael W. Deem and Ramdas Pophale) SiO2 
 PCOD9023933
Probable space group: P -1
;
_chemical_formula_sum "Si O2"
_cell_formula_units_Z 16
_cell_length_a 5.151295
_cell_length_b 24.692673
_cell_length_c 5.347620
_cell_angle_alpha 71.279837
_cell_angle_beta 83.944040
_cell_angle_gamma 61.450123
_cell_volume 564.952622
_symmetry_space_group_name_H-M "P -1"
_symmetry_group_IT_number 2
_symmetry_cell_setting 'triclinic'
loop_
_space_group_symop_operation_xyz
x,y,z
-x,-y,-z
loop_
_atom_site_type_symbol
_atom_site_label
_atom_site_fract_x
_atom_site_fract_y
_atom_site_fract_z
Si Si1 0.791014 0.415026 0.850041
Si Si2 0.801776 0.057109 0.622113
Si Si3 0.385995 0.662350 0.408591
Si Si4 0.738172 0.539183 0.775963
Si Si5 0.332383 0.785481 0.344872
Si Si6 0.372563 0.159195 0.129861
Si Si7 0.798475 0.907698 0.141425
Si Si8 0.838418 0.711370 0.779076
O O1 0.677231 0.380052 0.720934
O O2 0.778944 0.481965 0.665439
O O3 0.568130 0.436669 0.076449
O O4 0.098928 0.355944 0.997043
O O5 0.528086 0.051689 0.777796
O O6 0.010030 0.060399 0.814364
O O7 0.622470 0.120529 0.369538
O O8 0.000000 0.000000 0.500000
O O9 0.695337 0.607433 0.575461
O O10 0.382856 0.728390 0.231467
O O11 0.109017 0.690751 0.587298
O O12 0.000000 0.500000 0.000000
O O13 0.466805 0.828344 0.143225
O O14 0.529954 0.745763 0.614196
O O15 0.990177 0.835238 0.351019
O O16 0.233921 0.113842 0.106773
O O17 0.161662 0.232603 0.128613
#
# Coordination Sequence:
#
# PCOD9023933 Si02
#       8
#     2   2   2   2   2   2   2   2
#     4  10  22  40  63  96 133 185 244 307 374 444
#     4  12  29  53  81 114 156 200 251 308 370 448
#     4  11  24  41  66  99 139 183 248 306 377 452
#     4  10  22  40  62  91 133 186 238 307 379 443
#     4  12  24  43  70 108 145 190 250 301 377 445
#     4  12  26  47  78 106 154 197 243 315 372 445
#     4  12  26  52  75 119 151 199 255 303 376 447
#     4  11  23  44  67 101 142 189 244 310 374 448
#
# _framework density 28.320959999999999
#
# number of rings (size 3 to 8) (size 9 to 14) (size 15 to 20)
#    0.000    0.750    2.500    4.500    1.750    6.500 
#    2.250    0.000    0.000    0.000    0.000    0.000 
#    0.000    0.000    0.000    0.000    0.000    0.000 
#
# Total GULP energy -89678.585159 kJ/mol
# GULP energy per Si atom -5604.911572 kJ/mol
# Density = 2.825650 g / cm^3
# Si number density = 28.320960 Si / 1000 Ang^3
#
#
#
# Elastic Constant Matrix: (Units=GPa)
#
#
# Indices 1 2 3 4 5 6 
#
# 1 139.3432 61.1112 42.9602 2.3884 26.4373 -1.1960
# 2 61.1112 229.4287 46.2871 14.9902 16.2484 -9.6397
# 3 42.9602 46.2871 96.4169 -11.1207 30.4687 -0.8472
# 4 2.3884 14.9902 -11.1207 70.2505 0.4370 7.4899
# 5 26.4373 16.2484 30.4687 0.4370 56.9586 -1.7373
# 6 -1.1960 -9.6397 -0.8472 7.4899 -1.7373 60.8288
#
#
#
# Elastic Compliance Matrix: (Units=1/GPa)
#
#
# Indices 1 2 3 4 5 6 
#
# 1 0.009186 -0.001753 -0.002524 -0.000305 -0.002416 -0.000164
# 2 -0.001753 0.005359 -0.002101 -0.001524 0.000451 0.000986
# 3 -0.002524 -0.002101 0.014800 0.002992 -0.006191 -0.000722
# 4 -0.000305 -0.001524 0.002992 0.015278 -0.001206 -0.002122
# 5 -0.002416 0.000451 -0.006191 -0.001206 0.021892 0.000711
# 6 -0.000164 0.000986 -0.000722 -0.002122 0.000711 0.016864
#
#
# Mechanical properties :
#
#
# Convention : Reuss Voigt Hill
#
# Bulk Modulus (GPa) = 60.28679 85.10064 72.69372
# Shear Modulus (GPa) = 49.18100 58.59626 53.88863
#
# Velocity S-wave (km/s) = 4.17172 4.55357 4.36682
# Velocity P-wave (km/s) = 6.67365 7.60003 7.15186
#
# Compressibility (1/GPa) = 0.01658738
#
# Stress axis : x y z
#
# Youngs Moduli (GPa) = 108.86192 186.61483 67.56639
#
# Poissons Ratio (x) = 0.32720 0.17057
# Poissons Ratio (y) = 0.19087 0.14195
# Poissons Ratio (z) = 0.27482 0.39206
#
# Static dielectric constant tensor:
#      x y z
#    x 2.287560 0.076890 -0.051920 
#    y 0.076890 2.168580 -0.012080 
#    z -0.051920 -0.012080 2.297440 
# 
# From -- ./inp_files/14568.got.cif
#   From: 2010.05.17/outbox.cif.g08.bks.cpg/sg2_8_cif.got.tgz:14568.got - 2010.06.03 11:33:40.
