data_PCOD9023346
_publ_section_title
;
Structure prediction by ZEFSAII (Michael W. Deem and Ramdas Pophale) SiO2 
 PCOD9023346
Probable space group: P -1
;
_chemical_formula_sum "Si O2"
_cell_formula_units_Z 15
_cell_length_a 14.655859
_cell_length_b 5.324791
_cell_length_c 11.145897
_cell_angle_alpha 123.140589
_cell_angle_beta 60.585711
_cell_angle_gamma 122.390445
_cell_volume 590.338256
_symmetry_space_group_name_H-M "P -1"
_symmetry_group_IT_number 2
_symmetry_cell_setting 'triclinic'
loop_
_space_group_symop_operation_xyz
x,y,z
-x,-y,-z
loop_
_atom_site_type_symbol
_atom_site_label
_atom_site_fract_x
_atom_site_fract_y
_atom_site_fract_z
Si Si1 0.516026 0.730954 0.727733
Si Si2 0.727393 0.085354 0.820843
Si Si3 0.717910 0.604736 0.136586
Si Si4 0.911538 0.086820 0.999336
Si Si5 0.000000 0.000000 0.500000
Si Si6 0.163493 0.415457 0.706667
Si Si7 0.148345 0.353786 0.295931
Si Si8 0.401613 0.754093 0.577744
O O1 0.414182 0.465109 0.794182
O O2 0.444118 0.844325 0.709216
O O3 0.589080 0.583467 0.559566
O O4 0.602823 0.988006 0.823219
O O5 0.811678 0.322705 0.727799
O O6 0.752735 0.763384 0.747570
O O7 0.736385 0.287403 0.989124
O O8 0.773086 0.694617 0.255632
O O9 0.786418 0.864992 0.065052
O O10 0.914461 0.433150 0.129025
O O11 0.915277 0.943275 0.829605
O O12 0.000000 0.000000 0.000000
O O13 0.089938 0.160319 0.593323
O O14 0.070280 0.314284 0.450446
O O15 0.269503 0.683571 0.638768
O O16 0.500000 0.000000 0.500000
#
# Coordination Sequence:
#
# PCOD9023346 Si02
#       8
#     2   2   2   2   1   2   2   2
#     4  10  22  39  68 103 142 191 237 302 366 442
#     4  11  24  46  74 105 148 190 248 300 374 437
#     4  10  22  44  67 105 140 188 247 296 370 432
#     4  11  24  45  74  99 138 197 246 309 364 439
#     4  12  28  44  70 108 142 196 246 306 370 438
#     4  11  24  45  69 103 144 188 249 301 367 441
#     4  11  27  48  70 108 146 196 241 310 368 438
#     4  10  22  41  67 100 145 190 235 298 369 438
#
# _framework density 25.409162999999999
#
# number of rings (size 3 to 8) (size 9 to 14) (size 15 to 20)
#    0.000    1.333    1.333    2.800    7.467    1.600 
#    2.400    2.000    0.000    0.000    0.000    0.000 
#    0.000    0.000    0.000    0.000    0.000    0.000 
#
# Total GULP energy -83560.250522 kJ/mol
# GULP energy per Si atom -5570.683368 kJ/mol
# Density = 2.535133 g / cm^3
# Si number density = 25.409163 Si / 1000 Ang^3
#
#
#
# Elastic Constant Matrix: (Units=GPa)
#
#
# Indices 1 2 3 4 5 6 
#
# 1 86.9722 28.2384 31.0306 7.1296 24.4162 19.8246
# 2 28.2384 68.9828 18.8319 -18.4427 21.3922 15.5031
# 3 31.0306 18.8319 83.9012 -21.2337 8.9476 5.3767
# 4 7.1296 -18.4427 -21.2337 45.7230 3.2060 -0.2585
# 5 24.4162 21.3922 8.9476 3.2060 50.4434 14.7762
# 6 19.8246 15.5031 5.3767 -0.2585 14.7762 44.9542
#
#
#
# Elastic Compliance Matrix: (Units=1/GPa)
#
#
# Indices 1 2 3 4 5 6 
#
# 1 0.018503 -0.005855 -0.006981 -0.008269 -0.003476 -0.004211
# 2 -0.005855 0.022234 0.000765 0.010678 -0.006541 -0.002966
# 3 -0.006981 0.000765 0.016673 0.009204 -0.000823 0.001144
# 4 -0.008269 0.010678 0.009204 0.032048 -0.004334 0.000472
# 5 -0.003476 -0.006541 -0.000823 -0.004334 0.026082 -0.004711
# 6 -0.004211 -0.002966 0.001144 0.000472 -0.004711 0.026539
#
#
# Mechanical properties :
#
#
# Convention : Reuss Voigt Hill
#
# Bulk Modulus (GPa) = 30.05946 44.00644 37.03295
# Shear Modulus (GPa) = 28.19892 39.00780 33.60336
#
# Velocity S-wave (km/s) = 3.33497 3.92240 3.64055
# Velocity P-wave (km/s) = 5.16577 6.15389 5.68135
#
# Compressibility (1/GPa) = 0.03326739
#
# Stress axis : x y z
#
# Youngs Moduli (GPa) = 54.04439 44.97593 59.97739
#
# Poissons Ratio (x) = 0.26334 0.41873
# Poissons Ratio (y) = 0.31644 -0.04589
# Poissons Ratio (z) = 0.37731 -0.03441
#
# Static dielectric constant tensor:
#      x y z
#    x 2.038980 -0.063910 -0.080760 
#    y -0.063910 2.217000 -0.056680 
#    z -0.080760 -0.056680 2.095000 
# 
# From -- ./inp_files/441416.got.cif
#   From: 2010.05.17/outbox.cif.g08.bks.cpg/sg2_221_cif.got.tgz:441416.got - 2010.06.03 11:33:40.
