data_PCOD9023537
_publ_section_title
;
Structure prediction by ZEFSAII (Michael W. Deem and Ramdas Pophale) SiO2 
 PCOD9023537
Probable space group: P -1
;
_chemical_formula_sum "Si O2"
_cell_formula_units_Z 14
_cell_length_a 8.916400
_cell_length_b 23.173126
_cell_length_c 5.778246
_cell_angle_alpha 124.983025
_cell_angle_beta 116.450077
_cell_angle_gamma 34.392547
_cell_volume 551.552214
_symmetry_space_group_name_H-M "P -1"
_symmetry_group_IT_number 2
_symmetry_cell_setting 'triclinic'
loop_
_space_group_symop_operation_xyz
x,y,z
-x,-y,-z
loop_
_atom_site_type_symbol
_atom_site_label
_atom_site_fract_x
_atom_site_fract_y
_atom_site_fract_z
Si Si1 0.931312 0.670403 0.459348
Si Si2 0.834204 0.192392 0.835132
Si Si3 0.663133 0.631270 0.389563
Si Si4 0.271662 0.120490 0.240900
Si Si5 0.369596 0.829378 0.971269
Si Si6 0.797271 0.430112 0.087357
Si Si7 0.187783 0.035337 0.333804
O O1 0.835025 0.621420 0.308246
O O2 0.702626 0.805158 0.606945
O O3 0.056691 0.637287 0.211079
O O4 0.095691 0.628546 0.718920
O O5 0.624006 0.294452 0.750162
O O6 0.668889 0.186154 0.834295
O O7 0.085009 0.074657 0.612664
O O8 0.976132 0.200316 0.120977
O O9 0.589890 0.711398 0.723843
O O10 0.790684 0.517413 0.294811
O O11 0.259928 0.088508 0.411134
O O12 0.500000 0.000000 0.000000
O O13 0.394167 0.904897 0.140099
O O14 0.082874 0.901398 0.833534
O O15 0.500000 0.500000 0.000000
#
# Coordination Sequence:
#
# PCOD9023537 Si02
#       7
#     2   2   2   2   2   2   2
#     4  12  29  49  76 113 151 192 249 308 371 440
#     4  10  22  39  71 100 147 191 249 297 371 437
#     4  11  25  45  74 106 144 190 245 308 371 437
#     4  11  25  44  67 103 150 195 247 301 370 443
#     4   9  19  35  65  97 140 178 239 290 362 425
#     4  12  29  51  81 108 148 195 250 307 375 440
#     4   9  19  37  59  97 136 188 237 295 351 433
#
# _framework density 25.382909000000001
#
# number of rings (size 3 to 8) (size 9 to 14) (size 15 to 20)
#    0.000    1.429    0.000    3.429   12.000    4.000 
#    0.000    0.000    0.000    0.000    0.000    0.000 
#    0.000    0.000    0.000    0.000    0.000    0.000 
#
# Total GULP energy -78239.900697 kJ/mol
# GULP energy per Si atom -5588.564335 kJ/mol
# Density = 2.532514 g / cm^3
# Si number density = 25.382909 Si / 1000 Ang^3
#
#
#
# Elastic Constant Matrix: (Units=GPa)
#
#
# Indices 1 2 3 4 5 6 
#
# 1 84.5382 29.9717 39.5741 7.5142 0.8394 15.3254
# 2 29.9717 151.5463 65.5316 4.2576 3.5075 24.0091
# 3 39.5741 65.5316 100.4194 -16.7461 -9.1065 10.0006
# 4 7.5142 4.2576 -16.7461 51.6151 -9.4868 15.8786
# 5 0.8394 3.5075 -9.1065 -9.4868 54.5442 6.2047
# 6 15.3254 24.0091 10.0006 15.8786 6.2047 39.8384
#
#
#
# Elastic Compliance Matrix: (Units=1/GPa)
#
#
# Indices 1 2 3 4 5 6 
#
# 1 0.015904 0.000582 -0.007271 -0.004266 -0.001938 -0.002641
# 2 0.000582 0.010227 -0.007198 -0.002631 -0.001959 -0.003226
# 3 -0.007271 -0.007198 0.020045 0.010146 0.006013 -0.002877
# 4 -0.004266 -0.002631 0.010146 0.028743 0.008301 -0.012069
# 5 -0.001938 -0.001959 0.006013 0.008301 0.021650 -0.006264
# 6 -0.002641 -0.003226 -0.002877 -0.012069 -0.006264 0.034570
#
#
# Mechanical properties :
#
#
# Convention : Reuss Voigt Hill
#
# Bulk Modulus (GPa) = 54.34670 67.40652 60.87661
# Shear Modulus (GPa) = 30.29444 42.62797 36.46120
#
# Velocity S-wave (km/s) = 3.45845 4.10249 3.79416
# Velocity P-wave (km/s) = 6.11597 7.00386 6.57492
#
# Compressibility (1/GPa) = 0.01840038
#
# Stress axis : x y z
#
# Youngs Moduli (GPa) = 62.87815 97.78467 49.88746
#
# Poissons Ratio (x) = -0.05693 0.36276
# Poissons Ratio (y) = -0.03661 0.35910
# Poissons Ratio (z) = 0.45722 0.70387
#
# Static dielectric constant tensor:
#      x y z
#    x 2.036910 -0.029380 0.020010 
#    y -0.029380 2.029720 -0.118780 
#    z 0.020010 -0.118780 2.130470 
# 
# From -- ./inp_files/53832.got.cif
#   From: 2010.05.17/outbox.cif.g08.bks.cpg/sg2_27_cif.got.tgz:53832.got - 2010.06.03 11:33:40.
