data_PCOD9023248
_publ_section_title
;
Structure prediction by ZEFSAII (Michael W. Deem and Ramdas Pophale) SiO2 
 PCOD9023248
Probable space group: P -1
;
_chemical_formula_sum "Si O2"
_cell_formula_units_Z 16
_cell_length_a 8.932312
_cell_length_b 10.047160
_cell_length_c 16.804858
_cell_angle_alpha 87.067554
_cell_angle_beta 138.090708
_cell_angle_gamma 123.139108
_cell_volume 650.983706
_symmetry_space_group_name_H-M "P -1"
_symmetry_group_IT_number 2
_symmetry_cell_setting 'triclinic'
loop_
_space_group_symop_operation_xyz
x,y,z
-x,-y,-z
loop_
_atom_site_type_symbol
_atom_site_label
_atom_site_fract_x
_atom_site_fract_y
_atom_site_fract_z
Si Si1 0.688089 0.151644 0.347063
Si Si2 0.225177 0.364236 0.967249
Si Si3 0.836366 0.296540 0.674941
Si Si4 0.697218 0.934636 0.172434
Si Si5 0.112275 0.382408 0.358975
Si Si6 0.937653 0.120546 0.599803
Si Si7 0.937800 0.965696 0.847971
Si Si8 0.089506 0.765230 0.004202
O O1 0.870077 0.140792 0.484033
O O2 0.452965 0.155776 0.298705
O O3 0.987753 0.342039 0.402105
O O4 0.410258 0.955780 0.183191
O O5 0.901928 0.268887 0.789394
O O6 0.196145 0.418005 0.041053
O O7 0.500000 0.500000 0.000000
O O8 0.175700 0.186749 0.976794
O O9 0.931466 0.493457 0.701056
O O10 0.026739 0.288216 0.685895
O O11 0.429080 0.098666 0.504383
O O12 0.860953 0.156220 0.230771
O O13 0.881020 0.953995 0.168430
O O14 0.283495 0.758602 0.018176
O O15 0.815845 0.893846 0.292766
O O16 0.500000 0.500000 0.500000
O O17 0.961646 0.834769 0.902777
#
# Coordination Sequence:
#
# PCOD9023248 Si02
#       8
#     2   2   2   2   2   2   2   2
#     4  10  22  39  67  93 125 171 215 258 315 394
#     4  11  23  39  66  93 125 169 217 264 317 377
#     4  11  22  40  65  95 128 167 212 261 321 386
#     4  11  23  42  68  93 130 169 213 270 322 378
#     4  11  25  39  59  97 134 160 201 269 332 369
#     4  11  20  42  70  92 126 169 219 255 317 395
#     4  11  21  44  67  91 122 175 223 254 311 392
#     4  10  23  40  63  95 125 169 217 260 321 380
#
# _framework density 24.578188999999998
#
# number of rings (size 3 to 8) (size 9 to 14) (size 15 to 20)
#    0.000    1.250    5.000    2.625    5.250    3.500 
#    0.000    0.625    0.000    0.000    0.000    0.000 
#    0.000    0.000    0.000    0.000    0.000    0.000 
#
# Total GULP energy -89370.543089 kJ/mol
# GULP energy per Si atom -5585.658943 kJ/mol
# Density = 2.452225 g / cm^3
# Si number density = 24.578189 Si / 1000 Ang^3
#
#
#
# Elastic Constant Matrix: (Units=GPa)
#
#
# Indices 1 2 3 4 5 6 
#
# 1 136.4022 24.9587 26.8503 -5.1478 35.4898 31.4729
# 2 24.9587 96.3033 33.2934 -20.5847 19.6860 -12.7668
# 3 26.8503 33.2934 51.8048 -27.7472 9.2017 8.7857
# 4 -5.1478 -20.5847 -27.7472 43.4770 1.9534 1.5685
# 5 35.4898 19.6860 9.2017 1.9534 41.8355 2.9638
# 6 31.4729 -12.7668 8.7857 1.5685 2.9638 47.7856
#
#
#
# Elastic Compliance Matrix: (Units=1/GPa)
#
#
# Indices 1 2 3 4 5 6 
#
# 1 0.011966 -0.001500 -0.002758 -0.000419 -0.008305 -0.007246
# 2 -0.001500 0.016263 -0.009143 0.001648 -0.004961 0.007268
# 3 -0.002758 -0.009143 0.039847 0.021194 -0.002510 -0.008492
# 4 -0.000419 0.001648 0.021194 0.037697 -0.006557 -0.004011
# 5 -0.008305 -0.004961 -0.002510 -0.006557 0.033949 0.002716
# 6 -0.007246 0.007268 -0.008492 -0.004011 0.002716 0.029165
#
#
# Mechanical properties :
#
#
# Convention : Reuss Voigt Hill
#
# Bulk Modulus (GPa) = 24.22909 50.52392 37.37650
# Shear Modulus (GPa) = 23.87238 39.91348 31.89293
#
# Velocity S-wave (km/s) = 3.11992 4.03418 3.60614
# Velocity P-wave (km/s) = 4.78100 6.50389 5.70782
#
# Compressibility (1/GPa) = 0.04127271
#
# Stress axis : x y z
#
# Youngs Moduli (GPa) = 83.57304 61.48770 25.09619
#
# Poissons Ratio (x) = 0.09223 0.06922
# Poissons Ratio (y) = 0.12535 0.22946
# Poissons Ratio (z) = 0.23052 0.56220
#
# Static dielectric constant tensor:
#      x y z
#    x 2.087310 -0.010500 0.010950 
#    y -0.010500 1.918390 0.085660 
#    z 0.010950 0.085660 2.010680 
# 
# From -- ./inp_files/278966.got.cif
#   From: 2010.05.17/outbox.cif.g08.bks.cpg/sg2_140_cif.got.tgz:278966.got - 2010.06.03 11:33:40.
