data_PCOD9023499
_publ_section_title
;
Structure prediction by ZEFSAII (Michael W. Deem and Ramdas Pophale) SiO2 
 PCOD9023499
Probable space group: P -1
;
_chemical_formula_sum "Si O2"
_cell_formula_units_Z 14
_cell_length_a 8.193921
_cell_length_b 19.759039
_cell_length_c 9.303224
_cell_angle_alpha 133.352585
_cell_angle_beta 59.163026
_cell_angle_gamma 146.109643
_cell_volume 604.593523
_symmetry_space_group_name_H-M "P -1"
_symmetry_group_IT_number 2
_symmetry_cell_setting 'triclinic'
loop_
_space_group_symop_operation_xyz
x,y,z
-x,-y,-z
loop_
_atom_site_type_symbol
_atom_site_label
_atom_site_fract_x
_atom_site_fract_y
_atom_site_fract_z
Si Si1 0.180048 0.471302 0.886547
Si Si2 0.769823 0.669789 0.550426
Si Si3 0.654232 0.354461 0.421432
Si Si4 0.756886 0.768895 0.003405
Si Si5 0.258843 0.064387 0.367143
Si Si6 0.650108 0.233770 0.962713
Si Si7 0.393490 0.952582 0.640344
O O1 0.179156 0.416333 0.653765
O O2 0.969727 0.337847 0.897262
O O3 0.515245 0.624185 0.000980
O O4 0.000000 0.500000 0.000000
O O5 0.494450 0.602691 0.485656
O O6 0.047198 0.831161 0.605998
O O7 0.772972 0.704636 0.765377
O O8 0.000000 0.500000 0.500000
O O9 0.445485 0.215759 0.422043
O O10 0.656687 0.301127 0.193523
O O11 0.580967 0.798386 0.083376
O O12 0.072636 0.922378 0.142408
O O13 0.499916 0.098876 0.402037
O O14 0.000000 0.000000 0.500000
O O15 0.524455 0.089520 0.860754
O O16 0.500000 0.000000 0.500000
#
# Coordination Sequence:
#
# PCOD9023499 Si02
#       7
#     2   2   2   2   2   2   2
#     4  10  22  39  70 105 143 192 240 291 354 430
#     4  11  23  44  74 100 145 194 238 293 368 425
#     4  11  27  48  72 108 149 187 240 303 361 428
#     4  10  23  43  68 106 144 187 244 292 357 432
#     4  12  28  44  72 107 147 189 244 303 358 425
#     4  10  22  43  70 101 145 193 234 292 363 426
#     4  12  24  44  73 102 140 190 243 293 359 437
#
# _framework density 23.156054999999999
#
# number of rings (size 3 to 8) (size 9 to 14) (size 15 to 20)
#    0.000    1.143    1.429    3.857    4.000    9.143 
#    0.000    1.429    0.000    0.000    0.000    0.000 
#    0.000    0.000    0.000    0.000    0.000    0.000 
#
# Total GULP energy -78093.801245 kJ/mol
# GULP energy per Si atom -5578.128660 kJ/mol
# Density = 2.310335 g / cm^3
# Si number density = 23.156055 Si / 1000 Ang^3
#
#
#
# Elastic Constant Matrix: (Units=GPa)
#
#
# Indices 1 2 3 4 5 6 
#
# 1 78.3568 18.6125 39.2887 2.1677 0.2370 10.5153
# 2 18.6125 154.8262 29.0007 9.8688 7.0382 14.4331
# 3 39.2887 29.0007 73.0849 3.8480 -18.5925 -6.4183
# 4 2.1677 9.8688 3.8480 34.3804 1.8936 -2.1119
# 5 0.2370 7.0382 -18.5925 1.8936 32.0448 3.2869
# 6 10.5153 14.4331 -6.4183 -2.1119 3.2869 26.7795
#
#
#
# Elastic Compliance Matrix: (Units=1/GPa)
#
#
# Indices 1 2 3 4 5 6 
#
# 1 0.021894 0.001876 -0.015713 -0.000459 -0.008394 -0.012380
# 2 0.001876 0.008234 -0.005852 -0.001961 -0.004468 -0.006183
# 3 -0.015713 -0.005852 0.030206 -0.000793 0.017502 0.014353
# 4 -0.000459 -0.001961 -0.000793 0.030114 -0.002184 0.003690
# 5 -0.008394 -0.004468 0.017502 -0.002184 0.042065 0.004563
# 6 -0.012380 -0.006183 0.014353 0.003690 0.004563 0.048707
#
#
# Mechanical properties :
#
#
# Convention : Reuss Voigt Hill
#
# Bulk Modulus (GPa) = 47.71678 53.34129 50.52904
# Shear Modulus (GPa) = 21.96993 33.26534 27.61764
#
# Velocity S-wave (km/s) = 3.08356 3.79433 3.45726
# Velocity P-wave (km/s) = 5.77314 6.50242 6.14860
#
# Compressibility (1/GPa) = 0.02095699
#
# Stress axis : x y z
#
# Youngs Moduli (GPa) = 45.67372 121.44767 33.10569
#
# Poissons Ratio (x) = -0.22784 0.52018
# Poissons Ratio (y) = -0.08568 0.19374
# Poissons Ratio (z) = 0.71766 0.71073
#
# Static dielectric constant tensor:
#      x y z
#    x 2.170670 0.063620 -0.102270 
#    y 0.063620 1.956640 -0.048770 
#    z -0.102270 -0.048770 1.843500 
# 
# From -- ./inp_files/224042.got.cif
#   From: 2010.05.17/outbox.cif.g08.bks.cpg/sg2_113_cif.got.tgz:224042.got - 2010.06.03 11:33:40.
