data_PCOD9023833
_publ_section_title
;
Structure prediction by ZEFSAII (Michael W. Deem and Ramdas Pophale) SiO2 
 PCOD9023833
Probable space group: P -1
;
_chemical_formula_sum "Si O2"
_cell_formula_units_Z 16
_cell_length_a 10.938055
_cell_length_b 8.275532
_cell_length_c 11.652406
_cell_angle_alpha 117.619870
_cell_angle_beta 127.171442
_cell_angle_gamma 54.272850
_cell_volume 672.210429
_symmetry_space_group_name_H-M "P -1"
_symmetry_group_IT_number 2
_symmetry_cell_setting 'triclinic'
loop_
_space_group_symop_operation_xyz
x,y,z
-x,-y,-z
loop_
_atom_site_type_symbol
_atom_site_label
_atom_site_fract_x
_atom_site_fract_y
_atom_site_fract_z
Si Si1 0.173629 0.291533 0.121002
Si Si2 0.194130 0.634973 0.126855
Si Si3 0.020505 0.475020 0.330217
Si Si4 0.604692 0.277787 0.540098
Si Si5 0.629504 0.170969 0.884903
Si Si6 0.201455 0.727054 0.780294
Si Si7 0.652901 0.656425 0.390811
Si Si8 0.908655 0.918024 0.510147
O O1 0.244614 0.396135 0.100524
O O2 0.106322 0.435875 0.241677
O O3 0.294265 0.070029 0.159920
O O4 0.006738 0.275093 0.973901
O O5 0.250030 0.702615 0.296379
O O6 0.279817 0.718791 0.106088
O O7 0.171610 0.349287 0.465215
O O8 0.875080 0.397278 0.225969
O O9 0.940506 0.703105 0.402684
O O10 0.500000 0.500000 0.500000
O O11 0.478665 0.248333 0.549564
O O12 0.711738 0.077596 0.462388
O O13 0.441935 0.251560 0.751500
O O14 0.673505 0.214980 0.053453
O O15 0.300416 0.580862 0.682494
O O16 0.026179 0.889350 0.680695
O O17 0.000000 0.000000 0.500000
#
# Coordination Sequence:
#
# PCOD9023833 Si02
#       8
#     2   2   2   2   2   2   2   2
#     4  11  22  40  69 100 137 177 235 279 342 413
#     4  10  22  40  62 100 134 174 224 287 329 414
#     4  11  24  44  65 100 135 179 230 282 335 419
#     4  11  22  41  67  98 138 175 226 287 347 403
#     4  11  23  41  72  98 134 185 227 283 353 401
#     4  11  23  46  66  97 137 179 232 277 340 420
#     4  10  23  41  67  95 137 177 221 288 348 397
#     4  11  23  41  69  98 132 181 223 274 347 411
#
# _framework density 23.802068999999999
#
# number of rings (size 3 to 8) (size 9 to 14) (size 15 to 20)
#    0.000    1.250    1.250    6.000    3.500    1.500 
#    6.750    0.000    0.000    3.000    0.000    0.000 
#    0.000    0.000    0.000    0.000    0.000    0.000 
#
# Total GULP energy -89328.017206 kJ/mol
# GULP energy per Si atom -5583.001075 kJ/mol
# Density = 2.374789 g / cm^3
# Si number density = 23.802069 Si / 1000 Ang^3
#
#
#
# Elastic Constant Matrix: (Units=GPa)
#
#
# Indices 1 2 3 4 5 6 
#
# 1 74.0094 44.9811 -14.6217 3.8660 2.7851 -7.1878
# 2 44.9811 141.5420 48.6583 -26.0850 0.7182 -24.2361
# 3 -14.6217 48.6583 87.0347 -9.5823 15.1068 -19.9673
# 4 3.8660 -26.0850 -9.5823 27.0001 -2.6915 -4.5638
# 5 2.7851 0.7182 15.1068 -2.6915 31.5103 -1.1180
# 6 -7.1878 -24.2361 -19.9673 -4.5638 -1.1180 40.0489
#
#
#
# Elastic Compliance Matrix: (Units=1/GPa)
#
#
# Indices 1 2 3 4 5 6 
#
# 1 0.027212 -0.016204 0.013558 -0.015765 -0.009891 -0.000235
# 2 -0.016204 0.021312 -0.012475 0.020443 0.008899 0.006348
# 3 0.013558 -0.012475 0.023543 -0.005939 -0.012510 0.005596
# 4 -0.015765 0.020443 -0.005939 0.060190 0.009402 0.013702
# 5 -0.009891 0.008899 -0.012510 0.009402 0.039191 -0.000462
# 6 -0.000235 0.006348 0.005596 0.013702 -0.000462 0.033107
#
#
# Mechanical properties :
#
#
# Convention : Reuss Voigt Hill
#
# Bulk Modulus (GPa) = 23.90953 51.18018 37.54485
# Shear Modulus (GPa) = 20.10145 34.61641 27.35893
#
# Velocity S-wave (km/s) = 2.90922 3.81772 3.39401
# Velocity P-wave (km/s) = 4.62079 6.40175 5.58275
#
# Compressibility (1/GPa) = 0.04182433
#
# Stress axis : x y z
#
# Youngs Moduli (GPa) = 36.74911 46.92145 42.47577
#
# Poissons Ratio (x) = 0.76031 -0.57587
# Poissons Ratio (y) = 0.59548 0.52988
# Poissons Ratio (z) = -0.49823 0.58534
#
# Static dielectric constant tensor:
#      x y z
#    x 1.979590 0.011850 -0.036820 
#    y 0.011850 1.961100 -0.007370 
#    z -0.036820 -0.007370 1.918650 
# 
# From -- ./inp_files/419808.got.cif
#   From: 2010.05.17/outbox.cif.g08.bks.cpg/sg2_210_cif.got.tgz:419808.got - 2010.06.03 11:33:40.
