data_PCOD9023762
_publ_section_title
;
Structure prediction by ZEFSAII (Michael W. Deem and Ramdas Pophale) SiO2 
 PCOD9023762
Probable space group: P -1
;
_chemical_formula_sum "Si O2"
_cell_formula_units_Z 16
_cell_length_a 9.679000
_cell_length_b 13.110261
_cell_length_c 13.913034
_cell_angle_alpha 134.223184
_cell_angle_beta 122.207988
_cell_angle_gamma 33.407432
_cell_volume 691.160604
_symmetry_space_group_name_H-M "P -1"
_symmetry_group_IT_number 2
_symmetry_cell_setting 'triclinic'
loop_
_space_group_symop_operation_xyz
x,y,z
-x,-y,-z
loop_
_atom_site_type_symbol
_atom_site_label
_atom_site_fract_x
_atom_site_fract_y
_atom_site_fract_z
Si Si1 0.317402 0.303804 0.869776
Si Si2 0.659526 0.033191 0.107399
Si Si3 0.045469 0.639538 0.626444
Si Si4 0.873962 0.088177 0.615976
Si Si5 0.419454 0.908260 0.361567
Si Si6 0.341596 0.663331 0.636949
Si Si7 0.880045 0.922728 0.920562
Si Si8 0.017961 0.688044 0.166855
O O1 0.395938 0.282944 0.775782
O O2 0.115305 0.307613 0.793556
O O3 0.586422 0.109447 0.898221
O O4 0.159301 0.507084 0.017609
O O5 0.772634 0.919041 0.176731
O O6 0.544314 0.269332 0.226570
O O7 0.872190 0.903010 0.018475
O O8 0.500000 0.000000 0.000000
O O9 0.025229 0.704008 0.771626
O O10 0.000000 0.500000 0.500000
O O11 0.278923 0.568229 0.617033
O O12 0.816102 0.879703 0.649803
O O13 0.085305 0.895403 0.644778
O O14 0.806153 0.298020 0.735675
O O15 0.000000 0.000000 0.500000
O O16 0.642072 0.150486 0.609341
O O17 0.500000 0.000000 0.500000
O O18 0.500000 0.500000 0.500000
O O19 0.000000 0.000000 0.000000
#
# Coordination Sequence:
#
# PCOD9023762 Si02
#       8
#     2   2   2   2   2   2   2   2
#     4  10  22  40  62  89 122 161 200 255 301 358
#     4  11  22  40  63  92 122 165 204 248 310 365
#     4  10  23  40  61  89 121 159 203 252 303 359
#     4  10  22  41  61  87 121 163 201 248 303 362
#     4  10  22  41  61  85 123 160 203 249 302 362
#     4  10  23  40  60  89 123 156 203 255 298 361
#     4  11  22  42  63  88 127 161 202 255 306 366
#     4  10  22  40  61  90 123 156 207 250 302 362
#
# _framework density 23.149467999999999
#
# number of rings (size 3 to 8) (size 9 to 14) (size 15 to 20)
#    0.000    1.750    2.500    0.750    3.500    4.500 
#    4.500    0.000    0.000    0.000    0.000    0.000 
#    0.000    0.000    0.000    0.000    0.000    0.000 
#
# Total GULP energy -89133.881496 kJ/mol
# GULP energy per Si atom -5570.867594 kJ/mol
# Density = 2.309678 g / cm^3
# Si number density = 23.149468 Si / 1000 Ang^3
#
#
#
# Elastic Constant Matrix: (Units=GPa)
#
#
# Indices 1 2 3 4 5 6 
#
# 1 209.6556 13.2307 89.4406 10.8820 9.3526 -10.8218
# 2 13.2307 47.1157 -11.2822 5.9979 5.7764 7.7165
# 3 89.4406 -11.2822 143.2779 14.9612 6.1991 -5.1784
# 4 10.8820 5.9979 14.9612 25.3252 2.9992 0.1940
# 5 9.3526 5.7764 6.1991 2.9992 37.9268 -10.0923
# 6 -10.8218 7.7165 -5.1784 0.1940 -10.0923 24.7650
#
#
#
# Elastic Compliance Matrix: (Units=1/GPa)
#
#
# Indices 1 2 3 4 5 6 
#
# 1 0.007160 -0.003850 -0.004722 0.000540 0.000491 0.003537
# 2 -0.003850 0.027138 0.005126 -0.006932 -0.006586 -0.011696
# 3 -0.004722 0.005126 0.010892 -0.005429 -0.001485 -0.001946
# 4 0.000540 -0.006932 -0.005429 0.044294 -0.001626 0.000251
# 5 0.000491 -0.006586 -0.001485 -0.001626 0.031567 0.014833
# 6 0.003537 -0.011696 -0.001946 0.000251 0.014833 0.051205
#
#
# Mechanical properties :
#
#
# Convention : Reuss Voigt Hill
#
# Bulk Modulus (GPa) = 26.11097 64.75861 45.43479
# Shear Modulus (GPa) = 26.05336 38.18074 32.11705
#
# Velocity S-wave (km/s) = 3.35840 4.06558 3.72879
# Velocity P-wave (km/s) = 5.13247 7.07626 6.18125
#
# Compressibility (1/GPa) = 0.03829808
#
# Stress axis : x y z
#
# Youngs Moduli (GPa) = 139.66628 36.84847 91.81185
#
# Poissons Ratio (x) = 0.14185 0.43358
# Poissons Ratio (y) = 0.53765 -0.47063
# Poissons Ratio (z) = 0.65957 -0.18889
#
# Static dielectric constant tensor:
#      x y z
#    x 1.915650 0.021350 0.068470 
#    y 0.021350 1.865750 -0.036020 
#    z 0.068470 -0.036020 1.945460 
# 
# From -- ./inp_files/206353.got.cif
#   From: 2010.05.17/outbox.cif.g08.bks.cpg/sg2_104_cif.got.tgz:206353.got - 2010.06.03 11:33:40.
