data_PCOD9023356
_publ_section_title
;
Structure prediction by ZEFSAII (Michael W. Deem and Ramdas Pophale) SiO2 
 PCOD9023356
Probable space group: P -1
;
_chemical_formula_sum "Si O2"
_cell_formula_units_Z 14
_cell_length_a 27.545224
_cell_length_b 15.619163
_cell_length_c 16.367134
_cell_angle_alpha 162.166265
_cell_angle_beta 160.365187
_cell_angle_gamma 19.717211
_cell_volume 652.477514
_symmetry_space_group_name_H-M "P -1"
_symmetry_group_IT_number 2
_symmetry_cell_setting 'triclinic'
loop_
_space_group_symop_operation_xyz
x,y,z
-x,-y,-z
loop_
_atom_site_type_symbol
_atom_site_label
_atom_site_fract_x
_atom_site_fract_y
_atom_site_fract_z
Si Si1 0.652286 0.136127 0.104229
Si Si2 0.608818 0.740679 0.823349
Si Si3 0.173453 0.452042 0.261612
Si Si4 0.978618 0.209495 0.235390
Si Si5 0.306813 0.569141 0.892070
Si Si6 0.685042 0.839964 0.617364
Si Si7 0.283065 0.937243 0.582059
O O1 0.779990 0.276729 0.448432
O O2 0.488240 0.426242 0.082610
O O3 0.622818 0.947723 0.960655
O O4 0.708529 0.883743 0.892170
O O5 0.425810 0.856385 0.668686
O O6 0.674363 0.373960 0.580320
O O7 0.707339 0.797186 0.105359
O O8 0.204151 0.414174 0.372834
O O9 0.000000 0.500000 0.000000
O O10 0.810474 0.337839 0.132334
O O11 0.000000 0.500000 0.500000
O O12 0.116933 0.035205 0.362342
O O13 0.000000 0.000000 0.000000
O O14 0.297875 0.316571 0.586497
O O15 0.266733 0.878846 0.058641
O O16 0.500000 0.000000 0.500000
#
# Coordination Sequence:
#
# PCOD9023356 Si02
#       7
#     2   2   2   2   2   2   2
#     4  12  23  43  67  97 130 172 232 267 337 411
#     4  10  22  39  68  90 129 175 219 265 330 408
#     4  12  27  43  66  98 136 172 217 292 345 387
#     4  12  26  44  67 100 142 169 223 285 327 393
#     4  12  25  42  74 100 125 189 225 269 342 405
#     4  12  23  46  70  95 137 173 230 284 326 408
#     4  10  22  42  62  96 132 174 214 272 336 385
#
# _framework density 21.456679000000001
#
# number of rings (size 3 to 8) (size 9 to 14) (size 15 to 20)
#    0.000    0.571    2.857    5.143    0.000    6.857 
#    0.000    0.000    0.000    0.000    0.000    0.000 
#    0.000    0.000    0.000    0.000    0.000    0.000 
#
# Total GULP energy -78331.552504 kJ/mol
# GULP energy per Si atom -5595.110893 kJ/mol
# Density = 2.140784 g / cm^3
# Si number density = 21.456679 Si / 1000 Ang^3
#
#
#
# Elastic Constant Matrix: (Units=GPa)
#
#
# Indices 1 2 3 4 5 6 
#
# 1 87.6106 24.7284 15.6427 6.1527 7.2386 -0.8514
# 2 24.7284 50.8613 20.2233 0.4455 3.6363 5.1730
# 3 15.6427 20.2233 94.0652 14.5204 4.0737 -11.0280
# 4 6.1527 0.4455 14.5204 44.2494 9.8503 -2.4562
# 5 7.2386 3.6363 4.0737 9.8503 37.8328 20.7325
# 6 -0.8514 5.1730 -11.0280 -2.4562 20.7325 34.3474
#
#
#
# Elastic Compliance Matrix: (Units=1/GPa)
#
#
# Indices 1 2 3 4 5 6 
#
# 1 0.013721 -0.006689 -0.000161 -0.000785 -0.003646 0.003440
# 2 -0.006689 0.025713 -0.005681 0.001364 0.003324 -0.007771
# 3 -0.000161 -0.005681 0.013394 -0.002970 -0.004182 0.007464
# 4 -0.000785 0.001364 -0.002970 0.026353 -0.010324 0.006938
# 5 -0.003646 0.003324 -0.004182 -0.010324 0.046940 -0.031006
# 6 0.003440 -0.007771 0.007464 0.006938 -0.031006 0.051978
#
#
# Mechanical properties :
#
#
# Convention : Reuss Voigt Hill
#
# Bulk Modulus (GPa) = 36.01728 39.30289 37.66008
# Shear Modulus (GPa) = 23.53858 34.74876 29.14367
#
# Velocity S-wave (km/s) = 3.31573 4.02865 3.68945
# Velocity P-wave (km/s) = 5.61082 6.32433 5.97823
#
# Compressibility (1/GPa) = 0.02776445
#
# Stress axis : x y z
#
# Youngs Moduli (GPa) = 72.88217 38.89022 74.66080
#
# Poissons Ratio (x) = 0.26015 0.01203
# Poissons Ratio (y) = 0.48753 0.42418
# Poissons Ratio (z) = 0.01175 0.22095
#
# Static dielectric constant tensor:
#      x y z
#    x 1.710950 0.047430 -0.017620 
#    y 0.047430 1.716620 0.003290 
#    z -0.017620 0.003290 1.737920 
# 
# From -- ./inp_files/544242.got.cif
#   From: 2010.05.17/outbox.cif.g08.bks.cpg/sg2_273_cif.got.tgz:544242.got - 2010.06.03 11:33:40.
