data_PCOD9023990
_publ_section_title
;
Structure prediction by ZEFSAII (Michael W. Deem and Ramdas Pophale) SiO2 
 PCOD9023990
Probable space group: P -1
;
_chemical_formula_sum "Si O2"
_cell_formula_units_Z 13
_cell_length_a 4.913514
_cell_length_b 8.755648
_cell_length_c 12.613838
_cell_angle_alpha 108.316746
_cell_angle_beta 101.293628
_cell_angle_gamma 76.423082
_cell_volume 496.369277
_symmetry_space_group_name_H-M "P -1"
_symmetry_group_IT_number 2
_symmetry_cell_setting 'triclinic'
loop_
_space_group_symop_operation_xyz
x,y,z
-x,-y,-z
loop_
_atom_site_type_symbol
_atom_site_label
_atom_site_fract_x
_atom_site_fract_y
_atom_site_fract_z
Si Si1 0.801403 0.879891 0.995955
Si Si2 0.398714 0.271641 0.875080
Si Si3 0.000000 0.500000 0.500000
Si Si4 0.766718 0.367883 0.121807
Si Si5 0.855613 0.269761 0.325551
Si Si6 0.281140 0.958300 0.327223
Si Si7 0.435945 0.753838 0.490783
O O1 0.838884 0.804992 0.099830
O O2 0.913048 0.724262 0.895647
O O3 0.500000 0.000000 0.000000
O O4 0.000000 0.000000 0.000000
O O5 0.273896 0.438431 0.843468
O O6 0.569412 0.140399 0.781244
O O7 0.584728 0.316791 0.998685
O O8 0.073562 0.394684 0.369199
O O9 0.711840 0.626158 0.450928
O O10 0.679250 0.304068 0.214322
O O11 0.750406 0.323309 0.451382
O O12 0.996124 0.082222 0.303191
O O13 0.257533 0.832339 0.393168
O O14 0.470816 0.089035 0.411560
#
# Coordination Sequence:
#
# PCOD9023990 Si02
#       7
#     2   2   1   2   2   2   2
#     4  12  25  46  75 104 146 194 249 303 365 444
#     4  11  25  46  69 104 153 192 248 301 378 440
#     4  10  22  40  62  94 134 178 232 288 356 428
#     4  11  26  45  70 109 147 197 242 309 369 449
#     4  11  23  41  70 101 136 186 239 296 365 433
#     4  10  23  41  68 100 138 185 237 299 358 438
#     4  10  22  42  66 100 138 180 242 293 364 428
#
# _framework density 26.190179000000001
#
# number of rings (size 3 to 8) (size 9 to 14) (size 15 to 20)
#    0.000    1.231    1.538    3.231    2.154    2.462 
#    0.000    6.154    0.000    0.000    0.000    0.000 
#    0.000    0.000    0.000    0.000    0.000    0.000 
#
# Total GULP energy -72547.891563 kJ/mol
# GULP energy per Si atom -5580.607043 kJ/mol
# Density = 2.613057 g / cm^3
# Si number density = 26.190179 Si / 1000 Ang^3
#
#
#
# Elastic Constant Matrix: (Units=GPa)
#
#
# Indices 1 2 3 4 5 6 
#
# 1 100.9285 52.2389 34.4242 -10.7605 -19.1288 -13.4624
# 2 52.2389 231.4557 84.9652 -11.6454 -20.6287 -29.8564
# 3 34.4242 84.9652 154.3015 -12.6495 -21.4836 -0.7550
# 4 -10.7605 -11.6454 -12.6495 61.0722 -0.3696 -4.6317
# 5 -19.1288 -20.6287 -21.4836 -0.3696 40.0697 1.7267
# 6 -13.4624 -29.8564 -0.7550 -4.6317 1.7267 31.3832
#
#
#
# Elastic Compliance Matrix: (Units=1/GPa)
#
#
# Indices 1 2 3 4 5 6 
#
# 1 0.012670 -0.001351 -0.001265 0.002057 0.004514 0.004175
# 2 -0.001351 0.006633 -0.003138 0.000816 0.000848 0.005729
# 3 -0.001265 -0.003138 0.008917 0.000788 0.002713 -0.003347
# 4 0.002057 0.000816 0.000788 0.017381 0.001807 0.004144
# 5 0.004514 0.000848 0.002713 0.001807 0.028955 0.001482
# 6 0.004175 0.005729 -0.003347 0.004144 0.001482 0.039555
#
#
# Mechanical properties :
#
#
# Convention : Reuss Voigt Hill
#
# Bulk Modulus (GPa) = 59.83754 92.21583 76.02669
# Shear Modulus (GPa) = 38.11258 47.50887 42.81072
#
# Velocity S-wave (km/s) = 3.81888 4.26372 4.04742
# Velocity P-wave (km/s) = 6.50708 7.71529 7.13679
#
# Compressibility (1/GPa) = 0.01671192
#
# Stress axis : x y z
#
# Youngs Moduli (GPa) = 78.92401 150.76158 112.14545
#
# Poissons Ratio (x) = 0.20366 0.14191
# Poissons Ratio (y) = 0.10662 0.35191
# Poissons Ratio (z) = 0.09987 0.47309
#
# Static dielectric constant tensor:
#      x y z
#    x -0.506730 -1.890210 -0.150140 
#    y -1.890210 0.655460 -0.218900 
#    z -0.150140 -0.218900 2.088360 
# 
# From -- ./inp_files/360325.got.cif
#   From: 2010.05.17/outbox.cif.g08.bks.cpg/sg2_181_cif.got.tgz:360325.got - 2010.06.03 11:33:40.
