data_PCOD9023914
_publ_section_title
;
Structure prediction by ZEFSAII (Michael W. Deem and Ramdas Pophale) SiO2 
 PCOD9023914
Probable space group: P -1
;
_chemical_formula_sum "Si O2"
_cell_formula_units_Z 16
_cell_length_a 15.772261
_cell_length_b 11.899347
_cell_length_c 15.281626
_cell_angle_alpha 151.926941
_cell_angle_beta 44.332952
_cell_angle_gamma 117.593614
_cell_volume 810.950352
_symmetry_space_group_name_H-M "P -1"
_symmetry_group_IT_number 2
_symmetry_cell_setting 'triclinic'
loop_
_space_group_symop_operation_xyz
x,y,z
-x,-y,-z
loop_
_atom_site_type_symbol
_atom_site_label
_atom_site_fract_x
_atom_site_fract_y
_atom_site_fract_z
Si Si1 0.662590 0.436414 0.341174
Si Si2 0.832946 0.138876 0.187945
Si Si3 0.638840 0.612207 0.783809
Si Si4 0.129661 0.425244 0.285594
Si Si5 0.286162 0.035840 0.147159
Si Si6 0.341045 0.993354 0.276758
Si Si7 0.998032 0.255414 0.565098
Si Si8 0.977044 0.731348 0.248017
O O1 0.500000 0.500000 0.500000
O O2 0.760263 0.324483 0.280171
O O3 0.656658 0.721382 0.517100
O O4 0.730387 0.182509 0.048906
O O5 0.722989 0.326596 0.472820
O O6 0.824471 0.870368 0.990577
O O7 0.000000 0.000000 0.000000
O O8 0.746194 0.592453 0.762626
O O9 0.627546 0.849562 0.888142
O O10 0.485803 0.727538 0.017637
O O11 0.103842 0.619662 0.355401
O O12 0.000000 0.500000 0.500000
O O13 0.343048 0.928463 0.127327
O O14 0.128629 0.284842 0.454494
O O15 0.191711 0.063695 0.474062
O O16 0.964928 0.381627 0.774011
O O17 0.035941 0.936568 0.325630
O O18 0.000000 0.500000 0.000000
#
# Coordination Sequence:
#
# PCOD9023914 Si02
#       8
#     2   2   2   2   2   2   2   2
#     4  12  21  34  57  87 128 168 202 248 317 375
#     4  12  23  33  55  89 128 170 203 239 312 390
#     4  12  22  37  57  92 133 163 199 252 323 385
#     4  12  22  39  59  91 133 163 196 253 320 384
#     4  11  19  35  59  87 128 159 197 257 312 371
#     4  11  23  38  62  91 124 165 216 261 310 373
#     4  10  22  40  62  91 120 161 209 260 309 364
#     4  10  23  43  67  88 116 164 223 266 299 356
#
# _framework density 19.729939000000002
#
# number of rings (size 3 to 8) (size 9 to 14) (size 15 to 20)
#    0.000    0.750    6.250    1.875    1.750    1.000 
#    0.000    0.625    0.000    1.500    0.000    0.000 
#    0.000    0.000    0.000    0.000    0.000    0.000 
#
# Total GULP energy -89102.401417 kJ/mol
# GULP energy per Si atom -5568.900089 kJ/mol
# Density = 1.968503 g / cm^3
# Si number density = 19.729939 Si / 1000 Ang^3
#
#
#
# Elastic Constant Matrix: (Units=GPa)
#
#
# Indices 1 2 3 4 5 6 
#
# 1 126.1276 13.0241 51.2988 -16.5670 8.0854 -11.5306
# 2 13.0241 41.0608 24.7686 -15.3163 -0.4903 -4.5139
# 3 51.2988 24.7686 88.5043 -7.8952 4.0871 -8.2732
# 4 -16.5670 -15.3163 -7.8952 21.9679 9.5826 0.9951
# 5 8.0854 -0.4903 4.0871 9.5826 51.1932 -0.5419
# 6 -11.5306 -4.5139 -8.2732 0.9951 -0.5419 26.2951
#
#
#
# Elastic Compliance Matrix: (Units=1/GPa)
#
#
# Indices 1 2 3 4 5 6 
#
# 1 0.012346 0.005013 -0.007028 0.011638 -0.003482 0.003551
# 2 0.005013 0.041321 -0.011068 0.030678 -0.005207 0.004541
# 3 -0.007028 -0.011068 0.017889 -0.007022 0.000900 0.000931
# 4 0.011638 0.030678 -0.007022 0.079873 -0.015884 0.004810
# 5 -0.003482 -0.005207 0.000900 -0.015884 0.022924 -0.001064
# 6 0.003551 0.004541 0.000931 0.004810 -0.001064 0.040455
#
#
# Mechanical properties :
#
#
# Convention : Reuss Voigt Hill
#
# Bulk Modulus (GPa) = 22.03144 48.20841 35.11992
# Shear Modulus (GPa) = 19.52339 30.99799 25.26069
#
# Velocity S-wave (km/s) = 3.14909 3.96803 3.58204
# Velocity P-wave (km/s) = 4.94096 6.74395 5.91160
#
# Compressibility (1/GPa) = 0.04538969
#
# Stress axis : x y z
#
# Youngs Moduli (GPa) = 81.00030 24.20100 55.90072
#
# Poissons Ratio (x) = -0.12133 0.39286
# Poissons Ratio (y) = -0.40607 0.61871
# Poissons Ratio (z) = 0.56926 0.26786
#
# Static dielectric constant tensor:
#      x y z
#    x 1.769710 -0.033870 -0.066320 
#    y -0.033870 1.702940 -0.004630 
#    z -0.066320 -0.004630 1.767480 
# 
# From -- ./inp_files/455400.got.cif
#   From: 2010.05.17/outbox.cif.g08.bks.cpg/sg2_228_cif.got.tgz:455400.got - 2010.06.03 11:33:40.
