data_PCOD9023632
_publ_section_title
;
Structure prediction by ZEFSAII (Michael W. Deem and Ramdas Pophale) SiO2 
 PCOD9023632
Probable space group: P -1
;
_chemical_formula_sum "Si O2"
_cell_formula_units_Z 14
_cell_length_a 7.090705
_cell_length_b 14.162847
_cell_length_c 16.775572
_cell_angle_alpha 158.067554
_cell_angle_beta 58.782030
_cell_angle_gamma 114.614077
_cell_volume 527.127350
_symmetry_space_group_name_H-M "P -1"
_symmetry_group_IT_number 2
_symmetry_cell_setting 'triclinic'
loop_
_space_group_symop_operation_xyz
x,y,z
-x,-y,-z
loop_
_atom_site_type_symbol
_atom_site_label
_atom_site_fract_x
_atom_site_fract_y
_atom_site_fract_z
Si Si1 0.949151 0.113804 0.502776
Si Si2 0.824668 0.720039 0.553183
Si Si3 0.504671 0.318238 0.694750
Si Si4 0.173542 0.261397 0.080672
Si Si5 0.417661 0.784679 0.580714
Si Si6 0.242642 0.595286 0.097931
Si Si7 0.703425 0.767833 0.793713
O O1 0.017402 0.119331 0.400157
O O2 0.683365 0.119311 0.554231
O O3 0.924556 0.380290 0.769687
O O4 0.136859 0.886945 0.320298
O O5 0.585777 0.817567 0.641522
O O6 0.839032 0.724178 0.647246
O O7 0.925224 0.436843 0.274528
O O8 0.638657 0.559989 0.839392
O O9 0.483776 0.214662 0.529341
O O10 0.274181 0.428648 0.879467
O O11 0.198269 0.167000 0.092948
O O12 0.216625 0.026730 0.826987
O O13 0.636872 0.493594 0.610241
O O14 0.500000 0.500000 0.000000
O O15 0.500000 0.000000 0.000000
#
# Coordination Sequence:
#
# PCOD9023632 Si02
#       7
#     2   2   2   2   2   2   2
#     4   9  19  35  61  88 115 154 197 238 295 349
#     4  11  22  39  61  87 118 159 198 248 292 342
#     4   9  20  37  60  87 120 157 192 240 295 345
#     4  10  22  40  59  87 122 156 203 242 288 349
#     4  11  23  39  58  89 120 158 199 242 294 345
#     4   9  17  34  61  90 115 151 195 239 291 354
#     4  11  23  41  60  85 121 160 200 242 295 348
#
# _framework density 26.559045999999999
#
# number of rings (size 3 to 8) (size 9 to 14) (size 15 to 20)
#    0.000    2.000    1.429    1.714    2.000    1.714 
#    5.143    0.714    0.000   35.143    0.000    0.000 
#    0.000    0.000    0.000    0.000    0.000    0.000 
#
# Total GULP energy -78108.754169 kJ/mol
# GULP energy per Si atom -5579.196726 kJ/mol
# Density = 2.649860 g / cm^3
# Si number density = 26.559046 Si / 1000 Ang^3
#
#
#
# Elastic Constant Matrix: (Units=GPa)
#
#
# Indices 1 2 3 4 5 6 
#
# 1 76.2530 22.6696 29.0033 1.1838 -1.7531 -7.7687
# 2 22.6696 135.9007 76.3856 -29.5947 -5.1495 -32.8227
# 3 29.0033 76.3856 223.6962 -18.3487 -16.6156 -6.2041
# 4 1.1838 -29.5947 -18.3487 65.2960 -12.8540 2.9161
# 5 -1.7531 -5.1495 -16.6156 -12.8540 37.8168 4.4317
# 6 -7.7687 -32.8227 -6.2041 2.9161 4.4317 33.6421
#
#
#
# Elastic Compliance Matrix: (Units=1/GPa)
#
#
# Indices 1 2 3 4 5 6 
#
# 1 0.014320 -0.001491 -0.001502 -0.001631 -0.000970 0.001844
# 2 -0.001491 0.013555 -0.003699 0.004679 0.000366 0.011745
# 3 -0.001502 -0.003699 0.006103 0.000752 0.002746 -0.003257
# 4 -0.001631 0.004679 0.000752 0.019006 0.007148 0.001738
# 5 -0.000970 0.000366 0.002746 0.007148 0.030554 -0.004005
# 6 0.001844 0.011745 -0.003257 0.001738 -0.004005 0.041386
#
#
# Mechanical properties :
#
#
# Convention : Reuss Voigt Hill
#
# Bulk Modulus (GPa) = 48.55518 76.88520 62.72019
# Shear Modulus (GPa) = 34.44173 47.87039 41.15606
#
# Velocity S-wave (km/s) = 3.60502 4.25009 3.94077
# Velocity P-wave (km/s) = 5.97075 7.28670 6.66130
#
# Compressibility (1/GPa) = 0.02059512
#
# Stress axis : x y z
#
# Youngs Moduli (GPa) = 69.83373 73.77116 163.84238
#
# Poissons Ratio (x) = 0.10997 0.24613
# Poissons Ratio (y) = 0.10410 0.60602
# Poissons Ratio (z) = 0.10490 0.27287
#
# Static dielectric constant tensor:
#      x y z
#    x 2.188720 -0.012000 0.047900 
#    y -0.012000 2.188740 0.004690 
#    z 0.047900 0.004690 2.089040 
# 
# From -- ./inp_files/505728.got.cif
#   From: 2010.05.17/outbox.cif.g08.bks.cpg/sg2_253_cif.got.tgz:505728.got - 2010.06.03 11:33:40.
