data_PCOD9023122
_publ_section_title
;
Structure prediction by ZEFSAII (Michael W. Deem and Ramdas Pophale) SiO2 
 PCOD9023122
Probable space group: P -1
;
_chemical_formula_sum "Si O2"
_cell_formula_units_Z 16
_cell_length_a 10.645422
_cell_length_b 11.543801
_cell_length_c 11.770461
_cell_angle_alpha 67.650091
_cell_angle_beta 110.797700
_cell_angle_gamma 54.525562
_cell_volume 702.415069
_symmetry_space_group_name_H-M "P -1"
_symmetry_group_IT_number 2
_symmetry_cell_setting 'triclinic'
loop_
_space_group_symop_operation_xyz
x,y,z
-x,-y,-z
loop_
_atom_site_type_symbol
_atom_site_label
_atom_site_fract_x
_atom_site_fract_y
_atom_site_fract_z
Si Si1 0.741016 0.235454 0.681179
Si Si2 0.791597 0.008386 0.991075
Si Si3 0.158847 0.705899 0.848238
Si Si4 0.494572 0.412138 0.868539
Si Si5 0.498398 0.129357 0.298795
Si Si6 0.882964 0.674067 0.727182
Si Si7 0.764238 0.159847 0.467874
Si Si8 0.670863 0.826940 0.012091
O O1 0.500000 0.500000 0.500000
O O2 0.766287 0.124710 0.836753
O O3 0.731544 0.161989 0.591433
O O4 0.969665 0.150509 0.799608
O O5 0.564572 0.224591 0.913529
O O6 0.776919 0.880262 0.991104
O O7 0.380307 0.485910 0.927184
O O8 0.996415 0.710064 0.809756
O O9 0.262118 0.694888 0.995646
O O10 0.039658 0.902056 0.652238
O O11 0.321343 0.632243 0.655808
O O12 0.254903 0.300454 0.230754
O O13 0.608117 0.181821 0.339012
O O14 0.683873 0.885163 0.500703
O O15 0.468037 0.123178 0.159003
O O16 0.090232 0.444933 0.806414
O O17 0.500000 0.000000 0.000000
#
# Coordination Sequence:
#
# PCOD9023122 Si02
#       8
#     2   2   2   2   2   2   2   2
#     4  11  24  43  65  97 131 169 216 275 330 383
#     4  11  26  40  66  96 133 173 216 261 334 399
#     4  10  22  39  66  93 131 161 219 266 323 392
#     4  11  21  40  61  96 129 171 203 268 332 389
#     4  10  25  43  72  98 126 178 229 277 327 387
#     4  10  23  45  68  99 127 177 226 278 323 384
#     4  11  22  41  69  96 127 164 221 273 327 384
#     4  12  27  46  66  98 141 182 220 269 332 403
#
# _framework density 22.778554
#
# number of rings (size 3 to 8) (size 9 to 14) (size 15 to 20)
#    0.000    1.250    2.500    2.250    7.000    1.500 
#    4.500    0.000    0.000    0.000    0.000    0.000 
#    0.000    0.000    0.000    0.000    0.000    0.000 
#
# Total GULP energy -89329.913829 kJ/mol
# GULP energy per Si atom -5583.119614 kJ/mol
# Density = 2.272671 g / cm^3
# Si number density = 22.778554 Si / 1000 Ang^3
#
#
#
# Elastic Constant Matrix: (Units=GPa)
#
#
# Indices 1 2 3 4 5 6 
#
# 1 38.9643 7.6034 20.9983 -6.3301 3.5405 15.1794
# 2 7.6034 114.3011 54.7456 -1.2166 3.1851 7.9076
# 3 20.9983 54.7456 112.9546 -11.5642 -4.9674 4.0529
# 4 -6.3301 -1.2166 -11.5642 46.7726 4.3857 -3.2432
# 5 3.5405 3.1851 -4.9674 4.3857 28.1623 -2.7951
# 6 15.1794 7.9076 4.0529 -3.2432 -2.7951 42.4770
#
#
#
# Elastic Compliance Matrix: (Units=1/GPa)
#
#
# Indices 1 2 3 4 5 6 
#
# 1 0.035179 0.002227 -0.007209 0.002881 -0.007643 -0.012581
# 2 0.002227 0.011864 -0.006283 -0.000860 -0.002860 -0.002659
# 3 -0.007209 -0.006283 0.013517 0.002030 0.003970 0.002872
# 4 0.002881 -0.000860 0.002030 0.022597 -0.003382 0.000440
# 5 -0.007643 -0.002860 0.003970 -0.003382 0.038532 0.005162
# 6 -0.012581 -0.002659 0.002872 0.000440 0.005162 0.028632
#
#
# Mechanical properties :
#
#
# Convention : Reuss Voigt Hill
#
# Bulk Modulus (GPa) = 26.29425 48.10162 37.19794
# Shear Modulus (GPa) = 26.95015 35.67392 31.31203
#
# Velocity S-wave (km/s) = 3.44341 3.96171 3.71162
# Velocity P-wave (km/s) = 5.23239 6.48767 5.89354
#
# Compressibility (1/GPa) = 0.03803112
#
# Stress axis : x y z
#
# Youngs Moduli (GPa) = 28.42645 84.28676 73.97824
#
# Poissons Ratio (x) = -0.18767 0.53328
# Poissons Ratio (y) = -0.06329 0.46477
# Poissons Ratio (z) = 0.20491 0.52953
#
# Static dielectric constant tensor:
#      x y z
#    x 1.965110 -0.113030 0.013690 
#    y -0.113030 1.982800 -0.074410 
#    z 0.013690 -0.074410 1.869990 
# 
# From -- ./inp_files/428203.got.cif
#   From: 2010.05.17/outbox.cif.g08.bks.cpg/sg2_215_cif.got.tgz:428203.got - 2010.06.03 11:33:40.
