data_PCOD9023448
_publ_section_title
;
Structure prediction by ZEFSAII (Michael W. Deem and Ramdas Pophale) SiO2 
 PCOD9023448
Probable space group: P -1
;
_chemical_formula_sum "Si O2"
_cell_formula_units_Z 16
_cell_length_a 8.656482
_cell_length_b 8.674611
_cell_length_c 14.913622
_cell_angle_alpha 64.472706
_cell_angle_beta 101.940723
_cell_angle_gamma 61.012449
_cell_volume 751.416790
_symmetry_space_group_name_H-M "P -1"
_symmetry_group_IT_number 2
_symmetry_cell_setting 'triclinic'
loop_
_space_group_symop_operation_xyz
x,y,z
-x,-y,-z
loop_
_atom_site_type_symbol
_atom_site_label
_atom_site_fract_x
_atom_site_fract_y
_atom_site_fract_z
Si Si1 0.784390 0.788305 0.024635
Si Si2 0.906556 0.753402 0.404271
Si Si3 0.397999 0.910219 0.558910
Si Si4 0.713837 0.246931 0.578703
Si Si5 0.701221 0.315249 0.016207
Si Si6 0.846821 0.033220 0.829759
Si Si7 0.629582 0.989269 0.137105
Si Si8 0.228835 0.558295 0.188826
O O1 0.685343 0.824515 0.102648
O O2 0.028751 0.592790 0.121170
O O3 0.775368 0.977420 0.922667
O O4 0.619156 0.808873 0.935293
O O5 0.770936 0.914209 0.431783
O O6 0.749563 0.857930 0.274252
O O7 0.000000 0.500000 0.500000
O O8 0.091880 0.757633 0.402677
O O9 0.500000 0.000000 0.500000
O O10 0.295822 0.859280 0.485125
O O11 0.591819 0.675669 0.685611
O O12 0.500000 0.500000 0.500000
O O13 0.725490 0.119172 0.700522
O O14 0.714519 0.103198 0.077258
O O15 0.500000 0.500000 0.000000
O O16 0.677630 0.410823 0.892566
O O17 0.928593 0.205924 0.105433
O O18 0.846988 0.232735 0.809021
#
# Coordination Sequence:
#
# PCOD9023448 Si02
#       8
#     2   2   2   2   2   2   2   2
#     4  10  22  39  69 106 132 179 222 284 348 423
#     4  12  28  49  72 104 146 189 240 294 352 423
#     4  12  29  48  71 106 142 188 243 296 351 423
#     4  12  25  47  76 101 138 193 239 293 358 413
#     4  11  21  40  64  96 131 178 219 286 338 408
#     4  11  21  43  71  97 137 179 231 279 354 420
#     4  11  22  42  68 101 139 173 235 280 350 409
#     4  11  21  44  69  96 140 176 232 281 349 421
#
# _framework density 21.293109000000001
#
# number of rings (size 3 to 8) (size 9 to 14) (size 15 to 20)
#    0.000    0.750    5.000    2.625    5.250    0.000 
#    2.250    1.875    0.000    0.000    0.000    0.000 
#    0.000    0.000    0.000    0.000    0.000    0.000 
#
# Total GULP energy -89228.494578 kJ/mol
# GULP energy per Si atom -5576.780911 kJ/mol
# Density = 2.124465 g / cm^3
# Si number density = 21.293109 Si / 1000 Ang^3
#
#
#
# Elastic Constant Matrix: (Units=GPa)
#
#
# Indices 1 2 3 4 5 6 
#
# 1 70.8038 37.3875 31.2677 11.4198 11.1015 -10.1525
# 2 37.3875 110.1712 70.4482 7.8392 10.0090 -28.6539
# 3 31.2677 70.4482 187.8544 15.6537 9.2611 -2.4697
# 4 11.4198 7.8392 15.6537 27.0643 2.0516 -0.8432
# 5 11.1015 10.0090 9.2611 2.0516 31.2031 0.3298
# 6 -10.1525 -28.6539 -2.4697 -0.8432 0.3298 35.3211
#
#
#
# Elastic Compliance Matrix: (Units=1/GPa)
#
#
# Indices 1 2 3 4 5 6 
#
# 1 0.018775 -0.004808 -0.000595 -0.005795 -0.004594 0.001359
# 2 -0.004808 0.017797 -0.005644 0.000724 -0.002505 0.012701
# 3 -0.000595 -0.005644 0.007710 -0.002704 -0.000043 -0.004274
# 4 -0.005795 0.000724 -0.002704 0.040742 -0.000044 -0.000295
# 5 -0.004594 -0.002505 -0.000043 -0.000044 0.034541 -0.003679
# 6 0.001359 0.012701 -0.004274 -0.000295 -0.003679 0.038735
#
#
# Mechanical properties :
#
#
# Convention : Reuss Voigt Hill
#
# Bulk Modulus (GPa) = 45.06724 71.89290 58.48007
# Shear Modulus (GPa) = 26.62575 34.03279 30.32927
#
# Velocity S-wave (km/s) = 3.53999 4.00221 3.77818
# Velocity P-wave (km/s) = 6.15791 7.42925 6.82325
#
# Compressibility (1/GPa) = 0.02218907
#
# Stress axis : x y z
#
# Youngs Moduli (GPa) = 53.26277 56.19029 129.70281
#
# Poissons Ratio (x) = 0.27016 0.07714
# Poissons Ratio (y) = 0.25608 0.73199
# Poissons Ratio (z) = 0.03168 0.31712
#
# Static dielectric constant tensor:
#      x y z
#    x 2.106380 0.235620 -0.010210 
#    y 0.235620 2.018120 -0.009470 
#    z -0.010210 -0.009470 1.746600 
# 
# From -- ./inp_files/343776.got.cif
#   From: 2010.05.17/outbox.cif.g08.bks.cpg/sg2_172_cif.got.tgz:343776.got - 2010.06.03 11:33:40.
