data_PCOD9023544
_publ_section_title
;
Structure prediction by ZEFSAII (Michael W. Deem and Ramdas Pophale) SiO2 
 PCOD9023544
Probable space group: P -1
;
_chemical_formula_sum "Si O2"
_cell_formula_units_Z 14
_cell_length_a 6.053700
_cell_length_b 18.390191
_cell_length_c 12.322649
_cell_angle_alpha 140.946760
_cell_angle_beta 112.350815
_cell_angle_gamma 55.189503
_cell_volume 704.367332
_symmetry_space_group_name_H-M "P -1"
_symmetry_group_IT_number 2
_symmetry_cell_setting 'triclinic'
loop_
_space_group_symop_operation_xyz
x,y,z
-x,-y,-z
loop_
_atom_site_type_symbol
_atom_site_label
_atom_site_fract_x
_atom_site_fract_y
_atom_site_fract_z
Si Si1 0.214646 0.310691 0.116753
Si Si2 0.234019 0.755169 0.728910
Si Si3 0.406399 0.829964 0.639820
Si Si4 0.532253 0.131637 0.780018
Si Si5 0.932165 0.893312 0.038678
Si Si6 0.017596 0.424481 0.526501
Si Si7 0.680475 0.081179 0.511691
O O1 0.481078 0.274959 0.198494
O O2 0.032636 0.466471 0.266637
O O3 0.319871 0.252927 0.951089
O O4 0.075380 0.231474 0.053752
O O5 0.220561 0.802288 0.658038
O O6 0.204022 0.625019 0.571390
O O7 0.008863 0.860630 0.889312
O O8 0.702155 0.708575 0.568549
O O9 0.349313 0.841067 0.514323
O O10 0.344544 0.975169 0.835522
O O11 0.545403 0.158576 0.686458
O O12 0.826601 0.090678 0.839294
O O13 0.447852 0.016901 0.642771
O O14 0.000000 0.500000 0.500000
O O15 0.000000 0.000000 0.500000
#
# Coordination Sequence:
#
# PCOD9023544 Si02
#       7
#     2   2   2   2   2   2   2
#     4  11  22  43  65  91 132 171 210 257 312 383
#     4  11  24  38  66  91 134 168 212 251 326 367
#     4  12  25  38  65  98 128 165 211 265 313 376
#     4  10  22  39  71  91 127 166 209 263 328 356
#     4  11  22  41  63 100 127 162 214 264 315 376
#     4  12  25  43  60  93 135 174 209 250 312 388
#     4  11  22  43  65  98 126 159 214 269 318 368
#
# _framework density 19.875992
#
# number of rings (size 3 to 8) (size 9 to 14) (size 15 to 20)
#    0.000    0.857    5.714    0.857    2.000    2.286 
#    0.000    0.714    0.000    4.286    0.000    0.000 
#    0.000    0.000    0.000    0.000    0.000    0.000 
#
# Total GULP energy -78215.917536 kJ/mol
# GULP energy per Si atom -5586.851253 kJ/mol
# Density = 1.983075 g / cm^3
# Si number density = 19.875992 Si / 1000 Ang^3
#
#
#
# Elastic Constant Matrix: (Units=GPa)
#
#
# Indices 1 2 3 4 5 6 
#
# 1 105.0466 44.5710 67.8941 -19.7681 -5.1946 13.6865
# 2 44.5710 96.8479 53.3687 -12.0006 -9.9800 6.7783
# 3 67.8941 53.3687 143.8670 3.2113 -21.0232 9.1451
# 4 -19.7681 -12.0006 3.2113 27.2926 4.9886 -18.9006
# 5 -5.1946 -9.9800 -21.0232 4.9886 58.5425 -4.9306
# 6 13.6865 6.7783 9.1451 -18.9006 -4.9306 40.7460
#
#
#
# Elastic Compliance Matrix: (Units=1/GPa)
#
#
# Indices 1 2 3 4 5 6 
#
# 1 0.018927 -0.002118 -0.009202 0.016857 -0.003128 0.003501
# 2 -0.002118 0.014654 -0.004745 0.007349 0.000213 0.002774
# 3 -0.009202 -0.004745 0.014413 -0.015369 0.004358 -0.005956
# 4 0.016857 0.007349 -0.015369 0.076861 -0.006675 0.031410
# 5 -0.003128 0.000213 0.004358 -0.006675 0.018909 -0.000771
# 6 0.003501 0.002774 -0.005956 0.031410 -0.000771 0.038718
#
#
# Mechanical properties :
#
#
# Convention : Reuss Voigt Hill
#
# Bulk Modulus (GPa) = 63.04539 75.26990 69.15765
# Shear Modulus (GPa) = 22.73731 37.31139 30.02435
#
# Velocity S-wave (km/s) = 3.38591 4.33738 3.89084
# Velocity P-wave (km/s) = 6.86106 7.93951 7.41990
#
# Compressibility (1/GPa) = 0.01586159
#
# Stress axis : x y z
#
# Youngs Moduli (GPa) = 52.83320 68.24119 69.38380
#
# Poissons Ratio (x) = 0.14456 0.63850
# Poissons Ratio (y) = 0.11192 0.32926
# Poissons Ratio (z) = 0.48619 0.32384
#
# Static dielectric constant tensor:
#      x y z
#    x 1.742350 -0.019420 -0.025070 
#    y -0.019420 1.689850 0.000030 
#    z -0.025070 0.000030 1.731420 
# 
# From -- ./inp_files/28108.got.cif
#   From: 2010.05.17/outbox.cif.g08.bks.cpg/sg2_15_cif.got.tgz:28108.got - 2010.06.03 11:33:40.
