data_PCOD9023121
_publ_section_title
;
Structure prediction by ZEFSAII (Michael W. Deem and Ramdas Pophale) SiO2 
 PCOD9023121
Probable space group: P -1
;
_chemical_formula_sum "Si O2"
_cell_formula_units_Z 16
_cell_length_a 13.320544
_cell_length_b 8.286977
_cell_length_c 8.620200
_cell_angle_alpha 73.894215
_cell_angle_beta 128.056262
_cell_angle_gamma 94.509325
_cell_volume 714.466925
_symmetry_space_group_name_H-M "P -1"
_symmetry_group_IT_number 2
_symmetry_cell_setting 'triclinic'
loop_
_space_group_symop_operation_xyz
x,y,z
-x,-y,-z
loop_
_atom_site_type_symbol
_atom_site_label
_atom_site_fract_x
_atom_site_fract_y
_atom_site_fract_z
Si Si1 0.079024 0.027203 0.912647
Si Si2 0.417010 0.354992 0.894807
Si Si3 0.181097 0.443762 0.129354
Si Si4 0.435373 0.866256 0.676704
Si Si5 0.993545 0.718248 0.751474
Si Si6 0.318286 0.090512 0.284525
Si Si7 0.609104 0.461586 0.484251
Si Si8 0.885861 0.656764 0.343817
O O1 0.072939 0.212942 0.780961
O O2 0.043121 0.894599 0.788557
O O3 0.222142 0.993600 0.120930
O O4 0.000000 0.000000 0.000000
O O5 0.406385 0.383981 0.693688
O O6 0.266967 0.368049 0.806670
O O7 0.500000 0.500000 0.000000
O O8 0.509252 0.191096 0.088076
O O9 0.279183 0.291340 0.198812
O O10 0.255068 0.546785 0.296672
O O11 0.080911 0.343713 0.153703
O O12 0.114067 0.569113 0.902542
O O13 0.555467 0.932087 0.690919
O O14 0.402765 0.704478 0.586917
O O15 0.324773 0.015516 0.485673
O O16 0.904209 0.731263 0.513513
O O17 0.500000 0.500000 0.500000
O O18 0.000000 0.500000 0.500000
#
# Coordination Sequence:
#
# PCOD9023121 Si02
#       8
#     2   2   2   2   2   2   2   2
#     4  12  25  43  69 101 140 182 232 289 350 415
#     4  10  23  43  67 100 138 174 228 287 342 419
#     4  11  22  41  68  99 134 172 234 285 347 410
#     4  10  22  39  66  93 129 176 223 277 342 411
#     4  11  25  42  68  99 136 181 227 292 345 414
#     4  11  21  40  66  95 131 175 224 280 343 411
#     4  11  21  39  69  95 130 173 227 284 348 414
#     4  12  26  45  74 106 141 187 234 291 354 420
#
# _framework density 22.39432
#
# number of rings (size 3 to 8) (size 9 to 14) (size 15 to 20)
#    0.000    1.000    5.000    1.875    1.750    2.000 
#    0.000    0.625    2.750    0.000    0.000    0.000 
#    0.000    0.000    0.000    0.000    0.000    0.000 
#
# Total GULP energy -89216.070512 kJ/mol
# GULP energy per Si atom -5576.004407 kJ/mol
# Density = 2.234335 g / cm^3
# Si number density = 22.394320 Si / 1000 Ang^3
#
#
#
# Elastic Constant Matrix: (Units=GPa)
#
#
# Indices 1 2 3 4 5 6 
#
# 1 46.6867 29.4125 22.4558 -6.4226 -11.2000 18.8773
# 2 29.4125 84.2486 42.0928 5.3958 11.8771 23.6424
# 3 22.4558 42.0928 155.7313 -9.7361 -4.0159 18.8264
# 4 -6.4226 5.3958 -9.7361 48.3677 15.7684 1.9082
# 5 -11.2000 11.8771 -4.0159 15.7684 36.2470 1.4805
# 6 18.8773 23.6424 18.8264 1.9082 1.4805 29.7073
#
#
#
# Elastic Compliance Matrix: (Units=1/GPa)
#
#
# Indices 1 2 3 4 5 6 
#
# 1 0.039506 -0.011363 -0.000043 0.002046 0.015728 -0.016949
# 2 -0.011363 0.020955 -0.003545 -0.001020 -0.010055 -0.006643
# 3 -0.000043 -0.003545 0.007795 0.001587 0.001414 -0.002263
# 4 0.002046 -0.001020 0.001587 0.024559 -0.009435 -0.002602
# 5 0.015728 -0.010055 0.001414 -0.009435 0.040179 -0.004284
# 6 -0.016949 -0.006643 -0.002263 -0.002602 -0.004284 0.051534
#
#
# Mechanical properties :
#
#
# Convention : Reuss Voigt Hill
#
# Bulk Modulus (GPa) = 26.07280 52.73206 39.40243
# Shear Modulus (GPa) = 22.00563 35.71144 28.85853
#
# Velocity S-wave (km/s) = 3.13812 3.99766 3.59368
# Velocity P-wave (km/s) = 4.97978 6.70123 5.90359
#
# Compressibility (1/GPa) = 0.03835415
#
# Stress axis : x y z
#
# Youngs Moduli (GPa) = 25.31252 47.72124 128.28488
#
# Poissons Ratio (x) = 0.54224 0.00551
# Poissons Ratio (y) = 0.28762 0.45483
# Poissons Ratio (z) = 0.00109 0.16919
#
# Static dielectric constant tensor:
#      x y z
#    x 1.861880 -0.080550 0.077270 
#    y -0.080550 1.769720 -0.085980 
#    z 0.077270 -0.085980 2.035850 
# 
# From -- ./inp_files/298002.got.cif
#   From: 2010.05.17/outbox.cif.g08.bks.cpg/sg2_150_cif.got.tgz:298002.got - 2010.06.03 11:33:40.
