data_PCOD9023982
_publ_section_title
;
Structure prediction by ZEFSAII (Michael W. Deem and Ramdas Pophale) SiO2 
 PCOD9023982
Probable space group: P -1
;
_chemical_formula_sum "Si O2"
_cell_formula_units_Z 14
_cell_length_a 14.151507
_cell_length_b 12.941431
_cell_length_c 11.193011
_cell_angle_alpha 145.228179
_cell_angle_beta 31.946553
_cell_angle_gamma 152.361903
_cell_volume 482.437960
_symmetry_space_group_name_H-M "P -1"
_symmetry_group_IT_number 2
_symmetry_cell_setting 'triclinic'
loop_
_space_group_symop_operation_xyz
x,y,z
-x,-y,-z
loop_
_atom_site_type_symbol
_atom_site_label
_atom_site_fract_x
_atom_site_fract_y
_atom_site_fract_z
Si Si1 0.144738 0.407132 0.737922
Si Si2 0.273751 0.232598 0.033475
Si Si3 0.103102 0.507329 0.525821
Si Si4 0.742444 0.841968 0.754973
Si Si5 0.368389 0.138316 0.612424
Si Si6 0.612008 0.909364 0.721714
Si Si7 0.785425 0.585201 0.073394
O O1 0.141900 0.283122 0.505027
O O2 0.411100 0.635850 0.661860
O O3 0.119055 0.291073 0.783408
O O4 0.000000 0.500000 0.000000
O O5 0.104999 0.291646 0.297506
O O6 0.250416 0.107802 0.064904
O O7 0.500000 0.500000 0.000000
O O8 0.256055 0.062896 0.793491
O O9 0.361621 0.708249 0.492797
O O10 0.000000 0.500000 0.500000
O O11 0.942514 0.524481 0.800042
O O12 0.782433 0.960266 0.694909
O O13 0.466405 0.651487 0.862369
O O14 0.334490 0.014722 0.403539
O O15 0.266719 0.273032 0.815019
O O16 0.500000 0.000000 0.000000
#
# Coordination Sequence:
#
# PCOD9023982 Si02
#       7
#     2   2   2   2   2   2   2
#     4  11  20  35  62  90 117 152 206 259 303 357
#     4  10  17  31  52  85 117 147 194 255 302 347
#     4  11  19  28  53  92 122 145 193 251 309 358
#     4  11  19  36  59  85 117 155 199 251 303 357
#     4  11  19  36  54  83 124 155 195 250 304 354
#     4  11  23  40  59  86 123 168 203 242 307 370
#     4  11  17  30  53  83 117 149 190 245 302 346
#
# _framework density 29.019275
#
# number of rings (size 3 to 8) (size 9 to 14) (size 15 to 20)
#    0.000    1.143    7.143    3.429    0.000    0.000 
#    0.000    1.429    0.000    0.000    0.000    6.000 
#    0.000    0.000    0.000    0.000    0.000    0.000 
#
# Total GULP energy -78001.219668 kJ/mol
# GULP energy per Si atom -5571.515691 kJ/mol
# Density = 2.895323 g / cm^3
# Si number density = 29.019275 Si / 1000 Ang^3
#
#
#
# Elastic Constant Matrix: (Units=GPa)
#
#
# Indices 1 2 3 4 5 6 
#
# 1 263.3299 51.5955 103.2609 -6.2178 49.8886 21.0411
# 2 51.5955 50.0960 34.5767 -23.5061 20.1446 5.8031
# 3 103.2609 34.5767 289.6945 -22.9618 34.4971 6.6999
# 4 -6.2178 -23.5061 -22.9618 41.3173 0.0571 -1.5018
# 5 49.8886 20.1446 34.4971 0.0571 87.5051 -2.9538
# 6 21.0411 5.8031 6.6999 -1.5018 -2.9538 44.3711
#
#
#
# Elastic Compliance Matrix: (Units=1/GPa)
#
#
# Indices 1 2 3 4 5 6 
#
# 1 0.005852 -0.005709 -0.001433 -0.003235 -0.001523 -0.002023
# 2 -0.005709 0.038098 -0.000172 0.020657 -0.005526 -0.001918
# 3 -0.001433 -0.000172 0.004241 0.002047 -0.000814 0.000077
# 4 -0.003235 0.020657 0.002047 0.036593 -0.003758 -0.000488
# 5 -0.001523 -0.005526 -0.000814 -0.003758 0.013972 0.002371
# 6 -0.002023 -0.001918 0.000077 -0.000488 0.002371 0.023877
#
#
# Mechanical properties :
#
#
# Convention : Reuss Voigt Hill
#
# Bulk Modulus (GPa) = 29.79593 109.10965 69.45279
# Shear Modulus (GPa) = 33.68174 62.21784 47.94979
#
# Velocity S-wave (km/s) = 3.41055 4.63538 4.06931
# Velocity P-wave (km/s) = 5.07928 8.14430 6.78707
#
# Compressibility (1/GPa) = 0.03356163
#
# Stress axis : x y z
#
# Youngs Moduli (GPa) = 170.88802 26.24819 235.81770
#
# Poissons Ratio (x) = 0.14986 0.33785
# Poissons Ratio (y) = 0.97563 0.04066
# Poissons Ratio (z) = 0.24483 0.00453
#
# Static dielectric constant tensor:
#      x y z
#    x 4.879540 -0.541040 -1.070220 
#    y -0.541040 2.696100 0.320030 
#    z -1.070220 0.320030 2.675300 
# 
# From -- ./inp_files/454034.got.cif
#   From: 2010.05.17/outbox.cif.g08.bks.cpg/sg2_228_cif.got.tgz:454034.got - 2010.06.03 11:33:40.
