data_PCOD9023468
_publ_section_title
;
Structure prediction by ZEFSAII (Michael W. Deem and Ramdas Pophale) SiO2 
 PCOD9023468
Probable space group: P -1
;
_chemical_formula_sum "Si O2"
_cell_formula_units_Z 16
_cell_length_a 8.829090
_cell_length_b 9.382147
_cell_length_c 12.909502
_cell_angle_alpha 53.290461
_cell_angle_beta 131.936567
_cell_angle_gamma 126.856875
_cell_volume 600.664322
_symmetry_space_group_name_H-M "P -1"
_symmetry_group_IT_number 2
_symmetry_cell_setting 'triclinic'
loop_
_space_group_symop_operation_xyz
x,y,z
-x,-y,-z
loop_
_atom_site_type_symbol
_atom_site_label
_atom_site_fract_x
_atom_site_fract_y
_atom_site_fract_z
Si Si1 0.222104 0.790960 0.567953
Si Si2 0.542949 0.943640 0.819330
Si Si3 0.601772 0.384869 0.465226
Si Si4 0.976950 0.417476 0.749385
Si Si5 0.910047 0.937773 0.113842
Si Si6 0.445744 0.238655 0.797346
Si Si7 0.782820 0.355329 0.072708
Si Si8 0.881229 0.862128 0.696100
O O1 0.444197 0.915429 0.672531
O O2 0.284265 0.708295 0.527345
O O3 0.091082 0.613422 0.655014
O O4 0.091207 0.934232 0.429071
O O5 0.420745 0.739075 0.904046
O O6 0.471987 0.094205 0.786944
O O7 0.794818 0.990881 0.938099
O O8 0.634008 0.598513 0.354979
O O9 0.348360 0.273251 0.390313
O O10 0.723471 0.377381 0.631399
O O11 0.045823 0.255508 0.798703
O O12 0.070922 0.449881 0.894136
O O13 0.719354 0.885698 0.137704
O O14 0.102571 0.096111 0.191413
O O15 0.672764 0.342902 0.916360
O O16 0.938976 0.230907 0.205126
#
# Coordination Sequence:
#
# PCOD9023468 Si02
#       8
#     2   2   2   2   2   2   2   2
#     4  11  24  41  64  92 124 158 211 252 303 357
#     4  10  22  39  69  97 115 157 209 259 301 357
#     4  12  26  40  61  92 128 165 202 250 305 363
#     4  11  24  40  66  95 118 162 207 256 301 358
#     4  11  20  42  68  89 125 158 204 254 309 357
#     4  11  21  42  66  94 121 157 210 252 303 362
#     4  10  23  40  66  94 121 160 204 255 307 357
#     4  12  24  43  61  86 132 168 198 249 306 367
#
# _framework density 26.637174000000002
#
# number of rings (size 3 to 8) (size 9 to 14) (size 15 to 20)
#    0.000    1.000    5.000    2.250    3.500    3.500 
#    0.000    0.625    0.000    0.000    0.000    0.000 
#    0.000    0.000    0.000    0.000    0.000    0.000 
#
# Total GULP energy -89742.943261 kJ/mol
# GULP energy per Si atom -5608.933954 kJ/mol
# Density = 2.657655 g / cm^3
# Si number density = 26.637174 Si / 1000 Ang^3
#
#
#
# Elastic Constant Matrix: (Units=GPa)
#
#
# Indices 1 2 3 4 5 6 
#
# 1 48.9104 13.8006 18.9810 4.3852 2.4093 15.3088
# 2 13.8006 152.9388 57.3673 39.2223 8.0430 -7.9969
# 3 18.9810 57.3673 124.3984 11.9359 19.3997 -4.9472
# 4 4.3852 39.2223 11.9359 61.9589 6.9684 4.9838
# 5 2.4093 8.0430 19.3997 6.9684 41.1138 -1.5287
# 6 15.3088 -7.9969 -4.9472 4.9838 -1.5287 35.6220
#
#
#
# Elastic Compliance Matrix: (Units=1/GPa)
#
#
# Indices 1 2 3 4 5 6 
#
# 1 0.026189 -0.001884 -0.003711 0.001053 -0.000053 -0.012342
# 2 -0.001884 0.009644 -0.003646 -0.005650 0.001025 0.003303
# 3 -0.003711 -0.003646 0.010962 0.000782 -0.004299 0.002005
# 4 0.001053 -0.005650 0.000782 0.020186 -0.002916 -0.004562
# 5 -0.000053 0.001025 -0.004299 -0.002916 0.026693 0.001209
# 6 -0.012342 0.003303 0.002005 -0.004562 0.001209 0.035087
#
#
# Mechanical properties :
#
#
# Convention : Reuss Voigt Hill
#
# Bulk Modulus (GPa) = 35.32021 56.28281 45.80151
# Shear Modulus (GPa) = 31.91216 43.47886 37.69551
#
# Velocity S-wave (km/s) = 3.46501 4.04451 3.76592
# Velocity P-wave (km/s) = 5.41267 6.55637 6.01178
#
# Compressibility (1/GPa) = 0.02831240
#
# Stress axis : x y z
#
# Youngs Moduli (GPa) = 38.18470 103.68981 91.22696
#
# Poissons Ratio (x) = 0.19533 0.33853
# Poissons Ratio (y) = 0.07193 0.33265
# Poissons Ratio (z) = 0.14170 0.37809
#
# Static dielectric constant tensor:
#      x y z
#    x 2.155370 0.052110 -0.020490 
#    y 0.052110 2.089020 0.069260 
#    z -0.020490 0.069260 2.054530 
# 
# From -- ./inp_files/565205.got.cif
#   From: 2010.05.17/outbox.cif.g08.bks.cpg/sg2_283_cif.got.tgz:565205.got - 2010.06.03 11:33:40.
