data_PCOD9023829
_publ_section_title
;
Structure prediction by ZEFSAII (Michael W. Deem and Ramdas Pophale) SiO2 
 PCOD9023829
Probable space group: P -1
;
_chemical_formula_sum "Si O2"
_cell_formula_units_Z 14
_cell_length_a 5.587666
_cell_length_b 11.708178
_cell_length_c 13.378311
_cell_angle_alpha 124.714315
_cell_angle_beta 100.588583
_cell_angle_gamma 115.214395
_cell_volume 533.299912
_symmetry_space_group_name_H-M "P -1"
_symmetry_group_IT_number 2
_symmetry_cell_setting 'triclinic'
loop_
_space_group_symop_operation_xyz
x,y,z
-x,-y,-z
loop_
_atom_site_type_symbol
_atom_site_label
_atom_site_fract_x
_atom_site_fract_y
_atom_site_fract_z
Si Si1 0.169860 0.913814 0.991598
Si Si2 0.694092 0.754109 0.567319
Si Si3 0.018862 0.912239 0.359419
Si Si4 0.923147 0.523144 0.744595
Si Si5 0.711649 0.445050 0.380210
Si Si6 0.355672 0.576280 0.119824
Si Si7 0.794800 0.189829 0.840643
O O1 0.929281 0.693937 0.836092
O O2 0.260650 0.922252 0.120623
O O3 0.500000 0.000000 0.000000
O O4 0.000000 0.000000 0.000000
O O5 0.368052 0.656912 0.429365
O O6 0.774622 0.631298 0.475692
O O7 0.598789 0.707203 0.652314
O O8 0.967894 0.964068 0.664356
O O9 0.715263 0.698450 0.247239
O O10 0.279739 0.910018 0.321880
O O11 0.000000 0.000000 0.500000
O O12 0.864254 0.458243 0.820421
O O13 0.243731 0.601837 0.748711
O O14 0.000000 0.500000 0.500000
O O15 0.359232 0.714699 0.120378
O O16 0.178875 0.373463 0.965999
#
# Coordination Sequence:
#
# PCOD9023829 Si02
#       7
#     2   2   2   2   2   2   2
#     4  11  28  49  77 113 145 198 260 319 378 453
#     4  10  22  40  61  99 138 187 232 302 373 441
#     4  12  25  41  70 106 144 187 245 311 373 459
#     4  10  22  42  70  96 140 187 242 306 376 443
#     4   9  21  39  62  91 135 185 233 288 368 442
#     4  10  23  47  69 102 139 195 246 306 384 445
#     4  10  26  47  72 102 147 192 251 311 379 450
#
# _framework density 26.251646999999998
#
# number of rings (size 3 to 8) (size 9 to 14) (size 15 to 20)
#    0.000    1.714    1.429    0.429    8.000    5.143 
#    5.143    0.000    0.000    0.000    0.000    0.000 
#    0.000    0.000    0.000    0.000    0.000    0.000 
#
# Total GULP energy -78077.526257 kJ/mol
# GULP energy per Si atom -5576.966161 kJ/mol
# Density = 2.619190 g / cm^3
# Si number density = 26.251647 Si / 1000 Ang^3
#
#
#
# Elastic Constant Matrix: (Units=GPa)
#
#
# Indices 1 2 3 4 5 6 
#
# 1 84.0252 50.6305 18.2032 -2.9472 -31.8343 8.0496
# 2 50.6305 104.6115 20.1476 -2.4514 -25.3857 -7.4391
# 3 18.2032 20.1476 92.1810 -1.6466 -23.2121 21.5310
# 4 -2.9472 -2.4514 -1.6466 57.9309 8.0999 -15.7400
# 5 -31.8343 -25.3857 -23.2121 8.0999 47.3568 -1.1340
# 6 8.0496 -7.4391 21.5310 -15.7400 -1.1340 34.3006
#
#
#
# Elastic Compliance Matrix: (Units=1/GPa)
#
#
# Indices 1 2 3 4 5 6 
#
# 1 0.022159 -0.009263 0.002961 -0.003636 0.011756 -0.010348
# 2 -0.009263 0.015441 -0.003556 0.002485 0.000096 0.008898
# 3 0.002961 -0.003556 0.016213 -0.004351 0.008455 -0.013360
# 4 -0.003636 0.002485 -0.004351 0.021760 -0.006634 0.013889
# 5 0.011756 0.000096 0.008455 -0.006634 0.034110 -0.009962
# 6 -0.010348 0.008898 -0.013360 0.013889 -0.009962 0.047943
#
#
# Mechanical properties :
#
#
# Convention : Reuss Voigt Hill
#
# Bulk Modulus (GPa) = 29.32796 50.97559 40.15177
# Shear Modulus (GPa) = 26.49600 40.70677 33.60138
#
# Velocity S-wave (km/s) = 3.18041 3.94208 3.58155
# Velocity P-wave (km/s) = 4.96818 6.33879 5.69487
#
# Compressibility (1/GPa) = 0.03409715
#
# Stress axis : x y z
#
# Youngs Moduli (GPa) = 45.12849 64.76060 61.68016
#
# Poissons Ratio (x) = 0.59989 -0.18263
# Poissons Ratio (y) = 0.41804 0.21932
# Poissons Ratio (z) = -0.13362 0.23027
#
# Static dielectric constant tensor:
#      x y z
#    x 2.369260 0.071720 0.174720 
#    y 0.071720 2.042400 0.016220 
#    z 0.174720 0.016220 2.258090 
# 
# From -- ./inp_files/78017.got.cif
#   From: 2010.05.17/outbox.cif.g08.bks.cpg/sg2_40_cif.got.tgz:78017.got - 2010.06.03 11:33:40.
