data_PCOD9023651
_publ_section_title
;
Structure prediction by ZEFSAII (Michael W. Deem and Ramdas Pophale) SiO2 
 PCOD9023651
Probable space group: P -1
;
_chemical_formula_sum "Si O2"
_cell_formula_units_Z 16
_cell_length_a 5.251623
_cell_length_b 11.583757
_cell_length_c 12.014808
_cell_angle_alpha 76.455910
_cell_angle_beta 70.828639
_cell_angle_gamma 64.432918
_cell_volume 619.089068
_symmetry_space_group_name_H-M "P -1"
_symmetry_group_IT_number 2
_symmetry_cell_setting 'triclinic'
loop_
_space_group_symop_operation_xyz
x,y,z
-x,-y,-z
loop_
_atom_site_type_symbol
_atom_site_label
_atom_site_fract_x
_atom_site_fract_y
_atom_site_fract_z
Si Si1 0.346739 0.512351 0.773154
Si Si2 0.272895 0.449885 0.105686
Si Si3 0.355411 0.771357 0.226946
Si Si4 0.535205 0.990245 0.130921
Si Si5 0.723240 0.199869 0.029779
Si Si6 0.526870 0.854632 0.558747
Si Si7 0.905658 0.142812 0.535314
Si Si8 0.059838 0.796070 0.776697
O O1 0.619714 0.532586 0.790176
O O2 0.505193 0.376255 0.721743
O O3 0.152153 0.658472 0.733481
O O4 0.073879 0.485173 0.876331
O O5 0.398567 0.300846 0.084995
O O6 0.500000 0.500000 0.000000
O O7 0.104259 0.847880 0.332726
O O8 0.576119 0.846117 0.185021
O O9 0.253668 0.781936 0.109424
O O10 0.763893 0.057019 0.095047
O O11 0.247812 0.084613 0.216168
O O12 0.500000 0.000000 0.000000
O O13 0.911726 0.235464 0.087100
O O14 0.420882 0.796261 0.481087
O O15 0.313222 0.843909 0.687781
O O16 0.868391 0.795296 0.549301
O O17 0.500000 0.000000 0.500000
O O18 0.000000 0.000000 0.500000
#
# Coordination Sequence:
#
# PCOD9023651 Si02
#       8
#     2   2   2   2   2   2   2   2
#     4  11  25  42  67 103 136 193 225 286 342 418
#     4  11  21  40  67  94 147 189 232 258 342 432
#     4  11  24  43  67 104 145 174 238 286 353 417
#     4  10  22  40  59  99 141 179 221 282 340 411
#     4  10  23  40  66 105 139 185 223 285 348 421
#     4  10  23  42  73  95 127 181 239 284 342 408
#     4  10  23  45  68  97 128 185 229 288 345 408
#     4  11  24  43  73  97 143 184 238 281 353 424
#
# _framework density 25.844424
#
# number of rings (size 3 to 8) (size 9 to 14) (size 15 to 20)
#    0.000    1.500    2.500    1.875    5.250    4.000 
#    6.750    1.250    0.000    0.000    0.000    0.000 
#    0.000    0.000    0.000    0.000    0.000    0.000 
#
# Total GULP energy -89116.361995 kJ/mol
# GULP energy per Si atom -5569.772625 kJ/mol
# Density = 2.578560 g / cm^3
# Si number density = 25.844424 Si / 1000 Ang^3
#
#
#
# Elastic Constant Matrix: (Units=GPa)
#
#
# Indices 1 2 3 4 5 6 
#
# 1 116.0478 30.3673 20.4185 -2.3454 -15.7206 21.4400
# 2 30.3673 162.8050 44.6524 10.0616 -7.3866 12.4447
# 3 20.4185 44.6524 110.4502 14.0489 -0.7314 9.6423
# 4 -2.3454 10.0616 14.0489 30.2129 2.7344 -3.8246
# 5 -15.7206 -7.3866 -0.7314 2.7344 48.0600 -1.5887
# 6 21.4400 12.4447 9.6423 -3.8246 -1.5887 28.0008
#
#
#
# Elastic Compliance Matrix: (Units=1/GPa)
#
#
# Indices 1 2 3 4 5 6 
#
# 1 0.010840 -0.001090 -0.000968 0.000458 0.003098 -0.007244
# 2 -0.001090 0.007268 -0.002361 -0.001701 0.000763 -0.001772
# 3 -0.000968 -0.002361 0.011018 -0.004720 -0.000332 -0.002667
# 4 0.000458 -0.001701 -0.004720 0.036963 -0.002056 0.006963
# 5 0.003098 0.000763 -0.000332 -0.002056 0.021996 -0.001630
# 6 -0.007244 -0.001772 -0.002667 0.006963 -0.001630 0.043824
#
#
# Mechanical properties :
#
#
# Convention : Reuss Voigt Hill
#
# Bulk Modulus (GPa) = 49.29149 64.46440 56.87795
# Shear Modulus (GPa) = 33.89572 40.84573 37.37072
#
# Velocity S-wave (km/s) = 3.62543 3.97980 3.80674
# Velocity P-wave (km/s) = 6.05300 6.79086 6.43252
#
# Compressibility (1/GPa) = 0.02028748
#
# Stress axis : x y z
#
# Youngs Moduli (GPa) = 92.25021 137.58347 90.75791
#
# Poissons Ratio (x) = 0.15001 0.08790
# Poissons Ratio (y) = 0.10058 0.21426
# Poissons Ratio (z) = 0.08934 0.32481
#
# Static dielectric constant tensor:
#      x y z
#    x 2.285660 -0.020430 0.015490 
#    y -0.020430 2.204720 -0.032990 
#    z 0.015490 -0.032990 2.133090 
# 
# From -- ./inp_files/482807.got.cif
#   From: 2010.05.17/outbox.cif.g08.bks.cpg/sg2_242_cif.got.tgz:482807.got - 2010.06.03 11:33:40.
