data_PCOD9023103
_publ_section_title
;
Structure prediction by ZEFSAII (Michael W. Deem and Ramdas Pophale) SiO2 
 PCOD9023103
Probable space group: P -1
;
_chemical_formula_sum "Si O2"
_cell_formula_units_Z 12
_cell_length_a 4.769020
_cell_length_b 16.489805
_cell_length_c 10.512333
_cell_angle_alpha 35.408444
_cell_angle_beta 73.345869
_cell_angle_gamma 74.131091
_cell_volume 457.709940
_symmetry_space_group_name_H-M "P -1"
_symmetry_group_IT_number 2
_symmetry_cell_setting 'triclinic'
loop_
_space_group_symop_operation_xyz
x,y,z
-x,-y,-z
loop_
_atom_site_type_symbol
_atom_site_label
_atom_site_fract_x
_atom_site_fract_y
_atom_site_fract_z
Si Si1 0.984629 0.135928 0.586876
Si Si2 0.400828 0.873454 0.586996
Si Si3 0.555899 0.659347 0.514780
Si Si4 0.764677 0.895926 0.051219
Si Si5 0.539698 0.662222 0.222599
Si Si6 0.844688 0.375720 0.901675
O O1 0.838071 0.081070 0.546222
O O2 0.742850 0.257536 0.508055
O O3 0.301252 0.183554 0.450539
O O4 0.008439 0.998610 0.849734
O O5 0.500000 0.000000 0.500000
O O6 0.268073 0.746584 0.842145
O O7 0.796300 0.774014 0.309492
O O8 0.518638 0.604545 0.443355
O O9 0.679514 0.528394 0.748179
O O10 0.637406 0.817281 0.047053
O O11 0.500000 0.000000 0.000000
O O12 0.240496 0.665536 0.179446
O O13 0.808918 0.610710 0.161345
#
# Coordination Sequence:
#
# PCOD9023103 Si02
#       6
#     2   2   2   2   2   2
#     4  11  23  45  62  95 122 165 207 253 308 366
#     4  12  26  41  67  87 130 166 207 250 301 378
#     4   9  23  41  67  93 124 160 205 264 310 359
#     4   8  18  40  60  92 117 157 199 256 304 356
#     4  10  22  39  66  90 129 154 209 255 308 365
#     4  12  23  42  61  97 122 169 204 250 310 365
#
# _framework density 26.217476999999999
#
# number of rings (size 3 to 8) (size 9 to 14) (size 15 to 20)
#    1.000    0.667    0.000    4.500    0.000    4.000 
#    0.000    3.333    0.000    0.000    0.000    0.000 
#    0.000    0.000    0.000    0.000    0.000    0.000 
#
# Total GULP energy -67178.279522 kJ/mol
# GULP energy per Si atom -5598.189960 kJ/mol
# Density = 2.615780 g / cm^3
# Si number density = 26.217477 Si / 1000 Ang^3
#
#
#
# Elastic Constant Matrix: (Units=GPa)
#
#
# Indices 1 2 3 4 5 6 
#
# 1 117.0469 17.0593 31.1396 4.9080 -9.2605 -12.0944
# 2 17.0593 87.1930 28.2814 -4.4813 -4.7790 -23.5567
# 3 31.1396 28.2814 203.8298 -0.6247 -27.0857 -22.1502
# 4 4.9080 -4.4813 -0.6247 37.7921 -4.0784 -4.8300
# 5 -9.2605 -4.7790 -27.0857 -4.0784 39.1784 5.6912
# 6 -12.0944 -23.5567 -22.1502 -4.8300 5.6912 43.0786
#
#
#
# Elastic Compliance Matrix: (Units=1/GPa)
#
#
# Indices 1 2 3 4 5 6 
#
# 1 0.009227 -0.001164 -0.000979 -0.001085 0.001077 0.001187
# 2 -0.001164 0.014097 -0.000990 0.002724 0.000001 0.007178
# 3 -0.000979 -0.000990 0.005859 0.000717 0.003509 0.001813
# 4 -0.001085 0.002724 0.000717 0.027792 0.002841 0.004294
# 5 0.001077 0.000001 0.003509 0.002841 0.028699 -0.001366
# 6 0.001187 0.007178 0.001813 0.004294 -0.001366 0.029066
#
#
# Mechanical properties :
#
#
# Convention : Reuss Voigt Hill
#
# Bulk Modulus (GPa) = 43.63596 62.33669 52.98632
# Shear Modulus (GPa) = 38.86703 46.11579 42.49141
#
# Velocity S-wave (km/s) = 3.85448 4.19856 4.03019
# Velocity P-wave (km/s) = 6.04064 6.87984 6.47386
#
# Compressibility (1/GPa) = 0.02291688
#
# Stress axis : x y z
#
# Youngs Moduli (GPa) = 108.37693 70.93780 170.69079
#
# Poissons Ratio (x) = 0.08255 0.16719
# Poissons Ratio (y) = 0.12612 0.16891
# Poissons Ratio (z) = 0.10615 0.07020
#
# Static dielectric constant tensor:
#      x y z
#    x 1.977760 0.101750 -0.015670 
#    y 0.101750 2.186610 -0.048390 
#    z -0.015670 -0.048390 2.135300 
# 
# From -- ./inp_files/62342.got.cif
#   From: 2010.05.17/outbox.cif.g08.bks.cpg/sg2_32_cif.got.tgz:62342.got - 2010.06.03 11:33:40.
