data_PCOD9023785
_publ_section_title
;
Structure prediction by ZEFSAII (Michael W. Deem and Ramdas Pophale) SiO2 
 PCOD9023785
Probable space group: P -1
;
_chemical_formula_sum "Si O2"
_cell_formula_units_Z 15
_cell_length_a 21.831701
_cell_length_b 5.331218
_cell_length_c 16.628721
_cell_angle_alpha 64.689314
_cell_angle_beta 158.010671
_cell_angle_gamma 107.056910
_cell_volume 623.984449
_symmetry_space_group_name_H-M "P -1"
_symmetry_group_IT_number 2
_symmetry_cell_setting 'triclinic'
loop_
_space_group_symop_operation_xyz
x,y,z
-x,-y,-z
loop_
_atom_site_type_symbol
_atom_site_label
_atom_site_fract_x
_atom_site_fract_y
_atom_site_fract_z
Si Si1 0.839770 0.590261 0.598476
Si Si2 0.665112 0.168870 0.524508
Si Si3 0.529851 0.061246 0.935839
Si Si4 0.576442 0.654283 0.659065
Si Si5 0.356866 0.354480 0.010219
Si Si6 0.000000 0.000000 0.000000
Si Si7 0.888184 0.657152 0.153339
Si Si8 0.138351 0.722995 0.038093
O O1 0.795243 0.308123 0.616503
O O2 0.662109 0.839315 0.348196
O O3 0.925223 0.539967 0.621326
O O4 0.983832 0.621892 0.828696
O O5 0.560349 0.385098 0.436738
O O6 0.514143 0.147122 0.284758
O O7 0.815463 0.896625 0.777427
O O8 0.604882 0.335533 0.985863
O O9 0.634529 0.789942 0.046696
O O10 0.500000 0.000000 0.000000
O O11 0.664858 0.462368 0.716739
O O12 0.500000 0.000000 0.500000
O O13 0.746772 0.596387 0.930344
O O14 0.179989 0.375867 0.837044
O O15 0.906087 0.188479 0.936758
O O16 0.881280 0.982400 0.078228
#
# Coordination Sequence:
#
# PCOD9023785 Si02
#       8
#     2   2   2   2   2   1   2   2
#     4  10  23  42  66  93 129 173 218 281 338 406
#     4  10  22  40  61  92 128 173 227 273 335 392
#     4  11  24  46  74 104 133 171 219 278 340 416
#     4  10  23  42  59  89 126 177 234 286 334 385
#     4  10  24  44  71  98 137 176 222 269 343 412
#     4  12  22  38  56  92 128 172 232 274 332 370
#     4  10  22  42  63  93 128 178 222 267 343 398
#     4  11  24  41  64  89 136 179 227 286 331 405
#
# _framework density 24.039061
#
# number of rings (size 3 to 8) (size 9 to 14) (size 15 to 20)
#    0.000    1.600    1.333    2.000   11.200    2.667 
#    4.800    1.333    0.000    0.000    0.000    0.000 
#    0.000    0.000    0.000    0.000    0.000    0.000 
#
# Total GULP energy -83580.945968 kJ/mol
# GULP energy per Si atom -5572.063065 kJ/mol
# Density = 2.398435 g / cm^3
# Si number density = 24.039061 Si / 1000 Ang^3
#
#
#
# Elastic Constant Matrix: (Units=GPa)
#
#
# Indices 1 2 3 4 5 6 
#
# 1 229.3886 106.2886 42.4406 3.4499 63.3314 -37.8744
# 2 106.2886 132.0279 49.8318 4.4150 65.4514 -29.5017
# 3 42.4406 49.8318 34.5749 9.1401 38.4688 -1.3604
# 4 3.4499 4.4150 9.1401 17.8817 3.2906 7.5448
# 5 63.3314 65.4514 38.4688 3.2906 66.4342 -3.2995
# 6 -37.8744 -29.5017 -1.3604 7.5448 -3.2995 45.2311
#
#
#
# Elastic Compliance Matrix: (Units=1/GPa)
#
#
# Indices 1 2 3 4 5 6 
#
# 1 0.007657 -0.003420 0.000752 -0.002066 -0.004051 0.004252
# 2 -0.003420 0.026610 -0.027065 0.003899 -0.006855 0.012528
# 3 0.000752 -0.027065 0.137444 -0.050783 -0.051530 -0.008178
# 4 -0.002066 0.003899 -0.050783 0.082527 0.022809 -0.012816
# 5 -0.004051 -0.006855 -0.051530 0.022809 0.053916 -0.009285
# 6 0.004252 0.012528 -0.008178 -0.012816 -0.009285 0.035055
#
#
# Mechanical properties :
#
#
# Convention : Reuss Voigt Hill
#
# Bulk Modulus (GPa) = 8.90913 88.12372 48.51642
# Shear Modulus (GPa) = 11.36132 39.07142 25.21637
#
# Velocity S-wave (km/s) = 2.17634 4.03591 3.24230
# Velocity P-wave (km/s) = 3.16693 7.64567 5.85174
#
# Compressibility (1/GPa) = 0.11224444
#
# Stress axis : x y z
#
# Youngs Moduli (GPa) = 130.60347 37.58011 7.27567
#
# Poissons Ratio (x) = 0.12852 -0.00547
# Poissons Ratio (y) = 0.44667 0.19692
# Poissons Ratio (z) = -0.09816 1.01710
#
# Static dielectric constant tensor:
#      x y z
#    x 1.886830 -0.117260 0.155490 
#    y -0.117260 1.854220 0.256640 
#    z 0.155490 0.256640 1.493450 
# 
# From -- ./inp_files/55976.got.cif
#   From: 2010.05.17/outbox.cif.g08.bks.cpg/sg2_28_cif.got.tgz:55976.got - 2010.06.03 11:33:40.
