data_PCOD9023572
_publ_section_title
;
Structure prediction by ZEFSAII (Michael W. Deem and Ramdas Pophale) SiO2 
 PCOD9023572
Probable space group: P -1
;
_chemical_formula_sum "Si O2"
_cell_formula_units_Z 16
_cell_length_a 17.173473
_cell_length_b 14.677364
_cell_length_c 9.336073
_cell_angle_alpha 30.500866
_cell_angle_beta 137.658882
_cell_angle_gamma 141.167548
_cell_volume 731.669576
_symmetry_space_group_name_H-M "P -1"
_symmetry_group_IT_number 2
_symmetry_cell_setting 'triclinic'
loop_
_space_group_symop_operation_xyz
x,y,z
-x,-y,-z
loop_
_atom_site_type_symbol
_atom_site_label
_atom_site_fract_x
_atom_site_fract_y
_atom_site_fract_z
Si Si1 0.017620 0.200338 0.828502
Si Si2 0.681723 0.549176 0.398929
Si Si3 0.405626 0.228180 0.810567
Si Si4 0.810259 0.170644 0.814965
Si Si5 0.065008 0.484111 0.257567
Si Si6 0.406201 0.767317 0.721392
Si Si7 0.540567 0.833826 0.342011
Si Si8 0.687940 0.666589 0.941101
O O1 0.990828 0.330721 0.491039
O O2 0.924140 0.162378 0.886830
O O3 0.166992 0.297702 0.943070
O O4 0.000000 0.000000 0.000000
O O5 0.629558 0.606149 0.392124
O O6 0.824377 0.577129 0.561635
O O7 0.588870 0.322803 0.551886
O O8 0.676038 0.673792 0.085906
O O9 0.409793 0.233722 0.640396
O O10 0.541236 0.245972 0.031274
O O11 0.292663 0.030784 0.985387
O O12 0.868868 0.315030 0.833616
O O13 0.729665 0.243319 0.497350
O O14 0.000000 0.500000 0.000000
O O15 0.500000 0.000000 0.500000
O O16 0.399845 0.560139 0.922201
O O17 0.646799 0.833990 0.597581
O O18 0.500000 0.000000 0.000000
#
# Coordination Sequence:
#
# PCOD9023572 Si02
#       8
#     2   2   2   2   2   2   2   2
#     4  11  25  45  70 102 138 189 239 275 338 424
#     4  11  23  45  68  96 138 182 226 282 348 422
#     4  11  25  42  67 103 137 176 227 287 352 408
#     4  11  22  45  71 100 141 184 232 282 344 416
#     4  11  25  43  69 102 136 179 235 290 344 402
#     4  10  22  39  73 103 137 177 234 275 351 415
#     4  12  27  42  67 102 140 177 228 289 353 404
#     4  11  24  45  71  99 141 186 232 283 343 416
#
# _framework density 21.867794
#
# number of rings (size 3 to 8) (size 9 to 14) (size 15 to 20)
#    0.000    1.000    3.750    3.375    1.750    6.000 
#    0.000    1.875    0.000    0.000    0.000    0.000 
#    0.000    0.000    0.000    0.000    0.000    0.000 
#
# Total GULP energy -89206.105856 kJ/mol
# GULP energy per Si atom -5575.381616 kJ/mol
# Density = 2.181802 g / cm^3
# Si number density = 21.867794 Si / 1000 Ang^3
#
#
#
# Elastic Constant Matrix: (Units=GPa)
#
#
# Indices 1 2 3 4 5 6 
#
# 1 104.6140 22.8278 37.7098 17.3118 -0.3117 7.1381
# 2 22.8278 98.5873 44.2206 6.8915 2.3797 4.4802
# 3 37.7098 44.2206 128.5122 22.0613 -7.9323 0.1572
# 4 17.3118 6.8915 22.0613 44.5101 -2.7668 -1.1825
# 5 -0.3117 2.3797 -7.9323 -2.7668 30.0759 -3.7867
# 6 7.1381 4.4802 0.1572 -1.1825 -3.7867 23.3790
#
#
#
# Elastic Compliance Matrix: (Units=1/GPa)
#
#
# Indices 1 2 3 4 5 6 
#
# 1 0.011482 -0.001117 -0.002501 -0.003225 -0.001206 -0.003633
# 2 -0.001117 0.012399 -0.004143 0.000359 -0.002351 -0.002370
# 3 -0.002501 -0.004143 0.010721 -0.003463 0.003038 0.001802
# 4 -0.003225 0.000359 -0.003463 0.025553 0.001691 0.002506
# 5 -0.001206 -0.002351 0.003038 0.001691 0.035209 0.006587
# 6 -0.003633 -0.002370 0.001802 0.002506 0.006587 0.045518
#
#
# Mechanical properties :
#
#
# Convention : Reuss Voigt Hill
#
# Bulk Modulus (GPa) = 52.41046 60.13665 56.27356
# Shear Modulus (GPa) = 30.71912 34.72335 32.72124
#
# Velocity S-wave (km/s) = 3.75209 3.98914 3.87243
# Velocity P-wave (km/s) = 6.54140 6.98409 6.76636
#
# Compressibility (1/GPa) = 0.01908016
#
# Stress axis : x y z
#
# Youngs Moduli (GPa) = 87.09032 80.64884 93.27917
#
# Poissons Ratio (x) = 0.09009 0.23332
# Poissons Ratio (y) = 0.09729 0.38642
# Poissons Ratio (z) = 0.21784 0.33410
#
# Static dielectric constant tensor:
#      x y z
#    x 1.776710 -0.005690 0.035300 
#    y -0.005690 1.898510 -0.067690 
#    z 0.035300 -0.067690 1.855480 
# 
# From -- ./inp_files/335591.got.cif
#   From: 2010.05.17/outbox.cif.g08.bks.cpg/sg2_168_cif.got.tgz:335591.got - 2010.06.03 11:33:40.
