data_PCOD9023700
_publ_section_title
;
Structure prediction by ZEFSAII (Michael W. Deem and Ramdas Pophale) SiO2 
 PCOD9023700
Probable space group: P -1
;
_chemical_formula_sum "Si O2"
_cell_formula_units_Z 14
_cell_length_a 12.088635
_cell_length_b 14.483232
_cell_length_c 5.694585
_cell_angle_alpha 136.235177
_cell_angle_beta 73.820588
_cell_angle_gamma 125.400483
_cell_volume 544.610928
_symmetry_space_group_name_H-M "P -1"
_symmetry_group_IT_number 2
_symmetry_cell_setting 'triclinic'
loop_
_space_group_symop_operation_xyz
x,y,z
-x,-y,-z
loop_
_atom_site_type_symbol
_atom_site_label
_atom_site_fract_x
_atom_site_fract_y
_atom_site_fract_z
Si Si1 0.897266 0.660655 0.427101
Si Si2 0.674703 0.713780 0.871338
Si Si3 0.407228 0.834878 0.608259
Si Si4 0.255880 0.688484 0.019472
Si Si5 0.572432 0.397014 0.546613
Si Si6 0.897056 0.307459 0.263818
Si Si7 0.048674 0.968149 0.657649
O O1 0.765825 0.666492 0.580607
O O2 0.006605 0.727095 0.702895
O O3 0.970030 0.775835 0.373968
O O4 0.845901 0.476365 0.075662
O O5 0.623096 0.583907 0.877914
O O6 0.550622 0.678152 0.710413
O O7 0.783819 0.902264 0.209600
O O8 0.393867 0.826624 0.322481
O O9 0.457736 0.717293 0.424477
O O10 0.244295 0.764132 0.631366
O O11 0.500000 0.000000 0.000000
O O12 0.305312 0.614834 0.658031
O O13 0.178538 0.756898 0.062225
O O14 0.000000 0.500000 0.500000
O O15 0.000000 0.000000 0.500000
O O16 0.000000 0.000000 0.000000
#
# Coordination Sequence:
#
# PCOD9023700 Si02
#       7
#     2   2   2   2   2   2   2
#     4   9  19  38  65  94 127 164 211 273 329 395
#     4   9  19  40  62  91 126 166 215 259 328 397
#     4  11  24  39  62  92 125 164 219 273 325 389
#     4   9  20  41  63  89 124 169 218 262 331 389
#     4   9  20  40  63  86 125 170 210 263 323 399
#     4   9  20  40  62  91 124 163 216 264 325 395
#     4  10  22  40  60  93 132 169 217 270 328 395
#
# _framework density 25.706424999999999
#
# number of rings (size 3 to 8) (size 9 to 14) (size 15 to 20)
#    0.000    2.571    0.000    0.857    4.000    4.571 
#   10.286    2.143    0.000    0.000    0.000    0.000 
#    0.000    0.000    0.000    0.000    0.000    0.000 
#
# Total GULP energy -78058.847312 kJ/mol
# GULP energy per Si atom -5575.631951 kJ/mol
# Density = 2.564792 g / cm^3
# Si number density = 25.706425 Si / 1000 Ang^3
#
#
#
# Elastic Constant Matrix: (Units=GPa)
#
#
# Indices 1 2 3 4 5 6 
#
# 1 135.1288 26.1953 18.2153 -6.7618 16.2492 -6.5337
# 2 26.1953 108.3458 33.0410 16.9387 16.3151 -33.7476
# 3 18.2153 33.0410 99.7103 9.8254 22.6361 -14.3820
# 4 -6.7618 16.9387 9.8254 26.8902 3.2877 15.9949
# 5 16.2492 16.3151 22.6361 3.2877 44.5064 -13.2464
# 6 -6.5337 -33.7476 -14.3820 15.9949 -13.2464 39.6845
#
#
#
# Elastic Compliance Matrix: (Units=1/GPa)
#
#
# Indices 1 2 3 4 5 6 
#
# 1 0.010462 -0.009779 -0.001882 0.020717 -0.006061 -0.017649
# 2 -0.009779 0.040065 0.001802 -0.068397 0.012302 0.064788
# 3 -0.001882 0.001802 0.012982 -0.011810 -0.002801 0.009752
# 4 0.020717 -0.068397 -0.011810 0.177650 -0.031631 -0.141194
# 5 -0.006061 0.012302 -0.002801 -0.031631 0.033578 0.032406
# 6 -0.017649 0.064788 0.009752 -0.141194 0.032406 0.148649
#
#
# Mechanical properties :
#
#
# Convention : Reuss Voigt Hill
#
# Bulk Modulus (GPa) = 22.83554 55.34314 39.08934
# Shear Modulus (GPa) = 10.92416 39.93178 25.42797
#
# Velocity S-wave (km/s) = 2.06369 3.94557 3.14852
# Velocity P-wave (km/s) = 3.81849 6.50633 5.33447
#
# Compressibility (1/GPa) = 0.04379139
#
# Stress axis : x y z
#
# Youngs Moduli (GPa) = 95.58517 24.95917 77.02919
#
# Poissons Ratio (x) = 0.24408 0.14496
# Poissons Ratio (y) = 0.93473 -0.13880
# Poissons Ratio (z) = 0.17988 -0.04497
#
# Static dielectric constant tensor:
#      x y z
#    x 2.005150 0.020250 -0.064320 
#    y 0.020250 2.418240 -0.092900 
#    z -0.064320 -0.092900 2.117570 
# 
# From -- ./inp_files/78794.got.cif
#   From: 2010.05.17/outbox.cif.g08.bks.cpg/sg2_40_cif.got.tgz:78794.got - 2010.06.03 11:33:40.
