data_PCOD9023093
_publ_section_title
;
Structure prediction by ZEFSAII (Michael W. Deem and Ramdas Pophale) SiO2 
 PCOD9023093
Probable space group: P -1
;
_chemical_formula_sum "Si O2"
_cell_formula_units_Z 16
_cell_length_a 20.920451
_cell_length_b 9.139876
_cell_length_c 16.062714
_cell_angle_alpha 60.034135
_cell_angle_beta 158.944831
_cell_angle_gamma 130.162333
_cell_volume 782.410113
_symmetry_space_group_name_H-M "P -1"
_symmetry_group_IT_number 2
_symmetry_cell_setting 'triclinic'
loop_
_space_group_symop_operation_xyz
x,y,z
-x,-y,-z
loop_
_atom_site_type_symbol
_atom_site_label
_atom_site_fract_x
_atom_site_fract_y
_atom_site_fract_z
Si Si1 0.548200 0.904102 0.507259
Si Si2 0.127552 0.456844 0.099921
Si Si3 0.036962 0.340420 0.548425
Si Si4 0.152488 0.762813 0.340785
Si Si5 0.609386 0.354608 0.224362
Si Si6 0.048857 0.989851 0.936324
Si Si7 0.812301 0.030273 0.235538
Si Si8 0.788791 0.875483 0.086471
O O1 0.362570 0.671531 0.323552
O O2 0.500000 0.000000 0.500000
O O3 0.617401 0.063315 0.471300
O O4 0.765355 0.923169 0.792558
O O5 0.110369 0.254997 0.170255
O O6 0.000000 0.500000 0.000000
O O7 0.003931 0.390168 0.879633
O O8 0.255503 0.447485 0.726256
O O9 0.061193 0.203056 0.683751
O O10 0.000000 0.500000 0.500000
O O11 0.846917 0.202168 0.290411
O O12 0.205403 0.663520 0.506570
O O13 0.059208 0.887379 0.225333
O O14 0.455014 0.315209 0.127284
O O15 0.433986 0.169719 0.003523
O O16 0.167245 0.042753 0.976032
O O17 0.844812 0.057573 0.167682
O O18 0.000000 0.000000 0.500000
#
# Coordination Sequence:
#
# PCOD9023093 Si02
#       8
#     2   2   2   2   2   2   2   2
#     4  11  21  41  64  88 125 162 210 251 304 371
#     4  11  23  38  67  90 118 168 210 245 310 372
#     4  11  21  39  64  93 123 156 201 258 306 354
#     4  11  24  39  61  93 129 159 202 266 306 356
#     4  10  22  39  66  87 122 164 208 242 304 368
#     4  11  23  41  59  93 127 159 205 262 307 353
#     4   8  20  38  61  86 116 160 202 248 297 363
#     4   9  21  41  61  84 124 160 204 245 293 368
#
# _framework density 20.449634
#
# number of rings (size 3 to 8) (size 9 to 14) (size 15 to 20)
#    0.750    1.000    2.500    3.375    0.000    4.500 
#    0.000    1.250    0.000    0.000    0.000    0.000 
#    0.000    0.000    0.000    0.000    0.000    0.000 
#
# Total GULP energy -89149.338377 kJ/mol
# GULP energy per Si atom -5571.833649 kJ/mol
# Density = 2.040309 g / cm^3
# Si number density = 20.449634 Si / 1000 Ang^3
#
#
#
# Elastic Constant Matrix: (Units=GPa)
#
#
# Indices 1 2 3 4 5 6 
#
# 1 67.7804 25.9630 13.6416 8.5852 -11.5741 1.5845
# 2 25.9630 93.0725 44.3262 15.6765 -17.6098 -5.8648
# 3 13.6416 44.3262 75.3457 18.4445 -13.6688 2.7169
# 4 8.5852 15.6765 18.4445 48.6772 0.9805 3.3366
# 5 -11.5741 -17.6098 -13.6688 0.9805 26.1901 -1.9586
# 6 1.5845 -5.8648 2.7169 3.3366 -1.9586 44.4751
#
#
#
# Elastic Compliance Matrix: (Units=1/GPa)
#
#
# Indices 1 2 3 4 5 6 
#
# 1 0.017294 -0.003782 0.000632 -0.002130 0.005452 -0.000754
# 2 -0.003782 0.017356 -0.007975 -0.002255 0.006171 0.003352
# 3 0.000632 -0.007975 0.020181 -0.005186 0.005518 -0.001675
# 4 -0.002130 -0.002255 -0.005186 0.023870 -0.006205 -0.001969
# 5 0.005452 0.006171 0.005518 -0.006205 0.048068 0.002865
# 6 -0.000754 0.003352 -0.001675 -0.001969 0.002865 0.023329
#
#
# Mechanical properties :
#
#
# Convention : Reuss Voigt Hill
#
# Bulk Modulus (GPa) = 30.69482 44.89558 37.79520
# Shear Modulus (GPa) = 27.29120 34.01965 30.65543
#
# Velocity S-wave (km/s) = 3.65712 4.08313 3.87598
# Velocity P-wave (km/s) = 5.73370 6.65065 6.20912
#
# Compressibility (1/GPa) = 0.03257879
#
# Stress axis : x y z
#
# Youngs Moduli (GPa) = 57.82510 57.61620 49.55227
#
# Poissons Ratio (x) = 0.21791 -0.03130
# Poissons Ratio (y) = 0.21870 0.39520
# Poissons Ratio (z) = -0.03652 0.45951
#
# Static dielectric constant tensor:
#      x y z
#    x 1.793770 -0.012490 0.052510 
#    y -0.012490 1.756000 -0.019450 
#    z 0.052510 -0.019450 1.785880 
# 
# From -- ./inp_files/578923.got.cif
#   From: 2010.05.17/outbox.cif.g08.bks.cpg/sg2_290_cif.got.tgz:578923.got - 2010.06.03 11:33:40.
