data_PCOD9023174
_publ_section_title
;
Structure prediction by ZEFSAII (Michael W. Deem and Ramdas Pophale) SiO2 
 PCOD9023174
Probable space group: P -1
;
_chemical_formula_sum "Si O2"
_cell_formula_units_Z 16
_cell_length_a 9.275967
_cell_length_b 8.920225
_cell_length_c 17.324152
_cell_angle_alpha 41.655381
_cell_angle_beta 43.979026
_cell_angle_gamma 43.339429
_cell_volume 603.148103
_symmetry_space_group_name_H-M "P -1"
_symmetry_group_IT_number 2
_symmetry_cell_setting 'triclinic'
loop_
_space_group_symop_operation_xyz
x,y,z
-x,-y,-z
loop_
_atom_site_type_symbol
_atom_site_label
_atom_site_fract_x
_atom_site_fract_y
_atom_site_fract_z
Si Si1 0.787637 0.150652 0.706442
Si Si2 0.886570 0.140644 0.839936
Si Si3 0.290025 0.175796 0.727618
Si Si4 0.308278 0.585952 0.760515
Si Si5 0.256188 0.073254 0.521614
Si Si6 0.001775 0.649972 0.078477
Si Si7 0.554535 0.386588 0.129228
Si Si8 0.755208 0.999436 0.612402
O O1 0.824169 0.049829 0.818563
O O2 0.545061 0.380743 0.717775
O O3 0.770880 0.983249 0.706247
O O4 0.992740 0.240451 0.581362
O O5 0.685740 0.386172 0.854775
O O6 0.113265 0.192093 0.722652
O O7 0.937375 0.926656 0.965329
O O8 0.124051 0.328085 0.800382
O O9 0.507967 0.232208 0.607445
O O10 0.415096 0.879714 0.813358
O O11 0.237932 0.811681 0.641970
O O12 0.117409 0.481175 0.877770
O O13 0.346599 0.660248 0.803286
O O14 0.268412 0.147361 0.399431
O O15 0.500000 0.000000 0.500000
O O16 0.273570 0.531435 0.017079
O O17 0.000000 0.000000 0.500000
#
# Coordination Sequence:
#
# PCOD9023174 Si02
#       8
#     2   2   2   2   2   2   2   2
#     4  10  22  42  63  97 128 164 216 269 317 386
#     4  10  22  40  68  94 131 176 211 255 329 389
#     4  11  22  44  64  93 137 169 215 274 316 383
#     4  11  23  41  64  99 129 168 216 266 320 387
#     4  11  23  42  70  93 125 174 217 268 331 375
#     4  11  23  40  66  96 139 166 213 272 315 385
#     4  10  22  39  66  97 131 173 217 251 323 398
#     4  10  22  43  65  93 130 167 215 278 321 369
#
# _framework density 26.527480000000001
#
# number of rings (size 3 to 8) (size 9 to 14) (size 15 to 20)
#    0.000    1.500    1.250    4.875    0.000    6.000 
#    4.500    2.500    0.000    0.000    0.000    0.000 
#    0.000    0.000    0.000    0.000    0.000    0.000 
#
# Total GULP energy -89276.824899 kJ/mol
# GULP energy per Si atom -5579.801556 kJ/mol
# Density = 2.646710 g / cm^3
# Si number density = 26.527480 Si / 1000 Ang^3
#
#
#
# Elastic Constant Matrix: (Units=GPa)
#
#
# Indices 1 2 3 4 5 6 
#
# 1 163.7582 37.1023 22.4512 11.3498 -16.8259 8.3180
# 2 37.1023 86.4737 37.8073 16.9834 -18.9630 -9.4305
# 3 22.4512 37.8073 88.1299 29.2700 -16.5480 -0.8042
# 4 11.3498 16.9834 29.2700 50.8834 -5.7112 -3.2356
# 5 -16.8259 -18.9630 -16.5480 -5.7112 57.6057 22.2972
# 6 8.3180 -9.4305 -0.8042 -3.2356 22.2972 41.5834
#
#
#
# Elastic Compliance Matrix: (Units=1/GPa)
#
#
# Indices 1 2 3 4 5 6 
#
# 1 0.007213 -0.002813 0.000003 -0.000615 0.002454 -0.003444
# 2 -0.002813 0.016084 -0.005455 -0.001227 0.001555 0.003175
# 3 0.000003 -0.005455 0.016899 -0.007713 0.003634 -0.003459
# 4 -0.000615 -0.001227 -0.007713 0.024642 -0.001237 0.002277
# 5 0.002454 0.001555 0.003634 -0.001237 0.024699 -0.013408
# 6 -0.003444 0.003175 -0.003459 0.002277 -0.013408 0.032757
#
#
# Mechanical properties :
#
#
# Convention : Reuss Voigt Hill
#
# Bulk Modulus (GPa) = 42.25452 59.23151 50.74301
# Shear Modulus (GPa) = 34.08012 46.08124 40.08068
#
# Velocity S-wave (km/s) = 3.58817 4.17239 3.89126
# Velocity P-wave (km/s) = 5.75585 6.75193 6.27369
#
# Compressibility (1/GPa) = 0.02366611
#
# Stress axis : x y z
#
# Youngs Moduli (GPa) = 138.63454 62.17209 59.17602
#
# Poissons Ratio (x) = 0.17488 -0.00017
# Poissons Ratio (y) = 0.38995 0.32281
# Poissons Ratio (z) = -0.00039 0.33916
#
# Static dielectric constant tensor:
#      x y z
#    x 2.204240 0.023680 -0.111690 
#    y 0.023680 2.089240 0.045790 
#    z -0.111690 0.045790 2.225600 
# 
# From -- ./inp_files/556035.got.cif
#   From: 2010.05.17/outbox.cif.g08.bks.cpg/sg2_279_cif.got.tgz:556035.got - 2010.06.03 11:33:40.
