data_PCOD9023105
_publ_section_title
;
Structure prediction by ZEFSAII (Michael W. Deem and Ramdas Pophale) SiO2 
 PCOD9023105
Probable space group: P -1
;
_chemical_formula_sum "Si O2"
_cell_formula_units_Z 16
_cell_length_a 7.671719
_cell_length_b 7.390019
_cell_length_c 15.390031
_cell_angle_alpha 51.663601
_cell_angle_beta 62.432781
_cell_angle_gamma 57.045368
_cell_volume 563.760249
_symmetry_space_group_name_H-M "P -1"
_symmetry_group_IT_number 2
_symmetry_cell_setting 'triclinic'
loop_
_space_group_symop_operation_xyz
x,y,z
-x,-y,-z
loop_
_atom_site_type_symbol
_atom_site_label
_atom_site_fract_x
_atom_site_fract_y
_atom_site_fract_z
Si Si1 0.575702 0.683259 0.612105
Si Si2 0.362155 0.323721 0.599218
Si Si3 0.748269 0.082551 0.180581
Si Si4 0.079918 0.985686 0.656544
Si Si5 0.084182 0.413662 0.149629
Si Si6 0.038453 0.248205 0.436643
Si Si7 0.379004 0.593363 0.153209
Si Si8 0.158432 0.151653 0.021807
O O1 0.639485 0.735038 0.485280
O O2 0.322663 0.811325 0.630234
O O3 0.717992 0.789735 0.608580
O O4 0.630556 0.430836 0.731434
O O5 0.500000 0.500000 0.500000
O O6 0.135038 0.507431 0.630683
O O7 0.395927 0.088987 0.726389
O O8 0.900663 0.970631 0.260645
O O9 0.595322 0.366867 0.146312
O O10 0.934069 0.109129 0.070796
O O11 0.946697 0.812425 0.725628
O O12 0.982230 0.244436 0.553772
O O13 0.218588 0.519913 0.149619
O O14 0.164002 0.284939 0.074179
O O15 0.865191 0.639967 0.107699
O O16 0.000000 0.000000 0.500000
O O17 0.338008 0.878887 0.056070
#
# Coordination Sequence:
#
# PCOD9023105 Si02
#       8
#     2   2   2   2   2   2   2   2
#     4  11  24  42  63  98 134 182 224 283 338 417
#     4  12  27  41  65 101 143 182 233 284 342 423
#     4  10  24  44  64 102 136 180 235 289 342 427
#     4  10  22  39  66  90 137 175 223 283 338 411
#     4  10  23  45  71 105 135 177 240 292 352 428
#     4  12  24  38  66  93 134 185 225 275 351 410
#     4  11  24  41  75  97 140 185 234 287 361 416
#     4  10  23  47  73  97 142 182 229 302 363 404
#
# _framework density 28.380859999999998
#
# number of rings (size 3 to 8) (size 9 to 14) (size 15 to 20)
#    0.000    1.250    1.250    3.375   10.500    1.500 
#    0.000   12.500    0.000    0.000    0.000    0.000 
#    0.000    0.000    0.000    0.000    0.000    0.000 
#
# Total GULP energy -89196.538641 kJ/mol
# GULP energy per Si atom -5574.783665 kJ/mol
# Density = 2.831626 g / cm^3
# Si number density = 28.380860 Si / 1000 Ang^3
#
#
#
# Elastic Constant Matrix: (Units=GPa)
#
#
# Indices 1 2 3 4 5 6 
#
# 1 97.9118 31.2495 15.7088 -16.4495 -29.4505 11.5066
# 2 31.2495 106.3007 39.2877 -26.4616 3.2588 -10.4585
# 3 15.7088 39.2877 132.8818 -31.2005 -4.9139 -3.4844
# 4 -16.4495 -26.4616 -31.2005 62.3571 2.6193 5.6695
# 5 -29.4505 3.2588 -4.9139 2.6193 51.0631 -10.5196
# 6 11.5066 -10.4585 -3.4844 5.6695 -10.5196 45.4329
#
#
#
# Elastic Compliance Matrix: (Units=1/GPa)
#
#
# Indices 1 2 3 4 5 6 
#
# 1 0.014738 -0.004476 0.000285 0.002077 0.008061 -0.003134
# 2 -0.004476 0.012766 -0.002634 0.002802 -0.003222 0.002775
# 3 0.000285 -0.002634 0.009124 0.003498 0.000993 -0.000185
# 4 0.002077 0.002802 0.003498 0.019718 -0.000087 -0.002094
# 5 0.008061 -0.003222 0.000993 -0.000087 0.025184 0.003135
# 6 -0.003134 0.002775 -0.000185 -0.002094 0.003135 0.024416
#
#
# Mechanical properties :
#
#
# Convention : Reuss Voigt Hill
#
# Bulk Modulus (GPa) = 43.52146 56.62070 50.07108
# Shear Modulus (GPa) = 39.29129 48.49383 43.89256
#
# Velocity S-wave (km/s) = 3.72483 4.13810 3.93689
# Velocity P-wave (km/s) = 5.81955 6.54412 6.19244
#
# Compressibility (1/GPa) = 0.02297717
#
# Stress axis : x y z
#
# Youngs Moduli (GPa) = 67.85099 78.33454 109.60597
#
# Poissons Ratio (x) = 0.35065 -0.03121
# Poissons Ratio (y) = 0.30372 0.28867
# Poissons Ratio (z) = -0.01932 0.20631
#
# Static dielectric constant tensor:
#      x y z
#    x 2.461360 0.251260 -0.023620 
#    y 0.251260 2.357870 0.122270 
#    z -0.023620 0.122270 2.402590 
# 
# From -- ./inp_files/587754.got.cif
#   From: 2010.05.17/outbox.cif.g08.bks.cpg/sg2_294_cif.got.tgz:587754.got - 2010.06.03 11:33:40.
