data_PCOD9023368
_publ_section_title
;
Structure prediction by ZEFSAII (Michael W. Deem and Ramdas Pophale) SiO2 
 PCOD9023368
Probable space group: P -1
;
_chemical_formula_sum "Si O2"
_cell_formula_units_Z 16
_cell_length_a 15.387444
_cell_length_b 9.758616
_cell_length_c 16.334083
_cell_angle_alpha 37.848616
_cell_angle_beta 35.664048
_cell_angle_gamma 39.157436
_cell_volume 813.668842
_symmetry_space_group_name_H-M "P -1"
_symmetry_group_IT_number 2
_symmetry_cell_setting 'triclinic'
loop_
_space_group_symop_operation_xyz
x,y,z
-x,-y,-z
loop_
_atom_site_type_symbol
_atom_site_label
_atom_site_fract_x
_atom_site_fract_y
_atom_site_fract_z
Si Si1 0.365464 0.311966 0.144112
Si Si2 0.885700 0.220377 0.539481
Si Si3 0.918454 0.496855 0.976860
Si Si4 0.925415 0.001013 0.205919
Si Si5 0.116980 0.253959 0.487623
Si Si6 0.842797 0.715942 0.255642
Si Si7 0.319907 0.066549 0.132875
Si Si8 0.703146 0.136585 0.044492
O O1 0.265943 0.284399 0.312800
O O2 0.299596 0.209782 0.166393
O O3 0.555158 0.168658 0.082113
O O4 0.334393 0.592617 0.021846
O O5 0.822574 0.490793 0.423418
O O6 0.003575 0.199495 0.534411
O O7 0.733723 0.156471 0.709607
O O8 0.000000 0.000000 0.500000
O O9 0.792322 0.757923 0.931289
O O10 0.040481 0.422132 0.842459
O O11 0.000000 0.500000 0.000000
O O12 0.846004 0.288673 0.125384
O O13 0.847060 0.927207 0.378825
O O14 0.910560 0.851396 0.208051
O O15 0.117967 0.942701 0.094486
O O16 0.000000 0.500000 0.500000
O O17 0.712753 0.940665 0.199980
O O18 0.500000 0.000000 0.000000
#
# Coordination Sequence:
#
# PCOD9023368 Si02
#       8
#     2   2   2   2   2   2   2   2
#     4  11  23  43  63  98 134 169 214 277 335 385
#     4  12  23  43  67  91 132 176 214 272 323 393
#     4  11  23  40  67  99 129 170 223 272 317 390
#     4  11  22  40  70  96 128 171 226 268 322 394
#     4  12  22  40  67  99 124 169 224 261 325 394
#     4  11  22  42  67  95 128 174 225 265 329 392
#     4  12  27  43  66  95 135 174 217 269 342 392
#     4  10  22  39  68  92 130 171 210 276 329 388
#
# _framework density 19.664021000000002
#
# number of rings (size 3 to 8) (size 9 to 14) (size 15 to 20)
#    0.000    0.750    5.000    3.750    5.250    0.000 
#    2.250    1.250    0.000    0.000    0.000    0.000 
#    0.000    0.000    0.000    0.000    0.000    0.000 
#
# Total GULP energy -89281.603164 kJ/mol
# GULP energy per Si atom -5580.100198 kJ/mol
# Density = 1.961926 g / cm^3
# Si number density = 19.664021 Si / 1000 Ang^3
#
#
#
# Elastic Constant Matrix: (Units=GPa)
#
#
# Indices 1 2 3 4 5 6 
#
# 1 106.6049 36.4750 35.8591 -10.4962 7.5836 8.6107
# 2 36.4750 62.1093 46.6519 -14.2743 5.9492 4.7244
# 3 35.8591 46.6519 120.3698 -24.5212 2.9703 -6.2009
# 4 -10.4962 -14.2743 -24.5212 39.8140 0.9033 5.0946
# 5 7.5836 5.9492 2.9703 0.9033 30.0670 -4.3153
# 6 8.6107 4.7244 -6.2009 5.0946 -4.3153 39.1344
#
#
#
# Elastic Compliance Matrix: (Units=1/GPa)
#
#
# Indices 1 2 3 4 5 6 
#
# 1 0.012184 -0.005505 -0.001423 0.000744 -0.002237 -0.002585
# 2 -0.005505 0.027069 -0.008193 0.003844 -0.003889 -0.004284
# 3 -0.001423 -0.008193 0.012895 0.004235 0.000996 0.002904
# 4 0.000744 0.003844 0.004235 0.029897 -0.002863 -0.004164
# 5 -0.002237 -0.003889 0.000996 -0.002863 0.035354 0.005390
# 6 -0.002585 -0.004284 0.002904 -0.004164 0.005390 0.028236
#
#
# Mechanical properties :
#
#
# Convention : Reuss Voigt Hill
#
# Bulk Modulus (GPa) = 45.64768 58.56176 52.10472
# Shear Modulus (GPa) = 27.29603 33.14295 30.21949
#
# Velocity S-wave (km/s) = 3.72979 4.10989 3.92445
# Velocity P-wave (km/s) = 6.46627 7.23653 6.86222
#
# Compressibility (1/GPa) = 0.02190692
#
# Stress axis : x y z
#
# Youngs Moduli (GPa) = 82.07814 36.94243 77.55142
#
# Poissons Ratio (x) = 0.20336 0.11032
# Poissons Ratio (y) = 0.45181 0.63538
# Poissons Ratio (z) = 0.11676 0.30267
#
# Static dielectric constant tensor:
#      x y z
#    x 1.675810 0.007780 -0.013240 
#    y 0.007780 1.688610 0.013810 
#    z -0.013240 0.013810 1.592010 
# 
# From -- ./inp_files/262778.got.cif
#   From: 2010.05.17/outbox.cif.g08.bks.cpg/sg2_132_cif.got.tgz:262778.got - 2010.06.03 11:33:40.
