data_PCOD9023471
_publ_section_title
;
Structure prediction by ZEFSAII (Michael W. Deem and Ramdas Pophale) SiO2 
 PCOD9023471
Probable space group: P -1
;
_chemical_formula_sum "Si O2"
_cell_formula_units_Z 12
_cell_length_a 12.829699
_cell_length_b 8.297635
_cell_length_c 16.577489
_cell_angle_alpha 69.086474
_cell_angle_beta 156.671219
_cell_angle_gamma 124.929757
_cell_volume 489.433447
_symmetry_space_group_name_H-M "P -1"
_symmetry_group_IT_number 2
_symmetry_cell_setting 'triclinic'
loop_
_space_group_symop_operation_xyz
x,y,z
-x,-y,-z
loop_
_atom_site_type_symbol
_atom_site_label
_atom_site_fract_x
_atom_site_fract_y
_atom_site_fract_z
Si Si1 0.774324 0.796794 0.938440
Si Si2 0.722431 0.264616 0.643878
Si Si3 0.566726 0.984391 0.860920
Si Si4 0.322917 0.760690 0.964645
Si Si5 0.398728 0.706047 0.277964
Si Si6 0.228426 0.316354 0.600722
O O1 0.734343 0.873849 0.981466
O O2 0.393899 0.577352 0.679478
O O3 0.966893 0.699986 0.096674
O O4 0.000000 0.000000 0.000000
O O5 0.533932 0.281774 0.580850
O O6 0.500000 0.000000 0.500000
O O7 0.974503 0.508036 0.729372
O O8 0.180051 0.830387 0.649578
O O9 0.799943 0.198808 0.047760
O O10 0.539363 0.066362 0.740812
O O11 0.618384 0.749091 0.208576
O O12 0.500000 0.000000 0.000000
O O13 0.649120 0.710695 0.393038
O O14 0.000000 0.500000 0.000000
#
# Coordination Sequence:
#
# PCOD9023471 Si02
#       6
#     2   2   2   2   2   2
#     4  11  21  40  66 100 130 168 224 278 323 391
#     4  11  24  43  66 100 137 168 217 279 334 385
#     4  11  21  40  67  95 128 170 225 272 323 393
#     4  10  22  43  65  93 134 175 214 267 333 395
#     4  11  17  40  71  89 125 175 223 268 320 385
#     4  10  22  39  69  97 128 171 225 271 325 391
#
# _framework density 24.518143999999999
#
# number of rings (size 3 to 8) (size 9 to 14) (size 15 to 20)
#    0.000    1.333    6.667    2.500    0.000    1.333 
#    9.000    4.167    0.000    0.000    0.000    0.000 
#    0.000    0.000    0.000    0.000    0.000    0.000 
#
# Total GULP energy -66802.807281 kJ/mol
# GULP energy per Si atom -5566.900607 kJ/mol
# Density = 2.446234 g / cm^3
# Si number density = 24.518144 Si / 1000 Ang^3
#
#
#
# Elastic Constant Matrix: (Units=GPa)
#
#
# Indices 1 2 3 4 5 6 
#
# 1 112.6870 25.2390 35.2939 14.4160 11.6089 -5.2018
# 2 25.2390 129.4920 37.0334 35.2118 0.8197 17.7305
# 3 35.2939 37.0334 91.0706 30.8022 1.0999 8.3365
# 4 14.4160 35.2118 30.8022 55.8543 -5.2697 2.4389
# 5 11.6089 0.8197 1.0999 -5.2697 37.8024 3.9207
# 6 -5.2018 17.7305 8.3365 2.4389 3.9207 40.9373
#
#
#
# Elastic Compliance Matrix: (Units=1/GPa)
#
#
# Indices 1 2 3 4 5 6 
#
# 1 0.010927 -0.001351 -0.003812 -0.000341 -0.003586 0.003113
# 2 -0.001351 0.010396 -0.001589 -0.005159 -0.000065 -0.004037
# 3 -0.003812 -0.001589 0.015520 -0.006449 0.000123 -0.002584
# 4 -0.000341 -0.005159 -0.006449 0.025080 0.003729 0.001653
# 5 -0.003586 -0.000065 0.000123 0.003729 0.028425 -0.003397
# 6 0.003113 -0.004037 -0.002584 0.001653 -0.003397 0.027325
#
#
# Mechanical properties :
#
#
# Convention : Reuss Voigt Hill
#
# Bulk Modulus (GPa) = 42.84335 58.70913 50.77624
# Shear Modulus (GPa) = 35.98248 42.63102 39.30675
#
# Velocity S-wave (km/s) = 3.83506 4.17436 4.00830
# Velocity P-wave (km/s) = 6.09281 6.87247 6.49435
#
# Compressibility (1/GPa) = 0.02334084
#
# Stress axis : x y z
#
# Youngs Moduli (GPa) = 91.51377 96.18927 64.43207
#
# Poissons Ratio (x) = 0.12990 0.24561
# Poissons Ratio (y) = 0.12359 0.10238
# Poissons Ratio (z) = 0.34885 0.15284
#
# Static dielectric constant tensor:
#      x y z
#    x 1.971630 0.067870 -0.068580 
#    y 0.067870 2.099150 0.066540 
#    z -0.068580 0.066540 2.121140 
# 
# From -- ./inp_files/211508.got.cif
#   From: 2010.05.17/outbox.cif.g08.bks.cpg/sg2_106_cif.got.tgz:211508.got - 2010.06.03 11:33:40.
