data_PCOD9023348
_publ_section_title
;
Structure prediction by ZEFSAII (Michael W. Deem and Ramdas Pophale) SiO2 
 PCOD9023348
Probable space group: P -1
;
_chemical_formula_sum "Si O2"
_cell_formula_units_Z 16
_cell_length_a 16.892010
_cell_length_b 11.148394
_cell_length_c 11.092091
_cell_angle_alpha 36.672807
_cell_angle_beta 138.345779
_cell_angle_gamma 145.237455
_cell_volume 687.019165
_symmetry_space_group_name_H-M "P -1"
_symmetry_group_IT_number 2
_symmetry_cell_setting 'triclinic'
loop_
_space_group_symop_operation_xyz
x,y,z
-x,-y,-z
loop_
_atom_site_type_symbol
_atom_site_label
_atom_site_fract_x
_atom_site_fract_y
_atom_site_fract_z
Si Si1 0.976080 0.859184 0.849408
Si Si2 0.182376 0.851848 0.265503
Si Si3 0.840845 0.181431 0.118689
Si Si4 0.331497 0.608306 0.050436
Si Si5 0.966852 0.662043 0.560978
Si Si6 0.379499 0.102679 0.714145
Si Si7 0.695643 0.317152 0.648547
Si Si8 0.606274 0.740299 0.645321
O O1 0.825292 0.612964 0.908260
O O2 0.058121 0.838819 0.844179
O O3 0.085210 0.926573 0.029872
O O4 0.185251 0.421789 0.483169
O O5 0.075596 0.560794 0.395161
O O6 0.295171 0.864595 0.286010
O O7 0.271386 0.022386 0.338278
O O8 0.714495 0.943763 0.236541
O O9 0.942845 0.331299 0.227136
O O10 0.760792 0.284591 0.872045
O O11 0.962354 0.081127 0.626240
O O12 0.389411 0.487908 0.124510
O O13 0.455128 0.744326 0.182735
O O14 0.331048 0.838635 0.819921
O O15 0.361515 0.240296 0.475991
O O16 0.543824 0.282482 0.502637
#
# Coordination Sequence:
#
# PCOD9023348 Si02
#       8
#     2   2   2   2   2   2   2   2
#     4  11  24  44  71 102 132 173 227 275 327 393
#     4   9  24  42  67  99 133 178 228 273 314 391
#     4  11  22  43  72 100 131 169 225 281 331 387
#     4  11  26  43  66 100 134 172 221 275 338 396
#     4  10  22  39  68 104 126 170 220 278 331 376
#     4  11  26  42  67  99 131 177 213 276 343 392
#     4   9  22  40  70  99 133 174 224 277 324 390
#     4  12  24  45  66  96 142 181 216 268 335 400
#
# _framework density 23.289016
#
# number of rings (size 3 to 8) (size 9 to 14) (size 15 to 20)
#    0.750    0.750    0.000    4.500    5.250    1.500 
#    0.000    5.000    0.000    0.000    0.000    0.000 
#    0.000    0.000    0.000    0.000    0.000    0.000 
#
# Total GULP energy -89322.160976 kJ/mol
# GULP energy per Si atom -5582.635061 kJ/mol
# Density = 2.323601 g / cm^3
# Si number density = 23.289016 Si / 1000 Ang^3
#
#
#
# Elastic Constant Matrix: (Units=GPa)
#
#
# Indices 1 2 3 4 5 6 
#
# 1 65.9403 17.6250 19.1707 12.9401 8.4361 15.4150
# 2 17.6250 114.2100 34.7941 5.5306 -5.1249 -3.6219
# 3 19.1707 34.7941 76.7512 -3.2926 9.3393 -6.5835
# 4 12.9401 5.5306 -3.2926 38.2261 5.2974 9.5847
# 5 8.4361 -5.1249 9.3393 5.2974 23.7087 -10.2486
# 6 15.4150 -3.6219 -6.5835 9.5847 -10.2486 28.7794
#
#
#
# Elastic Compliance Matrix: (Units=1/GPa)
#
#
# Indices 1 2 3 4 5 6 
#
# 1 0.024290 -0.003835 -0.004087 -0.000740 -0.016343 -0.020002
# 2 -0.003835 0.011794 -0.005155 -0.004060 0.009995 0.007271
# 3 -0.004087 -0.005155 0.017535 0.004122 -0.006716 0.001787
# 4 -0.000740 -0.004060 0.004122 0.033823 -0.016910 -0.016458
# 5 -0.016343 0.009995 -0.006716 -0.016910 0.074079 0.040487
# 6 -0.020002 0.007271 0.001787 -0.016458 0.040487 0.066683
#
#
# Mechanical properties :
#
#
# Convention : Reuss Voigt Hill
#
# Bulk Modulus (GPa) = 36.41257 44.45346 40.43301
# Shear Modulus (GPa) = 18.97430 30.49697 24.73563
#
# Velocity S-wave (km/s) = 2.85745 3.62263 3.26255
# Velocity P-wave (km/s) = 5.15322 6.05203 5.62062
#
# Compressibility (1/GPa) = 0.02746304
#
# Stress axis : x y z
#
# Youngs Moduli (GPa) = 41.16844 84.78930 57.03024
#
# Poissons Ratio (x) = 0.32518 0.23311
# Poissons Ratio (y) = 0.15789 0.29402
# Poissons Ratio (z) = 0.16827 0.43713
#
# Static dielectric constant tensor:
#      x y z
#    x 1.939020 0.014090 0.026440 
#    y 0.014090 1.870310 -0.033530 
#    z 0.026440 -0.033530 1.848810 
# 
# From -- ./inp_files/463514.got.cif
#   From: 2010.05.17/outbox.cif.g08.bks.cpg/sg2_232_cif.got.tgz:463514.got - 2010.06.03 11:33:40.
