data_PCOD9023737
_publ_section_title
;
Structure prediction by ZEFSAII (Michael W. Deem and Ramdas Pophale) SiO2 
 PCOD9023737
Probable space group: P -1
;
_chemical_formula_sum "Si O2"
_cell_formula_units_Z 16
_cell_length_a 13.632695
_cell_length_b 13.734952
_cell_length_c 8.505737
_cell_angle_alpha 66.186905
_cell_angle_beta 80.022694
_cell_angle_gamma 134.217244
_cell_volume 752.189055
_symmetry_space_group_name_H-M "P -1"
_symmetry_group_IT_number 2
_symmetry_cell_setting 'triclinic'
loop_
_space_group_symop_operation_xyz
x,y,z
-x,-y,-z
loop_
_atom_site_type_symbol
_atom_site_label
_atom_site_fract_x
_atom_site_fract_y
_atom_site_fract_z
Si Si1 0.292507 0.092614 0.023592
Si Si2 0.870896 0.802975 0.347038
Si Si3 0.796397 0.562129 0.295643
Si Si4 0.212930 0.649134 0.358863
Si Si5 0.183944 0.994881 0.780246
Si Si6 0.487141 0.762940 0.683990
Si Si7 0.419564 0.522586 0.109402
Si Si8 0.464684 0.048764 0.183938
O O1 0.314227 0.090311 0.834602
O O2 0.433136 0.310233 0.905421
O O3 0.340970 0.031049 0.148371
O O4 0.080109 0.943059 0.199105
O O5 0.765264 0.648609 0.330564
O O6 0.867435 0.926744 0.251191
O O7 0.770806 0.682490 0.616298
O O8 0.806213 0.488613 0.485343
O O9 0.646049 0.380525 0.333160
O O10 0.994388 0.754945 0.020341
O O11 0.000000 0.500000 0.500000
O O12 0.340511 0.831167 0.329747
O O13 0.337526 0.773674 0.084129
O O14 0.301804 0.076089 0.538805
O O15 0.497309 0.884528 0.690660
O O16 0.409005 0.612470 0.937678
O O17 0.500000 0.500000 0.000000
#
# Coordination Sequence:
#
# PCOD9023737 Si02
#       8
#     2   2   2   2   2   2   2   2
#     4  10  22  40  61  87 127 162 211 258 298 371
#     4  11  23  39  62  89 127 174 218 250 298 362
#     4  11  24  40  64  94 122 166 212 257 310 369
#     4  11  23  45  75  92 117 160 212 257 315 384
#     4  11  23  38  61  91 129 172 208 253 304 360
#     4  11  24  41  60  92 137 159 202 261 309 369
#     4  11  23  36  57  87 121 171 212 248 302 355
#     4  10  24  44  66  97 122 160 203 262 322 366
#
# _framework density 21.271246999999999
#
# number of rings (size 3 to 8) (size 9 to 14) (size 15 to 20)
#    0.000    1.250    1.250    6.000    3.500    6.000 
#    0.000    1.250    0.000    0.000    0.000    0.000 
#    0.000    0.000    0.000    0.000    0.000    0.000 
#
# Total GULP energy -89434.263166 kJ/mol
# GULP energy per Si atom -5589.641448 kJ/mol
# Density = 2.122283 g / cm^3
# Si number density = 21.271247 Si / 1000 Ang^3
#
#
#
# Elastic Constant Matrix: (Units=GPa)
#
#
# Indices 1 2 3 4 5 6 
#
# 1 44.5828 23.3708 25.6782 -9.9045 -2.3392 -8.2765
# 2 23.3708 66.6147 40.5762 -7.8032 -25.7481 -10.9200
# 3 25.6782 40.5762 136.8663 -5.7287 -6.9716 -3.0442
# 4 -9.9045 -7.8032 -5.7287 25.9955 -6.4584 4.8626
# 5 -2.3392 -25.7481 -6.9716 -6.4584 31.8692 0.8007
# 6 -8.2765 -10.9200 -3.0442 4.8626 0.8007 30.1944
#
#
#
# Elastic Compliance Matrix: (Units=1/GPa)
#
#
# Indices 1 2 3 4 5 6 
#
# 1 0.031011 -0.009725 -0.002842 0.006310 -0.005019 0.003814
# 2 -0.009725 0.036577 -0.006863 0.011755 0.029538 0.007195
# 3 -0.002842 -0.006863 0.009561 -0.001657 -0.003949 -0.001925
# 4 0.006310 0.011755 -0.001657 0.049424 0.019681 -0.002668
# 5 -0.005019 0.029538 -0.003949 0.019681 0.057894 0.004204
# 6 0.003814 0.007195 -0.001925 -0.002668 0.004204 0.036890
#
#
# Mechanical properties :
#
#
# Convention : Reuss Voigt Hill
#
# Bulk Modulus (GPa) = 26.11595 47.47934 36.79764
# Shear Modulus (GPa) = 18.31641 28.17439 23.24540
#
# Velocity S-wave (km/s) = 2.93761 3.64336 3.30935
# Velocity P-wave (km/s) = 4.87958 6.32994 5.65148
#
# Compressibility (1/GPa) = 0.03829078
#
# Stress axis : x y z
#
# Youngs Moduli (GPa) = 32.24645 27.33939 104.59332
#
# Poissons Ratio (x) = 0.26586 0.29725
# Poissons Ratio (y) = 0.31358 0.71780
# Poissons Ratio (z) = 0.09164 0.18762
#
# Static dielectric constant tensor:
#      x y z
#    x 1.764250 -0.023220 0.014470 
#    y -0.023220 1.784970 0.000960 
#    z 0.014470 0.000960 1.751600 
# 
# From -- ./inp_files/314873.got.cif
#   From: 2010.05.17/outbox.cif.g08.bks.cpg/sg2_158_cif.got.tgz:314873.got - 2010.06.03 11:33:40.
