data_PCOD9023252
_publ_section_title
;
Structure prediction by ZEFSAII (Michael W. Deem and Ramdas Pophale) SiO2 
 PCOD9023252
Probable space group: P -1
;
_chemical_formula_sum "Si O2"
_cell_formula_units_Z 16
_cell_length_a 14.843559
_cell_length_b 9.739454
_cell_length_c 5.138258
_cell_angle_alpha 92.016834
_cell_angle_beta 90.750505
_cell_angle_gamma 126.959801
_cell_volume 592.648915
_symmetry_space_group_name_H-M "P -1"
_symmetry_group_IT_number 2
_symmetry_cell_setting 'triclinic'
loop_
_space_group_symop_operation_xyz
x,y,z
-x,-y,-z
loop_
_atom_site_type_symbol
_atom_site_label
_atom_site_fract_x
_atom_site_fract_y
_atom_site_fract_z
Si Si1 0.793937 0.197955 0.295169
Si Si2 0.761609 0.886825 0.048613
Si Si3 0.355599 0.883867 0.216693
Si Si4 0.348204 0.378768 0.592634
Si Si5 0.459663 0.253515 0.266043
Si Si6 0.038530 0.949293 0.252839
Si Si7 0.728274 0.470123 0.738919
Si Si8 0.882468 0.553108 0.246044
O O1 0.739855 0.160347 0.576662
O O2 0.894211 0.398514 0.258708
O O3 0.820293 0.066485 0.214531
O O4 0.697810 0.150384 0.075008
O O5 0.755333 0.754407 0.235464
O O6 0.678117 0.571310 0.677707
O O7 0.828836 0.935013 0.787497
O O8 0.369411 0.734702 0.255465
O O9 0.455814 0.084819 0.274596
O O10 0.411973 0.296340 0.514389
O O11 0.423357 0.561278 0.759101
O O12 0.366316 0.195773 0.038930
O O13 0.989151 0.750542 0.259072
O O14 0.000000 0.000000 0.500000
O O15 0.000000 0.000000 0.000000
O O16 0.803920 0.512555 0.488461
O O17 0.811056 0.524298 0.985085
#
# Coordination Sequence:
#
# PCOD9023252 Si02
#       8
#     2   2   2   2   2   2   2   2
#     4   9  19  38  67  90 124 174 216 266 324 385
#     4  11  24  42  67  91 137 172 222 272 337 380
#     4   9  18  39  61  93 128 172 218 266 323 381
#     4  11  23  39  64  98 128 177 222 269 331 389
#     4  10  23  40  64  92 134 172 225 272 321 397
#     4  12  28  42  66 100 133 172 216 269 330 399
#     4  10  22  39  67  93 133 174 214 272 326 381
#     4  10  22  43  64  96 132 169 220 267 322 391
#
# _framework density 26.997436
#
# number of rings (size 3 to 8) (size 9 to 14) (size 15 to 20)
#    0.000    1.750    1.250    1.875    7.000    1.000 
#    0.000    0.000    0.000   13.500    0.000    0.000 
#    0.000    0.000    0.000    0.000    0.000    0.000 
#
# Total GULP energy -89670.303709 kJ/mol
# GULP energy per Si atom -5604.393982 kJ/mol
# Density = 2.693599 g / cm^3
# Si number density = 26.997436 Si / 1000 Ang^3
#
#
#
# Elastic Constant Matrix: (Units=GPa)
#
#
# Indices 1 2 3 4 5 6 
#
# 1 43.9026 41.9760 27.2072 -10.7544 5.5927 5.6094
# 2 41.9760 281.9551 33.3397 -14.0405 -3.9711 6.8745
# 3 27.2072 33.3397 162.9216 -15.9635 5.2393 3.0382
# 4 -10.7544 -14.0405 -15.9635 38.4594 4.1718 0.2375
# 5 5.5927 -3.9711 5.2393 4.1718 26.5562 6.5704
# 6 5.6094 6.8745 3.0382 0.2375 6.5704 32.4414
#
#
#
# Elastic Compliance Matrix: (Units=1/GPa)
#
#
# Indices 1 2 3 4 5 6 
#
# 1 0.031683 -0.003990 -0.003541 0.006699 -0.006892 -0.002955
# 2 -0.003990 0.004210 -0.000222 0.000157 0.001615 -0.000510
# 3 -0.003541 -0.000222 0.006994 0.001941 -0.001021 0.000197
# 4 0.006699 0.000157 0.001941 0.029425 -0.006316 -0.000310
# 5 -0.006892 0.001615 -0.001021 -0.006316 0.042423 -0.007601
# 6 -0.002955 -0.000510 0.000197 -0.000310 -0.007601 0.032967
#
#
# Mechanical properties :
#
#
# Convention : Reuss Voigt Hill
#
# Bulk Modulus (GPa) = 36.52201 77.09166 56.80684
# Shear Modulus (GPa) = 29.01318 45.24184 37.12751
#
# Velocity S-wave (km/s) = 3.28176 4.09807 3.71242
# Velocity P-wave (km/s) = 5.28368 7.14209 6.28199
#
# Compressibility (1/GPa) = 0.02738075
#
# Stress axis : x y z
#
# Youngs Moduli (GPa) = 31.56241 237.53636 142.97602
#
# Poissons Ratio (x) = 0.94766 0.50634
# Poissons Ratio (y) = 0.12592 0.03178
# Poissons Ratio (z) = 0.11178 0.05281
#
# Static dielectric constant tensor:
#      x y z
#    x 2.165200 -0.022060 -0.003670 
#    y -0.022060 2.159500 0.042960 
#    z -0.003670 0.042960 2.095680 
# 
# From -- ./inp_files/122273.got.cif
#   From: 2010.05.17/outbox.cif.g08.bks.cpg/sg2_62_cif.got.tgz:122273.got - 2010.06.03 11:33:40.
