data_PCOD9023152
_publ_section_title
;
Structure prediction by ZEFSAII (Michael W. Deem and Ramdas Pophale) SiO2 
 PCOD9023152
Probable space group: P -1
;
_chemical_formula_sum "Si O2"
_cell_formula_units_Z 12
_cell_length_a 12.096930
_cell_length_b 12.978235
_cell_length_c 9.620680
_cell_angle_alpha 60.389547
_cell_angle_beta 113.196090
_cell_angle_gamma 155.145140
_cell_volume 545.787249
_symmetry_space_group_name_H-M "P -1"
_symmetry_group_IT_number 2
_symmetry_cell_setting 'triclinic'
loop_
_space_group_symop_operation_xyz
x,y,z
-x,-y,-z
loop_
_atom_site_type_symbol
_atom_site_label
_atom_site_fract_x
_atom_site_fract_y
_atom_site_fract_z
Si Si1 0.203217 0.748300 0.334195
Si Si2 0.036001 0.914489 0.760820
Si Si3 0.479285 0.196446 0.616774
Si Si4 0.679818 0.914648 0.693979
Si Si5 0.891039 0.686900 0.133768
Si Si6 0.776295 0.673218 0.512779
O O1 0.393939 0.821267 0.307829
O O2 0.000000 0.500000 0.500000
O O3 0.021140 0.669597 0.196803
O O4 0.368621 0.992384 0.339295
O O5 0.845243 0.702065 0.685681
O O6 0.310287 0.089466 0.737239
O O7 0.047979 0.065944 0.637383
O O8 0.942085 0.802219 0.941640
O O9 0.299814 0.054183 0.483862
O O10 0.718127 0.501436 0.517049
O O11 0.421712 0.606214 0.797986
O O12 0.929083 0.101209 0.792997
O O13 0.500000 0.500000 0.500000
#
# Coordination Sequence:
#
# PCOD9023152 Si02
#       6
#     2   2   2   2   2   2
#     4  10  22  39  66  95 134 170 207 257 321 382
#     4  10  23  42  65  92 126 166 219 268 316 374
#     4  11  21  38  69  93 122 175 217 254 313 391
#     4  10  23  40  63  95 130 171 206 257 321 375
#     4  10  24  40  65  93 138 167 204 268 321 370
#     4   9  22  41  66  88 124 166 217 265 324 374
#
# _framework density 21.986588000000001
#
# number of rings (size 3 to 8) (size 9 to 14) (size 15 to 20)
#    1.000    1.000    1.667    0.500    9.333    0.667 
#    0.000    3.333    0.000    0.000    0.000    0.000 
#    0.000    0.000    0.000    0.000    0.000    0.000 
#
# Total GULP energy -66913.990506 kJ/mol
# GULP energy per Si atom -5576.165876 kJ/mol
# Density = 2.193655 g / cm^3
# Si number density = 21.986588 Si / 1000 Ang^3
#
#
#
# Elastic Constant Matrix: (Units=GPa)
#
#
# Indices 1 2 3 4 5 6 
#
# 1 63.2210 -4.1423 -10.7479 6.4567 -1.6978 -11.6569
# 2 -4.1423 138.3544 34.9197 10.3621 -6.1765 -6.8651
# 3 -10.7479 34.9197 87.4689 9.8747 0.3878 0.6767
# 4 6.4567 10.3621 9.8747 22.4329 2.7362 -3.9022
# 5 -1.6978 -6.1765 0.3878 2.7362 28.8511 1.1909
# 6 -11.6569 -6.8651 0.6767 -3.9022 1.1909 37.3428
#
#
#
# Elastic Compliance Matrix: (Units=1/GPa)
#
#
# Indices 1 2 3 4 5 6 
#
# 1 0.017854 0.000644 0.002555 -0.005878 0.001506 0.004983
# 2 0.000644 0.008366 -0.002971 -0.002744 0.002070 0.001440
# 3 0.002555 -0.002971 0.013548 -0.005407 -0.000132 -0.000555
# 4 -0.005878 -0.002744 -0.005407 0.051204 -0.005853 0.003296
# 5 0.001506 0.002070 -0.000132 -0.005853 0.035786 -0.000900
# 6 0.004983 0.001440 -0.000555 0.003296 -0.000900 0.028982
#
#
# Mechanical properties :
#
#
# Convention : Reuss Voigt Hill
#
# Bulk Modulus (GPa) = 24.86082 36.56702 30.71392
# Shear Modulus (GPa) = 29.63958 35.65967 32.64962
#
# Velocity S-wave (km/s) = 3.67560 4.03163 3.85772
# Velocity P-wave (km/s) = 5.41712 6.19190 5.81742
#
# Compressibility (1/GPa) = 0.04022393
#
# Stress axis : x y z
#
# Youngs Moduli (GPa) = 56.01094 119.52481 73.81095
#
# Poissons Ratio (x) = -0.07702 -0.18858
# Poissons Ratio (y) = -0.03609 0.21933
# Poissons Ratio (z) = -0.14310 0.35516
#
# Static dielectric constant tensor:
#      x y z
#    x 1.877870 0.070610 -0.058570 
#    y 0.070610 1.904060 -0.067060 
#    z -0.058570 -0.067060 1.804860 
# 
# From -- ./inp_files/192567.got.cif
#   From: 2010.05.17/outbox.cif.g08.bks.cpg/sg2_97_cif.got.tgz:192567.got - 2010.06.03 11:33:40.
