data_PCOD9023531
_publ_section_title
;
Structure prediction by ZEFSAII (Michael W. Deem and Ramdas Pophale) SiO2 
 PCOD9023531
Probable space group: P -1
;
_chemical_formula_sum "Si O2"
_cell_formula_units_Z 16
_cell_length_a 24.327558
_cell_length_b 9.619758
_cell_length_c 8.773581
_cell_angle_alpha 44.738925
_cell_angle_beta 28.729855
_cell_angle_gamma 43.033837
_cell_volume 658.300334
_symmetry_space_group_name_H-M "P -1"
_symmetry_group_IT_number 2
_symmetry_cell_setting 'triclinic'
loop_
_space_group_symop_operation_xyz
x,y,z
-x,-y,-z
loop_
_atom_site_type_symbol
_atom_site_label
_atom_site_fract_x
_atom_site_fract_y
_atom_site_fract_z
Si Si1 0.912872 0.964696 0.974933
Si Si2 0.323903 0.744074 0.763036
Si Si3 0.955945 0.771815 0.697724
Si Si4 0.904781 0.362817 0.049680
Si Si5 0.704769 0.592327 0.135020
Si Si6 0.509446 0.726177 0.768118
Si Si7 0.251933 0.817752 0.203012
Si Si8 0.472040 0.068089 0.843607
O O1 0.947494 0.172098 0.688704
O O2 0.971970 0.818985 0.799438
O O3 0.769765 0.041418 0.243227
O O4 0.975901 0.841665 0.066970
O O5 0.333272 0.577347 0.739166
O O6 0.446768 0.779889 0.487125
O O7 0.270192 0.695899 0.092062
O O8 0.834653 0.950826 0.801639
O O9 0.945110 0.547046 0.880570
O O10 0.835957 0.470129 0.980129
O O11 0.806534 0.292461 0.442249
O O12 0.618547 0.683011 0.418697
O O13 0.666708 0.797879 0.960826
O O14 0.518841 0.866332 0.779139
O O15 0.500000 0.500000 0.000000
O O16 0.378115 0.838879 0.930648
O O17 0.500000 0.000000 0.000000
#
# Coordination Sequence:
#
# PCOD9023531 Si02
#       8
#     2   2   2   2   2   2   2   2
#     4   9  21  40  66  97 137 175 228 283 345 392
#     4  11  25  46  66  99 144 183 222 286 340 403
#     4   9  19  40  64 103 131 173 231 286 334 409
#     4  11  22  40  72 101 131 180 233 280 343 410
#     4  12  26  43  68  99 139 181 227 280 342 408
#     4  12  24  42  69 102 133 179 225 278 348 406
#     4  10  22  39  70  98 140 176 227 282 342 405
#     4  12  28  45  69 102 139 179 229 284 343 413
#
# _framework density 24.305015000000001
#
# number of rings (size 3 to 8) (size 9 to 14) (size 15 to 20)
#    0.000    1.250    2.500    3.375    5.250    0.500 
#    2.250    0.625    0.000    0.000    0.000    0.000 
#    0.000    0.000    0.000    0.000    0.000    0.000 
#
# Total GULP energy -89407.180626 kJ/mol
# GULP energy per Si atom -5587.948789 kJ/mol
# Density = 2.424970 g / cm^3
# Si number density = 24.305015 Si / 1000 Ang^3
#
#
#
# Elastic Constant Matrix: (Units=GPa)
#
#
# Indices 1 2 3 4 5 6 
#
# 1 138.4420 62.0116 5.2085 16.8936 3.5830 -11.0229
# 2 62.0116 107.3300 15.2711 -10.0304 7.6880 17.5601
# 3 5.2085 15.2711 18.0925 -3.1088 0.8200 -3.6245
# 4 16.8936 -10.0304 -3.1088 29.6580 -10.6019 -2.8570
# 5 3.5830 7.6880 0.8200 -10.6019 30.9020 -0.5519
# 6 -11.0229 17.5601 -3.6245 -2.8570 -0.5519 62.5783
#
#
#
# Elastic Compliance Matrix: (Units=1/GPa)
#
#
# Indices 1 2 3 4 5 6 
#
# 1 0.013283 -0.009797 0.003629 -0.011082 -0.002916 0.004767
# 2 -0.009797 0.018944 -0.012933 0.009942 0.000046 -0.007336
# 3 0.003629 -0.012933 0.067066 0.002053 0.001869 0.008263
# 4 -0.011082 0.009942 0.002053 0.048933 0.015505 -0.002252
# 5 -0.002916 0.000046 0.001869 0.015505 0.037968 0.000625
# 6 0.004767 -0.007336 0.008263 -0.002252 0.000625 0.019260
#
#
# Mechanical properties :
#
#
# Convention : Reuss Voigt Hill
#
# Bulk Modulus (GPa) = 16.36933 47.64966 32.00950
# Shear Modulus (GPa) = 18.93799 36.71920 27.82860
#
# Velocity S-wave (km/s) = 2.79441 3.89107 3.38742
# Velocity P-wave (km/s) = 4.14261 6.31147 5.33835
#
# Compressibility (1/GPa) = 0.06108984
#
# Stress axis : x y z
#
# Youngs Moduli (GPa) = 75.28695 52.78789 14.91065
#
# Poissons Ratio (x) = 0.51718 -0.05410
# Poissons Ratio (y) = 0.73761 0.19283
# Poissons Ratio (z) = -0.27319 0.68269
#
# Static dielectric constant tensor:
#      x y z
#    x 1.980910 -0.042430 0.024810 
#    y -0.042430 1.925420 0.021190 
#    z 0.024810 0.021190 2.011000 
# 
# From -- ./inp_files/356344.got.cif
#   From: 2010.05.17/outbox.cif.g08.bks.cpg/sg2_179_cif.got.tgz:356344.got - 2010.06.03 11:33:40.
