data_PCOD9023574
_publ_section_title
;
Structure prediction by ZEFSAII (Michael W. Deem and Ramdas Pophale) SiO2 
 PCOD9023574
Probable space group: P -1
;
_chemical_formula_sum "Si O2"
_cell_formula_units_Z 16
_cell_length_a 10.319993
_cell_length_b 7.742455
_cell_length_c 15.167543
_cell_angle_alpha 142.781451
_cell_angle_beta 113.950256
_cell_angle_gamma 76.660457
_cell_volume 660.466065
_symmetry_space_group_name_H-M "P -1"
_symmetry_group_IT_number 2
_symmetry_cell_setting 'triclinic'
loop_
_space_group_symop_operation_xyz
x,y,z
-x,-y,-z
loop_
_atom_site_type_symbol
_atom_site_label
_atom_site_fract_x
_atom_site_fract_y
_atom_site_fract_z
Si Si1 0.014566 0.695068 0.263942
Si Si2 0.459580 0.432439 0.644544
Si Si3 0.701228 0.126962 0.312467
Si Si4 0.995062 0.680566 0.452953
Si Si5 0.895175 0.015017 0.175860
Si Si6 0.164028 0.791845 0.099329
Si Si7 0.775007 0.754748 0.855051
Si Si8 0.477659 0.889850 0.302002
O O1 0.950757 0.679415 0.338775
O O2 0.151394 0.531405 0.236805
O O3 0.032905 0.851214 0.148995
O O4 0.898306 0.483177 0.088779
O O5 0.342034 0.606648 0.645469
O O6 0.606602 0.658515 0.774887
O O7 0.449689 0.309937 0.691509
O O8 0.472305 0.177771 0.475260
O O9 0.832161 0.245597 0.461905
O O10 0.768265 0.939322 0.181283
O O11 0.571387 0.966792 0.271059
O O12 0.946352 0.357494 0.342259
O O13 0.945130 0.958231 0.597773
O O14 0.833730 0.947148 0.033397
O O15 0.311868 0.769491 0.180871
O O16 0.187958 0.066063 0.151093
#
# Coordination Sequence:
#
# PCOD9023574 Si02
#       8
#     2   2   2   2   2   2   2   2
#     4  10  22  39  73 110 143 185 249 303 361 434
#     4  11  26  46  75 107 147 197 253 298 360 451
#     4  12  26  45  72 109 151 195 238 307 375 433
#     4  11  22  41  67 109 149 187 237 308 368 429
#     4  11  24  42  73 109 147 191 244 304 374 432
#     4  11  21  47  78 105 144 198 248 301 366 443
#     4  11  21  45  75 105 144 199 246 301 362 442
#     4  11  26  48  76 107 146 199 251 300 365 446
#
# _framework density 24.225318999999999
#
# number of rings (size 3 to 8) (size 9 to 14) (size 15 to 20)
#    0.000    1.000    3.750    3.000    0.000    6.500 
#    0.000    3.750    0.000    0.000    0.000    0.000 
#    0.000    0.000    0.000    0.000    0.000    0.000 
#
# Total GULP energy -89614.274766 kJ/mol
# GULP energy per Si atom -5600.892173 kJ/mol
# Density = 2.417018 g / cm^3
# Si number density = 24.225319 Si / 1000 Ang^3
#
#
#
# Elastic Constant Matrix: (Units=GPa)
#
#
# Indices 1 2 3 4 5 6 
#
# 1 81.1085 56.2013 23.1246 -13.7328 -14.1029 0.2718
# 2 56.2013 163.8304 40.9110 4.8221 -14.3480 -18.0359
# 3 23.1246 40.9110 132.1362 -9.8861 -13.7886 -6.9745
# 4 -13.7328 4.8221 -9.8861 38.9579 0.1368 -13.0195
# 5 -14.1029 -14.3480 -13.7886 0.1368 36.1580 -1.8833
# 6 0.2718 -18.0359 -6.9745 -13.0195 -1.8833 30.0564
#
#
#
# Elastic Compliance Matrix: (Units=1/GPa)
#
#
# Indices 1 2 3 4 5 6 
#
# 1 0.018739 -0.006205 -0.000380 0.007048 0.004642 -0.000637
# 2 -0.006205 0.009256 -0.001638 -0.002322 0.000860 0.004278
# 3 -0.000380 -0.001638 0.008795 0.003159 0.002679 0.002598
# 4 0.007048 -0.002322 0.003159 0.033983 0.003645 0.014225
# 5 0.004642 0.000860 0.002679 0.003645 0.031057 0.004620
# 6 -0.000637 0.004278 0.002598 0.014225 0.004620 0.042898
#
#
# Mechanical properties :
#
#
# Convention : Reuss Voigt Hill
#
# Bulk Modulus (GPa) = 49.15433 68.61652 58.88543
# Shear Modulus (GPa) = 29.76980 38.15701 33.96341
#
# Velocity S-wave (km/s) = 3.50933 3.97304 3.74836
# Velocity P-wave (km/s) = 6.06259 7.03083 6.56459
#
# Compressibility (1/GPa) = 0.02034409
#
# Stress axis : x y z
#
# Youngs Moduli (GPa) = 53.36337 108.03785 113.70498
#
# Poissons Ratio (x) = 0.67032 0.04325
# Poissons Ratio (y) = 0.33109 0.18626
# Poissons Ratio (z) = 0.02030 0.17698
#
# Static dielectric constant tensor:
#      x y z
#    x 1.900210 0.010020 -0.011950 
#    y 0.010020 2.037150 -0.040090 
#    z -0.011950 -0.040090 1.900010 
# 
# From -- ./inp_files/516418.got.cif
#   From: 2010.05.17/outbox.cif.g08.bks.cpg/sg2_259_cif.got.tgz:516418.got - 2010.06.03 11:33:40.
