data_PCOD9023027
_publ_section_title
;
Structure prediction by ZEFSAII (Michael W. Deem and Ramdas Pophale) SiO2 
 PCOD9023027
Probable space group: P -1
;
_chemical_formula_sum "Si O2"
_cell_formula_units_Z 11
_cell_length_a 8.304554
_cell_length_b 9.259733
_cell_length_c 5.114919
_cell_angle_alpha 84.415282
_cell_angle_beta 90.355958
_cell_angle_gamma 90.043391
_cell_volume 391.452272
_symmetry_space_group_name_H-M "P -1"
_symmetry_group_IT_number 2
_symmetry_cell_setting 'triclinic'
loop_
_space_group_symop_operation_xyz
x,y,z
-x,-y,-z
loop_
_atom_site_type_symbol
_atom_site_label
_atom_site_fract_x
_atom_site_fract_y
_atom_site_fract_z
Si Si1 0.068380 0.917441 0.264064
Si Si2 0.500000 0.500000 0.000000
Si Si3 0.607758 0.781301 0.682090
Si Si4 0.953794 0.684459 0.650775
Si Si5 0.426906 0.830629 0.166498
Si Si6 0.206130 0.577145 0.050899
O O1 0.260194 0.901944 0.238907
O O2 0.008109 0.753713 0.364833
O O3 0.000000 0.000000 0.500000
O O4 0.000000 0.000000 0.000000
O O5 0.458099 0.381027 0.256399
O O6 0.308508 0.470083 0.885823
O O7 0.798346 0.776728 0.720034
O O8 0.558201 0.835933 0.389758
O O9 0.507785 0.867690 0.885863
O O10 0.892870 0.519741 0.730626
O O11 0.105412 0.686631 0.851018
O O12 0.368555 0.658808 0.147130
#
# Coordination Sequence:
#
# PCOD9023027 Si02
#       6
#     2   1   2   2   2   2
#     4  12  26  46  68  92 130 180 228 274 326 390
#     4   8  16  34  58  94 132 170 196 248 330 398
#     4  10  22  39  65  97 136 170 214 267 329 399
#     4  10  22  42  68 104 135 172 224 277 328 389
#     4  11  23  44  67  97 133 175 213 265 340 401
#     4   9  19  38  70 102 138 170 213 272 335 400
#
# _framework density 28.100489
#
# number of rings (size 3 to 8) (size 9 to 14) (size 15 to 20)
#    0.000    1.818    0.000    4.364    0.000   10.182 
#    0.000    9.091    0.000    0.000    0.000    0.000 
#    0.000    0.000    0.000    0.000    0.000    0.000 
#
# Total GULP energy -61425.041713 kJ/mol
# GULP energy per Si atom -5584.094701 kJ/mol
# Density = 2.803653 g / cm^3
# Si number density = 28.100489 Si / 1000 Ang^3
#
#
#
# Elastic Constant Matrix: (Units=GPa)
#
#
# Indices 1 2 3 4 5 6 
#
# 1 201.7856 38.6114 75.3925 -18.0191 -3.7794 -28.5891
# 2 38.6114 131.0985 49.0362 -15.0346 -4.6320 -24.0999
# 3 75.3925 49.0362 210.6325 -29.0791 2.9463 -15.5079
# 4 -18.0191 -15.0346 -29.0791 53.8517 2.6078 -8.9130
# 5 -3.7794 -4.6320 2.9463 2.6078 54.7371 -17.8660
# 6 -28.5891 -24.0999 -15.5079 -8.9130 -17.8660 53.9202
#
#
#
# Elastic Compliance Matrix: (Units=1/GPa)
#
#
# Indices 1 2 3 4 5 6 
#
# 1 0.006334 -0.000338 -0.001734 0.001591 0.001566 0.003491
# 2 -0.000338 0.009516 -0.001431 0.002459 0.002321 0.004838
# 3 -0.001734 -0.001431 0.006068 0.002390 -0.000551 0.000399
# 4 0.001591 0.002459 0.002390 0.022128 0.001331 0.006729
# 5 0.001566 0.002321 -0.000551 0.001331 0.021494 0.009051
# 6 0.003491 0.004838 0.000399 0.006729 0.009051 0.026785
#
#
# Mechanical properties :
#
#
# Convention : Reuss Voigt Hill
#
# Bulk Modulus (GPa) = 67.05502 96.62184 81.83843
# Shear Modulus (GPa) = 47.93758 57.86690 52.90224
#
# Velocity S-wave (km/s) = 4.13478 4.54286 4.34361
# Velocity P-wave (km/s) = 6.83444 7.87247 7.37175
#
# Compressibility (1/GPa) = 0.01491313
#
# Stress axis : x y z
#
# Youngs Moduli (GPa) = 157.87560 105.08524 164.78768
#
# Poissons Ratio (x) = 0.03547 0.28572
# Poissons Ratio (y) = 0.05329 0.23586
# Poissons Ratio (z) = 0.27374 0.15041
#
# Static dielectric constant tensor:
#      x y z
#    x 0.365620 4.331670 1.194870 
#    y 4.331670 -7.961330 -2.786330 
#    z 1.194870 -2.786330 1.362610 
# 
# From -- ./inp_files/18429.got.cif
#   From: 2010.05.17/outbox.cif.g08.bks.cpg/sg2_10_cif.got.tgz:18429.got - 2010.06.03 11:33:40.
