data_PCOD9023885
_publ_section_title
;
Structure prediction by ZEFSAII (Michael W. Deem and Ramdas Pophale) SiO2 
 PCOD9023885
Probable space group: P -1
;
_chemical_formula_sum "Si O2"
_cell_formula_units_Z 12
_cell_length_a 7.420245
_cell_length_b 10.639719
_cell_length_c 14.166620
_cell_angle_alpha 38.515314
_cell_angle_beta 116.851104
_cell_angle_gamma 135.316035
_cell_volume 475.574710
_symmetry_space_group_name_H-M "P -1"
_symmetry_group_IT_number 2
_symmetry_cell_setting 'triclinic'
loop_
_space_group_symop_operation_xyz
x,y,z
-x,-y,-z
loop_
_atom_site_type_symbol
_atom_site_label
_atom_site_fract_x
_atom_site_fract_y
_atom_site_fract_z
Si Si1 0.954569 0.369048 0.430169
Si Si2 0.122575 0.877882 0.053448
Si Si3 0.809100 0.152296 0.335391
Si Si4 0.409973 0.566398 0.169268
Si Si5 0.610766 0.399228 0.467583
Si Si6 0.176271 0.469072 0.990048
O O1 0.800201 0.134215 0.456542
O O2 0.762987 0.313970 0.500911
O O3 0.212477 0.435620 0.498254
O O4 0.048289 0.631797 0.241394
O O5 0.001289 0.771674 0.982482
O O6 0.435437 0.122887 0.983053
O O7 0.000000 0.000000 0.000000
O O8 0.120167 0.372369 0.259440
O O9 0.674418 0.876987 0.416324
O O10 0.680765 0.273491 0.192742
O O11 0.581321 0.547042 0.293563
O O12 0.365262 0.472551 0.104860
O O13 0.000000 0.500000 0.000000
#
# Coordination Sequence:
#
# PCOD9023885 Si02
#       6
#     2   2   2   2   2   2
#     4  10  23  41  61  86 125 168 205 250 312 371
#     4  11  22  42  64  93 126 162 212 259 310 370
#     4  10  22  40  62  89 122 166 205 254 310 373
#     4  11  23  39  64  95 124 158 212 262 312 366
#     4  11  22  40  60  89 128 162 206 254 311 373
#     4   9  22  41  64  92 124 164 205 258 313 367
#
# _framework density 25.232627999999998
#
# number of rings (size 3 to 8) (size 9 to 14) (size 15 to 20)
#    0.000    1.667    1.667    2.000    0.000   11.333 
#    3.000    0.000    0.000    0.000    0.000    0.000 
#    0.000    0.000    0.000    0.000    0.000    0.000 
#
# Total GULP energy -67076.367821 kJ/mol
# GULP energy per Si atom -5589.697318 kJ/mol
# Density = 2.517520 g / cm^3
# Si number density = 25.232628 Si / 1000 Ang^3
#
#
#
# Elastic Constant Matrix: (Units=GPa)
#
#
# Indices 1 2 3 4 5 6 
#
# 1 71.2085 41.6542 8.8890 -1.3974 1.6936 -12.5892
# 2 41.6542 157.9375 53.8941 26.3962 -5.1017 -25.5395
# 3 8.8890 53.8941 75.5827 23.9726 4.7603 5.3563
# 4 -1.3974 26.3962 23.9726 60.8949 11.3019 -12.2169
# 5 1.6936 -5.1017 4.7603 11.3019 25.6322 0.6625
# 6 -12.5892 -25.5395 5.3563 -12.2169 0.6625 35.1322
#
#
#
# Elastic Compliance Matrix: (Units=1/GPa)
#
#
# Indices 1 2 3 4 5 6 
#
# 1 0.017812 -0.004787 -0.000055 0.004148 -0.004063 0.004430
# 2 -0.004787 0.012153 -0.008543 -0.001305 0.004694 0.007880
# 3 -0.000055 -0.008543 0.022621 -0.007190 -0.002414 -0.012133
# 4 0.004148 -0.001305 -0.007190 0.023784 -0.009946 0.010092
# 5 -0.004063 0.004694 -0.002414 -0.009946 0.045101 -0.001985
# 6 0.004430 0.007880 -0.012133 0.010092 -0.001985 0.041176
#
#
# Mechanical properties :
#
#
# Convention : Reuss Voigt Hill
#
# Bulk Modulus (GPa) = 38.73658 57.06704 47.90181
# Shear Modulus (GPa) = 25.24972 37.68463 31.46717
#
# Velocity S-wave (km/s) = 3.16678 3.86876 3.53524
# Velocity P-wave (km/s) = 5.36250 6.52854 5.97404
#
# Compressibility (1/GPa) = 0.02581539
#
# Stress axis : x y z
#
# Youngs Moduli (GPa) = 56.14309 82.28300 44.20716
#
# Poissons Ratio (x) = 0.39388 0.00244
# Poissons Ratio (y) = 0.26875 0.37766
# Poissons Ratio (z) = 0.00310 0.70294
#
# Static dielectric constant tensor:
#      x y z
#    x 2.139620 0.063980 0.004770 
#    y 0.063980 2.000500 0.054320 
#    z 0.004770 0.054320 2.024590 
# 
# From -- ./inp_files/26266.got.cif
#   From: 2010.05.17/outbox.cif.g08.bks.cpg/sg2_14_cif.got.tgz:26266.got - 2010.06.03 11:33:40.
