data_PCOD9023635
_publ_section_title
;
Structure prediction by ZEFSAII (Michael W. Deem and Ramdas Pophale) SiO2 
 PCOD9023635
Probable space group: P -1
;
_chemical_formula_sum "Si O2"
_cell_formula_units_Z 16
_cell_length_a 13.206695
_cell_length_b 14.185701
_cell_length_c 6.854919
_cell_angle_alpha 106.210503
_cell_angle_beta 66.146053
_cell_angle_gamma 144.477233
_cell_volume 679.415675
_symmetry_space_group_name_H-M "P -1"
_symmetry_group_IT_number 2
_symmetry_cell_setting 'triclinic'
loop_
_space_group_symop_operation_xyz
x,y,z
-x,-y,-z
loop_
_atom_site_type_symbol
_atom_site_label
_atom_site_fract_x
_atom_site_fract_y
_atom_site_fract_z
Si Si1 0.300411 0.380627 0.494567
Si Si2 0.156511 0.683258 0.398713
Si Si3 0.812346 0.861199 0.309721
Si Si4 0.696040 0.233935 0.069715
Si Si5 0.794395 0.136745 0.205266
Si Si6 0.171763 0.492487 0.655040
Si Si7 0.876485 0.768204 0.858809
Si Si8 0.528154 0.825245 0.477343
O O1 0.500000 0.500000 0.500000
O O2 0.168813 0.199764 0.562411
O O3 0.240649 0.442040 0.666045
O O4 0.261959 0.362811 0.281283
O O5 0.021013 0.663244 0.382590
O O6 0.000000 0.500000 0.500000
O O7 0.240779 0.798935 0.579288
O O8 0.297178 0.752268 0.160434
O O9 0.643717 0.814297 0.452838
O O10 0.777478 0.761918 0.099223
O O11 0.979533 0.050777 0.237527
O O12 0.763025 0.173457 0.051095
O O13 0.828997 0.416401 0.145440
O O14 0.513982 0.133311 0.279901
O O15 0.991608 0.223944 0.144868
O O16 0.641229 0.950957 0.284803
O O17 0.328967 0.641864 0.468646
#
# Coordination Sequence:
#
# PCOD9023635 Si02
#       8
#     2   2   2   2   2   2   2   2
#     4  12  22  41  64  92 128 168 216 275 321 382
#     4  12  23  39  65  95 126 164 215 264 322 387
#     4  10  22  44  65  90 132 169 219 268 321 388
#     4  10  23  40  64  92 131 168 210 262 324 380
#     4  11  22  39  66  92 129 170 212 267 317 390
#     4  10  22  40  59  88 128 164 209 263 320 381
#     4  10  24  40  66  97 124 173 219 265 327 384
#     4   9  21  43  61  89 132 168 213 264 320 378
#
# _framework density 23.549647
#
# number of rings (size 3 to 8) (size 9 to 14) (size 15 to 20)
#    0.750    0.750    3.750    1.125    1.750    1.000 
#    0.000    3.750    0.000    0.000    0.000    0.000 
#    0.000    0.000    0.000    0.000    0.000    0.000 
#
# Total GULP energy -89198.237808 kJ/mol
# GULP energy per Si atom -5574.889863 kJ/mol
# Density = 2.349605 g / cm^3
# Si number density = 23.549647 Si / 1000 Ang^3
#
#
#
# Elastic Constant Matrix: (Units=GPa)
#
#
# Indices 1 2 3 4 5 6 
#
# 1 117.4044 33.4142 41.4099 -13.6373 -10.3390 -20.5733
# 2 33.4142 53.9654 23.6770 -0.5354 -0.8524 -13.3401
# 3 41.4099 23.6770 96.4142 -12.3572 10.5853 0.0778
# 4 -13.6373 -0.5354 -12.3572 24.7261 0.0290 3.7745
# 5 -10.3390 -0.8524 10.5853 0.0290 24.2195 -0.5023
# 6 -20.5733 -13.3401 0.0778 3.7745 -0.5023 44.7161
#
#
#
# Elastic Compliance Matrix: (Units=1/GPa)
#
#
# Indices 1 2 3 4 5 6 
#
# 1 0.013685 -0.004997 -0.004981 0.004247 0.007932 0.004545
# 2 -0.004997 0.025112 -0.004838 -0.005498 0.000989 0.005676
# 3 -0.004981 -0.004838 0.015413 0.005523 -0.009129 -0.004330
# 4 0.004247 -0.005498 0.005523 0.045975 -0.000924 -0.003587
# 5 0.007932 0.000989 -0.009129 -0.000924 0.048796 0.004587
# 6 0.004545 0.005676 -0.004330 -0.003587 0.004587 0.026509
#
#
# Mechanical properties :
#
#
# Convention : Reuss Voigt Hill
#
# Bulk Modulus (GPa) = 40.68872 51.64294 46.16583
# Shear Modulus (GPa) = 23.43955 30.01785 26.72870
#
# Velocity S-wave (km/s) = 3.15830 3.57411 3.37262
# Velocity P-wave (km/s) = 5.53310 6.24575 5.90019
#
# Compressibility (1/GPa) = 0.02457684
#
# Stress axis : x y z
#
# Youngs Moduli (GPa) = 73.07399 39.82230 64.88077
#
# Poissons Ratio (x) = 0.19900 0.32314
# Poissons Ratio (y) = 0.36517 0.31392
# Poissons Ratio (z) = 0.36395 0.19267
#
# Static dielectric constant tensor:
#      x y z
#    x 1.954500 0.010410 0.002830 
#    y 0.010410 1.931070 -0.064740 
#    z 0.002830 -0.064740 1.956180 
# 
# From -- ./inp_files/98392.got.cif
#   From: 2010.05.17/outbox.cif.g08.bks.cpg/sg2_50_cif.got.tgz:98392.got - 2010.06.03 11:33:40.
