data_PCOD9023489
_publ_section_title
;
Structure prediction by ZEFSAII (Michael W. Deem and Ramdas Pophale) SiO2 
 PCOD9023489
Probable space group: P -1
;
_chemical_formula_sum "Si O2"
_cell_formula_units_Z 16
_cell_length_a 12.105293
_cell_length_b 9.112948
_cell_length_c 8.762863
_cell_angle_alpha 132.906004
_cell_angle_beta 99.404854
_cell_angle_gamma 76.746561
_cell_volume 689.166215
_symmetry_space_group_name_H-M "P -1"
_symmetry_group_IT_number 2
_symmetry_cell_setting 'triclinic'
loop_
_space_group_symop_operation_xyz
x,y,z
-x,-y,-z
loop_
_atom_site_type_symbol
_atom_site_label
_atom_site_fract_x
_atom_site_fract_y
_atom_site_fract_z
Si Si1 0.722194 0.216836 0.621366
Si Si2 0.808651 0.755015 0.262871
Si Si3 0.880631 0.110835 0.988128
Si Si4 0.620718 0.634292 0.942326
Si Si5 0.703085 0.811197 0.788819
Si Si6 0.435611 0.923642 0.284824
Si Si7 0.129809 0.463222 0.563957
Si Si8 0.957705 0.200728 0.731875
O O1 0.626654 0.413299 0.708811
O O2 0.675737 0.151523 0.727461
O O3 0.841458 0.300464 0.695564
O O4 0.751110 0.991902 0.392896
O O5 0.843381 0.702312 0.409491
O O6 0.928412 0.703212 0.165005
O O7 0.717808 0.624228 0.087599
O O8 0.911707 0.143430 0.842845
O O9 0.786602 0.976783 0.916307
O O10 0.848986 0.328284 0.211798
O O11 0.000000 0.000000 0.000000
O O12 0.654806 0.778843 0.920230
O O13 0.508503 0.741152 0.078059
O O14 0.782213 0.611191 0.601830
O O15 0.602181 0.889355 0.704050
O O16 0.500000 0.000000 0.500000
O O17 0.000000 0.500000 0.500000
O O18 0.000000 0.000000 0.500000
#
# Coordination Sequence:
#
# PCOD9023489 Si02
#       8
#     2   2   2   2   2   2   2   2
#     4  11  23  45  73  99 140 185 234 292 355 425
#     4  11  24  45  70 106 147 184 239 295 359 430
#     4  12  24  42  69 101 149 192 227 288 365 426
#     4  12  27  44  77 104 136 191 246 296 358 422
#     4  12  26  49  69 109 146 183 245 306 353 430
#     4  12  24  52  76  98 145 190 241 301 363 422
#     4  12  26  43  69 106 150 198 236 290 365 443
#     4  10  22  39  70 101 138 183 230 285 355 423
#
# _framework density 23.216460000000001
#
# number of rings (size 3 to 8) (size 9 to 14) (size 15 to 20)
#    0.000    0.500    5.000    3.000    1.750    3.000 
#    2.250    0.625    0.000    0.000    0.000    0.000 
#    0.000    0.000    0.000    0.000    0.000    0.000 
#
# Total GULP energy -89371.199834 kJ/mol
# GULP energy per Si atom -5585.699990 kJ/mol
# Density = 2.316362 g / cm^3
# Si number density = 23.216460 Si / 1000 Ang^3
#
#
#
# Elastic Constant Matrix: (Units=GPa)
#
#
# Indices 1 2 3 4 5 6 
#
# 1 84.4353 9.6504 32.5700 -3.6538 -26.9447 -4.2228
# 2 9.6504 80.0903 24.7574 -8.5424 0.1192 -8.6947
# 3 32.5700 24.7574 125.3590 27.0736 -24.2628 -5.2949
# 4 -3.6538 -8.5424 27.0736 44.8555 -9.4806 -5.3871
# 5 -26.9447 0.1192 -24.2628 -9.4806 38.7619 0.4338
# 6 -4.2228 -8.6947 -5.2949 -5.3871 0.4338 40.5203
#
#
#
# Elastic Compliance Matrix: (Units=1/GPa)
#
#
# Indices 1 2 3 4 5 6 
#
# 1 0.017140 -0.000139 -0.003488 0.006080 0.011197 0.001989
# 2 -0.000139 0.014739 -0.004189 0.005412 -0.001478 0.003336
# 3 -0.003488 -0.004189 0.011964 -0.007718 0.003198 -0.000759
# 4 0.006080 0.005412 -0.007718 0.030484 0.006781 0.004767
# 5 0.011197 -0.001478 0.003198 0.006781 0.037227 0.001771
# 6 0.001989 0.003336 -0.000759 0.004767 0.001771 0.026118
#
#
# Mechanical properties :
#
#
# Convention : Reuss Voigt Hill
#
# Bulk Modulus (GPa) = 35.44544 47.09337 41.26941
# Shear Modulus (GPa) = 30.72986 39.68800 35.20893
#
# Velocity S-wave (km/s) = 3.64211 4.13907 3.89852
# Velocity P-wave (km/s) = 5.74344 6.57047 6.17083
#
# Compressibility (1/GPa) = 0.02821237
#
# Stress axis : x y z
#
# Youngs Moduli (GPa) = 58.34152 67.84690 83.58205
#
# Poissons Ratio (x) = 0.00946 0.29152
# Poissons Ratio (y) = 0.00813 0.35009
# Poissons Ratio (z) = 0.20348 0.28418
#
# Static dielectric constant tensor:
#      x y z
#    x 1.883080 -0.014290 0.035040 
#    y -0.014290 1.921050 0.029380 
#    z 0.035040 0.029380 1.889160 
# 
# From -- ./inp_files/245866.got.cif
#   From: 2010.05.17/outbox.cif.g08.bks.cpg/sg2_123_cif.got.tgz:245866.got - 2010.06.03 11:33:40.
