data_PCOD9023430
_publ_section_title
;
Structure prediction by ZEFSAII (Michael W. Deem and Ramdas Pophale) SiO2 
 PCOD9023430
Probable space group: P -1
;
_chemical_formula_sum "Si O2"
_cell_formula_units_Z 16
_cell_length_a 13.241263
_cell_length_b 9.194863
_cell_length_c 5.490829
_cell_angle_alpha 62.753340
_cell_angle_beta 81.717051
_cell_angle_gamma 72.851673
_cell_volume 567.887067
_symmetry_space_group_name_H-M "P -1"
_symmetry_group_IT_number 2
_symmetry_cell_setting 'triclinic'
loop_
_space_group_symop_operation_xyz
x,y,z
-x,-y,-z
loop_
_atom_site_type_symbol
_atom_site_label
_atom_site_fract_x
_atom_site_fract_y
_atom_site_fract_z
Si Si1 0.947144 0.852301 0.748301
Si Si2 0.077974 0.440798 0.177203
Si Si3 0.138158 0.101179 0.756295
Si Si4 0.484399 0.100138 0.176649
Si Si5 0.605217 0.348375 0.082629
Si Si6 0.726181 0.726347 0.106887
Si Si7 0.223463 0.570800 0.375945
Si Si8 0.225642 0.848894 0.534220
O O1 0.815734 0.966333 0.710113
O O2 0.012011 0.630801 0.921777
O O3 0.000000 0.000000 0.500000
O O4 0.949399 0.872691 0.027238
O O5 0.083328 0.235839 0.453461
O O6 0.123788 0.511032 0.349665
O O7 0.172470 0.377176 0.998943
O O8 0.237145 0.163838 0.776516
O O9 0.179571 0.914420 0.770226
O O10 0.500000 0.000000 0.500000
O O11 0.569074 0.208398 0.050402
O O12 0.363479 0.204288 0.110837
O O13 0.500000 0.000000 0.000000
O O14 0.704279 0.399626 0.893205
O O15 0.500000 0.500000 0.000000
O O16 0.652730 0.249389 0.389671
O O17 0.697361 0.579159 0.387219
O O18 0.186381 0.724577 0.461008
#
# Coordination Sequence:
#
# PCOD9023430 Si02
#       8
#     2   2   2   2   2   2   2   2
#     4   9  20  40  71 101 138 186 250 306 378 450
#     4  11  25  47  77 114 150 200 267 332 398 474
#     4   9  19  39  70  99 134 193 243 306 373 446
#     4  12  31  48  80 119 154 208 275 318 387 475
#     4  12  28  46  69 109 159 205 258 322 397 471
#     4  11  25  47  75 110 156 205 262 334 389 469
#     4  12  24  46  74 107 156 206 257 321 413 465
#     4  10  22  39  69 100 141 200 242 310 386 457
#
# _framework density 28.174617000000001
#
# number of rings (size 3 to 8) (size 9 to 14) (size 15 to 20)
#    0.750    0.500    1.250    3.750    8.750    1.500 
#    0.000    0.625    0.000    6.000    0.000    0.000 
#    0.000    0.000    0.000    0.000    0.000    0.000 
#
# Total GULP energy -89292.130095 kJ/mol
# GULP energy per Si atom -5580.758131 kJ/mol
# Density = 2.811049 g / cm^3
# Si number density = 28.174617 Si / 1000 Ang^3
#
#
#
# Elastic Constant Matrix: (Units=GPa)
#
#
# Indices 1 2 3 4 5 6 
#
# 1 138.8799 72.9524 44.2140 -20.7484 48.6678 -2.4924
# 2 72.9524 259.3469 63.6475 19.9214 26.9968 25.3881
# 3 44.2140 63.6475 175.1100 -13.6333 40.1139 -12.7027
# 4 -20.7484 19.9214 -13.6333 44.1792 -5.5152 17.3579
# 5 48.6678 26.9968 40.1139 -5.5152 68.9644 -6.5808
# 6 -2.4924 25.3881 -12.7027 17.3579 -6.5808 66.8740
#
#
#
# Elastic Compliance Matrix: (Units=1/GPa)
#
#
# Indices 1 2 3 4 5 6 
#
# 1 0.012282 -0.003198 0.000138 0.006659 -0.007033 -0.000722
# 2 -0.003198 0.005569 -0.001779 -0.003892 0.000657 -0.001496
# 3 0.000138 -0.001779 0.007359 0.002260 -0.003390 0.001158
# 4 0.006659 -0.003892 0.002260 0.030222 -0.002641 -0.005950
# 5 -0.007033 0.000657 -0.003390 -0.002641 0.021120 0.001608
# 6 -0.000722 -0.001496 0.001158 -0.005950 0.001608 0.017417
#
#
# Mechanical properties :
#
#
# Convention : Reuss Voigt Hill
#
# Bulk Modulus (GPa) = 64.37665 103.88493 84.13079
# Shear Modulus (GPa) = 45.94548 62.17172 54.05860
#
# Velocity S-wave (km/s) = 4.04262 4.70260 4.38505
# Velocity P-wave (km/s) = 6.68500 8.15094 7.45409
#
# Compressibility (1/GPa) = 0.01553358
#
# Stress axis : x y z
#
# Youngs Moduli (GPa) = 81.41692 179.57002 135.88835
#
# Poissons Ratio (x) = 0.57418 -0.01876
# Poissons Ratio (y) = 0.26033 0.24173
# Poissons Ratio (z) = -0.01124 0.31943
#
# Static dielectric constant tensor:
#      x y z
#    x 2.182220 0.057330 0.065810 
#    y 0.057330 2.245100 -0.095720 
#    z 0.065810 -0.095720 2.344900 
# 
# From -- ./inp_files/89807.got.cif
#   From: 2010.05.17/outbox.cif.g08.bks.cpg/sg2_45_cif.got.tgz:89807.got - 2010.06.03 11:33:40.
