data_PCOD9023113
_publ_section_title
;
Structure prediction by ZEFSAII (Michael W. Deem and Ramdas Pophale) SiO2 
 PCOD9023113
Probable space group: P -1
;
_chemical_formula_sum "Si O2"
_cell_formula_units_Z 16
_cell_length_a 24.272561
_cell_length_b 6.799554
_cell_length_c 8.360546
_cell_angle_alpha 35.168641
_cell_angle_beta 131.683366
_cell_angle_gamma 131.701268
_cell_volume 569.340242
_symmetry_space_group_name_H-M "P -1"
_symmetry_group_IT_number 2
_symmetry_cell_setting 'triclinic'
loop_
_space_group_symop_operation_xyz
x,y,z
-x,-y,-z
loop_
_atom_site_type_symbol
_atom_site_label
_atom_site_fract_x
_atom_site_fract_y
_atom_site_fract_z
Si Si1 0.587541 0.366641 0.647937
Si Si2 0.897993 0.320836 0.802105
Si Si3 0.799937 0.540799 0.242139
Si Si4 0.721967 0.063925 0.130342
Si Si5 0.349448 0.885859 0.590708
Si Si6 0.442370 0.442227 0.193765
Si Si7 0.969755 0.584851 0.213870
Si Si8 0.816170 0.534161 0.777218
O O1 0.521950 0.346567 0.404193
O O2 0.550111 0.328035 0.778433
O O3 0.637342 0.787034 0.473085
O O4 0.634883 0.078718 0.924841
O O5 0.855399 0.304683 0.559714
O O6 0.867515 0.579443 0.686519
O O7 0.985783 0.505299 0.795757
O O8 0.859694 0.933827 0.067129
O O9 0.753776 0.412246 0.075492
O O10 0.731324 0.394631 0.338527
O O11 0.758136 0.775632 0.474968
O O12 0.759824 0.154890 0.968591
O O13 0.370103 0.107631 0.321581
O O14 0.413652 0.676801 0.857696
O O15 0.000000 0.500000 0.500000
O O16 0.880825 0.528815 0.041076
O O17 0.000000 0.000000 0.000000
#
# Coordination Sequence:
#
# PCOD9023113 Si02
#       8
#     2   2   2   2   2   2   2   2
#     4   9  19  30  55  89 136 166 208 276 339 376
#     4  12  26  44  66  95 133 173 214 260 326 397
#     4  12  22  39  65  95 126 172 220 274 316 382
#     4  12  23  39  64  96 133 169 219 270 329 381
#     4  10  17  31  51  89 127 162 211 273 329 371
#     4   9  18  28  52  88 139 159 211 271 353 363
#     4  12  25  47  76 101 125 164 215 275 323 380
#     4  12  27  44  64  97 136 173 208 263 330 400
#
# _framework density 28.102705
#
# number of rings (size 3 to 8) (size 9 to 14) (size 15 to 20)
#    0.750    0.250    1.250    8.250    0.000    0.000 
#    0.000    3.750    0.000    0.000    0.000   17.500 
#    0.000    0.000    0.000    0.000    0.000    0.000 
#
# Total GULP energy -89218.967804 kJ/mol
# GULP energy per Si atom -5576.185488 kJ/mol
# Density = 2.803874 g / cm^3
# Si number density = 28.102705 Si / 1000 Ang^3
#
#
#
# Elastic Constant Matrix: (Units=GPa)
#
#
# Indices 1 2 3 4 5 6 
#
# 1 135.9044 32.7920 64.4867 17.1316 19.6001 19.9647
# 2 32.7920 88.2885 44.1502 -0.9213 14.8964 27.7834
# 3 64.4867 44.1502 219.0838 -6.4417 27.0841 24.8244
# 4 17.1316 -0.9213 -6.4417 43.9937 11.0031 -2.2646
# 5 19.6001 14.8964 27.0841 11.0031 46.7472 4.9602
# 6 19.9647 27.7834 24.8244 -2.2646 4.9602 39.7258
#
#
#
# Elastic Compliance Matrix: (Units=1/GPa)
#
#
# Indices 1 2 3 4 5 6 
#
# 1 0.009864 -0.001590 -0.002284 -0.004068 -0.001081 -0.002515
# 2 -0.001590 0.015947 -0.001323 0.001022 -0.002923 -0.009104
# 3 -0.002284 -0.001323 0.006024 0.002311 -0.002523 -0.001245
# 4 -0.004068 0.001022 0.002311 0.026388 -0.006402 0.002189
# 5 -0.001081 -0.002923 -0.002523 -0.006402 0.025682 0.000593
# 6 -0.002515 -0.009104 -0.001245 0.002189 0.000593 0.033632
#
#
# Mechanical properties :
#
#
# Convention : Reuss Voigt Hill
#
# Bulk Modulus (GPa) = 46.63738 80.68163 63.65950
# Shear Modulus (GPa) = 37.01541 46.21654 41.61598
#
# Velocity S-wave (km/s) = 3.63319 4.05971 3.85236
# Velocity P-wave (km/s) = 5.85077 7.12369 6.51837
#
# Compressibility (1/GPa) = 0.02144203
#
# Stress axis : x y z
#
# Youngs Moduli (GPa) = 101.38277 62.70587 165.99834
#
# Poissons Ratio (x) = 0.09971 0.37912
# Poissons Ratio (y) = 0.16121 0.21956
# Poissons Ratio (z) = 0.23154 0.08294
#
# Static dielectric constant tensor:
#      x y z
#    x 2.146750 -0.079750 -0.043240 
#    y -0.079750 2.249090 -0.001730 
#    z -0.043240 -0.001730 2.085950 
# 
# From -- ./inp_files/356330.got.cif
#   From: 2010.05.17/outbox.cif.g08.bks.cpg/sg2_179_cif.got.tgz:356330.got - 2010.06.03 11:33:40.
