data_PCOD9023788
_publ_section_title
;
Structure prediction by ZEFSAII (Michael W. Deem and Ramdas Pophale) SiO2 
 PCOD9023788
Probable space group: P -1
;
_chemical_formula_sum "Si O2"
_cell_formula_units_Z 16
_cell_length_a 18.172575
_cell_length_b 24.369223
_cell_length_c 5.465040
_cell_angle_alpha 108.304801
_cell_angle_beta 114.012997
_cell_angle_gamma 18.385565
_cell_volume 675.103036
_symmetry_space_group_name_H-M "P -1"
_symmetry_group_IT_number 2
_symmetry_cell_setting 'triclinic'
loop_
_space_group_symop_operation_xyz
x,y,z
-x,-y,-z
loop_
_atom_site_type_symbol
_atom_site_label
_atom_site_fract_x
_atom_site_fract_y
_atom_site_fract_z
Si Si1 0.882327 0.014888 0.847867
Si Si2 0.397286 0.135598 0.011230
Si Si3 0.906800 0.629411 0.572422
Si Si4 0.267228 0.853954 0.667160
Si Si5 0.230440 0.695473 0.112141
Si Si6 0.935277 0.810547 0.176715
Si Si7 0.740099 0.505573 0.068443
Si Si8 0.363049 0.504039 0.689439
O O1 0.736442 0.108000 0.531542
O O2 0.738213 0.106799 0.035262
O O3 0.000000 0.000000 0.000000
O O4 0.093797 0.823029 0.889412
O O5 0.224481 0.260878 0.708563
O O6 0.265493 0.244389 0.240029
O O7 0.500000 0.000000 0.000000
O O8 0.644443 0.005144 0.106546
O O9 0.000000 0.500000 0.500000
O O10 0.141575 0.512323 0.770693
O O11 0.531857 0.641853 0.764102
O O12 0.000000 0.000000 0.500000
O O13 0.425736 0.610081 0.354223
O O14 0.036886 0.801206 0.190831
O O15 0.363455 0.549158 0.979307
O O16 0.093181 0.690769 0.465868
O O17 0.030623 0.693788 0.963719
O O18 0.606485 0.575954 0.236597
#
# Coordination Sequence:
#
# PCOD9023788 Si02
#       8
#     2   2   2   2   2   2   2   2
#     4  10  22  40  61  92 135 195 237 285 358 431
#     4  12  26  52  86 113 154 204 268 327 402 480
#     4  12  29  53  82 121 158 198 262 346 408 466
#     4  10  23  39  65  99 139 193 240 292 360 456
#     4  10  23  40  64 102 147 195 251 312 366 454
#     4  11  25  41  76 108 142 201 258 321 379 472
#     4  11  25  44  74 108 146 202 259 310 401 463
#     4  10  22  42  67 102 146 193 252 309 374 451
#
# _framework density 23.700085000000001
#
# number of rings (size 3 to 8) (size 9 to 14) (size 15 to 20)
#    0.000    1.250    1.250    3.375   10.500    1.000 
#    0.000    0.000    0.000    0.000    0.000    0.000 
#    0.000    0.000    0.000    0.000    0.000    0.000 
#
# Total GULP energy -89369.248815 kJ/mol
# GULP energy per Si atom -5585.578051 kJ/mol
# Density = 2.364614 g / cm^3
# Si number density = 23.700085 Si / 1000 Ang^3
#
#
#
# Elastic Constant Matrix: (Units=GPa)
#
#
# Indices 1 2 3 4 5 6 
#
# 1 126.9769 61.4391 59.2346 -0.3191 12.6081 -1.5502
# 2 61.4391 120.9193 44.9139 6.7332 -3.6317 1.4716
# 3 59.2346 44.9139 150.1629 -8.1782 -23.4810 -3.3259
# 4 -0.3191 6.7332 -8.1782 46.9592 -2.8819 1.2718
# 5 12.6081 -3.6317 -23.4810 -2.8819 49.0273 -9.8871
# 6 -1.5502 1.4716 -3.3259 1.2718 -9.8871 41.8593
#
#
#
# Elastic Compliance Matrix: (Units=1/GPa)
#
#
# Indices 1 2 3 4 5 6 
#
# 1 0.013123 -0.005084 -0.004678 -0.000348 -0.006249 -0.001172
# 2 -0.005084 0.011492 -0.001327 -0.001822 0.001351 -0.000323
# 3 -0.004678 -0.001327 0.010089 0.002256 0.006501 0.002142
# 4 -0.000348 -0.001822 0.002256 0.022088 0.002357 0.000116
# 5 -0.006249 0.001351 0.006501 0.002357 0.026659 0.006463
# 6 -0.001172 -0.000323 0.002142 0.000116 0.006463 0.025551
#
#
# Mechanical properties :
#
#
# Convention : Reuss Voigt Hill
#
# Bulk Modulus (GPa) = 79.83705 81.02603 80.43154
# Shear Modulus (GPa) = 36.93975 43.06727 40.00351
#
# Velocity S-wave (km/s) = 3.95224 4.26746 4.11287
# Velocity P-wave (km/s) = 7.38826 7.65140 7.52098
#
# Compressibility (1/GPa) = 0.01252551
#
# Stress axis : x y z
#
# Youngs Moduli (GPa) = 76.20149 87.01641 99.12252
#
# Poissons Ratio (x) = 0.44242 0.46370
# Poissons Ratio (y) = 0.38743 0.13152
# Poissons Ratio (z) = 0.35647 0.11545
#
# Static dielectric constant tensor:
#      x y z
#    x 1.921260 0.013840 -0.010160 
#    y 0.013840 1.961670 -0.005170 
#    z -0.010160 -0.005170 1.917300 
# 
# From -- ./inp_files/112927.got.cif
#   From: 2010.05.17/outbox.cif.g08.bks.cpg/sg2_57_cif.got.tgz:112927.got - 2010.06.03 11:33:40.
