data_PCOD9023930
_publ_section_title
;
Structure prediction by ZEFSAII (Michael W. Deem and Ramdas Pophale) SiO2 
 PCOD9023930
Probable space group: P -1
;
_chemical_formula_sum "Si O2"
_cell_formula_units_Z 16
_cell_length_a 15.611026
_cell_length_b 15.004451
_cell_length_c 12.809129
_cell_angle_alpha 19.954017
_cell_angle_beta 39.009857
_cell_angle_gamma 35.451951
_cell_volume 592.916186
_symmetry_space_group_name_H-M "P -1"
_symmetry_group_IT_number 2
_symmetry_cell_setting 'triclinic'
loop_
_space_group_symop_operation_xyz
x,y,z
-x,-y,-z
loop_
_atom_site_type_symbol
_atom_site_label
_atom_site_fract_x
_atom_site_fract_y
_atom_site_fract_z
Si Si1 0.492785 0.707324 0.680776
Si Si2 0.116321 0.425189 0.796991
Si Si3 0.122919 0.713172 0.743918
Si Si4 0.640792 0.164031 0.718865
Si Si5 0.981246 0.299753 0.606023
Si Si6 0.762888 0.641102 0.589968
Si Si7 0.189421 0.834503 0.778580
Si Si8 0.405283 0.510337 0.405584
O O1 0.610105 0.836301 0.466955
O O2 0.325787 0.923270 0.580577
O O3 0.543934 0.545451 0.700226
O O4 0.500000 0.500000 0.000000
O O5 0.961478 0.499947 0.923367
O O6 0.230770 0.142695 0.053523
O O7 0.060761 0.419915 0.736439
O O8 0.229776 0.578742 0.502154
O O9 0.267065 0.639677 0.617069
O O10 0.167554 0.800914 0.715786
O O11 0.000000 0.000000 0.500000
O O12 0.514473 0.235821 0.671643
O O13 0.579422 0.246618 0.803465
O O14 0.837057 0.383308 0.720978
O O15 0.113274 0.242910 0.626522
O O16 0.045544 0.050166 0.736170
O O17 0.753480 0.479694 0.881051
#
# Coordination Sequence:
#
# PCOD9023930 Si02
#       8
#     2   2   2   2   2   2   2   2
#     4  10  22  42  68  92 130 171 217 268 321 398
#     4  11  23  40  64  97 132 163 221 276 317 388
#     4  10  22  40  62  91 131 166 209 273 327 380
#     4  10  24  44  66  93 133 173 218 272 323 392
#     4  11  23  38  65  95 125 168 211 272 325 382
#     4  10  22  42  60  92 129 162 223 264 317 387
#     4  11  22  42  63  90 130 172 210 264 331 385
#     4  11  22  44  69  94 127 178 220 261 335 385
#
# _framework density 26.985263
#
# number of rings (size 3 to 8) (size 9 to 14) (size 15 to 20)
#    0.000    1.500    3.750    0.750    3.500    1.000 
#   11.250    3.750    0.000    0.000    0.000    0.000 
#    0.000    0.000    0.000    0.000    0.000    0.000 
#
# Total GULP energy -89274.244572 kJ/mol
# GULP energy per Si atom -5579.640286 kJ/mol
# Density = 2.692384 g / cm^3
# Si number density = 26.985263 Si / 1000 Ang^3
#
#
#
# Elastic Constant Matrix: (Units=GPa)
#
#
# Indices 1 2 3 4 5 6 
#
# 1 165.1389 66.8875 37.5927 3.2804 50.5652 -9.1365
# 2 66.8875 89.2338 20.1592 6.0571 10.8878 1.4934
# 3 37.5927 20.1592 46.1218 10.5989 17.4114 4.1287
# 4 3.2804 6.0571 10.5989 29.7400 7.1858 7.3803
# 5 50.5652 10.8878 17.4114 7.1858 40.4042 6.6656
# 6 -9.1365 1.4934 4.1287 7.3803 6.6656 62.6764
#
#
#
# Elastic Compliance Matrix: (Units=1/GPa)
#
#
# Indices 1 2 3 4 5 6 
#
# 1 0.016491 -0.009687 -0.003945 0.004832 -0.017885 0.004228
# 2 -0.009687 0.018184 -0.002584 -0.003403 0.009316 -0.002265
# 3 -0.003945 -0.002584 0.030160 -0.008166 -0.005759 -0.000926
# 4 0.004832 -0.003403 -0.008166 0.039278 -0.008196 -0.002430
# 5 -0.017885 0.009316 -0.005759 -0.008196 0.049679 -0.006768
# 6 0.004228 -0.002265 -0.000926 -0.002430 -0.006768 0.017692
#
#
# Mechanical properties :
#
#
# Convention : Reuss Voigt Hill
#
# Bulk Modulus (GPa) = 30.86113 61.08592 45.97352
# Shear Modulus (GPa) = 23.28645 38.28781 30.78713
#
# Velocity S-wave (km/s) = 2.94076 3.77084 3.38137
# Velocity P-wave (km/s) = 4.79498 6.45328 5.68492
#
# Compressibility (1/GPa) = 0.03240322
#
# Stress axis : x y z
#
# Youngs Moduli (GPa) = 60.63739 54.99443 33.15665
#
# Poissons Ratio (x) = 0.53273 0.13079
# Poissons Ratio (y) = 0.58739 0.08568
# Poissons Ratio (z) = 0.23920 0.14212
#
# Static dielectric constant tensor:
#      x y z
#    x 2.223990 -0.060650 -0.159630 
#    y -0.060650 2.113910 0.052270 
#    z -0.159630 0.052270 2.274760 
# 
# From -- ./inp_files/454345.got.cif
#   From: 2010.05.17/outbox.cif.g08.bks.cpg/sg2_228_cif.got.tgz:454345.got - 2010.06.03 11:33:40.
