data_PCOD9023866
_publ_section_title
;
Structure prediction by ZEFSAII (Michael W. Deem and Ramdas Pophale) SiO2 
 PCOD9023866
Probable space group: P -1
;
_chemical_formula_sum "Si O2"
_cell_formula_units_Z 16
_cell_length_a 9.926745
_cell_length_b 16.179656
_cell_length_c 12.336965
_cell_angle_alpha 127.383901
_cell_angle_beta 107.757644
_cell_angle_gamma 35.811303
_cell_volume 843.098607
_symmetry_space_group_name_H-M "P -1"
_symmetry_group_IT_number 2
_symmetry_cell_setting 'triclinic'
loop_
_space_group_symop_operation_xyz
x,y,z
-x,-y,-z
loop_
_atom_site_type_symbol
_atom_site_label
_atom_site_fract_x
_atom_site_fract_y
_atom_site_fract_z
Si Si1 0.256450 0.572843 0.496098
Si Si2 0.539702 0.976857 0.119024
Si Si3 0.702020 0.667397 0.566264
Si Si4 0.207950 0.784256 0.990521
Si Si5 0.250688 0.857240 0.522204
Si Si6 0.716447 0.401305 0.709159
Si Si7 0.016593 0.799796 0.157999
Si Si8 0.851192 0.943315 0.835954
O O1 0.500000 0.500000 0.500000
O O2 0.331426 0.413886 0.431375
O O3 0.168065 0.617300 0.384593
O O4 0.040284 0.757208 0.663434
O O5 0.395645 0.165539 0.277797
O O6 0.410031 0.956912 0.127658
O O7 0.830185 0.822328 0.092866
O O8 0.500000 0.000000 0.000000
O O9 0.520025 0.751722 0.484995
O O10 0.000000 0.500000 0.500000
O O11 0.210296 0.712829 0.042135
O O12 0.181257 0.923062 0.117844
O O13 0.456485 0.614037 0.845523
O O14 0.977927 0.887431 0.940031
O O15 0.325962 0.691608 0.412965
O O16 0.141997 0.995892 0.702163
O O17 0.000000 0.000000 0.500000
O O18 0.873573 0.298554 0.776882
#
# Coordination Sequence:
#
# PCOD9023866 Si02
#       8
#     2   2   2   2   2   2   2   2
#     4  12  22  38  64  89 120 156 204 253 296 356
#     4  11  23  39  62  85 123 159 193 247 308 362
#     4  11  22  37  61  93 119 155 209 251 301 361
#     4  11  22  36  62  90 120 151 203 250 294 358
#     4   9  19  36  61  86 119 157 197 243 301 356
#     4  11  22  38  63  89 120 157 203 248 298 355
#     4  10  22  40  62  88 120 159 200 242 305 367
#     4  11  23  38  59  93 119 153 199 252 301 346
#
# _framework density 18.977613999999999
#
# number of rings (size 3 to 8) (size 9 to 14) (size 15 to 20)
#    0.000    1.250    5.000    1.125    3.500    0.000 
#    0.000    1.250    5.500    0.000    0.000    0.000 
#    0.000    0.000    0.000    0.000    0.000    0.000 
#
# Total GULP energy -89084.786867 kJ/mol
# GULP energy per Si atom -5567.799179 kJ/mol
# Density = 1.893442 g / cm^3
# Si number density = 18.977614 Si / 1000 Ang^3
#
#
#
# Elastic Constant Matrix: (Units=GPa)
#
#
# Indices 1 2 3 4 5 6 
#
# 1 108.5272 37.9195 15.7929 -19.9318 4.5455 -5.6823
# 2 37.9195 80.2461 13.1986 -21.8632 9.3157 -4.8938
# 3 15.7929 13.1986 32.6275 -8.6592 4.6599 -0.3750
# 4 -19.9318 -21.8632 -8.6592 36.5443 3.5561 2.7391
# 5 4.5455 9.3157 4.6599 3.5561 25.3003 -2.2714
# 6 -5.6823 -4.8938 -0.3750 2.7391 -2.2714 30.0631
#
#
#
# Elastic Compliance Matrix: (Units=1/GPa)
#
#
# Indices 1 2 3 4 5 6 
#
# 1 0.011750 -0.004050 -0.003134 0.003190 -0.000383 0.001203
# 2 -0.004050 0.017865 -0.002037 0.008576 -0.006605 0.000837
# 3 -0.003134 -0.002037 0.035510 0.006207 -0.006236 -0.001518
# 4 0.003190 0.008576 0.006207 0.036856 -0.010239 -0.002055
# 5 -0.000383 -0.006605 -0.006236 -0.010239 0.044892 0.003099
# 6 0.001203 0.000837 -0.001518 -0.002055 0.003099 0.034029
#
#
# Mechanical properties :
#
#
# Convention : Reuss Voigt Hill
#
# Bulk Modulus (GPa) = 21.42098 39.46919 30.44508
# Shear Modulus (GPa) = 23.26582 28.68086 25.97334
#
# Velocity S-wave (km/s) = 3.50517 3.89176 3.70351
# Velocity P-wave (km/s) = 5.26247 6.40604 5.86221
#
# Compressibility (1/GPa) = 0.04668320
#
# Stress axis : x y z
#
# Youngs Moduli (GPa) = 85.10365 55.97514 28.16069
#
# Poissons Ratio (x) = 0.22670 0.08826
# Poissons Ratio (y) = 0.34467 0.05737
# Poissons Ratio (z) = 0.26672 0.11404
#
# Static dielectric constant tensor:
#      x y z
#    x 1.681130 -0.031050 -0.016010 
#    y -0.031050 1.821160 0.010710 
#    z -0.016010 0.010710 1.680690 
# 
# From -- ./inp_files/177767.got.cif
#   From: 2010.05.17/outbox.cif.g08.bks.cpg/sg2_89_cif.got.tgz:177767.got - 2010.06.03 11:33:40.
