data_PCOD9023496
_publ_section_title
;
Structure prediction by ZEFSAII (Michael W. Deem and Ramdas Pophale) SiO2 
 PCOD9023496
Probable space group: P -1
;
_chemical_formula_sum "Si O2"
_cell_formula_units_Z 13
_cell_length_a 13.837831
_cell_length_b 9.003128
_cell_length_c 14.438109
_cell_angle_alpha 116.596379
_cell_angle_beta 159.923926
_cell_angle_gamma 62.126407
_cell_volume 545.598908
_symmetry_space_group_name_H-M "P -1"
_symmetry_group_IT_number 2
_symmetry_cell_setting 'triclinic'
loop_
_space_group_symop_operation_xyz
x,y,z
-x,-y,-z
loop_
_atom_site_type_symbol
_atom_site_label
_atom_site_fract_x
_atom_site_fract_y
_atom_site_fract_z
Si Si1 0.550984 0.250842 0.792652
Si Si2 0.000000 0.500000 0.000000
Si Si3 0.196375 0.245610 0.932216
Si Si4 0.291239 0.550989 0.744002
Si Si5 0.177522 0.841082 0.170004
Si Si6 0.838067 0.181324 0.430597
Si Si7 0.911250 0.952186 0.680738
O O1 0.435352 0.443519 0.758326
O O2 0.574345 0.222242 0.696021
O O3 0.320547 0.146402 0.599930
O O4 0.851963 0.183058 0.092718
O O5 0.029680 0.680839 0.022075
O O6 0.896763 0.611361 0.034053
O O7 0.046748 0.281901 0.706973
O O8 0.536730 0.198019 0.217337
O O9 0.069577 0.077163 0.799657
O O10 0.240291 0.739045 0.717900
O O11 0.000000 0.500000 0.500000
O O12 0.500000 0.500000 0.000000
O O13 0.260789 0.922881 0.362934
O O14 0.000000 0.000000 0.000000
O O15 0.000000 0.000000 0.500000
#
# Coordination Sequence:
#
# PCOD9023496 Si02
#       7
#     2   1   2   2   2   2   2
#     4  11  22  41  68  95 142 179 231 292 352 426
#     4  10  22  44  74 110 152 192 244 310 370 464
#     4  11  25  46  74 108 149 191 246 299 385 433
#     4  12  28  46  70 102 135 189 247 300 364 421
#     4   9  20  39  66 102 139 182 232 284 363 430
#     4  12  28  48  74 104 149 194 246 311 365 445
#     4  10  22  39  70 104 135 182 224 289 352 444
#
# _framework density 23.827027000000001
#
# number of rings (size 3 to 8) (size 9 to 14) (size 15 to 20)
#    0.000    1.231    0.000    4.615    6.462    3.077 
#    0.000    6.154    0.000    0.000    0.000    0.000 
#    0.000    0.000    0.000    0.000    0.000    0.000 
#
# Total GULP energy -72408.164211 kJ/mol
# GULP energy per Si atom -5569.858785 kJ/mol
# Density = 2.377280 g / cm^3
# Si number density = 23.827027 Si / 1000 Ang^3
#
#
#
# Elastic Constant Matrix: (Units=GPa)
#
#
# Indices 1 2 3 4 5 6 
#
# 1 92.4507 54.5867 28.9087 -7.2395 8.2874 -13.8266
# 2 54.5867 169.5860 35.3821 -7.5164 -2.1825 0.1585
# 3 28.9087 35.3821 115.9211 -11.4438 11.9340 -14.6908
# 4 -7.2395 -7.5164 -11.4438 23.3747 3.3898 -0.4716
# 5 8.2874 -2.1825 11.9340 3.3898 23.0906 0.8299
# 6 -13.8266 0.1585 -14.6908 -0.4716 0.8299 58.3982
#
#
#
# Elastic Compliance Matrix: (Units=1/GPa)
#
#
# Indices 1 2 3 4 5 6 
#
# 1 0.015190 -0.004608 -0.000949 0.003708 -0.006067 0.003486
# 2 -0.004608 0.007791 -0.001823 -0.000346 0.003442 -0.001623
# 3 -0.000949 -0.001823 0.010956 0.005464 -0.006392 0.002671
# 4 0.003708 -0.000346 0.005464 0.048198 -0.011364 0.002804
# 5 -0.006067 0.003442 -0.006392 -0.011364 0.050921 -0.003869
# 6 0.003486 -0.001623 0.002671 0.002804 -0.003869 0.018703
#
#
# Mechanical properties :
#
#
# Convention : Reuss Voigt Hill
#
# Bulk Modulus (GPa) = 52.14880 68.41254 60.28067
# Shear Modulus (GPa) = 28.91650 38.24472 33.58061
#
# Velocity S-wave (km/s) = 3.48746 4.01071 3.75820
# Velocity P-wave (km/s) = 6.17660 7.08677 6.64728
#
# Compressibility (1/GPa) = 0.01917590
#
# Stress axis : x y z
#
# Youngs Moduli (GPa) = 65.83331 128.35607 91.27704
#
# Poissons Ratio (x) = 0.59151 0.08663
# Poissons Ratio (y) = 0.30338 0.16638
# Poissons Ratio (z) = 0.06248 0.23397
#
# Static dielectric constant tensor:
#      x y z
#    x 2.168830 0.108570 -0.197480 
#    y 0.108570 1.976750 -0.062280 
#    z -0.197480 -0.062280 2.023960 
# 
# From -- ./inp_files/41774.got.cif
#   From: 2010.05.17/outbox.cif.g08.bks.cpg/sg2_21_cif.got.tgz:41774.got - 2010.06.03 11:33:40.
