data_PCOD9023502
_publ_section_title
;
Structure prediction by ZEFSAII (Michael W. Deem and Ramdas Pophale) SiO2 
 PCOD9023502
Probable space group: P -1
;
_chemical_formula_sum "Si O2"
_cell_formula_units_Z 11
_cell_length_a 9.450619
_cell_length_b 12.692916
_cell_length_c 17.440936
_cell_angle_alpha 159.344251
_cell_angle_beta 147.845038
_cell_angle_gamma 37.247084
_cell_volume 392.693778
_symmetry_space_group_name_H-M "P -1"
_symmetry_group_IT_number 2
_symmetry_cell_setting 'triclinic'
loop_
_space_group_symop_operation_xyz
x,y,z
-x,-y,-z
loop_
_atom_site_type_symbol
_atom_site_label
_atom_site_fract_x
_atom_site_fract_y
_atom_site_fract_z
Si Si1 0.860801 0.860402 0.576260
Si Si2 0.471288 0.626815 0.486875
Si Si3 0.000000 0.000000 0.000000
Si Si4 0.711210 0.983170 0.011554
Si Si5 0.434921 0.610647 0.130145
Si Si6 0.818205 0.879674 0.234250
O O1 0.713717 0.570463 0.278517
O O2 0.658065 0.049688 0.666015
O O3 0.123545 0.817290 0.717678
O O4 0.946230 0.034520 0.656114
O O5 0.500000 0.500000 0.500000
O O6 0.239580 0.874101 0.558949
O O7 0.367637 0.328786 0.196087
O O8 0.738124 0.802313 0.711764
O O9 0.914920 0.912851 0.988414
O O10 0.552126 0.894094 0.068312
O O11 0.500000 0.500000 0.000000
O O12 0.206569 0.430050 0.944463
#
# Coordination Sequence:
#
# PCOD9023502 Si02
#       6
#     2   2   1   2   2   2
#     4  11  26  46  69 101 140 177 233 289 334 410
#     4   8  18  34  61  98 131 171 217 264 338 403
#     4   8  16  32  58  96 138 168 206 262 338 392
#     4  10  22  39  70 107 135 172 228 285 345 407
#     4  11  28  48  69  97 138 189 235 274 341 411
#     4  10  22  43  70 102 135 180 223 283 353 396
#
# _framework density 28.011647
#
# number of rings (size 3 to 8) (size 9 to 14) (size 15 to 20)
#    0.000    2.545    0.000    1.091    7.636    8.727 
#    3.273    0.000    0.000    0.000    0.000    0.000 
#    0.000    0.000    0.000    0.000    0.000    0.000 
#
# Total GULP energy -61286.406554 kJ/mol
# GULP energy per Si atom -5571.491505 kJ/mol
# Density = 2.794789 g / cm^3
# Si number density = 28.011647 Si / 1000 Ang^3
#
#
#
# Elastic Constant Matrix: (Units=GPa)
#
#
# Indices 1 2 3 4 5 6 
#
# 1 172.0932 7.6789 63.7998 -3.8490 35.3681 -2.7928
# 2 7.6789 62.3880 37.2268 -25.4982 5.5267 -19.0189
# 3 63.7998 37.2268 176.6548 -34.2877 24.1185 13.1835
# 4 -3.8490 -25.4982 -34.2877 36.0704 0.1017 7.1815
# 5 35.3681 5.5267 24.1185 0.1017 59.1425 -2.3337
# 6 -2.7928 -19.0189 13.1835 7.1815 -2.3337 34.5677
#
#
#
# Elastic Compliance Matrix: (Units=1/GPa)
#
#
# Indices 1 2 3 4 5 6 
#
# 1 0.007581 0.001308 -0.003099 -0.001731 -0.003284 0.002652
# 2 0.001308 0.028780 -0.005120 0.012588 -0.000805 0.015223
# 3 -0.003099 -0.005120 0.010279 0.007561 -0.002217 -0.008708
# 4 -0.001731 0.012588 0.007561 0.044756 -0.003524 -0.005633
# 5 -0.003284 -0.000805 -0.002217 -0.003524 0.019945 0.002216
# 6 0.002652 0.015223 -0.008708 -0.005633 0.002216 0.042160
#
#
# Mechanical properties :
#
#
# Convention : Reuss Voigt Hill
#
# Bulk Modulus (GPa) = 30.47170 69.83853 50.15512
# Shear Modulus (GPa) = 28.04865 46.11816 37.08340
#
# Velocity S-wave (km/s) = 3.16780 4.06198 3.64243
# Velocity P-wave (km/s) = 4.92765 6.85461 5.96940
#
# Compressibility (1/GPa) = 0.03281734
#
# Stress axis : x y z
#
# Youngs Moduli (GPa) = 131.91657 34.74643 97.28630
#
# Poissons Ratio (x) = -0.04545 0.30148
# Poissons Ratio (y) = -0.17254 0.49812
# Poissons Ratio (z) = 0.40879 0.17791
#
# Static dielectric constant tensor:
#      x y z
#    x 2.097050 -0.046280 -0.004860 
#    y -0.046280 2.233900 -0.098480 
#    z -0.004860 -0.098480 2.155290 
# 
# From -- ./inp_files/560653.got.cif
#   From: 2010.05.17/outbox.cif.g08.bks.cpg/sg2_281_cif.got.tgz:560653.got - 2010.06.03 11:33:40.
