data_PCOD9023316
_publ_section_title
;
Structure prediction by ZEFSAII (Michael W. Deem and Ramdas Pophale) SiO2 
 PCOD9023316
Probable space group: P -1
;
_chemical_formula_sum "Si O2"
_cell_formula_units_Z 14
_cell_length_a 10.248765
_cell_length_b 14.546149
_cell_length_c 9.942894
_cell_angle_alpha 113.634881
_cell_angle_beta 39.288804
_cell_angle_gamma 137.302488
_cell_volume 585.829034
_symmetry_space_group_name_H-M "P -1"
_symmetry_group_IT_number 2
_symmetry_cell_setting 'triclinic'
loop_
_space_group_symop_operation_xyz
x,y,z
-x,-y,-z
loop_
_atom_site_type_symbol
_atom_site_label
_atom_site_fract_x
_atom_site_fract_y
_atom_site_fract_z
Si Si1 0.536305 0.678229 0.150109
Si Si2 0.793405 0.908656 0.740640
Si Si3 0.722824 0.233969 0.757620
Si Si4 0.628748 0.487476 0.558744
Si Si5 0.690710 0.915104 0.345744
Si Si6 0.652979 0.410820 0.221214
Si Si7 0.863167 0.191754 0.332383
O O1 0.366240 0.686489 0.182063
O O2 0.340855 0.550645 0.341727
O O3 0.708784 0.823689 0.187734
O O4 0.778706 0.687650 0.901890
O O5 0.568555 0.739916 0.773626
O O6 0.551350 0.895492 0.001735
O O7 0.000000 0.000000 0.500000
O O8 0.052299 0.986519 0.691040
O O9 0.787221 0.191525 0.547956
O O10 0.041179 0.352387 0.648609
O O11 0.544276 0.379890 0.445468
O O12 0.392649 0.494101 0.747079
O O13 0.332079 0.800325 0.596871
O O14 0.751778 0.041006 0.293639
O O15 0.000000 0.500000 0.000000
#
# Coordination Sequence:
#
# PCOD9023316 Si02
#       7
#     2   2   2   2   2   2   2
#     4  11  23  42  70 104 140 182 224 281 351 417
#     4  12  25  45  72  96 136 187 228 289 346 401
#     4  11  24  43  68 103 143 174 232 290 339 411
#     4  11  25  44  72 101 133 187 234 273 351 414
#     4  10  22  41  65  98 140 174 227 285 341 403
#     4  11  25  50  72  95 142 182 231 292 336 406
#     4  10  22  39  67  99 138 181 218 290 349 397
#
# _framework density 23.897758
#
# number of rings (size 3 to 8) (size 9 to 14) (size 15 to 20)
#    0.000    1.143    2.857    2.571    4.000    4.000 
#    0.000    1.429    0.000    0.000    0.000    0.000 
#    0.000    0.000    0.000    0.000    0.000    0.000 
#
# Total GULP energy -78128.091872 kJ/mol
# GULP energy per Si atom -5580.577991 kJ/mol
# Density = 2.384337 g / cm^3
# Si number density = 23.897758 Si / 1000 Ang^3
#
#
#
# Elastic Constant Matrix: (Units=GPa)
#
#
# Indices 1 2 3 4 5 6 
#
# 1 69.2979 24.0762 45.7976 -1.1009 -12.8685 15.4448
# 2 24.0762 91.9174 44.1998 12.7756 -4.1250 30.4959
# 3 45.7976 44.1998 187.0867 6.5157 -12.5154 1.0584
# 4 -1.1009 12.7756 6.5157 21.3884 4.3258 0.6635
# 5 -12.8685 -4.1250 -12.5154 4.3258 46.6301 -6.9368
# 6 15.4448 30.4959 1.0584 0.6635 -6.9368 38.1634
#
#
#
# Elastic Compliance Matrix: (Units=1/GPa)
#
#
# Indices 1 2 3 4 5 6 
#
# 1 0.019794 -0.001135 -0.004435 0.002650 0.002961 -0.006489
# 2 -0.001135 0.019306 -0.003925 -0.009738 -0.000967 -0.014865
# 3 -0.004435 -0.003925 0.007430 -0.000546 0.001211 0.004955
# 4 0.002650 -0.009738 -0.000546 0.053632 -0.004512 0.004971
# 5 0.002961 -0.000967 0.001211 -0.004512 0.023499 0.003891
# 6 -0.006489 -0.014865 0.004955 0.004971 0.003891 0.041191
#
#
# Mechanical properties :
#
#
# Convention : Reuss Voigt Hill
#
# Bulk Modulus (GPa) = 36.30963 64.04991 50.17977
# Shear Modulus (GPa) = 25.90392 36.85159 31.37775
#
# Velocity S-wave (km/s) = 3.29591 3.93116 3.62747
# Velocity P-wave (km/s) = 5.45076 6.88950 6.21192
#
# Compressibility (1/GPa) = 0.02754090
#
# Stress axis : x y z
#
# Youngs Moduli (GPa) = 50.52127 51.79764 134.59061
#
# Poissons Ratio (x) = 0.05878 0.59688
# Poissons Ratio (y) = 0.05733 0.52823
# Poissons Ratio (z) = 0.22405 0.20329
#
# Static dielectric constant tensor:
#      x y z
#    x 1.996630 0.019400 0.005960 
#    y 0.019400 1.939640 -0.046740 
#    z 0.005960 -0.046740 2.022120 
# 
# From -- ./inp_files/436834.got.cif
#   From: 2010.05.17/outbox.cif.g08.bks.cpg/sg2_219_cif.got.tgz:436834.got - 2010.06.03 11:33:40.
