data_PCOD9023534
_publ_section_title
;
Structure prediction by ZEFSAII (Michael W. Deem and Ramdas Pophale) SiO2 
 PCOD9023534
Probable space group: P -1
;
_chemical_formula_sum "Si O2"
_cell_formula_units_Z 15
_cell_length_a 11.578189
_cell_length_b 10.457616
_cell_length_c 8.404449
_cell_angle_alpha 90.627757
_cell_angle_beta 74.656731
_cell_angle_gamma 41.057332
_cell_volume 607.931905
_symmetry_space_group_name_H-M "P -1"
_symmetry_group_IT_number 2
_symmetry_cell_setting 'triclinic'
loop_
_space_group_symop_operation_xyz
x,y,z
-x,-y,-z
loop_
_atom_site_type_symbol
_atom_site_label
_atom_site_fract_x
_atom_site_fract_y
_atom_site_fract_z
Si Si1 0.293389 0.856881 0.303702
Si Si2 0.500000 0.500000 0.000000
Si Si3 0.643360 0.921849 0.312225
Si Si4 0.429745 0.189222 0.953351
Si Si5 0.181429 0.763912 0.876192
Si Si6 0.923616 0.322451 0.361701
Si Si7 0.972176 0.495332 0.818866
Si Si8 0.530601 0.285535 0.407377
O O1 0.402355 0.851429 0.129292
O O2 0.395533 0.787814 0.437144
O O3 0.344472 0.677304 0.207339
O O4 0.076815 0.098329 0.388423
O O5 0.317098 0.605386 0.965658
O O6 0.628480 0.815212 0.197953
O O7 0.861481 0.742090 0.290712
O O8 0.500000 0.000000 0.500000
O O9 0.582243 0.114052 0.286301
O O10 0.238836 0.387189 0.118951
O O11 0.500000 0.000000 0.000000
O O12 0.098649 0.716879 0.806966
O O13 0.332600 0.719525 0.714247
O O14 0.000000 0.000000 0.000000
O O15 0.002987 0.399328 0.299233
O O16 0.702232 0.506778 0.508197
O O17 0.000000 0.500000 0.000000
#
# Coordination Sequence:
#
# PCOD9023534 Si02
#       8
#     2   1   2   2   2   2   2   2
#     4  12  26  47  74 107 146 193 244 295 358 433
#     4  12  28  46  76 106 140 186 256 294 352 434
#     4  11  22  43  69 103 139 187 236 291 360 425
#     4  11  23  42  69 102 145 184 235 292 348 418
#     4  12  29  48  75 103 141 189 245 304 362 428
#     4  12  24  47  71 103 146 190 237 294 363 425
#     4  10  22  39  70  99 139 187 230 286 355 418
#     4  12  27  49  73 102 151 188 237 306 364 429
#
# _framework density 24.673815999999999
#
# number of rings (size 3 to 8) (size 9 to 14) (size 15 to 20)
#    0.000    0.533    6.667    1.200    5.600    1.600 
#    2.400    2.000    0.000    0.000    0.000    0.000 
#    0.000    0.000    0.000    0.000    0.000    0.000 
#
# Total GULP energy -83558.808653 kJ/mol
# GULP energy per Si atom -5570.587244 kJ/mol
# Density = 2.461766 g / cm^3
# Si number density = 24.673816 Si / 1000 Ang^3
#
#
#
# Elastic Constant Matrix: (Units=GPa)
#
#
# Indices 1 2 3 4 5 6 
#
# 1 52.3137 20.0696 24.2675 -2.9735 -11.4687 -8.3315
# 2 20.0696 139.3519 44.6166 43.5262 -21.3070 -25.1313
# 3 24.2675 44.6166 82.4644 28.6920 -26.6452 -5.7105
# 4 -2.9735 43.5262 28.6920 51.4804 -1.1450 -13.7067
# 5 -11.4687 -21.3070 -26.6452 -1.1450 36.3701 6.9528
# 6 -8.3315 -25.1313 -5.7105 -13.7067 6.9528 34.2358
#
#
#
# Elastic Compliance Matrix: (Units=1/GPa)
#
#
# Indices 1 2 3 4 5 6 
#
# 1 0.026642 -0.003216 -0.010519 0.012115 -0.002276 0.007681
# 2 -0.003216 0.011950 -0.000736 -0.008875 0.004519 0.003396
# 3 -0.010519 -0.000736 0.026080 -0.016468 0.016502 -0.008695
# 4 0.012115 -0.008875 -0.016468 0.039837 -0.014599 0.012601
# 5 -0.002276 0.004519 0.016502 -0.014599 0.042778 -0.009017
# 6 0.007681 0.003396 -0.008695 0.012601 -0.009017 0.038997
#
#
# Mechanical properties :
#
#
# Convention : Reuss Voigt Hill
#
# Bulk Modulus (GPa) = 27.98770 50.22638 39.10704
# Shear Modulus (GPa) = 22.01328 36.76237 29.38782
#
# Velocity S-wave (km/s) = 2.99016 3.86415 3.45491
# Velocity P-wave (km/s) = 4.82588 6.34896 5.63908
#
# Compressibility (1/GPa) = 0.03572999
#
# Stress axis : x y z
#
# Youngs Moduli (GPa) = 37.53531 83.67972 38.34360
#
# Poissons Ratio (x) = 0.26912 0.40333
# Poissons Ratio (y) = 0.12071 0.02823
# Poissons Ratio (z) = 0.39482 0.06160
#
# Static dielectric constant tensor:
#      x y z
#    x 1.975920 0.012540 0.005040 
#    y 0.012540 2.035310 0.041790 
#    z 0.005040 0.041790 1.922240 
# 
# From -- ./inp_files/258982.got.cif
#   From: 2010.05.17/outbox.cif.g08.bks.cpg/sg2_130_cif.got.tgz:258982.got - 2010.06.03 11:33:40.
