data_PCOD9023073
_publ_section_title
;
Structure prediction by ZEFSAII (Michael W. Deem and Ramdas Pophale) SiO2 
 PCOD9023073
Probable space group: P -1
;
_chemical_formula_sum "Si O2"
_cell_formula_units_Z 16
_cell_length_a 11.901797
_cell_length_b 13.773931
_cell_length_c 14.692097
_cell_angle_alpha 30.335865
_cell_angle_beta 38.812072
_cell_angle_gamma 59.639711
_cell_volume 647.600029
_symmetry_space_group_name_H-M "P -1"
_symmetry_group_IT_number 2
_symmetry_cell_setting 'triclinic'
loop_
_space_group_symop_operation_xyz
x,y,z
-x,-y,-z
loop_
_atom_site_type_symbol
_atom_site_label
_atom_site_fract_x
_atom_site_fract_y
_atom_site_fract_z
Si Si1 0.308778 0.952973 0.227535
Si Si2 0.496953 0.892570 0.836278
Si Si3 0.048413 0.466116 0.310009
Si Si4 0.364335 0.423379 0.786398
Si Si5 0.623310 0.610794 0.631164
Si Si6 0.477623 0.183161 0.310575
Si Si7 0.819571 0.679397 0.198957
Si Si8 0.924269 0.156890 0.813783
O O1 0.094250 0.739708 0.501211
O O2 0.378211 0.937483 0.298060
O O3 0.500000 0.000000 0.000000
O O4 0.281952 0.166498 0.072143
O O5 0.617087 0.925939 0.639193
O O6 0.430371 0.642781 0.114804
O O7 0.279781 0.888667 0.965052
O O8 0.986357 0.645058 0.174081
O O9 0.979324 0.352517 0.545339
O O10 0.296529 0.594211 0.035370
O O11 0.441532 0.580132 0.701102
O O12 0.591683 0.515417 0.520983
O O13 0.209215 0.402809 0.821206
O O14 0.630379 0.729015 0.625217
O O15 0.866194 0.759895 0.326504
O O16 0.500000 0.000000 0.500000
O O17 0.866836 0.931561 0.976599
#
# Coordination Sequence:
#
# PCOD9023073 Si02
#       8
#     2   2   2   2   2   2   2   2
#     4  11  19  42  69 108 141 173 229 297 358 411
#     4  11  24  42  74 105 137 179 234 294 355 416
#     4  12  24  44  72 104 144 183 235 289 352 421
#     4  10  22  39  66 101 143 178 224 283 363 410
#     4  11  25  47  70  95 143 189 235 287 348 418
#     4  12  29  49  65 100 146 194 238 281 347 425
#     4  11  23  39  67 109 143 172 222 301 351 412
#     4  12  24  42  76 111 134 179 239 296 359 411
#
# _framework density 24.706607999999999
#
# number of rings (size 3 to 8) (size 9 to 14) (size 15 to 20)
#    0.000    0.750    5.000    2.250    5.250    0.500 
#    0.000    6.250    0.000    0.000    0.000    0.000 
#    0.000    0.000    0.000    0.000    0.000    0.000 
#
# Total GULP energy -89582.371829 kJ/mol
# GULP energy per Si atom -5598.898239 kJ/mol
# Density = 2.465038 g / cm^3
# Si number density = 24.706608 Si / 1000 Ang^3
#
#
#
# Elastic Constant Matrix: (Units=GPa)
#
#
# Indices 1 2 3 4 5 6 
#
# 1 120.7706 42.2265 16.0021 -4.8107 -3.4296 36.7657
# 2 42.2265 100.7905 16.3997 -7.5398 1.5832 26.7691
# 3 16.0021 16.3997 56.1806 -14.1786 7.0609 7.3292
# 4 -4.8107 -7.5398 -14.1786 30.2107 0.0130 4.2426
# 5 -3.4296 1.5832 7.0609 0.0130 25.9525 -7.1647
# 6 36.7657 26.7691 7.3292 4.2426 -7.1647 51.5163
#
#
#
# Elastic Compliance Matrix: (Units=1/GPa)
#
#
# Indices 1 2 3 4 5 6 
#
# 1 0.011509 -0.002723 -0.001246 0.001512 0.000169 -0.006722
# 2 -0.002723 0.012883 -0.001315 0.002883 -0.002199 -0.005107
# 3 -0.001246 -0.001315 0.022566 0.010560 -0.007198 -0.003509
# 4 0.001512 0.002883 0.010560 0.040156 -0.005104 -0.008096
# 5 0.000169 -0.002199 -0.007198 -0.005104 0.042981 0.008444
# 6 -0.006722 -0.005107 -0.003509 -0.008096 0.008444 0.029203
#
#
# Mechanical properties :
#
#
# Convention : Reuss Voigt Hill
#
# Bulk Modulus (GPa) = 27.48003 47.44427 37.46215
# Shear Modulus (GPa) = 27.47326 35.07678 31.27502
#
# Velocity S-wave (km/s) = 3.33825 3.77202 3.56175
# Velocity P-wave (km/s) = 5.09954 6.18188 5.66661
#
# Compressibility (1/GPa) = 0.03639006
#
# Stress axis : x y z
#
# Youngs Moduli (GPa) = 86.88973 77.62189 44.31472
#
# Poissons Ratio (x) = 0.21137 0.05521
# Poissons Ratio (y) = 0.23661 0.05827
# Poissons Ratio (z) = 0.10825 0.10206
#
# Static dielectric constant tensor:
#      x y z
#    x 2.045660 0.049230 0.043330 
#    y 0.049230 1.964230 -0.007280 
#    z 0.043330 -0.007280 1.921200 
# 
# From -- ./inp_files/522104.got.cif
#   From: 2010.05.17/outbox.cif.g08.bks.cpg/sg2_262_cif.got.tgz:522104.got - 2010.06.03 11:33:40.
