data_PCOD9023974
_publ_section_title
;
Structure prediction by ZEFSAII (Michael W. Deem and Ramdas Pophale) SiO2 
 PCOD9023974
Probable space group: P -1
;
_chemical_formula_sum "Si O2"
_cell_formula_units_Z 15
_cell_length_a 17.337706
_cell_length_b 18.207656
_cell_length_c 11.668597
_cell_angle_alpha 25.733708
_cell_angle_beta 140.310232
_cell_angle_gamma 157.968040
_cell_volume 549.260927
_symmetry_space_group_name_H-M "P -1"
_symmetry_group_IT_number 2
_symmetry_cell_setting 'triclinic'
loop_
_space_group_symop_operation_xyz
x,y,z
-x,-y,-z
loop_
_atom_site_type_symbol
_atom_site_label
_atom_site_fract_x
_atom_site_fract_y
_atom_site_fract_z
Si Si1 0.712654 0.663810 0.451416
Si Si2 0.359353 0.176986 0.044365
Si Si3 0.203494 0.455092 0.098214
Si Si4 0.500000 0.500000 0.000000
Si Si5 0.262370 0.491260 0.689664
Si Si6 0.261648 0.873916 0.716157
Si Si7 0.234630 0.677760 0.617644
Si Si8 0.222627 0.580092 0.264484
O O1 0.500000 0.500000 0.500000
O O2 0.772936 0.852455 0.148415
O O3 0.650658 0.416500 0.664439
O O4 0.878481 0.783741 0.570397
O O5 0.467128 0.381555 0.993097
O O6 0.566018 0.350915 0.959830
O O7 0.189286 0.822187 0.372818
O O8 0.251233 0.689113 0.889822
O O9 0.089405 0.393783 0.938974
O O10 0.223829 0.255645 0.015372
O O11 0.235586 0.595358 0.611344
O O12 0.215581 0.519698 0.473885
O O13 0.539462 0.773741 0.599355
O O14 0.031860 0.699284 0.681340
O O15 0.308692 0.862953 0.914200
O O16 0.500000 0.000000 0.500000
#
# Coordination Sequence:
#
# PCOD9023974 Si02
#       8
#     2   2   2   1   2   2   2   2
#     4   9  18  31  55  83 112 152 199 229 303 352
#     4  10  17  31  52  85 115 153 193 245 289 355
#     4   9  16  32  54  79 109 161 187 237 297 346
#     4  12  20  30  60  90 120 154 204 248 292 360
#     4  12  21  37  62  88 118 160 201 244 296 359
#     4  10  20  39  61  84 126 154 192 254 302 344
#     4  10  17  32  57  81 116 153 201 237 293 352
#     4  10  22  37  60  94 116 153 204 247 293 366
#
# _framework density 27.309425999999998
#
# number of rings (size 3 to 8) (size 9 to 14) (size 15 to 20)
#    0.000    1.867    6.667    0.400    0.000    0.000 
#    0.000    1.333    0.000    0.800    0.000    0.000 
#    0.000    0.000    0.000    0.000    0.000    0.000 
#
# Total GULP energy -83540.890518 kJ/mol
# GULP energy per Si atom -5569.392701 kJ/mol
# Density = 2.724727 g / cm^3
# Si number density = 27.309426 Si / 1000 Ang^3
#
#
#
# Elastic Constant Matrix: (Units=GPa)
#
#
# Indices 1 2 3 4 5 6 
#
# 1 162.2281 66.9503 43.4994 13.5106 13.2167 -33.2952
# 2 66.9503 87.8705 47.8139 30.8157 1.7229 -21.2338
# 3 43.4994 47.8139 229.7435 54.8091 -23.8881 -38.0431
# 4 13.5106 30.8157 54.8091 47.4358 -19.9690 -20.6465
# 5 13.2167 1.7229 -23.8881 -19.9690 34.5671 10.1952
# 6 -33.2952 -21.2338 -38.0431 -20.6465 10.1952 46.5364
#
#
#
# Elastic Compliance Matrix: (Units=1/GPa)
#
#
# Indices 1 2 3 4 5 6 
#
# 1 0.010737 -0.007515 -0.000743 0.003711 -0.003914 0.006149
# 2 -0.007515 0.022790 -0.000503 -0.015455 -0.007351 -0.000635
# 3 -0.000743 -0.000503 0.006320 -0.005636 0.000918 0.001704
# 4 0.003711 -0.015455 -0.005636 0.049129 0.021450 0.008093
# 5 -0.003914 -0.007351 0.000918 0.021450 0.045548 -0.005865
# 6 0.006149 -0.000635 0.001704 0.008093 -0.005865 0.031867
#
#
# Mechanical properties :
#
#
# Convention : Reuss Voigt Hill
#
# Bulk Modulus (GPa) = 44.79079 88.48545 66.63812
# Shear Modulus (GPa) = 26.12950 47.14644 36.63797
#
# Velocity S-wave (km/s) = 3.09656 4.15948 3.66674
# Velocity P-wave (km/s) = 5.40572 7.45250 6.51005
#
# Compressibility (1/GPa) = 0.02232602
#
# Stress axis : x y z
#
# Youngs Moduli (GPa) = 93.13958 43.87824 158.22222
#
# Poissons Ratio (x) = 0.32974 0.11754
# Poissons Ratio (y) = 0.69994 0.07953
# Poissons Ratio (z) = 0.06919 0.02206
#
# Static dielectric constant tensor:
#      x y z
#    x 2.123260 0.048980 -0.016290 
#    y 0.048980 2.291070 0.116890 
#    z -0.016290 0.116890 2.557030 
# 
# From -- ./inp_files/466187.got.cif
#   From: 2010.05.17/outbox.cif.g08.bks.cpg/sg2_234_cif.got.tgz:466187.got - 2010.06.03 11:33:40.
