data_PCOD9023659
_publ_section_title
;
Structure prediction by ZEFSAII (Michael W. Deem and Ramdas Pophale) SiO2 
 PCOD9023659
Probable space group: P -1
;
_chemical_formula_sum "Si O2"
_cell_formula_units_Z 15
_cell_length_a 5.776465
_cell_length_b 4.903733
_cell_length_c 25.572838
_cell_angle_alpha 106.516138
_cell_angle_beta 119.674399
_cell_angle_gamma 96.545047
_cell_volume 574.508761
_symmetry_space_group_name_H-M "P -1"
_symmetry_group_IT_number 2
_symmetry_cell_setting 'triclinic'
loop_
_space_group_symop_operation_xyz
x,y,z
-x,-y,-z
loop_
_atom_site_type_symbol
_atom_site_label
_atom_site_fract_x
_atom_site_fract_y
_atom_site_fract_z
Si Si1 0.694100 0.961471 0.260158
Si Si2 0.500000 0.500000 0.500000
Si Si3 0.150823 0.179742 0.836007
Si Si4 0.838513 0.288901 0.398198
Si Si5 0.782321 0.430721 0.044541
Si Si6 0.311450 0.167602 0.563485
Si Si7 0.659881 0.671182 0.807850
Si Si8 0.277380 0.941694 0.072745
O O1 0.858731 0.831219 0.228253
O O2 0.422497 0.681039 0.227985
O O3 0.842930 0.094955 0.337190
O O4 0.600017 0.221653 0.235677
O O5 0.505015 0.299492 0.543404
O O6 0.844082 0.590894 0.539417
O O7 0.167860 0.491284 0.884366
O O8 0.440356 0.125356 0.882447
O O9 0.911553 0.898282 0.817008
O O10 0.715754 0.560357 0.389353
O O11 0.628877 0.084621 0.407415
O O12 0.030381 0.685486 0.058546
O O13 0.500000 0.500000 0.000000
O O14 0.759101 0.114974 0.996656
O O15 0.000000 0.000000 0.500000
O O16 0.706852 0.752653 0.879335
#
# Coordination Sequence:
#
# PCOD9023659 Si02
#       8
#     2   1   2   2   2   2   2   2
#     4  11  24  41  60  89 124 163 207 250 300 369
#     4  10  22  42  68  92 122 158 194 246 306 356
#     4   9  19  36  59  86 121 165 209 256 310 363
#     4  11  24  40  63  94 126 159 202 248 300 366
#     4   8  13  27  56  89 121 159 206 259 314 363
#     4  10  22  41  63  92 123 153 193 243 296 357
#     4  10  22  40  60  84 123 165 207 259 309 360
#     4   8  15  30  56  87 120 158 208 261 310 364
#
# _framework density 26.109261
#
# number of rings (size 3 to 8) (size 9 to 14) (size 15 to 20)
#    0.000    2.400    0.000    2.400    0.000    9.067 
#    0.000    0.667    0.000   72.000    0.000    0.000 
#    0.000    0.000    0.000    0.000    0.000    0.000 
#
# Total GULP energy -83719.476473 kJ/mol
# GULP energy per Si atom -5581.298432 kJ/mol
# Density = 2.604983 g / cm^3
# Si number density = 26.109261 Si / 1000 Ang^3
#
#
#
# Elastic Constant Matrix: (Units=GPa)
#
#
# Indices 1 2 3 4 5 6 
#
# 1 85.5274 36.6051 22.9714 8.4274 -10.8256 26.7430
# 2 36.6051 135.3689 32.5319 2.8633 -12.9144 11.0361
# 3 22.9714 32.5319 102.0852 12.8819 -43.4192 -2.6967
# 4 8.4274 2.8633 12.8819 31.1182 -2.5927 -8.9527
# 5 -10.8256 -12.9144 -43.4192 -2.5927 34.3036 -6.2531
# 6 26.7430 11.0361 -2.6967 -8.9527 -6.2531 48.0745
#
#
#
# Elastic Compliance Matrix: (Units=1/GPa)
#
#
# Indices 1 2 3 4 5 6 
#
# 1 0.017683 -0.003157 -0.003535 -0.006361 -0.002537 -0.010825
# 2 -0.003157 0.008792 -0.002678 0.000958 -0.001071 -0.000373
# 3 -0.003535 -0.002678 0.025398 -0.004668 0.030977 0.007166
# 4 -0.006361 0.000958 -0.004668 0.038286 -0.002872 0.009813
# 5 -0.002537 -0.001071 0.030977 -0.002872 0.069099 0.011848
# 6 -0.010825 -0.000373 0.007166 0.009813 0.011848 0.030679
#
#
# Mechanical properties :
#
#
# Convention : Reuss Voigt Hill
#
# Bulk Modulus (GPa) = 30.18121 56.35537 43.26829
# Shear Modulus (GPa) = 22.75593 38.09080 30.42337
#
# Velocity S-wave (km/s) = 2.95543 3.82370 3.41725
# Velocity P-wave (km/s) = 4.81983 6.41292 5.67258
#
# Compressibility (1/GPa) = 0.03313320
#
# Stress axis : x y z
#
# Youngs Moduli (GPa) = 56.55034 113.73370 39.37286
#
# Poissons Ratio (x) = 0.35907 0.13920
# Poissons Ratio (y) = 0.17854 0.10544
# Poissons Ratio (z) = 0.19992 0.30458
#
# Static dielectric constant tensor:
#      x y z
#    x 2.127360 -0.047210 -0.074220 
#    y -0.047210 2.007010 -0.002040 
#    z -0.074220 -0.002040 2.094760 
# 
# From -- ./inp_files/614749.got.cif
#   From: 2010.05.17/outbox.cif.g08.bks.cpg/sg2_308_cif.got.tgz:614749.got - 2010.06.03 11:33:40.
