data_PCOD9023209
_publ_section_title
;
Structure prediction by ZEFSAII (Michael W. Deem and Ramdas Pophale) SiO2 
 PCOD9023209
Probable space group: P -1
;
_chemical_formula_sum "Si O2"
_cell_formula_units_Z 14
_cell_length_a 11.332295
_cell_length_b 5.091724
_cell_length_c 12.511317
_cell_angle_alpha 55.315083
_cell_angle_beta 123.829948
_cell_angle_gamma 103.604616
_cell_volume 489.590482
_symmetry_space_group_name_H-M "P -1"
_symmetry_group_IT_number 2
_symmetry_cell_setting 'triclinic'
loop_
_space_group_symop_operation_xyz
x,y,z
-x,-y,-z
loop_
_atom_site_type_symbol
_atom_site_label
_atom_site_fract_x
_atom_site_fract_y
_atom_site_fract_z
Si Si1 0.549315 0.639172 0.249736
Si Si2 0.188626 0.585683 0.693477
Si Si3 0.886987 0.719408 0.578689
Si Si4 0.356079 0.747334 0.929750
Si Si5 0.933235 0.128053 0.165552
Si Si6 0.837526 0.855378 0.877615
Si Si7 0.685899 0.506426 0.698060
O O1 0.711009 0.487867 0.342179
O O2 0.478648 0.511293 0.349428
O O3 0.553921 0.019355 0.146202
O O4 0.445613 0.575001 0.111911
O O5 0.285221 0.525088 0.862416
O O6 0.023723 0.509236 0.639306
O O7 0.166699 0.979618 0.590756
O O8 0.753498 0.577290 0.600510
O O9 0.964519 0.873472 0.681535
O O10 0.220690 0.975138 0.860441
O O11 0.023646 0.011621 0.134668
O O12 0.890573 0.513582 0.034576
O O13 0.742367 0.755634 0.752499
O O14 0.754845 0.137967 0.839109
#
# Coordination Sequence:
#
# PCOD9023209 Si02
#       7
#     2   2   2   2   2   2   2
#     4  11  24  38  67  96 133 172 221 275 338 396
#     4  10  22  45  66  90 133 175 227 268 334 400
#     4   9  22  43  66  96 127 177 225 275 326 401
#     4  10  22  41  62  99 125 176 219 278 330 401
#     4   9  19  39  66  98 131 173 218 279 329 391
#     4  10  22  39  67 102 138 166 224 277 342 382
#     4  11  24  43  67 105 135 173 221 282 334 400
#
# _framework density 28.595327999999999
#
# number of rings (size 3 to 8) (size 9 to 14) (size 15 to 20)
#    0.000    2.000    1.429    0.429    4.000   10.286 
#    5.143    2.857    0.000    0.000    0.000    0.000 
#    0.000    0.000    0.000    0.000    0.000    0.000 
#
# Total GULP energy -78373.659985 kJ/mol
# GULP energy per Si atom -5598.118570 kJ/mol
# Density = 2.853024 g / cm^3
# Si number density = 28.595328 Si / 1000 Ang^3
#
#
#
# Elastic Constant Matrix: (Units=GPa)
#
#
# Indices 1 2 3 4 5 6 
#
# 1 296.8615 43.6124 35.9098 -1.2441 -10.3896 14.2952
# 2 43.6124 90.8282 -6.9445 12.6032 10.3186 6.4267
# 3 35.9098 -6.9445 52.5365 22.4899 3.1526 16.5466
# 4 -1.2441 12.6032 22.4899 15.4748 1.5234 1.7244
# 5 -10.3896 10.3186 3.1526 1.5234 53.3719 -13.7407
# 6 14.2952 6.4267 16.5466 1.7244 -13.7407 45.2022
#
#
#
# Elastic Compliance Matrix: (Units=1/GPa)
#
#
# Indices 1 2 3 4 5 6 
#
# 1 -0.004049 0.017337 0.041740 -0.072422 -0.008751 -0.016361
# 2 0.017337 -0.034510 -0.104151 0.174672 0.020792 0.037206
# 3 0.041740 -0.104151 -0.223196 0.398127 0.051663 0.083827
# 4 -0.072422 0.174672 0.398127 -0.636113 -0.092216 -0.151434
# 5 -0.008751 0.020792 0.051663 -0.092216 0.009310 -0.012752
# 6 -0.016361 0.037206 0.083827 -0.151434 -0.012752 -0.006778
#
#
# Mechanical properties :
#
#
# Convention : Reuss Voigt Hill
#
# Bulk Modulus (GPa) = -2.84168 65.04240 31.10036
# Shear Modulus (GPa) = -5.42013 47.31969 20.94978
#
# Velocity S-wave (km/s) = -1.37825 4.07234 2.70965
# Velocity P-wave (km/s) = 1.87848 6.70128 4.54854
#
# Compressibility (1/GPa) = -0.35190425
#
# Stress axis : x y z
#
# Youngs Moduli (GPa) = -246.95437 -28.97737 -4.48038
#
# Poissons Ratio (x) = 0.50237 0.18701
# Poissons Ratio (y) = 4.28134 -0.46664
# Poissons Ratio (z) = 10.30782 -3.01803
#
# Static dielectric constant tensor:
#      x y z
#    x 2.309180 0.047330 0.004730 
#    y 0.047330 2.265940 -0.086450 
#    z 0.004730 -0.086450 2.224140 
# 
# From -- ./inp_files/510123.got.cif
#   From: 2010.05.17/outbox.cif.g08.bks.cpg/sg2_256_cif.got.tgz:510123.got - 2010.06.03 11:33:40.
