data_PCOD9023402
_publ_section_title
;
Structure prediction by ZEFSAII (Michael W. Deem and Ramdas Pophale) SiO2 
 PCOD9023402
Probable space group: P -1
;
_chemical_formula_sum "Si O2"
_cell_formula_units_Z 14
_cell_length_a 11.945890
_cell_length_b 5.526272
_cell_length_c 18.410626
_cell_angle_alpha 100.958461
_cell_angle_beta 28.559716
_cell_angle_gamma 108.446887
_cell_volume 540.761323
_symmetry_space_group_name_H-M "P -1"
_symmetry_group_IT_number 2
_symmetry_cell_setting 'triclinic'
loop_
_space_group_symop_operation_xyz
x,y,z
-x,-y,-z
loop_
_atom_site_type_symbol
_atom_site_label
_atom_site_fract_x
_atom_site_fract_y
_atom_site_fract_z
Si Si1 0.999708 0.936069 0.336457
Si Si2 0.737589 0.404381 0.864789
Si Si3 0.068645 0.255559 0.884217
Si Si4 0.834994 0.158320 0.303015
Si Si5 0.518660 0.240835 0.373116
Si Si6 0.187159 0.452435 0.333064
Si Si7 0.370888 0.121361 0.826043
O O1 0.741828 0.706090 0.487432
O O2 0.218276 0.871853 0.164221
O O3 0.870745 0.079679 0.360274
O O4 0.126715 0.143221 0.337906
O O5 0.836004 0.437404 0.727290
O O6 0.924183 0.587646 0.826019
O O7 0.500000 0.500000 0.000000
O O8 0.232023 0.541235 0.783948
O O9 0.177089 0.226188 0.899847
O O10 0.140074 0.065456 0.776390
O O11 0.774749 0.121452 0.053450
O O12 0.596528 0.220269 0.411750
O O13 0.496447 0.994573 0.319094
O O14 0.451508 0.633483 0.219641
O O15 0.000000 0.500000 0.500000
#
# Coordination Sequence:
#
# PCOD9023402 Si02
#       7
#     2   2   2   2   2   2   2
#     4  11  25  43  72 105 144 190 236 296 369 420
#     4  11  26  46  69 101 144 194 249 293 358 434
#     4  10  22  39  68  97 138 192 234 290 354 423
#     4  10  23  42  67 101 141 181 239 296 360 423
#     4  11  22  40  70 105 143 182 238 292 362 435
#     4  11  24  44  71 103 146 187 238 299 355 435
#     4  10  22  42  63 100 145 187 238 286 351 431
#
# _framework density 25.889427999999999
#
# number of rings (size 3 to 8) (size 9 to 14) (size 15 to 20)
#    0.000    1.429    1.429    2.571    2.000    7.429 
#    0.000    8.571    0.000    2.571    0.000    0.000 
#    0.000    0.000    0.000    0.000    0.000    0.000 
#
# Total GULP energy -78107.386288 kJ/mol
# GULP energy per Si atom -5579.099021 kJ/mol
# Density = 2.583050 g / cm^3
# Si number density = 25.889428 Si / 1000 Ang^3
#
#
#
# Elastic Constant Matrix: (Units=GPa)
#
#
# Indices 1 2 3 4 5 6 
#
# 1 89.4099 25.5849 41.2779 -11.5163 -24.2265 27.0237
# 2 25.5849 110.2469 38.5315 2.0967 -27.2089 42.9162
# 3 41.2779 38.5315 140.0268 8.6475 -31.6856 10.1377
# 4 -11.5163 2.0967 8.6475 38.9590 1.5533 -5.0303
# 5 -24.2265 -27.2089 -31.6856 1.5533 53.1295 -15.1929
# 6 27.0237 42.9162 10.1377 -5.0303 -15.1929 47.9331
#
#
#
# Elastic Compliance Matrix: (Units=1/GPa)
#
#
# Indices 1 2 3 4 5 6 
#
# 1 0.016764 0.001657 -0.004306 0.004593 0.003367 -0.008475
# 2 0.001657 0.015896 -0.003047 -0.001582 0.003216 -0.013668
# 3 -0.004306 -0.003047 0.009970 -0.002965 0.003619 0.003883
# 4 0.004593 -0.001582 -0.002965 0.028078 -0.000680 0.002185
# 5 0.003367 0.003216 0.003619 -0.000680 0.024827 0.002254
# 6 -0.008475 -0.013668 0.003883 0.002185 0.002254 0.038001
#
#
# Mechanical properties :
#
#
# Convention : Reuss Voigt Hill
#
# Bulk Modulus (GPa) = 32.01303 61.16357 46.58830
# Shear Modulus (GPa) = 32.18731 43.62359 37.90545
#
# Velocity S-wave (km/s) = 3.52982 4.10932 3.83054
# Velocity P-wave (km/s) = 5.38562 6.79644 6.13174
#
# Compressibility (1/GPa) = 0.03123728
#
# Stress axis : x y z
#
# Youngs Moduli (GPa) = 59.65312 62.91017 100.29811
#
# Poissons Ratio (x) = -0.10426 0.43187
# Poissons Ratio (y) = -0.09886 0.30566
# Poissons Ratio (z) = 0.25686 0.19172
#
# Static dielectric constant tensor:
#      x y z
#    x 2.076060 -0.262610 0.068490 
#    y -0.262610 2.402210 -0.174370 
#    z 0.068490 -0.174370 2.335010 
# 
# From -- ./inp_files/592347.got.cif
#   From: 2010.05.17/outbox.cif.g08.bks.cpg/sg2_297_cif.got.tgz:592347.got - 2010.06.03 11:33:40.
