data_PCOD9023671
_publ_section_title
;
Structure prediction by ZEFSAII (Michael W. Deem and Ramdas Pophale) SiO2 
 PCOD9023671
Probable space group: P -1
;
_chemical_formula_sum "Si O2"
_cell_formula_units_Z 16
_cell_length_a 16.357157
_cell_length_b 15.342482
_cell_length_c 15.763967
_cell_angle_alpha 39.899144
_cell_angle_beta 161.602906
_cell_angle_gamma 137.412763
_cell_volume 800.199492
_symmetry_space_group_name_H-M "P -1"
_symmetry_group_IT_number 2
_symmetry_cell_setting 'triclinic'
loop_
_space_group_symop_operation_xyz
x,y,z
-x,-y,-z
loop_
_atom_site_type_symbol
_atom_site_label
_atom_site_fract_x
_atom_site_fract_y
_atom_site_fract_z
Si Si1 0.275335 0.395430 0.589591
Si Si2 0.755063 0.465616 0.725801
Si Si3 0.755945 0.262029 0.237538
Si Si4 0.092003 0.661787 0.296355
Si Si5 0.244675 0.510921 0.795208
Si Si6 0.855624 0.189789 0.941488
Si Si7 0.240658 0.927825 0.335115
Si Si8 0.327992 0.012494 0.550024
O O1 0.238035 0.449066 0.418254
O O2 0.242528 0.525888 0.522289
O O3 0.044441 0.288319 0.466715
O O4 0.549894 0.330633 0.922355
O O5 0.500000 0.500000 0.500000
O O6 0.764291 0.309094 0.823097
O O7 0.000000 0.500000 0.000000
O O8 0.744022 0.348486 0.247959
O O9 0.679672 0.107934 0.299594
O O10 0.066734 0.741648 0.123589
O O11 0.223410 0.769707 0.409702
O O12 0.822002 0.606486 0.113008
O O13 0.000000 0.500000 0.500000
O O14 0.500000 0.500000 0.000000
O O15 0.612569 0.083956 0.768949
O O16 0.110204 0.119135 0.277948
O O17 0.500000 0.000000 0.500000
O O18 0.242799 0.951360 0.420160
O O19 0.000000 0.000000 0.000000
#
# Coordination Sequence:
#
# PCOD9023671 Si02
#       8
#     2   2   2   2   2   2   2   2
#     4  10  23  41  67  94 123 167 207 268 320 375
#     4  11  23  44  75 103 125 149 200 270 331 397
#     4  11  23  40  61  88 127 175 219 248 311 380
#     4  10  22  40  60  87 127 161 221 269 314 359
#     4  11  23  37  56  83 119 168 224 277 306 346
#     4  11  24  41  65  95 126 165 205 259 336 377
#     4  12  23  37  56  89 129 173 221 266 308 362
#     4  12  23  40  61  90 134 176 216 257 304 383
#
# _framework density 19.995014000000001
#
# number of rings (size 3 to 8) (size 9 to 14) (size 15 to 20)
#    0.000    1.000    2.500    4.500    0.000   11.000 
#    0.000    0.000    0.000   15.000    0.000    0.000 
#    0.000    0.000    0.000    0.000    0.000    0.000 
#
# Total GULP energy -89521.745910 kJ/mol
# GULP energy per Si atom -5595.109119 kJ/mol
# Density = 1.994950 g / cm^3
# Si number density = 19.995014 Si / 1000 Ang^3
#
#
#
# Elastic Constant Matrix: (Units=GPa)
#
#
# Indices 1 2 3 4 5 6 
#
# 1 90.7533 34.1683 16.6262 5.5129 12.6764 -2.6778
# 2 34.1683 109.9140 23.0222 2.4492 4.2569 21.6942
# 3 16.6262 23.0222 99.2171 15.4048 3.3668 8.0933
# 4 5.5129 2.4492 15.4048 31.5088 5.0456 1.4344
# 5 12.6764 4.2569 3.3668 5.0456 37.3857 6.2287
# 6 -2.6778 21.6942 8.0933 1.4344 6.2287 28.8054
#
#
#
# Elastic Compliance Matrix: (Units=1/GPa)
#
#
# Indices 1 2 3 4 5 6 
#
# 1 0.014226 -0.005257 -0.001411 -0.000882 -0.005117 0.006828
# 2 -0.005257 0.012985 -0.001479 0.000775 0.002054 -0.010335
# 3 -0.001411 -0.001479 0.011641 -0.005340 0.000680 -0.002169
# 4 -0.000882 0.000775 -0.005340 0.035090 -0.004037 -0.000040
# 5 -0.005117 0.002054 0.000680 -0.004037 0.030155 -0.008533
# 6 0.006828 -0.010335 -0.002169 -0.000040 -0.008533 0.045591
#
#
# Mechanical properties :
#
#
# Convention : Reuss Voigt Hill
#
# Bulk Modulus (GPa) = 44.32661 49.72419 47.02540
# Shear Modulus (GPa) = 28.81815 34.61114 31.71465
#
# Velocity S-wave (km/s) = 3.80052 4.16503 3.98694
# Velocity P-wave (km/s) = 6.44015 6.93197 6.69058
#
# Compressibility (1/GPa) = 0.02255981
#
# Stress axis : x y z
#
# Youngs Moduli (GPa) = 70.29248 77.01124 85.89998
#
# Poissons Ratio (x) = 0.40484 0.12116
# Poissons Ratio (y) = 0.36952 0.12706
# Poissons Ratio (z) = 0.09915 0.11391
#
# Static dielectric constant tensor:
#      x y z
#    x 1.687150 -0.005970 0.006970 
#    y -0.005970 1.691840 0.006460 
#    z 0.006970 0.006460 1.638180 
# 
# From -- ./inp_files/477122.got.cif
#   From: 2010.05.17/outbox.cif.g08.bks.cpg/sg2_239_cif.got.tgz:477122.got - 2010.06.03 11:33:40.
