data_PCOD9023525
_publ_section_title
;
Structure prediction by ZEFSAII (Michael W. Deem and Ramdas Pophale) SiO2 
 PCOD9023525
Probable space group: P -1
;
_chemical_formula_sum "Si O2"
_cell_formula_units_Z 14
_cell_length_a 8.155337
_cell_length_b 11.407040
_cell_length_c 12.066752
_cell_angle_alpha 104.424533
_cell_angle_beta 34.954087
_cell_angle_gamma 102.168429
_cell_volume 622.812563
_symmetry_space_group_name_H-M "P -1"
_symmetry_group_IT_number 2
_symmetry_cell_setting 'triclinic'
loop_
_space_group_symop_operation_xyz
x,y,z
-x,-y,-z
loop_
_atom_site_type_symbol
_atom_site_label
_atom_site_fract_x
_atom_site_fract_y
_atom_site_fract_z
Si Si1 0.387266 0.101389 0.785177
Si Si2 0.802905 0.058161 0.957754
Si Si3 0.815967 0.616621 0.603389
Si Si4 0.062181 0.846813 0.649417
Si Si5 0.174548 0.450988 0.659106
Si Si6 0.202048 0.672683 0.983734
Si Si7 0.963891 0.699827 0.876829
O O1 0.658316 0.109564 0.559044
O O2 0.109534 0.076392 0.855840
O O3 0.322851 0.228766 0.914176
O O4 0.398130 0.998407 0.848784
O O5 0.853317 0.958447 0.812828
O O6 0.726474 0.189925 0.988320
O O7 0.927738 0.736070 0.629952
O O8 0.833413 0.631028 0.464570
O O9 0.487262 0.595274 0.816445
O O10 0.000000 0.500000 0.500000
O O11 0.122136 0.790757 0.725315
O O12 0.500000 0.500000 0.500000
O O13 0.968336 0.567732 0.788597
O O14 0.059245 0.380549 0.813524
O O15 0.122871 0.679888 0.900087
#
# Coordination Sequence:
#
# PCOD9023525 Si02
#       7
#     2   2   2   2   2   2   2
#     4   9  20  38  69 101 132 171 217 274 323 392
#     4   9  21  41  65 100 128 176 221 267 332 384
#     4  12  28  44  64 100 135 178 224 267 340 397
#     4  11  23  42  70  99 139 172 215 274 328 399
#     4  12  26  44  70  98 129 178 227 275 332 393
#     4  11  26  44  69  98 136 171 226 280 320 398
#     4  10  22  39  70  98 128 170 221 271 329 378
#
# _framework density 22.478673000000001
#
# number of rings (size 3 to 8) (size 9 to 14) (size 15 to 20)
#    0.000    1.429    2.857    1.714    6.000    4.571 
#    0.000    1.429    0.000    0.000    0.000    0.000 
#    0.000    0.000    0.000    0.000    0.000    0.000 
#
# Total GULP energy -78281.494139 kJ/mol
# GULP energy per Si atom -5591.535296 kJ/mol
# Density = 2.242751 g / cm^3
# Si number density = 22.478673 Si / 1000 Ang^3
#
#
#
# Elastic Constant Matrix: (Units=GPa)
#
#
# Indices 1 2 3 4 5 6 
#
# 1 65.1866 25.8222 51.5863 -4.6625 11.1466 7.2434
# 2 25.8222 105.5465 57.2853 14.3423 12.3358 -9.7691
# 3 51.5863 57.2853 175.5460 -22.5586 23.6995 -10.8812
# 4 -4.6625 14.3423 -22.5586 38.6264 3.7151 9.5860
# 5 11.1466 12.3358 23.6995 3.7151 24.4962 10.5566
# 6 7.2434 -9.7691 -10.8812 9.5860 10.5566 26.7294
#
#
#
# Elastic Compliance Matrix: (Units=1/GPa)
#
#
# Indices 1 2 3 4 5 6 
#
# 1 0.023045 -0.004356 -0.005944 0.003817 0.002276 -0.012525
# 2 -0.004356 0.015829 -0.003820 -0.010963 -0.005612 0.011559
# 3 -0.005944 -0.003820 0.011307 0.006686 -0.010084 0.006402
# 4 0.003817 -0.010963 0.006686 0.038307 -0.001897 -0.015308
# 5 0.002276 -0.005612 -0.010084 -0.001897 0.066621 -0.032404
# 6 -0.012525 0.011559 0.006402 -0.015308 -0.032404 0.065925
#
#
# Mechanical properties :
#
#
# Convention : Reuss Voigt Hill
#
# Bulk Modulus (GPa) = 45.57561 68.40743 56.99152
# Shear Modulus (GPa) = 19.48652 32.07609 25.78130
#
# Velocity S-wave (km/s) = 2.94749 3.78161 3.39030
# Velocity P-wave (km/s) = 5.64825 7.04028 6.38233
#
# Compressibility (1/GPa) = 0.02194156
#
# Stress axis : x y z
#
# Youngs Moduli (GPa) = 43.39276 63.17510 88.43991
#
# Poissons Ratio (x) = 0.27520 0.52566
# Poissons Ratio (y) = 0.18903 0.33785
# Poissons Ratio (z) = 0.25791 0.24133
#
# Static dielectric constant tensor:
#      x y z
#    x 1.870120 0.019520 0.009770 
#    y 0.019520 1.858210 0.043800 
#    z 0.009770 0.043800 1.800060 
# 
# From -- ./inp_files/123690.got.cif
#   From: 2010.05.17/outbox.cif.g08.bks.cpg/sg2_62_cif.got.tgz:123690.got - 2010.06.03 11:33:40.
