data_PCOD9023256
_publ_section_title
;
Structure prediction by ZEFSAII (Michael W. Deem and Ramdas Pophale) SiO2 
 PCOD9023256
Probable space group: P -1
;
_chemical_formula_sum "Si O2"
_cell_formula_units_Z 12
_cell_length_a 7.093651
_cell_length_b 10.900430
_cell_length_c 24.601691
_cell_angle_alpha 152.332892
_cell_angle_beta 132.252221
_cell_angle_gamma 59.895082
_cell_volume 628.922510
_symmetry_space_group_name_H-M "P -1"
_symmetry_group_IT_number 2
_symmetry_cell_setting 'triclinic'
loop_
_space_group_symop_operation_xyz
x,y,z
-x,-y,-z
loop_
_atom_site_type_symbol
_atom_site_label
_atom_site_fract_x
_atom_site_fract_y
_atom_site_fract_z
Si Si1 0.751405 0.780753 0.709968
Si Si2 0.844732 0.226462 0.707045
Si Si3 0.471041 0.621727 0.392850
Si Si4 0.039657 0.621032 0.994986
Si Si5 0.105788 0.675972 0.643455
Si Si6 0.621720 0.874683 0.205509
O O1 0.669488 0.553336 0.651528
O O2 0.875779 0.682256 0.642897
O O3 0.965484 0.061256 0.881985
O O4 0.496288 0.898732 0.697121
O O5 0.142801 0.200614 0.746920
O O6 0.734260 0.340344 0.677327
O O7 0.859743 0.425865 0.839635
O O8 0.652043 0.923949 0.562508
O O9 0.671418 0.458305 0.343245
O O10 0.347450 0.649289 0.052659
O O11 0.000000 0.500000 0.000000
O O12 0.000000 0.500000 0.500000
O O13 0.247743 0.978632 0.767009
#
# Coordination Sequence:
#
# PCOD9023256 Si02
#       6
#     2   2   2   2   2   2
#     4   9  23  40  62  94 117 163 217 244 310 364
#     4  11  21  43  62  93 133 161 201 258 317 355
#     4  10  24  41  63  93 129 167 199 256 310 374
#     4  10  22  39  67  94 122 161 212 259 300 371
#     4  11  20  41  66  88 123 165 212 255 301 369
#     4   9  21  38  65  89 119 163 204 260 294 369
#
# _framework density 19.080255000000001
#
# number of rings (size 3 to 8) (size 9 to 14) (size 15 to 20)
#    1.000    1.000    1.667    1.500    0.000    4.667 
#    3.000    2.500    0.000    0.000    0.000    0.000 
#    0.000    0.000    0.000    0.000    0.000    0.000 
#
# Total GULP energy -66886.880038 kJ/mol
# GULP energy per Si atom -5573.906670 kJ/mol
# Density = 1.903683 g / cm^3
# Si number density = 19.080255 Si / 1000 Ang^3
#
#
#
# Elastic Constant Matrix: (Units=GPa)
#
#
# Indices 1 2 3 4 5 6 
#
# 1 101.2188 35.5421 14.8161 -11.2283 -22.1183 5.4081
# 2 35.5421 93.5537 33.9128 -8.8523 1.3127 -14.2497
# 3 14.8161 33.9128 105.5851 -9.9972 -4.4853 4.0519
# 4 -11.2283 -8.8523 -9.9972 24.0160 -0.9221 8.6269
# 5 -22.1183 1.3127 -4.4853 -0.9221 26.1455 0.5274
# 6 5.4081 -14.2497 4.0519 8.6269 0.5274 32.1792
#
#
#
# Elastic Compliance Matrix: (Units=1/GPa)
#
#
# Indices 1 2 3 4 5 6 
#
# 1 0.017739 -0.008325 0.002247 0.010382 0.016378 -0.010002
# 2 -0.008325 0.017297 -0.005597 -0.004164 -0.009240 0.011031
# 3 0.002247 -0.005597 0.011987 0.006361 0.004587 -0.006146
# 4 0.010382 -0.004164 0.006361 0.055033 0.012414 -0.019347
# 5 0.016378 -0.009240 0.004587 0.012414 0.054026 -0.011636
# 6 -0.010002 0.011031 -0.006146 -0.019347 -0.011636 0.043793
#
#
# Mechanical properties :
#
#
# Convention : Reuss Voigt Hill
#
# Bulk Modulus (GPa) = 42.24372 52.09996 47.17184
# Shear Modulus (GPa) = 21.63435 30.87393 26.25414
#
# Velocity S-wave (km/s) = 3.37094 4.02694 3.71345
# Velocity P-wave (km/s) = 6.11057 6.99904 6.56984
#
# Compressibility (1/GPa) = 0.02367216
#
# Stress axis : x y z
#
# Youngs Moduli (GPa) = 56.37348 57.81481 83.42695
#
# Poissons Ratio (x) = 0.48129 -0.18748
# Poissons Ratio (y) = 0.46929 0.46698
# Poissons Ratio (z) = -0.12669 0.32362
#
# Static dielectric constant tensor:
#      x y z
#    x 1.678460 -0.034840 -0.011360 
#    y -0.034840 1.656700 0.048660 
#    z -0.011360 0.048660 1.743510 
# 
# From -- ./inp_files/236348.got.cif
#   From: 2010.05.17/outbox.cif.g08.bks.cpg/sg2_119_cif.got.tgz:236348.got - 2010.06.03 11:33:40.
