data_PCOD9023814
_publ_section_title
;
Structure prediction by ZEFSAII (Michael W. Deem and Ramdas Pophale) SiO2 
 PCOD9023814
Probable space group: P -1
;
_chemical_formula_sum "Si O2"
_cell_formula_units_Z 12
_cell_length_a 12.436657
_cell_length_b 7.411530
_cell_length_c 11.900129
_cell_angle_alpha 83.723638
_cell_angle_beta 127.817658
_cell_angle_gamma 56.138476
_cell_volume 522.536211
_symmetry_space_group_name_H-M "P -1"
_symmetry_group_IT_number 2
_symmetry_cell_setting 'triclinic'
loop_
_space_group_symop_operation_xyz
x,y,z
-x,-y,-z
loop_
_atom_site_type_symbol
_atom_site_label
_atom_site_fract_x
_atom_site_fract_y
_atom_site_fract_z
Si Si1 0.697277 0.869827 0.889669
Si Si2 0.867867 0.818682 0.773475
Si Si3 0.841449 0.170801 0.561867
Si Si4 0.299181 0.751325 0.770040
Si Si5 0.736362 0.852556 0.162414
Si Si6 0.214439 0.345754 0.462904
O O1 0.765283 0.921811 0.824532
O O2 0.442475 0.078239 0.695333
O O3 0.733263 0.931941 0.026907
O O4 0.869524 0.516535 0.025914
O O5 0.761075 0.766545 0.636633
O O6 0.821352 0.049004 0.657545
O O7 0.673740 0.323463 0.338117
O O8 0.824758 0.395687 0.577323
O O9 0.081885 0.884326 0.675041
O O10 0.259375 0.005062 0.747752
O O11 0.500000 0.500000 0.000000
O O12 0.982557 0.500243 0.348876
O O13 0.500000 0.000000 0.000000
#
# Coordination Sequence:
#
# PCOD9023814 Si02
#       6
#     2   2   2   2   2   2
#     4  10  22  43  63  97 132 166 224 264 314 399
#     4  10  23  42  68  93 131 175 212 265 329 383
#     4  10  23  42  64  98 128 169 215 264 329 381
#     4  10  22  40  61  95 132 162 217 268 310 396
#     4  10  23  39  62  93 125 170 212 264 325 375
#     4  10  22  42  64  97 130 162 219 270 314 390
#
# _framework density 22.964915999999999
#
# number of rings (size 3 to 8) (size 9 to 14) (size 15 to 20)
#    0.000    2.000    0.000    1.500    7.000    1.333 
#    0.000   13.333    0.000    0.000    0.000    0.000 
#    0.000    0.000    0.000    0.000    0.000    0.000 
#
# Total GULP energy -67000.480316 kJ/mol
# GULP energy per Si atom -5583.373360 kJ/mol
# Density = 2.291265 g / cm^3
# Si number density = 22.964916 Si / 1000 Ang^3
#
#
#
# Elastic Constant Matrix: (Units=GPa)
#
#
# Indices 1 2 3 4 5 6 
#
# 1 121.0503 53.4897 58.2310 7.6370 -23.2728 -0.8014
# 2 53.4897 75.6290 24.8052 23.3151 -8.3900 8.5782
# 3 58.2310 24.8052 179.7459 2.0884 4.4281 -4.5583
# 4 7.6370 23.3151 2.0884 39.2296 -9.4353 4.5198
# 5 -23.2728 -8.3900 4.4281 -9.4353 47.1929 2.9615
# 6 -0.8014 8.5782 -4.5583 4.5198 2.9615 16.4838
#
#
#
# Elastic Compliance Matrix: (Units=1/GPa)
#
#
# Indices 1 2 3 4 5 6 
#
# 1 0.016182 -0.011310 -0.003845 0.005169 0.007182 0.002902
# 2 -0.011310 0.025959 0.000047 -0.012769 -0.002891 -0.010025
# 3 -0.003845 0.000047 0.006939 -0.000598 -0.002807 0.002376
# 4 0.005169 -0.012769 -0.000598 0.034364 0.007458 -0.004031
# 5 0.007182 -0.002891 -0.002807 0.007458 0.026329 -0.005698
# 6 0.002902 -0.010025 0.002376 -0.004031 -0.005698 0.068810
#
#
# Mechanical properties :
#
#
# Convention : Reuss Voigt Hill
#
# Bulk Modulus (GPa) = 53.01065 72.16410 62.58738
# Shear Modulus (GPa) = 23.24638 36.57456 29.91047
#
# Velocity S-wave (km/s) = 3.18505 3.99510 3.61285
# Velocity P-wave (km/s) = 6.05471 7.26450 6.68702
#
# Compressibility (1/GPa) = 0.01886413
#
# Stress axis : x y z
#
# Youngs Moduli (GPa) = 61.79678 38.52221 144.11443
#
# Poissons Ratio (x) = 0.43568 0.55412
# Poissons Ratio (y) = 0.69891 -0.00676
# Poissons Ratio (z) = 0.23761 -0.00181
#
# Static dielectric constant tensor:
#      x y z
#    x 1.901840 0.019580 0.003770 
#    y 0.019580 2.035910 -0.088940 
#    z 0.003770 -0.088940 1.914660 
# 
# From -- ./inp_files/416911.got.cif
#   From: 2010.05.17/outbox.cif.g08.bks.cpg/sg2_209_cif.got.tgz:416911.got - 2010.06.03 11:33:40.
