data_PCOD9023738
_publ_section_title
;
Structure prediction by ZEFSAII (Michael W. Deem and Ramdas Pophale) SiO2 
 PCOD9023738
Probable space group: P -1
;
_chemical_formula_sum "Si O2"
_cell_formula_units_Z 16
_cell_length_a 17.170151
_cell_length_b 9.153038
_cell_length_c 8.309150
_cell_angle_alpha 76.798174
_cell_angle_beta 146.747048
_cell_angle_gamma 97.809858
_cell_volume 693.402173
_symmetry_space_group_name_H-M "P -1"
_symmetry_group_IT_number 2
_symmetry_cell_setting 'triclinic'
loop_
_space_group_symop_operation_xyz
x,y,z
-x,-y,-z
loop_
_atom_site_type_symbol
_atom_site_label
_atom_site_fract_x
_atom_site_fract_y
_atom_site_fract_z
Si Si1 0.857803 0.358140 0.689094
Si Si2 0.319666 0.840238 0.760849
Si Si3 0.329661 0.573617 0.370327
Si Si4 0.014130 0.620869 0.762298
Si Si5 0.218859 0.195690 0.852871
Si Si6 0.641153 0.140429 0.833166
Si Si7 0.354506 0.193775 0.752551
Si Si8 0.646834 0.730926 0.610517
O O1 0.804552 0.215341 0.546538
O O2 0.716512 0.434268 0.520923
O O3 0.924090 0.477629 0.659263
O O4 0.967465 0.320499 0.036351
O O5 0.326150 0.018608 0.743061
O O6 0.296955 0.789198 0.917446
O O7 0.478284 0.784548 0.984048
O O8 0.373354 0.738325 0.365279
O O9 0.420949 0.425814 0.500346
O O10 0.177501 0.569417 0.017462
O O11 0.942321 0.750015 0.490669
O O12 0.301247 0.247332 0.822651
O O13 0.258834 0.271596 0.067987
O O14 0.268396 0.017553 0.005591
O O15 0.476945 0.131126 0.607617
O O16 0.281778 0.250890 0.444119
#
# Coordination Sequence:
#
# PCOD9023738 Si02
#       8
#     2   2   2   2   2   2   2   2
#     4   9  20  40  67  85 124 168 206 263 306 360
#     4   9  19  39  64  89 123 165 200 257 321 365
#     4  10  22  40  61  87 129 157 210 263 296 374
#     4   9  22  41  61  90 124 164 222 244 301 381
#     4  11  23  40  66  89 128 168 203 260 313 366
#     4  10  23  40  58  97 127 150 217 258 307 388
#     4   9  21  39  61  95 124 156 211 255 308 387
#     4  11  23  39  65  93 125 167 201 261 322 362
#
# _framework density 23.074629999999999
#
# number of rings (size 3 to 8) (size 9 to 14) (size 15 to 20)
#    0.750    1.500    0.000    2.250    5.250    1.000 
#    0.000    4.375    0.000    0.000    0.000    0.000 
#    0.000    0.000    0.000    0.000    0.000    0.000 
#
# Total GULP energy -89128.580419 kJ/mol
# GULP energy per Si atom -5570.536276 kJ/mol
# Density = 2.302211 g / cm^3
# Si number density = 23.074630 Si / 1000 Ang^3
#
#
#
# Elastic Constant Matrix: (Units=GPa)
#
#
# Indices 1 2 3 4 5 6 
#
# 1 60.9085 9.4403 3.4133 1.2546 -14.8064 11.8318
# 2 9.4403 64.1226 26.6696 -6.7968 -5.6567 5.6685
# 3 3.4133 26.6696 72.3870 3.3870 -25.5919 2.0168
# 4 1.2546 -6.7968 3.3870 34.0540 0.5127 3.5325
# 5 -14.8064 -5.6567 -25.5919 0.5127 21.5934 2.6285
# 6 11.8318 5.6685 2.0168 3.5325 2.6285 22.9604
#
#
#
# Elastic Compliance Matrix: (Units=1/GPa)
#
#
# Indices 1 2 3 4 5 6 
#
# 1 0.029980 -0.005863 0.015471 -0.002385 0.039794 -0.019549
# 2 -0.005863 0.021155 -0.012518 0.005935 -0.013397 -0.000481
# 3 0.015471 -0.012518 0.037127 -0.006184 0.053094 -0.013270
# 4 -0.002385 0.005935 -0.006184 0.031752 -0.007714 -0.003695
# 5 0.039794 -0.013397 0.053094 -0.007714 0.137630 -0.036432
# 6 -0.019549 -0.000481 -0.013270 -0.003695 -0.036432 0.059651
#
#
# Mechanical properties :
#
#
# Convention : Reuss Voigt Hill
#
# Bulk Modulus (GPa) = 12.12962 30.71829 21.42395
# Shear Modulus (GPa) = 14.26147 26.24787 20.25467
#
# Velocity S-wave (km/s) = 2.48878 3.37637 2.96597
# Velocity P-wave (km/s) = 3.67788 5.34241 4.58629
#
# Compressibility (1/GPa) = 0.08244285
#
# Stress axis : x y z
#
# Youngs Moduli (GPa) = 33.35552 47.27101 26.93449
#
# Poissons Ratio (x) = 0.27713 -0.41671
# Poissons Ratio (y) = 0.19555 0.33717
# Poissons Ratio (z) = -0.51606 0.59175
#
# Static dielectric constant tensor:
#      x y z
#    x 1.925340 0.027900 0.007710 
#    y 0.027900 1.888280 -0.046230 
#    z 0.007710 -0.046230 1.895120 
# 
# From -- ./inp_files/342716.got.cif
#   From: 2010.05.17/outbox.cif.g08.bks.cpg/sg2_172_cif.got.tgz:342716.got - 2010.06.03 11:33:40.
