data_PCOD9023939
_publ_section_title
;
Structure prediction by ZEFSAII (Michael W. Deem and Ramdas Pophale) SiO2 
 PCOD9023939
Probable space group: P -1
;
_chemical_formula_sum "Si O2"
_cell_formula_units_Z 16
_cell_length_a 12.915322
_cell_length_b 9.302222
_cell_length_c 8.999728
_cell_angle_alpha 112.245023
_cell_angle_beta 124.247822
_cell_angle_gamma 106.362569
_cell_volume 630.994197
_symmetry_space_group_name_H-M "P -1"
_symmetry_group_IT_number 2
_symmetry_cell_setting 'triclinic'
loop_
_space_group_symop_operation_xyz
x,y,z
-x,-y,-z
loop_
_atom_site_type_symbol
_atom_site_label
_atom_site_fract_x
_atom_site_fract_y
_atom_site_fract_z
Si Si1 0.519753 0.337245 0.102061
Si Si2 0.796810 0.388916 0.156566
Si Si3 0.051046 0.292161 0.097800
Si Si4 0.708768 0.136079 0.703316
Si Si5 0.666714 0.774319 0.393793
Si Si6 0.869856 0.199930 0.392220
Si Si7 0.952251 0.003625 0.180365
Si Si8 0.346364 0.751923 0.588042
O O1 0.678364 0.400245 0.163648
O O2 0.561974 0.543185 0.274486
O O3 0.510892 0.211931 0.185298
O O4 0.389048 0.245725 0.829022
O O5 0.858823 0.301180 0.278465
O O6 0.953720 0.615535 0.321375
O O7 0.703139 0.226033 0.886534
O O8 0.960296 0.123735 0.090520
O O9 0.193187 0.510109 0.366770
O O10 0.907364 0.275120 0.897130
O O11 0.124828 0.220820 0.020422
O O12 0.624831 0.177279 0.528930
O O13 0.649195 0.913199 0.534959
O O14 0.857915 0.882787 0.589951
O O15 0.724219 0.148332 0.355161
O O16 0.873703 0.030047 0.264887
#
# Coordination Sequence:
#
# PCOD9023939 Si02
#       8
#     2   2   2   2   2   2   2   2
#     4  10  21  38  60  77 101 144 190 223 251 313
#     4  10  18  32  55  80 108 138 176 223 263 311
#     4  10  18  30  52  82 111 134 173 215 272 321
#     4  11  22  34  55  83 113 140 170 222 276 319
#     4  10  21  37  56  80 104 143 189 218 256 314
#     4  10  17  31  52  83 111 135 176 215 266 318
#     4  10  17  32  56  82 105 140 177 226 257 309
#     4  11  21  35  55  83 111 142 172 217 277 318
#
# _framework density 25.356811
#
# number of rings (size 3 to 8) (size 9 to 14) (size 15 to 20)
#    0.000    1.750    5.000    1.125    0.000    1.000 
#    0.000    3.750    0.000    3.000    3.250    0.000 
#    0.000    0.000    0.000    0.000    0.000    0.000 
#
# Total GULP energy -89562.069200 kJ/mol
# GULP energy per Si atom -5597.629325 kJ/mol
# Density = 2.529910 g / cm^3
# Si number density = 25.356811 Si / 1000 Ang^3
#
#
#
# Elastic Constant Matrix: (Units=GPa)
#
#
# Indices 1 2 3 4 5 6 
#
# 1 66.1361 23.4635 37.1383 2.3355 -19.5227 -16.4171
# 2 23.4635 73.2526 46.8118 1.4523 -6.4104 -18.4221
# 3 37.1383 46.8118 152.9155 -11.3879 -19.6397 -10.1611
# 4 2.3355 1.4523 -11.3879 41.8578 -19.9199 -1.6963
# 5 -19.5227 -6.4104 -19.6397 -19.9199 38.9789 4.7271
# 6 -16.4171 -18.4221 -10.1611 -1.6963 4.7271 14.9232
#
#
#
# Elastic Compliance Matrix: (Units=1/GPa)
#
#
# Indices 1 2 3 4 5 6 
#
# 1 0.025495 0.000774 -0.003286 0.003428 0.010087 0.023960
# 2 0.000774 0.024096 -0.006540 -0.003463 -0.003990 0.027015
# 3 -0.003286 -0.006540 0.010158 0.005838 0.006113 -0.006044
# 4 0.003428 -0.003463 0.005838 0.036134 0.022500 0.000452
# 5 0.010087 -0.003990 0.006113 0.022500 0.044787 -0.001296
# 6 0.023960 0.027015 -0.006044 0.000452 -0.001296 0.123063
#
#
# Mechanical properties :
#
#
# Convention : Reuss Voigt Hill
#
# Bulk Modulus (GPa) = 24.01213 56.34793 40.18003
# Shear Modulus (GPa) = 16.90800 31.47802 24.19301
#
# Velocity S-wave (km/s) = 2.58505 3.52718 3.09221
# Velocity P-wave (km/s) = 4.28955 6.23364 5.35063
#
# Compressibility (1/GPa) = 0.04164561
#
# Stress axis : x y z
#
# Youngs Moduli (GPa) = 39.22320 41.50069 98.44525
#
# Poissons Ratio (x) = -0.03212 0.32349
# Poissons Ratio (y) = -0.03036 0.64380
# Poissons Ratio (z) = 0.12889 0.27140
#
# Static dielectric constant tensor:
#      x y z
#    x 1.992080 0.041600 0.022430 
#    y 0.041600 2.040330 0.011580 
#    z 0.022430 0.011580 1.982120 
# 
# From -- ./inp_files/217470.got.cif
#   From: 2010.05.17/outbox.cif.g08.bks.cpg/sg2_109_cif.got.tgz:217470.got - 2010.06.03 11:33:40.
