data_PCOD9023025
_publ_section_title
;
Structure prediction by ZEFSAII (Michael W. Deem and Ramdas Pophale) SiO2 
 PCOD9023025
Probable space group: P -1
;
_chemical_formula_sum "Si O2"
_cell_formula_units_Z 16
_cell_length_a 5.688023
_cell_length_b 5.071585
_cell_length_c 24.153654
_cell_angle_alpha 66.397415
_cell_angle_beta 103.732804
_cell_angle_gamma 95.108310
_cell_volume 620.213076
_symmetry_space_group_name_H-M "P -1"
_symmetry_group_IT_number 2
_symmetry_cell_setting 'triclinic'
loop_
_space_group_symop_operation_xyz
x,y,z
-x,-y,-z
loop_
_atom_site_type_symbol
_atom_site_label
_atom_site_fract_x
_atom_site_fract_y
_atom_site_fract_z
Si Si1 0.127478 0.392365 0.346927
Si Si2 0.146689 0.408932 0.462011
Si Si3 0.966145 0.910566 0.129151
Si Si4 0.337975 0.518691 0.908184
Si Si5 0.208549 0.263488 0.033996
Si Si6 0.681166 0.134009 0.296445
Si Si7 0.614168 0.280034 0.749851
Si Si8 0.527508 0.919010 0.421844
O O1 0.953949 0.246625 0.304713
O O2 0.992746 0.409545 0.396842
O O3 0.233781 0.676905 0.302146
O O4 0.354287 0.193332 0.391984
O O5 0.350408 0.646653 0.439840
O O6 0.279694 0.118329 0.514877
O O7 0.000000 0.500000 0.500000
O O8 0.760287 0.669785 0.131798
O O9 0.186120 0.815714 0.187506
O O10 0.842219 0.210279 0.115438
O O11 0.087363 0.968231 0.070661
O O12 0.603477 0.650873 0.914328
O O13 0.339915 0.298492 0.979678
O O14 0.000000 0.500000 0.000000
O O15 0.507716 0.414287 0.267922
O O16 0.596294 0.946481 0.255668
O O17 0.651342 0.945491 0.366612
#
# Coordination Sequence:
#
# PCOD9023025 Si02
#       8
#     2   2   2   2   2   2   2   2
#     4  11  25  43  67  90 134 169 213 271 337 394
#     4  11  23  39  68  96 127 162 213 268 336 400
#     4  11  23  41  65  93 133 172 224 267 320 379
#     4  10  22  39  65  97 132 176 215 266 324 384
#     4   9  21  39  64  98 137 171 215 267 326 378
#     4  11  25  43  71  91 129 171 220 265 337 384
#     4  11  26  45  65  97 128 174 223 277 316 392
#     4  10  23  41  63  94 131 162 211 269 331 403
#
# _framework density 25.797587
#
# number of rings (size 3 to 8) (size 9 to 14) (size 15 to 20)
#    0.000    1.500    1.250    2.250    3.500   11.500 
#    0.000    0.000    0.000    0.000    0.000    0.000 
#    0.000    0.000    0.000    0.000    0.000    0.000 
#
# Total GULP energy -89617.113159 kJ/mol
# GULP energy per Si atom -5601.069572 kJ/mol
# Density = 2.573887 g / cm^3
# Si number density = 25.797587 Si / 1000 Ang^3
#
#
#
# Elastic Constant Matrix: (Units=GPa)
#
#
# Indices 1 2 3 4 5 6 
#
# 1 60.8648 10.8647 20.0859 -11.0794 18.5439 8.8042
# 2 10.8647 105.5064 33.2525 2.5477 16.1937 10.5264
# 3 20.0859 33.2525 132.1931 -3.2914 30.2830 -3.6283
# 4 -11.0794 2.5477 -3.2914 32.3307 4.3005 17.1423
# 5 18.5439 16.1937 30.2830 4.3005 30.6340 3.9417
# 6 8.8042 10.5264 -3.6283 17.1423 3.9417 46.2720
#
#
#
# Elastic Compliance Matrix: (Units=1/GPa)
#
#
# Indices 1 2 3 4 5 6 
#
# 1 0.025816 0.000512 -0.000044 0.016120 -0.016887 -0.009565
# 2 0.000512 0.010902 -0.001971 0.001131 -0.003921 -0.002817
# 3 -0.000044 -0.001971 0.010345 0.001696 -0.009583 0.001456
# 4 0.016120 0.001131 0.001696 0.049366 -0.016378 -0.020085
# 5 -0.016887 -0.003921 -0.009583 -0.016378 0.056113 0.004641
# 6 -0.009565 -0.002817 0.001456 -0.020085 0.004641 0.031232
#
#
# Mechanical properties :
#
#
# Convention : Reuss Voigt Hill
#
# Bulk Modulus (GPa) = 22.69795 47.44118 35.06957
# Shear Modulus (GPa) = 24.81814 37.47142 31.14478
#
# Velocity S-wave (km/s) = 3.10503 3.81532 3.47836
# Velocity P-wave (km/s) = 4.65538 6.15131 5.45487
#
# Compressibility (1/GPa) = 0.04405685
#
# Stress axis : x y z
#
# Youngs Moduli (GPa) = 38.73576 91.72490 96.66798
#
# Poissons Ratio (x) = -0.04700 0.00428
# Poissons Ratio (y) = -0.01985 0.19055
# Poissons Ratio (z) = 0.00171 0.18081
#
# Static dielectric constant tensor:
#      x y z
#    x 2.052710 -0.024320 -0.054530 
#    y -0.024320 2.041150 0.074540 
#    z -0.054530 0.074540 2.035280 
# 
# From -- ./inp_files/13551.got.cif
#   From: 2010.05.17/outbox.cif.g08.bks.cpg/sg2_7_cif.got.tgz:13551.got - 2010.06.03 11:33:40.
