data_PCOD9023551
_publ_section_title
;
Structure prediction by ZEFSAII (Michael W. Deem and Ramdas Pophale) SiO2 
 PCOD9023551
Probable space group: P -1
;
_chemical_formula_sum "Si O2"
_cell_formula_units_Z 16
_cell_length_a 5.817016
_cell_length_b 21.579864
_cell_length_c 27.584836
_cell_angle_alpha 161.725750
_cell_angle_beta 139.251037
_cell_angle_gamma 39.970256
_cell_volume 689.802797
_symmetry_space_group_name_H-M "P -1"
_symmetry_group_IT_number 2
_symmetry_cell_setting 'triclinic'
loop_
_space_group_symop_operation_xyz
x,y,z
-x,-y,-z
loop_
_atom_site_type_symbol
_atom_site_label
_atom_site_fract_x
_atom_site_fract_y
_atom_site_fract_z
Si Si1 0.857531 0.807895 0.314153
Si Si2 0.382404 0.204620 0.987739
Si Si3 0.667889 0.941940 0.035086
Si Si4 0.748114 0.020381 0.730758
Si Si5 0.105324 0.537923 0.759032
Si Si6 0.666415 0.407063 0.508663
Si Si7 0.303932 0.117512 0.283608
Si Si8 0.555401 0.758451 0.330171
O O1 0.732076 0.696335 0.258804
O O2 0.171776 0.711430 0.252682
O O3 0.495612 0.895991 0.291206
O O4 0.000000 0.000000 0.500000
O O5 0.536251 0.055975 0.858142
O O6 0.565433 0.093513 0.982938
O O7 0.514953 0.410170 0.157106
O O8 0.966601 0.187073 0.907530
O O9 0.918218 0.719177 0.899343
O O10 0.500000 0.000000 0.000000
O O11 0.885559 0.107857 0.209683
O O12 0.524308 0.961740 0.696551
O O13 0.030046 0.804986 0.606671
O O14 0.176906 0.338456 0.655284
O O15 0.864058 0.536406 0.671664
O O16 0.500000 0.500000 0.500000
O O17 0.366898 0.330182 0.435087
O O18 0.500000 0.000000 0.500000
#
# Coordination Sequence:
#
# PCOD9023551 Si02
#       8
#     2   2   2   2   2   2   2   2
#     4  10  22  39  71  96 133 176 232 275 349 416
#     4   9  22  43  66  90 132 175 230 275 348 396
#     4  10  23  41  69  91 127 185 233 276 338 411
#     4  10  22  43  68  94 131 181 223 287 341 417
#     4  11  25  41  68  99 140 173 228 291 337 419
#     4  11  25  38  62 100 139 172 222 282 352 413
#     4   9  22  40  63  89 133 174 223 274 348 401
#     4  10  23  42  66 104 136 181 226 285 357 416
#
# _framework density 23.195034
#
# number of rings (size 3 to 8) (size 9 to 14) (size 15 to 20)
#    0.000    2.000    0.000    1.500   15.750    2.500 
#    0.000    1.250    0.000    0.000    0.000    0.000 
#    0.000    0.000    0.000    0.000    0.000    0.000 
#
# Total GULP energy -89192.312212 kJ/mol
# GULP energy per Si atom -5574.519513 kJ/mol
# Density = 2.314224 g / cm^3
# Si number density = 23.195034 Si / 1000 Ang^3
#
#
#
# Elastic Constant Matrix: (Units=GPa)
#
#
# Indices 1 2 3 4 5 6 
#
# 1 133.3362 45.8397 25.1544 -1.4193 8.6505 30.4606
# 2 45.8397 142.7210 31.7344 -16.8226 12.2714 30.3744
# 3 25.1544 31.7344 90.5686 -19.4334 18.6044 6.5460
# 4 -1.4193 -16.8226 -19.4334 29.3710 5.2658 -8.1112
# 5 8.6505 12.2714 18.6044 5.2658 38.4986 9.0199
# 6 30.4606 30.3744 6.5460 -8.1112 9.0199 39.2358
#
#
#
# Elastic Compliance Matrix: (Units=1/GPa)
#
#
# Indices 1 2 3 4 5 6 
#
# 1 0.010271 -0.001749 -0.003290 -0.005230 0.002358 -0.007694
# 2 -0.001749 0.009394 -0.001536 0.003187 -0.001187 -0.004726
# 3 -0.003290 -0.001536 0.017165 0.013879 -0.010403 0.006141
# 4 -0.005230 0.003187 0.013879 0.051643 -0.016851 0.013827
# 5 0.002358 -0.001187 -0.010403 -0.016851 0.035702 -0.010867
# 6 -0.007694 -0.004726 0.006141 0.013827 -0.010867 0.039451
#
#
# Mechanical properties :
#
#
# Convention : Reuss Voigt Hill
#
# Bulk Modulus (GPa) = 42.23301 63.56477 52.89889
# Shear Modulus (GPa) = 27.07559 39.01423 33.04491
#
# Velocity S-wave (km/s) = 3.42029 4.10568 3.77855
# Velocity P-wave (km/s) = 5.81765 7.06678 6.47242
#
# Compressibility (1/GPa) = 0.02367816
#
# Stress axis : x y z
#
# Youngs Moduli (GPa) = 97.36245 106.45542 58.25942
#
# Poissons Ratio (x) = 0.18618 0.19168
# Poissons Ratio (y) = 0.17028 0.08951
# Poissons Ratio (z) = 0.32034 0.16355
#
# Static dielectric constant tensor:
#      x y z
#    x 2.066790 -0.063150 0.032030 
#    y -0.063150 1.902080 0.016640 
#    z 0.032030 0.016640 1.865090 
# 
# From -- ./inp_files/85181.got.cif
#   From: 2010.05.17/outbox.cif.g08.bks.cpg/sg2_43_cif.got.tgz:85181.got - 2010.06.03 11:33:40.
