data_PCOD9023627
_publ_section_title
;
Structure prediction by ZEFSAII (Michael W. Deem and Ramdas Pophale) SiO2 
 PCOD9023627
Probable space group: P -1
;
_chemical_formula_sum "Si O2"
_cell_formula_units_Z 16
_cell_length_a 10.801270
_cell_length_b 6.462694
_cell_length_c 13.883039
_cell_angle_alpha 59.931740
_cell_angle_beta 115.764586
_cell_angle_gamma 93.338416
_cell_volume 739.322920
_symmetry_space_group_name_H-M "P -1"
_symmetry_group_IT_number 2
_symmetry_cell_setting 'triclinic'
loop_
_space_group_symop_operation_xyz
x,y,z
-x,-y,-z
loop_
_atom_site_type_symbol
_atom_site_label
_atom_site_fract_x
_atom_site_fract_y
_atom_site_fract_z
Si Si1 0.928912 0.676409 0.850247
Si Si2 0.660538 0.905459 0.169685
Si Si3 0.531252 0.385260 0.931652
Si Si4 0.030136 0.110996 0.685718
Si Si5 0.168501 0.513783 0.330127
Si Si6 0.458733 0.879924 0.726834
Si Si7 0.671125 0.114647 0.648673
Si Si8 0.793549 0.049859 0.493928
O O1 0.881581 0.510137 0.789845
O O2 0.792929 0.888660 0.781631
O O3 0.027079 0.842984 0.792370
O O4 0.000000 0.500000 0.000000
O O5 0.557292 0.992083 0.204425
O O6 0.602007 0.706074 0.136120
O O7 0.815753 0.837418 0.279718
O O8 0.648433 0.141841 0.041182
O O9 0.557119 0.611612 0.825723
O O10 0.500000 0.500000 0.000000
O O11 0.944109 0.306991 0.684776
O O12 0.941169 0.121280 0.554081
O O13 0.187962 0.241068 0.440468
O O14 0.304161 0.636034 0.353935
O O15 0.523692 0.048565 0.637605
O O16 0.304841 0.842368 0.652036
O O17 0.703664 0.123976 0.544277
#
# Coordination Sequence:
#
# PCOD9023627 Si02
#       8
#     2   2   2   2   2   2   2   2
#     4   9  19  35  55  86 110 145 193 234 284 336
#     4  10  22  40  59  85 113 152 195 232 285 341
#     4   9  22  42  55  79 115 149 192 236 280 332
#     4   9  20  37  58  82 113 151 188 235 286 332
#     4   8  18  37  53  79 118 146 187 234 286 329
#     4  11  22  37  60  86 117 152 191 235 282 339
#     4   9  20  35  55  86 116 151 186 230 287 338
#     4   9  20  38  59  86 116 149 190 235 287 337
#
# _framework density 21.641423
#
# number of rings (size 3 to 8) (size 9 to 14) (size 15 to 20)
#    0.000    3.250    0.000    0.375    1.750   11.000 
#    9.000    1.250    0.000    0.000    0.000    0.000 
#    0.000    0.000    0.000    0.000    0.000    0.000 
#
# Total GULP energy -89227.760933 kJ/mol
# GULP energy per Si atom -5576.735058 kJ/mol
# Density = 2.159217 g / cm^3
# Si number density = 21.641423 Si / 1000 Ang^3
#
#
#
# Elastic Constant Matrix: (Units=GPa)
#
#
# Indices 1 2 3 4 5 6 
#
# 1 43.6763 16.3028 -7.7081 16.1138 12.4903 15.4125
# 2 16.3028 139.6173 30.7839 25.8876 2.6676 5.4275
# 3 -7.7081 30.7839 64.9289 15.0577 3.2342 -6.2626
# 4 16.1138 25.8876 15.0577 21.5459 6.9873 8.7408
# 5 12.4903 2.6676 3.2342 6.9873 19.1892 7.2818
# 6 15.4125 5.4275 -6.2626 8.7408 7.2818 16.5623
#
#
#
# Elastic Compliance Matrix: (Units=1/GPa)
#
#
# Indices 1 2 3 4 5 6 
#
# 1 0.046994 -0.001709 0.012860 -0.030889 -0.015507 -0.015189
# 2 -0.001709 0.009699 -0.002416 -0.010391 0.003388 0.001492
# 3 0.012860 -0.002416 0.027601 -0.031076 -0.008779 0.019522
# 4 -0.030889 -0.010391 -0.031076 0.121639 -0.001061 -0.043329
# 5 -0.015507 0.003388 -0.008779 -0.001061 0.071527 -0.020888
# 6 -0.015189 0.001492 0.019522 -0.043329 -0.020888 0.113456
#
#
# Mechanical properties :
#
#
# Convention : Reuss Voigt Hill
#
# Bulk Modulus (GPa) = 9.82673 36.33107 23.07890
# Shear Modulus (GPa) = 12.27395 25.38240 18.82817
#
# Velocity S-wave (km/s) = 2.38408 3.42842 2.95279
# Velocity P-wave (km/s) = 3.48267 5.70055 4.72363
#
# Compressibility (1/GPa) = 0.10176329
#
# Stress axis : x y z
#
# Youngs Moduli (GPa) = 21.27942 103.10806 36.23071
#
# Poissons Ratio (x) = 0.17617 -0.46592
# Poissons Ratio (y) = 0.03636 0.08754
# Poissons Ratio (z) = -0.27365 0.24914
#
# Static dielectric constant tensor:
#      x y z
#    x 1.822710 0.015910 0.019480 
#    y 0.015910 1.772130 -0.023840 
#    z 0.019480 -0.023840 1.833410 
# 
# From -- ./inp_files/510827.got.cif
#   From: 2010.05.17/outbox.cif.g08.bks.cpg/sg2_256_cif.got.tgz:510827.got - 2010.06.03 11:33:40.
