data_PCOD9023625
_publ_section_title
;
Structure prediction by ZEFSAII (Michael W. Deem and Ramdas Pophale) SiO2 
 PCOD9023625
Probable space group: P -1
;
_chemical_formula_sum "Si O2"
_cell_formula_units_Z 16
_cell_length_a 4.826242
_cell_length_b 24.492658
_cell_length_c 5.949148
_cell_angle_alpha 109.525484
_cell_angle_beta 96.761634
_cell_angle_gamma 95.319588
_cell_volume 651.597890
_symmetry_space_group_name_H-M "P -1"
_symmetry_group_IT_number 2
_symmetry_cell_setting 'triclinic'
loop_
_space_group_symop_operation_xyz
x,y,z
-x,-y,-z
loop_
_atom_site_type_symbol
_atom_site_label
_atom_site_fract_x
_atom_site_fract_y
_atom_site_fract_z
Si Si1 0.244072 0.068820 0.499847
Si Si2 0.661324 0.041430 0.882752
Si Si3 0.874189 0.538629 0.731202
Si Si4 0.349232 0.565352 0.194386
Si Si5 0.888090 0.355450 0.339666
Si Si6 0.576485 0.672945 0.126163
Si Si7 0.874602 0.266837 0.583923
Si Si8 0.225332 0.871357 0.619095
O O1 0.429248 0.062508 0.727583
O O2 0.456261 0.108154 0.403371
O O3 0.973760 0.101109 0.539304
O O4 0.172533 0.003555 0.298932
O O5 0.823527 0.095980 0.106847
O O6 0.500000 0.000000 0.000000
O O7 0.616467 0.495804 0.763575
O O8 0.000000 0.500000 0.500000
O O9 0.861669 0.601455 0.701939
O O10 0.110182 0.551712 0.963758
O O11 0.225725 0.603950 0.425660
O O12 0.591776 0.609799 0.158776
O O13 0.964092 0.299614 0.403165
O O14 0.632226 0.337017 0.118073
O O15 0.414039 0.711848 0.333461
O O16 0.886412 0.707482 0.178495
O O17 0.842665 0.197713 0.468354
#
# Coordination Sequence:
#
# PCOD9023625 Si02
#       8
#     2   2   2   2   2   2   2   2
#     4  10  22  40  63  91 123 156 194 243 298 353
#     4   9  21  40  65  93 123 156 194 242 299 353
#     4   8  13  27  56  89 119 152 194 248 307 361
#     4   8  15  30  56  87 117 151 199 248 302 367
#     4   9  19  36  59  83 118 160 199 249 304 353
#     4  10  22  40  59  83 118 158 201 252 304 353
#     4  11  24  40  59  86 119 159 207 247 290 355
#     4  11  23  39  60  89 122 159 202 245 291 351
#
# _framework density 24.555019999999999
#
# number of rings (size 3 to 8) (size 9 to 14) (size 15 to 20)
#    0.000    2.500    0.000    1.125    0.000   10.500 
#    0.000    0.625    0.000   67.500    0.000    0.000 
#    0.000    0.000    0.000    0.000    0.000    0.000 
#
# Total GULP energy -89587.888210 kJ/mol
# GULP energy per Si atom -5599.243013 kJ/mol
# Density = 2.449913 g / cm^3
# Si number density = 24.555020 Si / 1000 Ang^3
#
#
#
# Elastic Constant Matrix: (Units=GPa)
#
#
# Indices 1 2 3 4 5 6 
#
# 1 99.3652 34.0713 17.6007 8.6720 10.6802 -4.9734
# 2 34.0713 191.9687 73.1676 27.5436 10.0750 -0.7472
# 3 17.6007 73.1676 119.7547 2.1723 7.1805 5.0353
# 4 8.6720 27.5436 2.1723 38.5925 5.9661 4.4264
# 5 10.6802 10.0750 7.1805 5.9661 25.0402 0.8736
# 6 -4.9734 -0.7472 5.0353 4.4264 0.8736 30.9884
#
#
#
# Elastic Compliance Matrix: (Units=1/GPa)
#
#
# Indices 1 2 3 4 5 6 
#
# 1 0.011276 -0.001372 -0.000657 -0.001167 -0.003866 0.002159
# 2 -0.001372 0.007992 -0.004642 -0.005290 -0.000090 0.001485
# 3 -0.000657 -0.004642 0.011438 0.003391 -0.001853 -0.002508
# 4 -0.001167 -0.005290 0.003391 0.031218 -0.005604 -0.005167
# 5 -0.003866 -0.000090 -0.001853 -0.005604 0.043514 -0.000748
# 6 0.002159 0.001485 -0.002508 -0.005167 -0.000748 0.033819
#
#
# Mechanical properties :
#
#
# Convention : Reuss Voigt Hill
#
# Bulk Modulus (GPa) = 57.59032 73.41864 65.50448
# Shear Modulus (GPa) = 31.56831 38.00748 34.78790
#
# Velocity S-wave (km/s) = 3.58944 3.93854 3.76803
# Velocity P-wave (km/s) = 6.37834 7.11670 6.75761
#
# Compressibility (1/GPa) = 0.01736403
#
# Stress axis : x y z
#
# Youngs Moduli (GPa) = 88.68186 125.13125 87.42673
#
# Poissons Ratio (x) = 0.17171 0.05741
# Poissons Ratio (y) = 0.12169 0.40584
# Poissons Ratio (z) = 0.05824 0.58087
#
# Static dielectric constant tensor:
#      x y z
#    x 1.958660 0.036020 -0.058740 
#    y 0.036020 1.930490 -0.028530 
#    z -0.058740 -0.028530 1.986800 
# 
# From -- ./inp_files/13637.got.cif
#   From: 2010.05.17/outbox.cif.g08.bks.cpg/sg2_7_cif.got.tgz:13637.got - 2010.06.03 11:33:40.
