data_PCOD9023227
_publ_section_title
;
Structure prediction by ZEFSAII (Michael W. Deem and Ramdas Pophale) SiO2 
 PCOD9023227
Probable space group: P -1
;
_chemical_formula_sum "Si O2"
_cell_formula_units_Z 16
_cell_length_a 9.631556
_cell_length_b 12.006748
_cell_length_c 9.138582
_cell_angle_alpha 121.954646
_cell_angle_beta 115.233552
_cell_angle_gamma 66.481447
_cell_volume 790.135852
_symmetry_space_group_name_H-M "P -1"
_symmetry_group_IT_number 2
_symmetry_cell_setting 'triclinic'
loop_
_space_group_symop_operation_xyz
x,y,z
-x,-y,-z
loop_
_atom_site_type_symbol
_atom_site_label
_atom_site_fract_x
_atom_site_fract_y
_atom_site_fract_z
Si Si1 0.508899 0.582222 0.750608
Si Si2 0.167821 0.925690 0.586235
Si Si3 0.412617 0.321181 0.650586
Si Si4 0.490791 0.951723 0.631173
Si Si5 0.923055 0.125672 0.155956
Si Si6 0.598756 0.198141 0.930160
Si Si7 0.052359 0.358986 0.509992
Si Si8 0.243311 0.629470 0.416819
O O1 0.440808 0.465295 0.718077
O O2 0.384330 0.628274 0.596143
O O3 0.683405 0.504288 0.731290
O O4 0.510221 0.710686 0.937011
O O5 0.314403 0.985968 0.641905
O O6 0.142897 0.914062 0.743065
O O7 0.212492 0.775456 0.431859
O O8 0.000000 0.000000 0.500000
O O9 0.442676 0.209046 0.456674
O O10 0.534869 0.260748 0.790408
O O11 0.231739 0.337412 0.626924
O O12 0.500000 0.000000 0.500000
O O13 0.589827 0.042512 0.823464
O O14 0.033920 0.227676 0.317150
O O15 0.773807 0.207988 0.055973
O O16 0.000000 0.000000 0.000000
O O17 0.000000 0.500000 0.500000
O O18 0.921407 0.371888 0.584818
#
# Coordination Sequence:
#
# PCOD9023227 Si02
#       8
#     2   2   2   2   2   2   2   2
#     4  11  20  42  63  96 126 172 210 273 323 400
#     4  11  24  43  69  95 130 178 223 266 331 404
#     4  11  22  38  69  92 128 175 218 263 335 397
#     4  10  24  41  65  98 128 172 224 270 325 397
#     4  11  25  43  65  98 137 170 218 280 333 382
#     4  11  23  40  64  97 133 164 221 274 329 387
#     4  11  21  41  63  95 123 171 215 265 318 401
#     4  10  22  39  67  89 129 166 223 257 337 382
#
# _framework density 20.249683999999998
#
# number of rings (size 3 to 8) (size 9 to 14) (size 15 to 20)
#    0.000    1.250    5.000    1.125   10.500    0.500 
#    2.250    0.625    0.000    0.000    0.000    0.000 
#    0.000    0.000    0.000    0.000    0.000    0.000 
#
# Total GULP energy -89244.699570 kJ/mol
# GULP energy per Si atom -5577.793723 kJ/mol
# Density = 2.020359 g / cm^3
# Si number density = 20.249684 Si / 1000 Ang^3
#
#
#
# Elastic Constant Matrix: (Units=GPa)
#
#
# Indices 1 2 3 4 5 6 
#
# 1 101.6919 14.8318 11.4337 -1.0269 1.1397 -9.3062
# 2 14.8318 67.1081 15.4655 -10.1229 -2.3991 -16.2786
# 3 11.4337 15.4655 61.8091 6.6373 -11.6307 -8.1942
# 4 -1.0269 -10.1229 6.6373 32.1292 -19.4231 -0.3230
# 5 1.1397 -2.3991 -11.6307 -19.4231 30.6822 9.3969
# 6 -9.3062 -16.2786 -8.1942 -0.3230 9.3969 39.5697
#
#
#
# Elastic Compliance Matrix: (Units=1/GPa)
#
#
# Indices 1 2 3 4 5 6 
#
# 1 0.010471 -0.001786 -0.001567 -0.001522 -0.002709 0.002034
# 2 -0.001786 0.019162 -0.003910 0.009459 0.004324 0.005704
# 3 -0.001567 -0.003910 0.018761 -0.001796 0.005551 0.000575
# 4 -0.001522 0.009459 -0.001796 0.057421 0.038126 -0.005424
# 5 -0.002709 0.004324 0.005551 0.038126 0.063060 -0.012373
# 6 0.002034 0.005704 0.000575 -0.005424 -0.012373 0.031110
#
#
# Mechanical properties :
#
#
# Convention : Reuss Voigt Hill
#
# Bulk Modulus (GPa) = 29.52634 34.89680 32.21157
# Shear Modulus (GPa) = 22.14334 33.06810 27.60572
#
# Velocity S-wave (km/s) = 3.31042 4.04545 3.69625
# Velocity P-wave (km/s) = 5.40598 6.25232 5.84449
#
# Compressibility (1/GPa) = 0.03386806
#
# Stress axis : x y z
#
# Youngs Moduli (GPa) = 95.49767 52.18585 53.30291
#
# Poissons Ratio (x) = 0.09321 0.08351
# Poissons Ratio (y) = 0.17057 0.20843
# Poissons Ratio (z) = 0.14962 0.20406
#
# Static dielectric constant tensor:
#      x y z
#    x 1.800000 0.065190 -0.051550 
#    y 0.065190 1.803660 0.004260 
#    z -0.051550 0.004260 1.767720 
# 
# From -- ./inp_files/190365.got.cif
#   From: 2010.05.17/outbox.cif.g08.bks.cpg/sg2_96_cif.got.tgz:190365.got - 2010.06.03 11:33:40.
