data_PCOD9023909
_publ_section_title
;
Structure prediction by ZEFSAII (Michael W. Deem and Ramdas Pophale) SiO2 
 PCOD9023909
Probable space group: P -1
;
_chemical_formula_sum "Si O2"
_cell_formula_units_Z 16
_cell_length_a 14.168274
_cell_length_b 8.114203
_cell_length_c 7.876875
_cell_angle_alpha 124.109992
_cell_angle_beta 99.520695
_cell_angle_gamma 99.042629
_cell_volume 703.954753
_symmetry_space_group_name_H-M "P -1"
_symmetry_group_IT_number 2
_symmetry_cell_setting 'triclinic'
loop_
_space_group_symop_operation_xyz
x,y,z
-x,-y,-z
loop_
_atom_site_type_symbol
_atom_site_label
_atom_site_fract_x
_atom_site_fract_y
_atom_site_fract_z
Si Si1 0.648982 0.673368 0.759477
Si Si2 0.293975 0.228873 0.777414
Si Si3 0.015181 0.741752 0.197582
Si Si4 0.684054 0.355834 0.071903
Si Si5 0.483362 0.150488 0.724216
Si Si6 0.106894 0.938658 0.675393
Si Si7 0.563818 0.247476 0.318406
Si Si8 0.179102 0.938935 0.077277
O O1 0.620402 0.427691 0.571043
O O2 0.548709 0.736393 0.723513
O O3 0.673362 0.714082 0.986788
O O4 0.746001 0.823125 0.776015
O O5 0.251693 0.404373 0.788428
O O6 0.392671 0.237559 0.704483
O O7 0.212824 0.005721 0.644797
O O8 0.037540 0.775653 0.426778
O O9 0.103054 0.882520 0.179790
O O10 0.928249 0.851994 0.204767
O O11 0.000000 0.500000 0.000000
O O12 0.631781 0.306490 0.208160
O O13 0.747601 0.202798 0.963977
O O14 0.587815 0.315075 0.896623
O O15 0.500000 0.000000 0.500000
O O16 0.445901 0.988896 0.774255
O O17 0.123162 0.884030 0.844254
#
# Coordination Sequence:
#
# PCOD9023909 Si02
#       8
#     2   2   2   2   2   2   2   2
#     4  10  22  40  62  90 130 177 221 270 323 395
#     4  11  24  43  62  95 132 174 230 275 331 401
#     4  11  25  49  78 104 135 171 227 289 358 426
#     4  12  24  39  64  96 136 182 223 276 329 395
#     4  12  25  38  61  90 137 185 227 275 323 392
#     4  10  25  48  74 102 138 177 222 292 351 412
#     4  11  22  38  59  90 133 177 222 266 327 379
#     4  11  24  46  70 102 138 177 226 279 344 412
#
# _framework density 22.728736000000001
#
# number of rings (size 3 to 8) (size 9 to 14) (size 15 to 20)
#    0.000    1.000    2.500    4.125    7.000    0.500 
#   11.250    0.000    0.000    0.000    0.000    0.000 
#    0.000    0.000    0.000    0.000    0.000    0.000 
#
# Total GULP energy -89422.083306 kJ/mol
# GULP energy per Si atom -5588.880207 kJ/mol
# Density = 2.267700 g / cm^3
# Si number density = 22.728736 Si / 1000 Ang^3
#
#
#
# Elastic Constant Matrix: (Units=GPa)
#
#
# Indices 1 2 3 4 5 6 
#
# 1 84.7056 11.4668 4.0115 -2.3279 -6.9623 8.2193
# 2 11.4668 85.3326 4.7776 9.2693 -0.2210 15.6251
# 3 4.0115 4.7776 62.7599 1.9035 -8.1889 1.6960
# 4 -2.3279 9.2693 1.9035 30.3337 -1.6912 -12.3784
# 5 -6.9623 -0.2210 -8.1889 -1.6912 22.3505 -1.4648
# 6 8.2193 15.6251 1.6960 -12.3784 -1.4648 33.8049
#
#
#
# Elastic Compliance Matrix: (Units=1/GPa)
#
#
# Indices 1 2 3 4 5 6 
#
# 1 0.012522 -0.001400 -0.000176 0.000824 0.003758 -0.001924
# 2 -0.001400 0.014629 -0.000746 -0.008549 -0.001840 -0.009594
# 3 -0.000176 -0.000746 0.016820 -0.000688 0.006019 -0.000448
# 4 0.000824 -0.008549 -0.000688 0.044166 0.004583 0.020157
# 5 0.003758 -0.001840 0.006019 0.004583 0.048671 0.003422
# 6 -0.001924 -0.009594 -0.000448 0.020157 0.003422 0.042035
#
#
# Mechanical properties :
#
#
# Convention : Reuss Voigt Hill
#
# Bulk Modulus (GPa) = 25.42828 30.36778 27.89803
# Shear Modulus (GPa) = 25.43270 31.46729 28.44999
#
# Velocity S-wave (km/s) = 3.34872 3.72489 3.54180
# Velocity P-wave (km/s) = 5.11507 5.64709 5.38765
#
# Compressibility (1/GPa) = 0.03932629
#
# Stress axis : x y z
#
# Youngs Moduli (GPa) = 79.86097 68.35549 59.45262
#
# Poissons Ratio (x) = 0.09572 0.01049
# Poissons Ratio (y) = 0.11183 0.04434
# Poissons Ratio (z) = 0.01409 0.05098
#
# Static dielectric constant tensor:
#      x y z
#    x 1.916410 0.025410 0.028210 
#    y 0.025410 1.880340 -0.027000 
#    z 0.028210 -0.027000 1.879410 
# 
# From -- ./inp_files/299717.got.cif
#   From: 2010.05.17/outbox.cif.g08.bks.cpg/sg2_150_cif.got.tgz:299717.got - 2010.06.03 11:33:40.
