data_PCOD9023965
_publ_section_title
;
Structure prediction by ZEFSAII (Michael W. Deem and Ramdas Pophale) SiO2 
 PCOD9023965
Probable space group: P -1
;
_chemical_formula_sum "Si O2"
_cell_formula_units_Z 16
_cell_length_a 8.055501
_cell_length_b 6.678023
_cell_length_c 16.579349
_cell_angle_alpha 72.925439
_cell_angle_beta 123.525975
_cell_angle_gamma 97.593206
_cell_volume 710.229485
_symmetry_space_group_name_H-M "P -1"
_symmetry_group_IT_number 2
_symmetry_cell_setting 'triclinic'
loop_
_space_group_symop_operation_xyz
x,y,z
-x,-y,-z
loop_
_atom_site_type_symbol
_atom_site_label
_atom_site_fract_x
_atom_site_fract_y
_atom_site_fract_z
Si Si1 0.039999 0.765912 0.571276
Si Si2 0.241265 0.292160 0.231293
Si Si3 0.484647 0.378521 0.132914
Si Si4 0.349585 0.520437 0.382245
Si Si5 0.222755 0.976925 0.740859
Si Si6 0.276134 0.386761 0.603797
Si Si7 0.940931 0.126906 0.782506
Si Si8 0.832267 0.562984 0.098934
O O1 0.206581 0.616255 0.590202
O O2 0.841193 0.648897 0.508121
O O3 0.105753 0.812480 0.673351
O O4 0.000000 0.000000 0.500000
O O5 0.393698 0.396566 0.196706
O O6 0.305834 0.316881 0.340059
O O7 0.021124 0.402872 0.155661
O O8 0.218245 0.051305 0.228569
O O9 0.675303 0.508337 0.136039
O O10 0.564976 0.137448 0.175786
O O11 0.305254 0.426876 0.017648
O O12 0.500000 0.500000 0.500000
O O13 0.491930 0.639765 0.344153
O O14 0.157032 0.675297 0.317157
O O15 0.217999 0.200012 0.668535
O O16 0.111339 0.016004 0.788356
O O17 0.053729 0.225284 0.876018
#
# Coordination Sequence:
#
# PCOD9023965 Si02
#       8
#     2   2   2   2   2   2   2   2
#     4   9  21  37  63  92 127 165 229 279 328 395
#     4  11  24  48  69 100 141 181 224 286 346 403
#     4  11  23  46  76 100 137 178 233 282 345 417
#     4  11  27  41  65  95 136 180 226 280 337 405
#     4  11  23  39  67  97 133 179 223 283 336 409
#     4  10  22  40  62  93 126 182 232 272 339 402
#     4  11  26  44  66  97 142 178 221 287 344 403
#     4  10  25  47  69 107 135 177 228 290 345 404
#
# _framework density 22.527929
#
# number of rings (size 3 to 8) (size 9 to 14) (size 15 to 20)
#    0.000    1.500    1.250    1.875   10.500    2.500 
#    0.000    0.000    0.000    0.000    0.000    0.000 
#    0.000    0.000    0.000    0.000    0.000    0.000 
#
# Total GULP energy -89205.388456 kJ/mol
# GULP energy per Si atom -5575.336779 kJ/mol
# Density = 2.247665 g / cm^3
# Si number density = 22.527929 Si / 1000 Ang^3
#
#
#
# Elastic Constant Matrix: (Units=GPa)
#
#
# Indices 1 2 3 4 5 6 
#
# 1 70.0442 32.7329 9.1971 -4.9651 13.7136 -3.9252
# 2 32.7329 108.2721 25.8522 15.1661 -3.3229 -14.4062
# 3 9.1971 25.8522 89.0559 3.2620 5.3843 -3.2878
# 4 -4.9651 15.1661 3.2620 22.6925 -4.7576 3.9727
# 5 13.7136 -3.3229 5.3843 -4.7576 31.1734 -6.9026
# 6 -3.9252 -14.4062 -3.2878 3.9727 -6.9026 32.0007
#
#
#
# Elastic Compliance Matrix: (Units=1/GPa)
#
#
# Indices 1 2 3 4 5 6 
#
# 1 0.020375 -0.008359 0.000419 0.008745 -0.009559 -0.004369
# 2 -0.008359 0.015511 -0.003250 -0.011954 0.005925 0.008386
# 3 0.000419 -0.003250 0.012269 0.000044 -0.002812 -0.000763
# 4 0.008745 -0.011954 0.000044 0.056106 0.000985 -0.011057
# 5 -0.009559 0.005925 -0.002812 0.000985 0.039687 0.009644
# 6 -0.004369 0.008386 -0.000763 -0.011057 0.009644 0.037863
#
#
# Mechanical properties :
#
#
# Convention : Reuss Voigt Hill
#
# Bulk Modulus (GPa) = 38.79884 44.77073 41.78478
# Shear Modulus (GPa) = 23.49793 30.47932 26.98862
#
# Velocity S-wave (km/s) = 3.23314 3.68225 3.46498
# Velocity P-wave (km/s) = 5.58548 6.16402 5.88187
#
# Compressibility (1/GPa) = 0.02577397
#
# Stress axis : x y z
#
# Youngs Moduli (GPa) = 49.08021 64.46902 81.50361
#
# Poissons Ratio (x) = 0.53892 -0.03413
# Poissons Ratio (y) = 0.41028 0.26491
# Poissons Ratio (z) = -0.02055 0.20954
#
# Static dielectric constant tensor:
#      x y z
#    x 1.880200 0.046980 -0.039540 
#    y 0.046980 1.882290 0.021960 
#    z -0.039540 0.021960 1.876910 
# 
# From -- ./inp_files/553473.got.cif
#   From: 2010.05.17/outbox.cif.g08.bks.cpg/sg2_277_cif.got.tgz:553473.got - 2010.06.03 11:33:40.
