data_PCOD9023626
_publ_section_title
;
Structure prediction by ZEFSAII (Michael W. Deem and Ramdas Pophale) SiO2 
 PCOD9023626
Probable space group: P -1
;
_chemical_formula_sum "Si O2"
_cell_formula_units_Z 12
_cell_length_a 5.619961
_cell_length_b 12.575963
_cell_length_c 7.607657
_cell_angle_alpha 104.795313
_cell_angle_beta 59.414212
_cell_angle_gamma 103.435421
_cell_volume 444.125867
_symmetry_space_group_name_H-M "P -1"
_symmetry_group_IT_number 2
_symmetry_cell_setting 'triclinic'
loop_
_space_group_symop_operation_xyz
x,y,z
-x,-y,-z
loop_
_atom_site_type_symbol
_atom_site_label
_atom_site_fract_x
_atom_site_fract_y
_atom_site_fract_z
Si Si1 0.542750 0.928953 0.778641
Si Si2 0.062251 0.183974 0.174371
Si Si3 0.081713 0.663852 0.118192
Si Si4 0.567516 0.509276 0.182851
Si Si5 0.585886 0.153646 0.738160
Si Si6 0.156080 0.645032 0.482057
O O1 0.241897 0.870662 0.801360
O O2 0.787169 0.858174 0.722100
O O3 0.636649 0.026975 0.645305
O O4 0.500000 0.000000 0.000000
O O5 0.044456 0.313500 0.280556
O O6 0.277235 0.162392 0.930443
O O7 0.212729 0.788098 0.158111
O O8 0.054007 0.619442 0.311501
O O9 0.780686 0.621534 0.148704
O O10 0.284677 0.600349 0.892845
O O11 0.325036 0.542519 0.412779
O O12 0.500000 0.500000 0.000000
O O13 0.654309 0.236082 0.583531
#
# Coordination Sequence:
#
# PCOD9023626 Si02
#       6
#     2   2   2   2   2   2
#     4  10  22  40  59  83 121 156 189 239 287 332
#     4  11  23  39  59  86 120 153 190 242 284 330
#     4   8  18  34  57  82 113 149 189 232 290 342
#     4   9  16  34  59  82 113 149 183 238 294 336
#     4   9  20  38  56  85 110 155 194 228 288 345
#     4   9  21  34  58  86 111 152 191 235 286 339
#
# _framework density 27.019365000000001
#
# number of rings (size 3 to 8) (size 9 to 14) (size 15 to 20)
#    1.000    1.667    0.000    2.000    2.333    5.333 
#    0.000    0.833    0.000    5.000    0.000    0.000 
#    0.000    0.000    0.000    0.000    0.000    0.000 
#
# Total GULP energy -66893.218691 kJ/mol
# GULP energy per Si atom -5574.434891 kJ/mol
# Density = 2.695787 g / cm^3
# Si number density = 27.019365 Si / 1000 Ang^3
#
#
#
# Elastic Constant Matrix: (Units=GPa)
#
#
# Indices 1 2 3 4 5 6 
#
# 1 138.7881 49.6851 38.6395 2.2849 -8.4592 33.8647
# 2 49.6851 89.2720 19.7112 -9.1756 4.9620 7.8623
# 3 38.6395 19.7112 108.3300 14.5709 -2.9851 -4.2090
# 4 2.2849 -9.1756 14.5709 40.7774 -1.3410 0.8600
# 5 -8.4592 4.9620 -2.9851 -1.3410 20.9724 1.6305
# 6 33.8647 7.8623 -4.2090 0.8600 1.6305 47.0414
#
#
#
# Elastic Compliance Matrix: (Units=1/GPa)
#
#
# Indices 1 2 3 4 5 6 
#
# 1 0.012972 -0.006053 -0.003632 -0.000380 0.006814 -0.008881
# 2 -0.006053 0.015457 -0.001297 0.004040 -0.006165 0.001798
# 3 -0.003632 -0.001297 0.011488 -0.004280 -0.000103 0.003941
# 4 -0.000380 0.004040 -0.004280 0.027014 0.000109 -0.001282
# 5 0.006814 -0.006165 -0.000103 0.000109 0.052324 -0.005699
# 6 -0.008881 0.001798 0.003941 -0.001282 -0.005699 0.027924
#
#
# Mechanical properties :
#
#
# Convention : Reuss Voigt Hill
#
# Bulk Modulus (GPa) = 55.69961 61.38464 58.54212
# Shear Modulus (GPa) = 28.55092 36.98187 32.76639
#
# Velocity S-wave (km/s) = 3.25419 3.70363 3.48616
# Velocity P-wave (km/s) = 5.89739 6.40759 6.15778
#
# Compressibility (1/GPa) = 0.01795345
#
# Stress axis : x y z
#
# Youngs Moduli (GPa) = 77.09035 64.69750 87.04546
#
# Poissons Ratio (x) = 0.39164 0.31611
# Poissons Ratio (y) = 0.46665 0.11287
# Poissons Ratio (z) = 0.27996 0.08389
#
# Static dielectric constant tensor:
#      x y z
#    x 2.251650 -0.090210 -0.066000 
#    y -0.090210 2.267600 -0.084630 
#    z -0.066000 -0.084630 2.131860 
# 
# From -- ./inp_files/355901.got.cif
#   From: 2010.05.17/outbox.cif.g08.bks.cpg/sg2_178_cif.got.tgz:355901.got - 2010.06.03 11:33:40.
