data_PCOD9023666
_publ_section_title
;
Structure prediction by ZEFSAII (Michael W. Deem and Ramdas Pophale) SiO2 
 PCOD9023666
Probable space group: P -1
;
_chemical_formula_sum "Si O2"
_cell_formula_units_Z 14
_cell_length_a 16.805744
_cell_length_b 15.757740
_cell_length_c 18.404588
_cell_angle_alpha 22.408444
_cell_angle_beta 21.852114
_cell_angle_gamma 35.360822
_cell_volume 659.746785
_symmetry_space_group_name_H-M "P -1"
_symmetry_group_IT_number 2
_symmetry_cell_setting 'triclinic'
loop_
_space_group_symop_operation_xyz
x,y,z
-x,-y,-z
loop_
_atom_site_type_symbol
_atom_site_label
_atom_site_fract_x
_atom_site_fract_y
_atom_site_fract_z
Si Si1 0.102171 0.484767 0.178844
Si Si2 0.931079 0.242636 0.293378
Si Si3 0.831210 0.251663 0.817217
Si Si4 0.410922 0.706807 0.875997
Si Si5 0.233257 0.907668 0.290208
Si Si6 0.155491 0.989023 0.689912
Si Si7 0.629446 0.841402 0.784406
O O1 0.269142 0.347145 0.115634
O O2 0.864104 0.282812 0.540043
O O3 0.225841 0.586133 0.069251
O O4 0.092496 0.711580 0.964412
O O5 0.878125 0.228254 0.434838
O O6 0.704414 0.076674 0.580416
O O7 0.122592 0.118348 0.211283
O O8 0.000000 0.500000 0.000000
O O9 0.000000 0.500000 0.500000
O O10 0.705557 0.168561 0.065298
O O11 0.631733 0.268088 0.921199
O O12 0.955710 0.085101 0.807832
O O13 0.645544 0.900476 0.507600
O O14 0.500000 0.500000 0.000000
O O15 0.500000 0.000000 0.000000
O O16 0.248278 0.086195 0.455015
#
# Coordination Sequence:
#
# PCOD9023666 Si02
#       7
#     2   2   2   2   2   2   2
#     4  11  21  40  63  83 122 166 193 252 313 356
#     4  10  22  42  66  90 122 165 210 257 315 371
#     4  11  20  35  59  86 119 155 198 243 294 362
#     4  11  20  39  59  85 123 156 199 245 301 367
#     4  10  24  42  62  94 128 159 211 264 309 370
#     4  11  22  37  60  90 120 155 207 246 299 372
#     4  10  22  40  60  86 122 158 198 251 305 360
#
# _framework density 21.220262999999999
#
# number of rings (size 3 to 8) (size 9 to 14) (size 15 to 20)
#    0.000    1.429    4.286    1.286    0.000    5.714 
#    0.000    8.571    0.000    0.000    0.000    0.000 
#    0.000    0.000    0.000    0.000    0.000    0.000 
#
# Total GULP energy -78123.509190 kJ/mol
# GULP energy per Si atom -5580.250656 kJ/mol
# Density = 2.117196 g / cm^3
# Si number density = 21.220263 Si / 1000 Ang^3
#
#
#
# Elastic Constant Matrix: (Units=GPa)
#
#
# Indices 1 2 3 4 5 6 
#
# 1 77.1722 29.8120 33.8806 -1.4231 -21.3267 -0.8106
# 2 29.8120 119.0038 77.2181 -11.6972 2.2435 -15.3747
# 3 33.8806 77.2181 117.7557 -9.5778 -32.4237 -20.9056
# 4 -1.4231 -11.6972 -9.5778 45.1705 -7.2864 -2.2759
# 5 -21.3267 2.2435 -32.4237 -7.2864 47.5888 1.8121
# 6 -0.8106 -15.3747 -20.9056 -2.2759 1.8121 28.6667
#
#
#
# Elastic Compliance Matrix: (Units=1/GPa)
#
#
# Indices 1 2 3 4 5 6 
#
# 1 0.016953 -0.004639 -0.000055 0.000477 0.007947 -0.002513
# 2 -0.004639 0.019774 -0.015398 -0.000477 -0.013578 0.000065
# 3 -0.000055 -0.015398 0.025933 0.005034 0.018765 0.009866
# 4 0.000477 -0.000477 0.005034 0.024511 0.007231 0.004917
# 5 0.007947 -0.013578 0.018765 0.007231 0.038927 0.004741
# 6 -0.002513 0.000065 0.009866 0.004917 0.004741 0.042133
#
#
# Mechanical properties :
#
#
# Convention : Reuss Voigt Hill
#
# Bulk Modulus (GPa) = 44.49094 66.19479 55.34286
# Shear Modulus (GPa) = 23.15819 35.81992 29.48905
#
# Velocity S-wave (km/s) = 3.30710 4.11299 3.73187
# Velocity P-wave (km/s) = 5.96610 7.33604 6.68625
#
# Compressibility (1/GPa) = 0.02247649
#
# Stress axis : x y z
#
# Youngs Moduli (GPa) = 58.98721 50.57167 38.56117
#
# Poissons Ratio (x) = 0.23461 0.00211
# Poissons Ratio (y) = 0.27365 0.59376
# Poissons Ratio (z) = 0.00323 0.77869
#
# Static dielectric constant tensor:
#      x y z
#    x 1.886140 -0.003170 -0.006970 
#    y -0.003170 1.772540 0.007150 
#    z -0.006970 0.007150 1.802200 
# 
# From -- ./inp_files/529719.got.cif
#   From: 2010.05.17/outbox.cif.g08.bks.cpg/sg2_265_cif.got.tgz:529719.got - 2010.06.03 11:33:40.
