data_PCOD9023906
_publ_section_title
;
Structure prediction by ZEFSAII (Michael W. Deem and Ramdas Pophale) SiO2 
 PCOD9023906
Probable space group: P -1
;
_chemical_formula_sum "Si O2"
_cell_formula_units_Z 16
_cell_length_a 10.569523
_cell_length_b 13.875696
_cell_length_c 5.529642
_cell_angle_alpha 101.577258
_cell_angle_beta 115.257412
_cell_angle_gamma 59.456760
_cell_volume 631.540966
_symmetry_space_group_name_H-M "P -1"
_symmetry_group_IT_number 2
_symmetry_cell_setting 'triclinic'
loop_
_space_group_symop_operation_xyz
x,y,z
-x,-y,-z
loop_
_atom_site_type_symbol
_atom_site_label
_atom_site_fract_x
_atom_site_fract_y
_atom_site_fract_z
Si Si1 0.753223 0.829262 0.437470
Si Si2 0.463762 0.380727 0.115478
Si Si3 0.994630 0.329389 0.816046
Si Si4 0.940217 0.206131 0.096376
Si Si5 0.736001 0.437610 0.328648
Si Si6 0.703224 0.705753 0.718347
Si Si7 0.311505 0.862412 0.054323
Si Si8 0.585727 0.074001 0.316762
O O1 0.874145 0.761604 0.294680
O O2 0.699038 0.743527 0.458673
O O3 0.612520 0.950158 0.322565
O O4 0.871601 0.847526 0.728586
O O5 0.322834 0.467097 0.872831
O O6 0.571451 0.266787 0.996424
O O7 0.579599 0.433579 0.291880
O O8 0.392594 0.353742 0.282678
O O9 0.912207 0.262621 0.839431
O O10 0.857223 0.436413 0.627334
O O11 0.110056 0.353042 0.095169
O O12 0.861706 0.128723 0.046682
O O13 0.846204 0.317003 0.237595
O O14 0.596393 0.830473 0.810386
O O15 0.356523 0.891081 0.369612
O O16 0.321352 0.926998 0.853914
#
# Coordination Sequence:
#
# PCOD9023906 Si02
#       8
#     2   2   2   2   2   2   2   2
#     4  10  23  40  62  88 129 173 215 261 322 385
#     4   9  20  42  66  96 126 163 218 265 326 383
#     4  10  22  40  62  90 128 173 211 264 320 384
#     4   9  21  40  62  92 130 168 211 267 323 382
#     4   9  19  42  67  94 124 166 213 265 329 383
#     4  10  23  40  61  94 126 168 211 271 316 388
#     4  10  24  41  65  99 131 166 216 276 320 380
#     4  11  25  41  66  96 128 172 220 269 322 378
#
# _framework density 25.334859999999999
#
# number of rings (size 3 to 8) (size 9 to 14) (size 15 to 20)
#    0.000    2.250    0.000    0.375   14.000    2.000 
#    4.500    7.500    0.000    0.000    0.000    0.000 
#    0.000    0.000    0.000    0.000    0.000    0.000 
#
# Total GULP energy -89425.720288 kJ/mol
# GULP energy per Si atom -5589.107518 kJ/mol
# Density = 2.527720 g / cm^3
# Si number density = 25.334860 Si / 1000 Ang^3
#
#
#
# Elastic Constant Matrix: (Units=GPa)
#
#
# Indices 1 2 3 4 5 6 
#
# 1 149.4867 21.8282 58.5571 -12.5639 -15.6226 16.2586
# 2 21.8282 88.0691 40.3376 -9.4660 6.9153 -3.2153
# 3 58.5571 40.3376 83.2545 -11.7968 -12.2166 18.3416
# 4 -12.5639 -9.4660 -11.7968 44.1216 -9.2468 0.9355
# 5 -15.6226 6.9153 -12.2166 -9.2468 42.5172 -3.9540
# 6 16.2586 -3.2153 18.3416 0.9355 -3.9540 30.4839
#
#
#
# Elastic Compliance Matrix: (Units=1/GPa)
#
#
# Indices 1 2 3 4 5 6 
#
# 1 0.009479 0.000440 -0.006133 0.001573 0.001887 -0.001123
# 2 0.000440 0.016895 -0.010955 -0.000413 -0.005128 0.007487
# 3 -0.006133 -0.010955 0.026119 0.004592 0.006836 -0.012854
# 4 0.001573 -0.000413 0.004592 0.025848 0.007261 -0.003497
# 5 0.001887 -0.005128 0.006836 0.007261 0.028386 -0.002201
# 6 -0.001123 0.007487 -0.012854 -0.003497 -0.002201 0.041748
#
#
# Mechanical properties :
#
#
# Convention : Reuss Voigt Hill
#
# Bulk Modulus (GPa) = 52.09592 62.47289 57.28441
# Shear Modulus (GPa) = 26.57153 36.76369 31.66761
#
# Velocity S-wave (km/s) = 3.24205 3.81348 3.53932
# Velocity P-wave (km/s) = 5.88406 6.64097 6.27394
#
# Compressibility (1/GPa) = 0.01919536
#
# Stress axis : x y z
#
# Youngs Moduli (GPa) = 105.49190 59.18849 38.28694
#
# Poissons Ratio (x) = -0.02601 0.23482
# Poissons Ratio (y) = -0.04637 0.41944
# Poissons Ratio (z) = 0.64699 0.64843
#
# Static dielectric constant tensor:
#      x y z
#    x 1.959510 0.013720 0.009770 
#    y 0.013720 1.980310 0.018600 
#    z 0.009770 0.018600 2.136730 
# 
# From -- ./inp_files/76171.got.cif
#   From: 2010.05.17/outbox.cif.g08.bks.cpg/sg2_39_cif.got.tgz:76171.got - 2010.06.03 11:33:40.
