data_PCOD9023979
_publ_section_title
;
Structure prediction by ZEFSAII (Michael W. Deem and Ramdas Pophale) SiO2 
 PCOD9023979
Probable space group: P -1
;
_chemical_formula_sum "Si O2"
_cell_formula_units_Z 16
_cell_length_a 12.394276
_cell_length_b 19.015553
_cell_length_c 9.274555
_cell_angle_alpha 43.855855
_cell_angle_beta 69.625314
_cell_angle_gamma 36.712046
_cell_volume 753.062609
_symmetry_space_group_name_H-M "P -1"
_symmetry_group_IT_number 2
_symmetry_cell_setting 'triclinic'
loop_
_space_group_symop_operation_xyz
x,y,z
-x,-y,-z
loop_
_atom_site_type_symbol
_atom_site_label
_atom_site_fract_x
_atom_site_fract_y
_atom_site_fract_z
Si Si1 0.013970 0.629381 0.729646
Si Si2 0.052621 0.224831 0.960611
Si Si3 0.681551 0.889571 0.733612
Si Si4 0.391052 0.326390 0.452955
Si Si5 0.517962 0.761752 0.792684
Si Si6 0.821691 0.061711 0.809738
Si Si7 0.093386 0.052923 0.727416
Si Si8 0.710265 0.829305 0.316057
O O1 0.865918 0.702959 0.824248
O O2 0.980206 0.776538 0.516853
O O3 0.904160 0.668908 0.577874
O O4 0.264079 0.420353 0.950626
O O5 0.201770 0.164409 0.857718
O O6 0.828297 0.451486 0.736467
O O7 0.179076 0.146392 0.166575
O O8 0.028519 0.125896 0.076530
O O9 0.539771 0.075096 0.432153
O O10 0.500390 0.969557 0.797615
O O11 0.445387 0.301290 0.295419
O O12 0.584135 0.220996 0.619695
O O13 0.352674 0.234060 0.621418
O O14 0.307587 0.871443 0.802206
O O15 0.906196 0.113060 0.686914
O O16 0.843967 0.010155 0.041355
#
# Coordination Sequence:
#
# PCOD9023979 Si02
#       8
#     2   2   2   2   2   2   2   2
#     4  11  22  43  64  96 132 169 211 258 318 376
#     4  12  22  43  64  94 132 168 210 262 319 372
#     4  10  22  40  62  93 133 167 214 255 311 383
#     4  11  25  42  64  99 131 167 210 262 315 384
#     4  10  22  43  64  93 130 166 212 259 314 378
#     4  11  24  46  67  95 127 162 218 268 317 373
#     4  10  25  44  70  94 122 168 216 267 316 378
#     4  11  23  40  64  97 129 173 211 255 317 379
#
# _framework density 21.246575
#
# number of rings (size 3 to 8) (size 9 to 14) (size 15 to 20)
#    0.000    1.250    5.000    1.125    1.750    3.500 
#    4.500    3.750    0.000    0.000    0.000    0.000 
#    0.000    0.000    0.000    0.000    0.000    0.000 
#
# Total GULP energy -89518.233021 kJ/mol
# GULP energy per Si atom -5594.889564 kJ/mol
# Density = 2.119822 g / cm^3
# Si number density = 21.246575 Si / 1000 Ang^3
#
#
#
# Elastic Constant Matrix: (Units=GPa)
#
#
# Indices 1 2 3 4 5 6 
#
# 1 138.0824 24.3622 50.9931 -3.6237 19.3218 -6.6341
# 2 24.3622 68.9789 26.4659 -16.0782 -0.6527 -7.1795
# 3 50.9931 26.4659 99.8305 -21.5198 20.6892 -8.2538
# 4 -3.6237 -16.0782 -21.5198 36.2565 0.8267 6.6999
# 5 19.3218 -0.6527 20.6892 0.8267 30.1660 2.8055
# 6 -6.6341 -7.1795 -8.2538 6.6999 2.8055 20.8297
#
#
#
# Elastic Compliance Matrix: (Units=1/GPa)
#
#
# Indices 1 2 3 4 5 6 
#
# 1 0.009660 -0.002341 -0.003982 -0.002734 -0.003624 0.002059
# 2 -0.002341 0.017992 -0.002954 0.005536 0.003575 0.002023
# 3 -0.003982 -0.002954 0.016762 0.007885 -0.009514 0.003101
# 4 -0.002734 0.005536 0.007885 0.035793 -0.003883 -0.006828
# 5 -0.003624 0.003575 -0.009514 -0.003883 0.042945 -0.008227
# 6 0.002059 0.002023 0.003101 -0.006828 -0.008227 0.053895
#
#
# Mechanical properties :
#
#
# Convention : Reuss Voigt Hill
#
# Bulk Modulus (GPa) = 38.67055 56.72603 47.69829
# Shear Modulus (GPa) = 24.48329 31.12180 27.80254
#
# Velocity S-wave (km/s) = 3.39830 3.83141 3.62133
# Velocity P-wave (km/s) = 5.79985 6.80660 6.32329
#
# Compressibility (1/GPa) = 0.02585947
#
# Stress axis : x y z
#
# Youngs Moduli (GPa) = 103.52231 55.57922 59.65980
#
# Poissons Ratio (x) = 0.13012 0.23754
# Poissons Ratio (y) = 0.24237 0.17626
# Poissons Ratio (z) = 0.41218 0.16420
#
# Static dielectric constant tensor:
#      x y z
#    x 1.774950 0.024930 -0.005420 
#    y 0.024930 1.775760 0.010440 
#    z -0.005420 0.010440 1.765280 
# 
# From -- ./inp_files/279018.got.cif
#   From: 2010.05.17/outbox.cif.g08.bks.cpg/sg2_140_cif.got.tgz:279018.got - 2010.06.03 11:33:40.
