data_PCOD9023132
_publ_section_title
;
Structure prediction by ZEFSAII (Michael W. Deem and Ramdas Pophale) SiO2 
 PCOD9023132
Probable space group: P -1
;
_chemical_formula_sum "Si O2"
_cell_formula_units_Z 14
_cell_length_a 17.666305
_cell_length_b 8.098915
_cell_length_c 5.833522
_cell_angle_alpha 127.768097
_cell_angle_beta 95.051647
_cell_angle_gamma 68.058990
_cell_volume 600.608693
_symmetry_space_group_name_H-M "P -1"
_symmetry_group_IT_number 2
_symmetry_cell_setting 'triclinic'
loop_
_space_group_symop_operation_xyz
x,y,z
-x,-y,-z
loop_
_atom_site_type_symbol
_atom_site_label
_atom_site_fract_x
_atom_site_fract_y
_atom_site_fract_z
Si Si1 0.867717 0.106709 0.628581
Si Si2 0.470310 0.117275 0.335078
Si Si3 0.017654 0.805827 0.647956
Si Si4 0.279080 0.734445 0.595520
Si Si5 0.174114 0.513403 0.666958
Si Si6 0.311752 0.040841 0.261085
Si Si7 0.428407 0.639561 0.279680
O O1 0.927115 0.150413 0.497157
O O2 0.788227 0.111584 0.477403
O O3 0.838827 0.323126 0.977134
O O4 0.926912 0.872468 0.571762
O O5 0.373869 0.167519 0.349326
O O6 0.514188 0.290593 0.480700
O O7 0.500000 0.000000 0.500000
O O8 0.500000 0.000000 0.000000
O O9 0.082783 0.574740 0.584544
O O10 0.000000 0.000000 0.000000
O O11 0.230029 0.600752 0.591414
O O12 0.364466 0.570255 0.350044
O O13 0.298990 0.898503 0.920747
O O14 0.226190 0.245211 0.484252
O O15 0.361937 0.850659 0.299097
O O16 0.500000 0.500000 0.000000
#
# Coordination Sequence:
#
# PCOD9023132 Si02
#       7
#     2   2   2   2   2   2   2
#     4   9  18  36  65  95 126 165 211 256 320 391
#     4  10  22  44  64  91 128 176 222 282 339 402
#     4   8  16  35  63  96 127 164 205 254 318 393
#     4  11  23  41  64  93 128 168 218 272 327 393
#     4  10  22  39  66  94 128 169 211 266 328 388
#     4  11  25  42  61  92 131 166 221 274 332 395
#     4  11  26  44  64  90 128 176 223 279 335 396
#
# _framework density 23.309687
#
# number of rings (size 3 to 8) (size 9 to 14) (size 15 to 20)
#    0.000    2.000    1.429    0.857    4.000    5.143 
#    0.000    0.714    0.000   35.143    0.000    0.000 
#    0.000    0.000    0.000    0.000    0.000    0.000 
#
# Total GULP energy -77983.411299 kJ/mol
# GULP energy per Si atom -5570.243664 kJ/mol
# Density = 2.325663 g / cm^3
# Si number density = 23.309687 Si / 1000 Ang^3
#
#
#
# Elastic Constant Matrix: (Units=GPa)
#
#
# Indices 1 2 3 4 5 6 
#
# 1 136.3237 46.6030 44.9713 -5.1187 -13.8650 -20.8355
# 2 46.6030 137.4753 42.9185 9.9819 -6.5267 -27.5204
# 3 44.9713 42.9185 106.3667 -8.0114 -23.4756 -13.3783
# 4 -5.1187 9.9819 -8.0114 29.2489 -12.7763 -7.0626
# 5 -13.8650 -6.5267 -23.4756 -12.7763 51.4543 -12.5865
# 6 -20.8355 -27.5204 -13.3783 -7.0626 -12.5865 46.3549
#
#
#
# Elastic Compliance Matrix: (Units=1/GPa)
#
#
# Indices 1 2 3 4 5 6 
#
# 1 0.009845 -0.002128 -0.001455 0.004940 0.004071 0.004600
# 2 -0.002128 0.009891 -0.003334 -0.004494 -0.001239 0.002932
# 3 -0.001455 -0.003334 0.015325 0.011207 0.010514 0.006352
# 4 0.004940 -0.004494 0.011207 0.054177 0.023594 0.017448
# 5 0.004071 -0.001239 0.010514 0.023594 0.035261 0.017298
# 6 0.004600 0.002932 0.006352 0.017448 0.017298 0.034570
#
#
# Mechanical properties :
#
#
# Convention : Reuss Voigt Hill
#
# Bulk Modulus (GPa) = 47.10851 72.12795 59.61823
# Shear Modulus (GPa) = 27.78100 41.78980 34.78540
#
# Velocity S-wave (km/s) = 3.45602 4.23875 3.86724
# Velocity P-wave (km/s) = 6.01491 7.41394 6.75077
#
# Compressibility (1/GPa) = 0.02122759
#
# Stress axis : x y z
#
# Youngs Moduli (GPa) = 101.56952 101.10401 65.25140
#
# Poissons Ratio (x) = 0.21513 0.09493
# Poissons Ratio (y) = 0.21612 0.21757
# Poissons Ratio (z) = 0.14777 0.33711
#
# Static dielectric constant tensor:
#      x y z
#    x 1.871510 0.009690 -0.043400 
#    y 0.009690 1.987270 0.001700 
#    z -0.043400 0.001700 1.857340 
# 
# From -- ./inp_files/106062.got.cif
#   From: 2010.05.17/outbox.cif.g08.bks.cpg/sg2_54_cif.got.tgz:106062.got - 2010.06.03 11:33:40.
