data_PCOD9023569
_publ_section_title
;
Structure prediction by ZEFSAII (Michael W. Deem and Ramdas Pophale) SiO2 
 PCOD9023569
Probable space group: P -1
;
_chemical_formula_sum "Si O2"
_cell_formula_units_Z 12
_cell_length_a 11.375544
_cell_length_b 9.147635
_cell_length_c 9.371164
_cell_angle_alpha 132.025455
_cell_angle_beta 127.973591
_cell_angle_gamma 45.650493
_cell_volume 497.685220
_symmetry_space_group_name_H-M "P -1"
_symmetry_group_IT_number 2
_symmetry_cell_setting 'triclinic'
loop_
_space_group_symop_operation_xyz
x,y,z
-x,-y,-z
loop_
_atom_site_type_symbol
_atom_site_label
_atom_site_fract_x
_atom_site_fract_y
_atom_site_fract_z
Si Si1 0.610245 0.591070 0.056288
Si Si2 0.737420 0.133799 0.762947
Si Si3 0.878483 0.900345 0.303644
Si Si4 0.115770 0.308490 0.568819
Si Si5 0.523134 0.264120 0.418100
Si Si6 0.695006 0.963565 0.929160
O O1 0.703843 0.692787 0.288921
O O2 0.473735 0.797855 0.994561
O O3 0.500000 0.500000 0.000000
O O4 0.753949 0.357755 0.940908
O O5 0.569199 0.229796 0.598737
O O6 0.730874 0.028568 0.841508
O O7 0.872179 0.919243 0.634705
O O8 0.941567 0.676129 0.299862
O O9 0.689929 0.068878 0.336386
O O10 0.000000 0.000000 0.500000
O O11 0.845724 0.891017 0.107007
O O12 0.000000 0.500000 0.500000
O O13 0.500000 0.500000 0.500000
O O14 0.365812 0.221424 0.245654
#
# Coordination Sequence:
#
# PCOD9023569 Si02
#       6
#     2   2   2   2   2   2
#     4  10  22  39  73 100 130 171 226 279 342 394
#     4  10  23  42  70 101 132 172 227 275 344 396
#     4  11  26  45  63  95 143 182 220 282 344 395
#     4  11  26  46  66  96 140 179 226 279 339 407
#     4  11  23  41  71 101 135 174 232 283 337 404
#     4  11  22  44  71 100 135 174 230 284 337 409
#
# _framework density 24.111626999999999
#
# number of rings (size 3 to 8) (size 9 to 14) (size 15 to 20)
#    0.000    1.333    3.333    2.000    9.333    2.000 
#    3.000    1.667    0.000    0.000    0.000    0.000 
#    0.000    0.000    0.000    0.000    0.000    0.000 
#
# Total GULP energy -67028.003308 kJ/mol
# GULP energy per Si atom -5585.666942 kJ/mol
# Density = 2.405675 g / cm^3
# Si number density = 24.111627 Si / 1000 Ang^3
#
#
#
# Elastic Constant Matrix: (Units=GPa)
#
#
# Indices 1 2 3 4 5 6 
#
# 1 73.2384 22.8877 50.2946 -20.3556 4.2465 30.4150
# 2 22.8877 139.5300 61.6855 -17.0710 -3.0502 41.8087
# 3 50.2946 61.6855 131.2286 -30.1262 -0.9380 36.6830
# 4 -20.3556 -17.0710 -30.1262 63.9331 3.8705 -11.0118
# 5 4.2465 -3.0502 -0.9380 3.8705 34.2737 5.7889
# 6 30.4150 41.8087 36.6830 -11.0118 5.7889 39.6016
#
#
#
# Elastic Compliance Matrix: (Units=1/GPa)
#
#
# Indices 1 2 3 4 5 6 
#
# 1 0.024078 0.003857 -0.005758 0.003204 -0.000410 -0.016280
# 2 0.003857 0.011957 -0.003438 0.000466 0.002576 -0.012649
# 3 -0.005758 -0.003438 0.013032 0.002740 0.001030 -0.003409
# 4 0.003204 0.000466 0.002740 0.018202 -0.002321 -0.000091
# 5 -0.000410 0.002576 0.001030 -0.002321 0.031194 -0.008565
# 6 -0.016280 -0.012649 -0.003409 -0.000091 -0.008565 0.055493
#
#
# Mechanical properties :
#
#
# Convention : Reuss Voigt Hill
#
# Bulk Modulus (GPa) = 26.04790 68.19252 47.12021
# Shear Modulus (GPa) = 28.18009 41.50363 34.84186
#
# Velocity S-wave (km/s) = 3.42238 4.15337 3.80547
# Velocity P-wave (km/s) = 5.14232 7.16548 6.23649
#
# Compressibility (1/GPa) = 0.03839080
#
# Stress axis : x y z
#
# Youngs Moduli (GPa) = 41.53217 83.62995 76.73195
#
# Poissons Ratio (x) = -0.32257 0.44180
# Poissons Ratio (y) = -0.16019 0.26379
# Poissons Ratio (z) = 0.23913 0.28750
#
# Static dielectric constant tensor:
#      x y z
#    x 2.001850 -0.052480 -0.098230 
#    y -0.052480 1.967350 0.026000 
#    z -0.098230 0.026000 1.963870 
# 
# From -- ./inp_files/158318.got.cif
#   From: 2010.05.17/outbox.cif.g08.bks.cpg/sg2_80_cif.got.tgz:158318.got - 2010.06.03 11:33:40.
