data_PCOD9023877
_publ_section_title
;
Structure prediction by ZEFSAII (Michael W. Deem and Ramdas Pophale) SiO2 
 PCOD9023877
Probable space group: P -1
;
_chemical_formula_sum "Si O2"
_cell_formula_units_Z 16
_cell_length_a 24.309198
_cell_length_b 4.804597
_cell_length_c 5.571110
_cell_angle_alpha 95.115144
_cell_angle_beta 70.242201
_cell_angle_gamma 88.419275
_cell_volume 608.780748
_symmetry_space_group_name_H-M "P -1"
_symmetry_group_IT_number 2
_symmetry_cell_setting 'triclinic'
loop_
_space_group_symop_operation_xyz
x,y,z
-x,-y,-z
loop_
_atom_site_type_symbol
_atom_site_label
_atom_site_fract_x
_atom_site_fract_y
_atom_site_fract_z
Si Si1 0.016422 0.759406 0.268714
Si Si2 0.787132 0.181869 0.687775
Si Si3 0.422285 0.768989 0.505837
Si Si4 0.322216 0.383012 0.639872
Si Si5 0.295466 0.288439 0.175114
Si Si6 0.485422 0.242688 0.228461
Si Si7 0.077852 0.234510 0.993535
Si Si8 0.185188 0.585840 0.836768
O O1 0.047488 0.455736 0.249169
O O2 0.064712 0.918391 0.052189
O O3 0.000000 0.000000 0.500000
O O4 0.959499 0.711866 0.189427
O O5 0.727638 0.386264 0.778977
O O6 0.819210 0.242568 0.394820
O O7 0.763460 0.877258 0.731641
O O8 0.821306 0.252821 0.885635
O O9 0.358046 0.659957 0.606602
O O10 0.453946 0.546478 0.251166
O O11 0.457067 0.707681 0.697290
O O12 0.438065 0.083393 0.449074
O O13 0.331909 0.229203 0.358086
O O14 0.252500 0.463604 0.738263
O O15 0.329227 0.229454 0.873454
O O16 0.500000 0.000000 0.000000
O O17 0.142201 0.334949 0.878506
#
# Coordination Sequence:
#
# PCOD9023877 Si02
#       8
#     2   2   2   2   2   2   2   2
#     4  10  22  43  66  91 130 166 225 272 329 384
#     4  10  22  40  62  88 131 174 212 259 316 388
#     4  10  23  40  65  98 124 173 217 272 329 392
#     4  10  23  43  66  99 136 171 218 268 331 401
#     4  10  22  40  62  88 131 174 212 259 316 388
#     4  10  22  43  66  91 130 166 225 272 329 384
#     4  10  23  40  65  98 124 173 217 272 329 392
#     4  10  23  43  66  99 136 171 218 268 331 401
#
# _framework density 26.282038
#
# number of rings (size 3 to 8) (size 9 to 14) (size 15 to 20)
#    0.000    2.000    0.000    1.500    3.500    8.000 
#    4.500    0.000    0.000    0.000    0.000    0.000 
#    0.000    0.000    0.000    0.000    0.000    0.000 
#
# Total GULP energy -89480.935590 kJ/mol
# GULP energy per Si atom -5592.558474 kJ/mol
# Density = 2.622222 g / cm^3
# Si number density = 26.282038 Si / 1000 Ang^3
#
#
#
# Elastic Constant Matrix: (Units=GPa)
#
#
# Indices 1 2 3 4 5 6 
#
# 1 117.6201 35.7115 29.4484 -0.9221 1.0167 50.6246
# 2 35.7115 162.6098 29.9187 -2.9876 0.0656 28.0959
# 3 29.4484 29.9187 171.6608 9.3890 30.6630 18.4800
# 4 -0.9221 -2.9876 9.3890 48.0048 1.1769 -3.9621
# 5 1.0167 0.0656 30.6630 1.1769 38.5522 1.4259
# 6 50.6246 28.0959 18.4800 -3.9621 1.4259 60.1488
#
#
#
# Elastic Compliance Matrix: (Units=1/GPa)
#
#
# Indices 1 2 3 4 5 6 
#
# 1 0.013718 -0.000939 -0.001178 -0.000480 0.000991 -0.010801
# 2 -0.000939 0.006913 -0.000992 0.000409 0.000868 -0.002128
# 3 -0.001178 -0.000992 0.007395 -0.001453 -0.005776 -0.000776
# 4 -0.000480 0.000409 -0.001453 0.021290 0.000442 0.002052
# 5 0.000991 0.000868 -0.005776 0.000442 0.030498 -0.000159
# 6 -0.010801 -0.002128 -0.000776 0.002052 -0.000159 0.027087
#
#
# Mechanical properties :
#
#
# Convention : Reuss Voigt Hill
#
# Bulk Modulus (GPa) = 45.85311 71.33865 58.59588
# Shear Modulus (GPa) = 41.53184 53.12862 47.33023
#
# Velocity S-wave (km/s) = 3.97953 4.50097 4.24826
# Velocity P-wave (km/s) = 6.21289 7.36302 6.81227
#
# Compressibility (1/GPa) = 0.02180877
#
# Stress axis : x y z
#
# Youngs Moduli (GPa) = 72.89510 144.64901 135.22285
#
# Poissons Ratio (x) = 0.13584 0.15924
# Poissons Ratio (y) = 0.06846 0.13418
# Poissons Ratio (z) = 0.08584 0.14353
#
# Static dielectric constant tensor:
#      x y z
#    x 2.064980 -0.083380 -0.048150 
#    y -0.083380 1.992290 0.002480 
#    z -0.048150 0.002480 2.266550 
# 
# From -- ./inp_files/125610.got.cif
#   From: 2010.05.17/outbox.cif.g08.bks.cpg/sg2_63_cif.got.tgz:125610.got - 2010.06.03 11:33:40.
