data_PCOD9023896
_publ_section_title
;
Structure prediction by ZEFSAII (Michael W. Deem and Ramdas Pophale) SiO2 
 PCOD9023896
Probable space group: P -1
;
_chemical_formula_sum "Si O2"
_cell_formula_units_Z 15
_cell_length_a 9.042036
_cell_length_b 6.455874
_cell_length_c 16.666869
_cell_angle_alpha 81.562249
_cell_angle_beta 111.421156
_cell_angle_gamma 129.073246
_cell_volume 698.432741
_symmetry_space_group_name_H-M "P -1"
_symmetry_group_IT_number 2
_symmetry_cell_setting 'triclinic'
loop_
_space_group_symop_operation_xyz
x,y,z
-x,-y,-z
loop_
_atom_site_type_symbol
_atom_site_label
_atom_site_fract_x
_atom_site_fract_y
_atom_site_fract_z
Si Si1 0.730587 0.791319 0.149585
Si Si2 0.726222 0.198122 0.438911
Si Si3 0.000000 0.000000 0.500000
Si Si4 0.895880 0.701626 0.336722
Si Si5 0.077709 0.398596 0.210801
Si Si6 0.268678 0.375815 0.099749
Si Si7 0.988515 0.226708 0.915532
Si Si8 0.254652 0.724762 0.380522
O O1 0.760001 0.665477 0.238987
O O2 0.491377 0.620542 0.100088
O O3 0.846384 0.777492 0.099723
O O4 0.860270 0.105251 0.178013
O O5 0.852568 0.089151 0.476992
O O6 0.809184 0.417495 0.374497
O O7 0.749315 0.337665 0.522018
O O8 0.489126 0.956194 0.393865
O O9 0.092795 0.118673 0.601620
O O10 0.120004 0.824298 0.341653
O O11 0.233907 0.402902 0.184394
O O12 0.157153 0.482799 0.312595
O O13 0.060024 0.612647 0.155946
O O14 0.097286 0.354805 0.014809
O O15 0.209507 0.082893 0.094615
#
# Coordination Sequence:
#
# PCOD9023896 Si02
#       8
#     2   2   1   2   2   2   2   2
#     4  11  25  39  65  99 127 168 214 262 316 379
#     4  10  24  43  65  90 125 174 205 264 315 372
#     4  10  22  40  62  90 118 158 214 252 306 370
#     4  11  24  40  63  90 130 165 208 262 314 373
#     4  11  24  39  65  96 130 164 214 268 308 383
#     4  10  24  42  67  95 126 168 215 257 327 380
#     4  10  22  46  65  91 132 168 207 269 317 382
#     4  10  22  44  62  91 130 164 213 257 320 366
#
# _framework density 21.476655999999998
#
# number of rings (size 3 to 8) (size 9 to 14) (size 15 to 20)
#    0.000    1.600    1.333    2.400    7.467    1.600 
#    0.000    4.000    0.000    0.000    0.000    0.000 
#    0.000    0.000    0.000    0.000    0.000    0.000 
#
# Total GULP energy -83591.347013 kJ/mol
# GULP energy per Si atom -5572.756468 kJ/mol
# Density = 2.142777 g / cm^3
# Si number density = 21.476656 Si / 1000 Ang^3
#
#
#
# Elastic Constant Matrix: (Units=GPa)
#
#
# Indices 1 2 3 4 5 6 
#
# 1 59.4960 35.8655 9.9731 10.2440 -7.5300 9.5333
# 2 35.8655 90.5506 23.4841 1.2154 9.0496 22.9126
# 3 9.9731 23.4841 77.6796 6.5435 -12.2783 -12.7179
# 4 10.2440 1.2154 6.5435 37.9183 -10.2232 4.7387
# 5 -7.5300 9.0496 -12.2783 -10.2232 33.0850 4.9035
# 6 9.5333 22.9126 -12.7179 4.7387 4.9035 25.7772
#
#
#
# Elastic Compliance Matrix: (Units=1/GPa)
#
#
# Indices 1 2 3 4 5 6 
#
# 1 0.025026 -0.011600 0.002207 -0.004808 0.007978 0.001510
# 2 -0.011600 0.025477 -0.011881 0.004849 -0.009053 -0.023387
# 3 0.002207 -0.011881 0.020880 -0.004282 0.007296 0.019445
# 4 -0.004808 0.004849 -0.004282 0.031790 0.007582 -0.011931
# 5 0.007978 -0.009053 0.007296 0.007582 0.039602 -0.000231
# 6 0.001510 -0.023387 0.019445 -0.011931 -0.000231 0.070855
#
#
# Mechanical properties :
#
#
# Convention : Reuss Voigt Hill
#
# Bulk Modulus (GPa) = 34.68072 40.70795 37.69433
# Shear Modulus (GPa) = 18.81198 29.91633 24.36415
#
# Velocity S-wave (km/s) = 2.96282 3.73630 3.37181
# Velocity P-wave (km/s) = 5.28086 6.13261 5.72261
#
# Compressibility (1/GPa) = 0.02883447
#
# Stress axis : x y z
#
# Youngs Moduli (GPa) = 39.95846 39.25137 47.89382
#
# Poissons Ratio (x) = 0.45530 -0.10571
# Poissons Ratio (y) = 0.46351 0.56904
# Poissons Ratio (z) = -0.08819 0.46636
#
# Static dielectric constant tensor:
#      x y z
#    x 1.766330 -0.002630 -0.015600 
#    y -0.002630 1.814010 -0.002750 
#    z -0.015600 -0.002750 1.838700 
# 
# From -- ./inp_files/323293.got.cif
#   From: 2010.05.17/outbox.cif.g08.bks.cpg/sg2_162_cif.got.tgz:323293.got - 2010.06.03 11:33:40.
