data_PCOD9023420
_publ_section_title
;
Structure prediction by ZEFSAII (Michael W. Deem and Ramdas Pophale) SiO2 
 PCOD9023420
Probable space group: P -1
;
_chemical_formula_sum "Si O2"
_cell_formula_units_Z 16
_cell_length_a 11.855627
_cell_length_b 19.539521
_cell_length_c 9.955305
_cell_angle_alpha 50.648259
_cell_angle_beta 135.681792
_cell_angle_gamma 154.905145
_cell_volume 682.589486
_symmetry_space_group_name_H-M "P -1"
_symmetry_group_IT_number 2
_symmetry_cell_setting 'triclinic'
loop_
_space_group_symop_operation_xyz
x,y,z
-x,-y,-z
loop_
_atom_site_type_symbol
_atom_site_label
_atom_site_fract_x
_atom_site_fract_y
_atom_site_fract_z
Si Si1 0.377065 0.422603 0.636023
Si Si2 0.159854 0.232453 0.014622
Si Si3 0.745223 0.526806 0.289544
Si Si4 0.384927 0.770448 0.576415
Si Si5 0.735204 0.096489 0.389125
Si Si6 0.400818 0.098632 0.949316
Si Si7 0.272585 0.066999 0.597408
Si Si8 0.386074 0.239748 0.974347
O O1 0.500000 0.500000 0.500000
O O2 0.499701 0.379139 0.163819
O O3 0.417279 0.520599 0.652433
O O4 0.512455 0.393633 0.846416
O O5 0.135816 0.324529 0.849116
O O6 0.112818 0.149459 0.945855
O O7 0.442105 0.184005 0.466469
O O8 0.919161 0.094266 0.087651
O O9 0.037653 0.606688 0.462991
O O10 0.505811 0.927988 0.484154
O O11 0.455817 0.753482 0.795744
O O12 0.823777 0.072473 0.370002
O O13 0.598369 0.122159 0.175943
O O14 0.025519 0.248627 0.532787
O O15 0.488013 0.153264 0.801336
O O16 0.352726 0.169073 0.898001
O O17 0.000000 0.000000 0.500000
#
# Coordination Sequence:
#
# PCOD9023420 Si02
#       8
#     2   2   2   2   2   2   2   2
#     4  11  26  47  69 101 138 184 241 285 357 420
#     4  10  22  39  68  99 139 186 232 276 344 423
#     4  10  22  43  67  98 141 192 224 282 348 413
#     4  10  23  43  69 105 140 178 236 282 346 419
#     4  10  24  41  70 101 139 181 233 287 348 408
#     4  12  22  41  71 105 138 180 240 287 347 407
#     4  10  22  40  65 106 139 181 227 290 343 401
#     4  11  25  42  71 102 133 186 231 293 348 412
#
# _framework density 23.440152000000001
#
# number of rings (size 3 to 8) (size 9 to 14) (size 15 to 20)
#    0.750    0.750    1.250    3.000    7.000    1.500 
#    6.750    2.500    0.000    0.000    0.000    0.000 
#    0.000    0.000    0.000    0.000    0.000    0.000 
#
# Total GULP energy -89350.622664 kJ/mol
# GULP energy per Si atom -5584.413917 kJ/mol
# Density = 2.338680 g / cm^3
# Si number density = 23.440152 Si / 1000 Ang^3
#
#
#
# Elastic Constant Matrix: (Units=GPa)
#
#
# Indices 1 2 3 4 5 6 
#
# 1 115.3166 17.7822 12.5669 -14.6751 -6.6325 -10.8719
# 2 17.7822 45.9633 30.4609 7.6710 -3.1074 7.3222
# 3 12.5669 30.4609 129.7987 -6.6491 -13.7852 4.7699
# 4 -14.6751 7.6710 -6.6491 34.5311 2.5160 -7.9128
# 5 -6.6325 -3.1074 -13.7852 2.5160 39.5936 -5.0386
# 6 -10.8719 7.3222 4.7699 -7.9128 -5.0386 31.9800
#
#
#
# Elastic Compliance Matrix: (Units=1/GPa)
#
#
# Indices 1 2 3 4 5 6 
#
# 1 0.011760 -0.007858 0.001085 0.008653 0.002215 0.008125
# 2 -0.007858 0.034635 -0.007884 -0.015514 -0.002087 -0.013593
# 3 0.001085 -0.007884 0.009914 0.004421 0.003022 0.002265
# 4 0.008653 -0.015514 0.004421 0.040523 0.001239 0.016056
# 5 0.002215 -0.002087 0.003022 0.001239 0.027119 0.005360
# 6 0.008125 -0.013593 0.002265 0.016056 0.005360 0.041623
#
#
# Mechanical properties :
#
#
# Convention : Reuss Voigt Hill
#
# Bulk Modulus (GPa) = 37.04313 45.85540 41.44926
# Shear Modulus (GPa) = 24.52360 36.57217 30.54789
#
# Velocity S-wave (km/s) = 3.23804 3.95427 3.61394
# Velocity P-wave (km/s) = 5.46054 6.36031 5.92752
#
# Compressibility (1/GPa) = 0.02699556
#
# Stress axis : x y z
#
# Youngs Moduli (GPa) = 85.03617 28.87255 100.87217
#
# Poissons Ratio (x) = 0.22687 -0.10948
# Poissons Ratio (y) = 0.66817 0.79529
# Poissons Ratio (z) = -0.09229 0.22764
#
# Static dielectric constant tensor:
#      x y z
#    x 1.941690 -0.047950 0.018640 
#    y -0.047950 1.870120 -0.017570 
#    z 0.018640 -0.017570 1.932690 
# 
# From -- ./inp_files/439021.got.cif
#   From: 2010.05.17/outbox.cif.g08.bks.cpg/sg2_220_cif.got.tgz:439021.got - 2010.06.03 11:33:40.
