data_PCOD9023527
_publ_section_title
;
Structure prediction by ZEFSAII (Michael W. Deem and Ramdas Pophale) SiO2 
 PCOD9023527
Probable space group: P -1
;
_chemical_formula_sum "Si O2"
_cell_formula_units_Z 14
_cell_length_a 9.346434
_cell_length_b 5.901540
_cell_length_c 12.324100
_cell_angle_alpha 99.479452
_cell_angle_beta 71.277612
_cell_angle_gamma 105.991903
_cell_volume 616.716636
_symmetry_space_group_name_H-M "P -1"
_symmetry_group_IT_number 2
_symmetry_cell_setting 'triclinic'
loop_
_space_group_symop_operation_xyz
x,y,z
-x,-y,-z
loop_
_atom_site_type_symbol
_atom_site_label
_atom_site_fract_x
_atom_site_fract_y
_atom_site_fract_z
Si Si1 0.808169 0.473325 0.319880
Si Si2 0.488943 0.220731 0.441561
Si Si3 0.156261 0.263801 0.876098
Si Si4 0.131834 0.357159 0.224726
Si Si5 0.646005 0.386609 0.970595
Si Si6 0.152267 0.210645 0.455295
Si Si7 0.811331 0.056143 0.976237
O O1 0.648129 0.275117 0.338450
O O2 0.799500 0.683022 0.254694
O O3 0.841211 0.585671 0.440363
O O4 0.959033 0.382255 0.246246
O O5 0.500000 0.500000 0.500000
O O6 0.318642 0.143322 0.423097
O O7 0.500000 0.000000 0.500000
O O8 0.973442 0.246890 0.933873
O O9 0.256708 0.467014 0.942444
O O10 0.187678 0.033338 0.908407
O O11 0.258266 0.578450 0.163132
O O12 0.145374 0.306841 0.343620
O O13 0.167260 0.147661 0.127216
O O14 0.656098 0.129950 0.987682
O O15 0.500000 0.500000 0.000000
O O16 0.000000 0.000000 0.500000
#
# Coordination Sequence:
#
# PCOD9023527 Si02
#       7
#     2   2   2   2   2   2   2
#     4  11  23  44  72 106 146 189 246 296 366 441
#     4  10  24  47  68 102 145 190 249 301 356 435
#     4  10  22  39  70  98 130 183 231 298 345 432
#     4  11  24  41  69  99 136 186 231 294 356 434
#     4  11  25  44  65  98 140 176 231 296 362 426
#     4  11  24  44  72 107 144 194 237 299 366 440
#     4  10  22  43  67  99 133 181 246 286 364 424
#
# _framework density 22.700862999999998
#
# number of rings (size 3 to 8) (size 9 to 14) (size 15 to 20)
#    0.000    1.429    1.429    2.571    6.000    4.571 
#    0.000    1.429    0.000    0.000    0.000    0.000 
#    0.000    0.000    0.000    0.000    0.000    0.000 
#
# Total GULP energy -78105.494878 kJ/mol
# GULP energy per Si atom -5578.963920 kJ/mol
# Density = 2.264919 g / cm^3
# Si number density = 22.700863 Si / 1000 Ang^3
#
#
#
# Elastic Constant Matrix: (Units=GPa)
#
#
# Indices 1 2 3 4 5 6 
#
# 1 195.3639 59.7357 39.6092 -28.1134 -14.3540 -15.2369
# 2 59.7357 65.8874 36.3463 -13.8136 4.3851 -20.4146
# 3 39.6092 36.3463 126.5426 -27.6978 19.8241 -13.3266
# 4 -28.1134 -13.8136 -27.6978 44.4275 -1.6451 5.0566
# 5 -14.3540 4.3851 19.8241 -1.6451 35.7308 -2.3569
# 6 -15.2369 -20.4146 -13.3266 5.0566 -2.3569 45.8678
#
#
#
# Elastic Compliance Matrix: (Units=1/GPa)
#
#
# Indices 1 2 3 4 5 6 
#
# 1 0.008026 -0.006794 -0.000740 0.002746 0.004553 -0.000642
# 2 -0.006794 0.026346 -0.004011 0.000351 -0.003187 0.008101
# 3 -0.000740 -0.004011 0.011363 0.005105 -0.005848 0.000407
# 4 0.002746 0.000351 0.005105 0.027577 -0.000537 -0.000516
# 5 0.004553 -0.003187 -0.005848 -0.000537 0.033438 0.000173
# 6 -0.000642 0.008101 0.000407 -0.000516 0.000173 0.025378
#
#
# Mechanical properties :
#
#
# Convention : Reuss Voigt Hill
#
# Bulk Modulus (GPa) = 44.16441 73.24182 58.70311
# Shear Modulus (GPa) = 30.71870 42.01207 36.36538
#
# Velocity S-wave (km/s) = 3.68257 4.30662 4.00676
# Velocity P-wave (km/s) = 6.13017 7.55402 6.87903
#
# Compressibility (1/GPa) = 0.02264267
#
# Stress axis : x y z
#
# Youngs Moduli (GPa) = 124.59728 37.95676 88.00662
#
# Poissons Ratio (x) = 0.25788 0.06517
# Poissons Ratio (y) = 0.84653 0.35302
# Poissons Ratio (z) = 0.09226 0.15225
#
# Static dielectric constant tensor:
#      x y z
#    x 1.866660 0.000440 -0.042300 
#    y 0.000440 2.007180 -0.013330 
#    z -0.042300 -0.013330 1.828580 
# 
# From -- ./inp_files/373040.got.cif
#   From: 2010.05.17/outbox.cif.g08.bks.cpg/sg2_187_cif.got.tgz:373040.got - 2010.06.03 11:33:40.
