data_PCOD9023855
_publ_section_title
;
Structure prediction by ZEFSAII (Michael W. Deem and Ramdas Pophale) SiO2 
 PCOD9023855
Probable space group: P -1
;
_chemical_formula_sum "Si O2"
_cell_formula_units_Z 16
_cell_length_a 11.021767
_cell_length_b 6.683592
_cell_length_c 12.308112
_cell_angle_alpha 128.296605
_cell_angle_beta 71.408039
_cell_angle_gamma 106.348525
_cell_volume 670.134322
_symmetry_space_group_name_H-M "P -1"
_symmetry_group_IT_number 2
_symmetry_cell_setting 'triclinic'
loop_
_space_group_symop_operation_xyz
x,y,z
-x,-y,-z
loop_
_atom_site_type_symbol
_atom_site_label
_atom_site_fract_x
_atom_site_fract_y
_atom_site_fract_z
Si Si1 0.478909 0.019800 0.642421
Si Si2 0.501137 0.621021 0.844014
Si Si3 0.205767 0.211698 0.244663
Si Si4 0.097758 0.504381 0.871168
Si Si5 0.698438 0.308662 0.262579
Si Si6 0.727072 0.343173 0.960172
Si Si7 0.886546 0.372366 0.719083
Si Si8 0.749060 0.844225 0.542794
O O1 0.353056 0.856815 0.674499
O O2 0.604935 0.918158 0.623828
O O3 0.500000 0.000000 0.500000
O O4 0.482125 0.317460 0.763904
O O5 0.650603 0.694339 0.806182
O O6 0.420555 0.705363 0.791889
O O7 0.424760 0.727623 0.003126
O O8 0.104471 0.377536 0.274160
O O9 0.201249 0.247242 0.387155
O O10 0.199552 0.908554 0.124727
O O11 0.171358 0.739625 0.855849
O O12 0.010693 0.351082 0.751877
O O13 0.221251 0.451904 0.892466
O O14 0.000000 0.500000 0.000000
O O15 0.732545 0.606517 0.386555
O O16 0.773943 0.421327 0.854175
O O17 0.838061 0.110133 0.581592
#
# Coordination Sequence:
#
# PCOD9023855 Si02
#       8
#     2   2   2   2   2   2   2   2
#     4  12  22  37  63  96 131 166 203 253 315 378
#     4  11  21  37  60  93 128 163 204 255 314 377
#     4  11  21  37  59  88 128 167 198 255 317 368
#     4   9  21  46  67  88 122 165 217 262 306 360
#     4  11  23  39  66  95 127 166 207 256 310 373
#     4   9  22  38  60  90 118 161 212 258 309 364
#     4  10  22  40  62  86 124 169 204 259 308 364
#     4  11  22  38  59  95 129 160 205 255 315 373
#
# _framework density 23.875809
#
# number of rings (size 3 to 8) (size 9 to 14) (size 15 to 20)
#    0.000    1.500    3.750    1.500    0.000    3.500 
#    0.000    8.125    0.000    0.000    0.000    0.000 
#    0.000    0.000    0.000    0.000    0.000    0.000 
#
# Total GULP energy -89157.850921 kJ/mol
# GULP energy per Si atom -5572.365683 kJ/mol
# Density = 2.382147 g / cm^3
# Si number density = 23.875809 Si / 1000 Ang^3
#
#
#
# Elastic Constant Matrix: (Units=GPa)
#
#
# Indices 1 2 3 4 5 6 
#
# 1 62.8059 25.6708 14.8671 -0.4358 4.1183 18.7197
# 2 25.6708 106.4121 28.5338 -12.1282 -2.7139 2.9569
# 3 14.8671 28.5338 56.7438 -8.8537 12.8068 -5.4807
# 4 -0.4358 -12.1282 -8.8537 34.7794 8.9097 -2.7789
# 5 4.1183 -2.7139 12.8068 8.9097 33.3738 -7.9657
# 6 18.7197 2.9569 -5.4807 -2.7789 -7.9657 34.9858
#
#
#
# Elastic Compliance Matrix: (Units=1/GPa)
#
#
# Indices 1 2 3 4 5 6 
#
# 1 0.023206 -0.004335 -0.004716 -0.002493 -0.004061 -0.013912
# 2 -0.004335 0.012137 -0.005251 0.002105 0.003307 0.001391
# 3 -0.004716 -0.005251 0.025570 0.007719 -0.010477 0.005201
# 4 -0.002493 0.002105 0.007719 0.034462 -0.011067 0.002582
# 5 -0.004061 0.003307 -0.010477 -0.011067 0.039717 0.008416
# 6 -0.013912 0.001391 0.005201 0.002582 0.008416 0.038845
#
#
# Mechanical properties :
#
#
# Convention : Reuss Voigt Hill
#
# Bulk Modulus (GPa) = 30.95079 40.45616 35.70347
# Shear Modulus (GPa) = 23.44004 31.08713 27.26359
#
# Velocity S-wave (km/s) = 3.13669 3.61229 3.38285
# Velocity P-wave (km/s) = 5.10977 5.86339 5.49951
#
# Compressibility (1/GPa) = 0.03230935
#
# Stress axis : x y z
#
# Youngs Moduli (GPa) = 43.09295 82.39485 39.10788
#
# Poissons Ratio (x) = 0.35715 0.18445
# Poissons Ratio (y) = 0.18679 0.20535
# Poissons Ratio (z) = 0.20324 0.43263
#
# Static dielectric constant tensor:
#      x y z
#    x 1.934430 0.043330 0.010700 
#    y 0.043330 1.929660 -0.002960 
#    z 0.010700 -0.002960 2.029810 
# 
# From -- ./inp_files/71031.got.cif
#   From: 2010.05.17/outbox.cif.g08.bks.cpg/sg2_36_cif.got.tgz:71031.got - 2010.06.03 11:33:40.
