data_PCOD9023508
_publ_section_title
;
Structure prediction by ZEFSAII (Michael W. Deem and Ramdas Pophale) SiO2 
 PCOD9023508
Probable space group: P -1
;
_chemical_formula_sum "Si O2"
_cell_formula_units_Z 14
_cell_length_a 9.072867
_cell_length_b 8.265311
_cell_length_c 14.800528
_cell_angle_alpha 97.357005
_cell_angle_beta 121.398297
_cell_angle_gamma 41.137454
_cell_volume 549.879141
_symmetry_space_group_name_H-M "P -1"
_symmetry_group_IT_number 2
_symmetry_cell_setting 'triclinic'
loop_
_space_group_symop_operation_xyz
x,y,z
-x,-y,-z
loop_
_atom_site_type_symbol
_atom_site_label
_atom_site_fract_x
_atom_site_fract_y
_atom_site_fract_z
Si Si1 0.299312 0.749619 0.631753
Si Si2 0.329215 0.393002 0.134039
Si Si3 0.385885 0.401372 0.442805
Si Si4 0.720380 0.800982 0.269887
Si Si5 0.443475 0.805732 0.335711
Si Si6 0.966100 0.983658 0.092960
Si Si7 0.370993 0.276264 0.949580
O O1 0.353879 0.759516 0.753589
O O2 0.520135 0.694456 0.637832
O O3 0.378133 0.500596 0.636156
O O4 0.000000 0.000000 0.500000
O O5 0.114194 0.690019 0.132718
O O6 0.441920 0.128866 0.180256
O O7 0.202611 0.465198 0.998259
O O8 0.500000 0.500000 0.500000
O O9 0.555669 0.162717 0.554503
O O10 0.037654 0.646471 0.364703
O O11 0.624478 0.791025 0.331321
O O12 0.759291 0.648657 0.185960
O O13 0.131572 0.992688 0.205926
O O14 0.000000 0.000000 0.000000
O O15 0.628730 0.211332 0.021555
O O16 0.500000 0.000000 0.000000
#
# Coordination Sequence:
#
# PCOD9023508 Si02
#       7
#     2   2   2   2   2   2   2
#     4  10  22  41  64  97 128 173 225 260 327 399
#     4  10  24  40  70  90 136 175 216 264 328 389
#     4  10  22  39  70  90 128 176 212 271 331 382
#     4  11  22  44  63 101 129 170 223 274 327 386
#     4  10  22  41  67  92 133 170 210 284 317 382
#     4  11  23  45  65  99 132 173 221 265 329 386
#     4  10  24  40  67  93 138 170 219 266 323 388
#
# _framework density 25.460141
#
# number of rings (size 3 to 8) (size 9 to 14) (size 15 to 20)
#    0.000    1.714    1.429    2.143   14.000    2.857 
#    0.000    2.857    0.000    0.000    0.000    0.000 
#    0.000    0.000    0.000    0.000    0.000    0.000 
#
# Total GULP energy -78129.139936 kJ/mol
# GULP energy per Si atom -5580.652853 kJ/mol
# Density = 2.540219 g / cm^3
# Si number density = 25.460141 Si / 1000 Ang^3
#
#
#
# Elastic Constant Matrix: (Units=GPa)
#
#
# Indices 1 2 3 4 5 6 
#
# 1 169.0579 20.1119 53.4269 -13.0414 4.3834 -16.3713
# 2 20.1119 36.4441 19.0617 13.9191 4.2577 12.6242
# 3 53.4269 19.0617 147.3012 4.1201 4.9879 -7.4308
# 4 -13.0414 13.9191 4.1201 34.7517 -5.8661 -1.3098
# 5 4.3834 4.2577 4.9879 -5.8661 56.1261 -8.1013
# 6 -16.3713 12.6242 -7.4308 -1.3098 -8.1013 19.9181
#
#
#
# Elastic Compliance Matrix: (Units=1/GPa)
#
#
# Indices 1 2 3 4 5 6 
#
# 1 0.013214 -0.024878 -0.000768 0.017362 0.007123 0.030382
# 2 -0.024878 0.109013 -0.007884 -0.060768 -0.027519 -0.107671
# 3 -0.000768 -0.007884 0.008388 0.002412 0.001349 0.008202
# 4 0.017362 -0.060768 0.002412 0.065091 0.019345 0.065834
# 5 0.007123 -0.027519 0.001349 0.019345 0.026420 0.035817
# 6 0.030382 -0.107671 0.008202 0.065834 0.035817 0.165377
#
#
# Mechanical properties :
#
#
# Convention : Reuss Voigt Hill
#
# Bulk Modulus (GPa) = 15.73402 59.77825 37.75613
# Shear Modulus (GPa) = 10.50975 39.50602 25.00789
#
# Velocity S-wave (km/s) = 2.03393 3.94341 3.13747
# Velocity P-wave (km/s) = 3.42186 6.65313 5.29024
#
# Compressibility (1/GPa) = 0.06355656
#
# Stress axis : x y z
#
# Youngs Moduli (GPa) = 75.67657 9.17319 119.21726
#
# Poissons Ratio (x) = 0.22821 0.09151
# Poissons Ratio (y) = 1.88271 0.93985
# Poissons Ratio (z) = 0.05809 0.07232
#
# Static dielectric constant tensor:
#      x y z
#    x 2.084440 -0.066440 -0.035100 
#    y -0.066440 2.145240 0.053360 
#    z -0.035100 0.053360 2.074010 
# 
# From -- ./inp_files/493017.got.cif
#   From: 2010.05.17/outbox.cif.g08.bks.cpg/sg2_247_cif.got.tgz:493017.got - 2010.06.03 11:33:40.
