data_PCOD9023955
_publ_section_title
;
Structure prediction by ZEFSAII (Michael W. Deem and Ramdas Pophale) SiO2 
 PCOD9023955
Probable space group: P -1
;
_chemical_formula_sum "Si O2"
_cell_formula_units_Z 12
_cell_length_a 10.838737
_cell_length_b 6.869530
_cell_length_c 6.528845
_cell_angle_alpha 71.014617
_cell_angle_beta 96.608835
_cell_angle_gamma 78.960159
_cell_volume 442.850383
_symmetry_space_group_name_H-M "P -1"
_symmetry_group_IT_number 2
_symmetry_cell_setting 'triclinic'
loop_
_space_group_symop_operation_xyz
x,y,z
-x,-y,-z
loop_
_atom_site_type_symbol
_atom_site_label
_atom_site_fract_x
_atom_site_fract_y
_atom_site_fract_z
Si Si1 0.048255 0.814003 0.408749
Si Si2 0.590711 0.134449 0.075951
Si Si3 0.340431 0.487691 0.951993
Si Si4 0.324800 0.646438 0.418967
Si Si5 0.425608 0.192690 0.557098
Si Si6 0.084384 0.406372 0.851953
O O1 0.188224 0.810324 0.343146
O O2 0.069923 0.599257 0.621602
O O3 0.959407 0.780033 0.213045
O O4 0.000000 0.000000 0.500000
O O5 0.684971 0.289278 0.003457
O O6 0.663393 0.935066 0.295671
O O7 0.472843 0.318417 0.082740
O O8 0.500000 0.000000 0.000000
O O9 0.345442 0.568212 0.688851
O O10 0.229918 0.362249 0.971736
O O11 0.336614 0.416357 0.395266
O O12 0.447840 0.736278 0.351997
O O13 0.500000 0.000000 0.500000
O O14 0.000000 0.500000 0.000000
#
# Coordination Sequence:
#
# PCOD9023955 Si02
#       6
#     2   2   2   2   2   2
#     4  10  24  45  70  98 134 182 230 283 341 398
#     4  11  22  37  61  93 124 168 210 262 334 390
#     4  10  22  40  62  92 133 168 215 274 327 407
#     4  10  22  40  63  96 132 168 220 272 329 412
#     4  11  22  37  63  95 128 170 208 265 339 397
#     4  10  24  45  67  99 133 177 228 286 336 401
#
# _framework density 27.097185
#
# number of rings (size 3 to 8) (size 9 to 14) (size 15 to 20)
#    0.000    1.667    3.333    0.000    0.000   11.333 
#    0.000    0.000    0.000    0.000    0.000    0.000 
#    0.000    0.000    0.000    0.000    0.000    0.000 
#
# Total GULP energy -66889.271580 kJ/mol
# GULP energy per Si atom -5574.105965 kJ/mol
# Density = 2.703551 g / cm^3
# Si number density = 27.097185 Si / 1000 Ang^3
#
#
#
# Elastic Constant Matrix: (Units=GPa)
#
#
# Indices 1 2 3 4 5 6 
#
# 1 148.4501 66.0169 20.6222 14.6468 9.9717 4.0286
# 2 66.0169 232.5357 39.7723 12.9280 2.2511 10.6207
# 3 20.6222 39.7723 30.2975 4.1756 10.4357 30.0694
# 4 14.6468 12.9280 4.1756 66.0654 10.7066 -14.5550
# 5 9.9717 2.2511 10.4357 10.7066 30.4725 -0.2326
# 6 4.0286 10.6207 30.0694 -14.5550 -0.2326 35.4551
#
#
#
# Elastic Compliance Matrix: (Units=1/GPa)
#
#
# Indices 1 2 3 4 5 6 
#
# 1 0.007783 -0.002791 0.005984 -0.002314 -0.003624 -0.006097
# 2 -0.002791 0.002667 0.021747 -0.005087 -0.005104 -0.021047
# 3 0.005984 0.021747 -0.199923 0.037721 0.053009 0.178193
# 4 -0.002314 -0.005087 0.037721 0.011172 -0.015907 -0.025723
# 5 -0.003624 -0.005104 0.053009 -0.015907 0.021438 -0.049405
# 6 -0.006097 -0.021047 0.178193 -0.025723 -0.049405 -0.126807
#
#
# Mechanical properties :
#
#
# Convention : Reuss Voigt Hill
#
# Bulk Modulus (GPa) = -7.16360 73.78956 33.31298
# Shear Modulus (GPa) = -13.15509 45.39007 16.11749
#
# Velocity S-wave (km/s) = -2.20575 4.09722 2.44150
# Velocity P-wave (km/s) = 3.02266 7.04794 4.50206
#
# Compressibility (1/GPa) = -0.13959462
#
# Stress axis : x y z
#
# Youngs Moduli (GPa) = 128.47986 374.97906 -5.00192
#
# Poissons Ratio (x) = 1.04655 0.02993
# Poissons Ratio (y) = 0.35858 0.10877
# Poissons Ratio (z) = -0.76878 -8.15451
#
# Static dielectric constant tensor:
#      x y z
#    x 2.599540 0.118810 -0.146730 
#    y 0.118810 2.095100 0.019320 
#    z -0.146730 0.019320 2.781950 
# 
# From -- ./inp_files/229621.got.cif
#   From: 2010.05.17/outbox.cif.g08.bks.cpg/sg2_115_cif.got.tgz:229621.got - 2010.06.03 11:33:40.
