data_PCOD9023373
_publ_section_title
;
Structure prediction by ZEFSAII (Michael W. Deem and Ramdas Pophale) SiO2 
 PCOD9023373
Probable space group: P -1
;
_chemical_formula_sum "Si O2"
_cell_formula_units_Z 14
_cell_length_a 8.250900
_cell_length_b 8.343897
_cell_length_c 13.856623
_cell_angle_alpha 121.121235
_cell_angle_beta 68.540447
_cell_angle_gamma 67.460120
_cell_volume 528.666606
_symmetry_space_group_name_H-M "P -1"
_symmetry_group_IT_number 2
_symmetry_cell_setting 'triclinic'
loop_
_space_group_symop_operation_xyz
x,y,z
-x,-y,-z
loop_
_atom_site_type_symbol
_atom_site_label
_atom_site_fract_x
_atom_site_fract_y
_atom_site_fract_z
Si Si1 0.183249 0.881315 0.236606
Si Si2 0.152911 0.829721 0.024088
Si Si3 0.844933 0.784432 0.326794
Si Si4 0.317023 0.539703 0.473667
Si Si5 0.766669 0.812200 0.935824
Si Si6 0.554401 0.289173 0.673444
Si Si7 0.681072 0.947135 0.204101
O O1 0.321407 0.838411 0.289162
O O2 0.044764 0.797461 0.272449
O O3 0.306080 0.742180 0.063394
O O4 0.969174 0.200042 0.356752
O O5 0.283928 0.574080 0.850124
O O6 0.838431 0.974893 0.964959
O O7 0.883341 0.959834 0.153225
O O8 0.747794 0.807359 0.248177
O O9 0.004809 0.492197 0.245889
O O10 0.629047 0.056152 0.518518
O O11 0.500000 0.500000 0.500000
O O12 0.347509 0.613966 0.385066
O O13 0.412530 0.254242 0.359464
O O14 0.718612 0.796041 0.053761
O O15 0.500000 0.000000 0.000000
#
# Coordination Sequence:
#
# PCOD9023373 Si02
#       7
#     2   2   2   2   2   2   2
#     4  10  22  39  68  93 133 169 229 260 316 385
#     4  11  23  42  70  96 130 171 224 260 318 390
#     4  10  22  41  63  96 129 169 216 266 324 382
#     4  11  18  36  66  99 119 164 227 269 303 379
#     4  12  26  41  67  99 136 169 211 273 336 377
#     4  11  21  36  67  96 127 171 219 265 314 386
#     4  11  23  43  71  93 128 176 223 259 317 400
#
# _framework density 26.481718000000001
#
# number of rings (size 3 to 8) (size 9 to 14) (size 15 to 20)
#    0.000    1.143    5.714    3.857    2.000    1.143 
#    0.000    1.429    6.286    0.000    0.000    0.000 
#    0.000    0.000    0.000    0.000    0.000    0.000 
#
# Total GULP energy -78414.212003 kJ/mol
# GULP energy per Si atom -5601.015143 kJ/mol
# Density = 2.642144 g / cm^3
# Si number density = 26.481718 Si / 1000 Ang^3
#
#
#
# Elastic Constant Matrix: (Units=GPa)
#
#
# Indices 1 2 3 4 5 6 
#
# 1 71.0372 34.4647 28.1876 11.1630 10.8644 7.4467
# 2 34.4647 168.1623 66.8141 11.9334 10.2815 -18.6513
# 3 28.1876 66.8141 162.7836 16.5193 22.4340 7.1035
# 4 11.1630 11.9334 16.5193 68.5523 4.5292 13.6865
# 5 10.8644 10.2815 22.4340 4.5292 27.9973 -2.7456
# 6 7.4467 -18.6513 7.1035 13.6865 -2.7456 49.6422
#
#
#
# Elastic Compliance Matrix: (Units=1/GPa)
#
#
# Indices 1 2 3 4 5 6 
#
# 1 0.017285 -0.003312 -0.000656 -0.000988 -0.005174 -0.003757
# 2 -0.003312 0.008362 -0.003122 -0.001146 0.001341 0.004475
# 3 -0.000656 -0.003122 0.008462 -0.000535 -0.005532 -0.002444
# 4 -0.000988 -0.001146 -0.000535 0.016149 -0.001846 -0.004760
# 5 -0.005174 0.001341 -0.005532 -0.001846 0.042448 0.004928
# 6 -0.003757 0.004475 -0.002444 -0.004760 0.004928 0.024324
#
#
# Mechanical properties :
#
#
# Convention : Reuss Voigt Hill
#
# Bulk Modulus (GPa) = 50.18359 73.43508 61.80934
# Shear Modulus (GPa) = 36.27062 47.40614 41.83838
#
# Velocity S-wave (km/s) = 3.70489 4.23560 3.97910
# Velocity P-wave (km/s) = 6.10680 7.19104 6.67099
#
# Compressibility (1/GPa) = 0.01992683
#
# Stress axis : x y z
#
# Youngs Moduli (GPa) = 57.85428 119.59300 118.17976
#
# Poissons Ratio (x) = 0.39609 0.07757
# Poissons Ratio (y) = 0.19161 0.36899
# Poissons Ratio (z) = 0.03798 0.37341
#
# Static dielectric constant tensor:
#      x y z
#    x 2.149970 -0.033240 -0.003030 
#    y -0.033240 2.093450 -0.015460 
#    z -0.003030 -0.015460 2.048830 
# 
# From -- ./inp_files/426501.got.cif
#   From: 2010.05.17/outbox.cif.g08.bks.cpg/sg2_214_cif.got.tgz:426501.got - 2010.06.03 11:33:40.
