data_PCOD9023557
_publ_section_title
;
Structure prediction by ZEFSAII (Michael W. Deem and Ramdas Pophale) SiO2 
 PCOD9023557
Probable space group: P -1
;
_chemical_formula_sum "Si O2"
_cell_formula_units_Z 10
_cell_length_a 13.774624
_cell_length_b 9.439083
_cell_length_c 12.145876
_cell_angle_alpha 127.915056
_cell_angle_beta 147.312741
_cell_angle_gamma 31.165952
_cell_volume 408.607409
_symmetry_space_group_name_H-M "P -1"
_symmetry_group_IT_number 2
_symmetry_cell_setting 'triclinic'
loop_
_space_group_symop_operation_xyz
x,y,z
-x,-y,-z
loop_
_atom_site_type_symbol
_atom_site_label
_atom_site_fract_x
_atom_site_fract_y
_atom_site_fract_z
Si Si1 0.226257 0.811910 0.829243
Si Si2 0.183846 0.193990 0.590586
Si Si3 0.331791 0.350474 0.978489
Si Si4 0.288884 0.639244 0.261460
Si Si5 0.679942 0.003134 0.603803
O O1 0.372059 0.812677 0.874054
O O2 0.017335 0.819826 0.589851
O O3 0.500000 0.500000 0.000000
O O4 0.038628 0.072837 0.864112
O O5 0.000000 0.500000 0.500000
O O6 0.395890 0.974335 0.586192
O O7 0.286851 0.192110 0.804012
O O8 0.331762 0.417166 0.135587
O O9 0.029189 0.692677 0.811007
O O10 0.500000 0.500000 0.500000
O O11 0.363706 0.748431 0.303578
O O12 0.500000 0.000000 0.500000
#
# Coordination Sequence:
#
# PCOD9023557 Si02
#       5
#     2   2   2   2   2
#     4  11  21  41  69  94 131 173 226 269 321 400
#     4   9  19  35  60 105 123 156 225 281 310 373
#     4  11  23  38  72  95 124 182 226 269 318 395
#     4  11  26  44  64 101 138 172 217 279 340 384
#     4  10  22  39  71  98 131 171 228 269 322 401
#
# _framework density 24.473369999999999
#
# number of rings (size 3 to 8) (size 9 to 14) (size 15 to 20)
#    0.000    1.600    6.000    0.600    8.400    0.800 
#    0.000    5.000    0.000    0.000    0.000    0.000 
#    0.000    0.000    0.000    0.000    0.000    0.000 
#
# Total GULP energy -55884.396026 kJ/mol
# GULP energy per Si atom -5588.439603 kJ/mol
# Density = 2.441767 g / cm^3
# Si number density = 24.473370 Si / 1000 Ang^3
#
#
#
# Elastic Constant Matrix: (Units=GPa)
#
#
# Indices 1 2 3 4 5 6 
#
# 1 132.7084 40.6564 69.7177 6.7676 23.4929 -18.3909
# 2 40.6564 149.1633 54.3891 35.5878 6.1906 -14.4409
# 3 69.7177 54.3891 153.7710 46.1625 -6.4078 -24.9671
# 4 6.7676 35.5878 46.1625 51.5596 -6.2291 -0.5238
# 5 23.4929 6.1906 -6.4078 -6.2291 55.4768 2.5458
# 6 -18.3909 -14.4409 -24.9671 -0.5238 2.5458 34.7538
#
#
#
# Elastic Compliance Matrix: (Units=1/GPa)
#
#
# Indices 1 2 3 4 5 6 
#
# 1 0.012326 -0.001782 -0.006285 0.004615 -0.005308 0.001726
# 2 -0.001782 0.008964 -0.000227 -0.005851 -0.001049 0.002608
# 3 -0.006285 -0.000227 0.013862 -0.011032 0.002766 0.006169
# 4 0.004615 -0.005851 -0.011032 0.032804 0.001453 -0.007527
# 5 -0.005308 -0.001049 0.002766 0.001453 0.021000 -0.002774
# 6 0.001726 0.002608 0.006169 -0.007527 -0.002774 0.035292
#
#
# Mechanical properties :
#
#
# Convention : Reuss Voigt Hill
#
# Bulk Modulus (GPa) = 53.86300 85.01878 69.44089
# Shear Modulus (GPa) = 34.00796 46.41670 40.21233
#
# Velocity S-wave (km/s) = 3.73176 4.35975 4.05792
# Velocity P-wave (km/s) = 6.37375 7.75615 7.09868
#
# Compressibility (1/GPa) = 0.01856562
#
# Stress axis : x y z
#
# Youngs Moduli (GPa) = 81.12702 111.55456 72.14102
#
# Poissons Ratio (x) = 0.19877 0.45339
# Poissons Ratio (y) = 0.14455 0.01636
# Poissons Ratio (z) = 0.50987 0.02529
#
# Static dielectric constant tensor:
#      x y z
#    x 1.963260 0.058470 -0.070840 
#    y 0.058470 2.042210 -0.013210 
#    z -0.070840 -0.013210 1.972310 
# 
# From -- ./inp_files/261380.got.cif
#   From: 2010.05.17/outbox.cif.g08.bks.cpg/sg2_131_cif.got.tgz:261380.got - 2010.06.03 11:33:40.
