data_PCOD9023573
_publ_section_title
;
Structure prediction by ZEFSAII (Michael W. Deem and Ramdas Pophale) SiO2 
 PCOD9023573
Probable space group: P -1
;
_chemical_formula_sum "Si O2"
_cell_formula_units_Z 16
_cell_length_a 14.136218
_cell_length_b 14.137525
_cell_length_c 11.555228
_cell_angle_alpha 63.754407
_cell_angle_beta 138.093065
_cell_angle_gamma 145.744663
_cell_volume 770.939850
_symmetry_space_group_name_H-M "P -1"
_symmetry_group_IT_number 2
_symmetry_cell_setting 'triclinic'
loop_
_space_group_symop_operation_xyz
x,y,z
-x,-y,-z
loop_
_atom_site_type_symbol
_atom_site_label
_atom_site_fract_x
_atom_site_fract_y
_atom_site_fract_z
Si Si1 0.660383 0.399125 0.753572
Si Si2 0.243449 0.768150 0.093090
Si Si3 0.139511 0.184312 0.467185
Si Si4 0.618691 0.015196 0.491555
Si Si5 0.306299 0.039286 0.994445
Si Si6 0.255766 0.092777 0.180510
Si Si7 0.841938 0.333831 0.355369
Si Si8 0.734857 0.504878 0.498706
O O1 0.665237 0.279811 0.863371
O O2 0.422564 0.317840 0.624801
O O3 0.662049 0.420763 0.605696
O O4 0.948119 0.606475 0.933996
O O5 0.373102 0.826808 0.300931
O O6 0.335875 0.935580 0.039071
O O7 0.186317 0.322505 0.506239
O O8 0.000000 0.000000 0.500000
O O9 0.946805 0.082541 0.238024
O O10 0.759386 0.181291 0.442002
O O11 0.500000 0.000000 0.500000
O O12 0.761637 0.003650 0.679912
O O13 0.272520 0.042252 0.099454
O O14 0.602567 0.254644 0.133203
O O15 0.497987 0.319811 0.302535
O O16 0.000000 0.000000 0.000000
O O17 0.000000 0.500000 0.500000
O O18 0.019578 0.402818 0.377326
#
# Coordination Sequence:
#
# PCOD9023573 Si02
#       8
#     2   2   2   2   2   2   2   2
#     4  11  24  45  71 100 139 178 239 281 343 420
#     4  10  22  39  73 105 128 181 236 280 344 404
#     4  12  30  49  67 103 144 184 231 289 353 416
#     4  11  21  42  70  98 138 177 228 283 339 404
#     4  11  24  45  70 101 142 181 230 291 349 407
#     4  12  25  43  72 105 138 186 231 285 353 415
#     4  11  24  44  69 107 145 176 236 286 343 415
#     4  12  25  45  74  99 139 190 228 289 348 411
#
# _framework density 20.753889000000001
#
# number of rings (size 3 to 8) (size 9 to 14) (size 15 to 20)
#    0.000    0.750    6.250    1.125    5.250    2.500 
#    2.250    1.250    0.000    0.000    0.000    0.000 
#    0.000    0.000    0.000    0.000    0.000    0.000 
#
# Total GULP energy -89068.783175 kJ/mol
# GULP energy per Si atom -5566.798948 kJ/mol
# Density = 2.070665 g / cm^3
# Si number density = 20.753889 Si / 1000 Ang^3
#
#
#
# Elastic Constant Matrix: (Units=GPa)
#
#
# Indices 1 2 3 4 5 6 
#
# 1 70.9864 23.4442 11.8578 7.3202 22.6371 4.0028
# 2 23.4442 218.5550 49.6560 28.9896 -0.9733 46.9938
# 3 11.8578 49.6560 146.2598 12.7110 21.3232 2.0749
# 4 7.3202 28.9896 12.7110 37.1549 1.1011 9.9404
# 5 22.6371 -0.9733 21.3232 1.1011 40.5311 9.5196
# 6 4.0028 46.9938 2.0749 9.9404 9.5196 60.1327
#
#
#
# Elastic Compliance Matrix: (Units=1/GPa)
#
#
# Indices 1 2 3 4 5 6 
#
# 1 0.018596 -0.002673 0.001291 -0.002496 -0.011787 0.003085
# 2 -0.002673 0.006968 -0.002460 -0.002749 0.004300 -0.005409
# 3 0.001291 -0.002460 0.008544 -0.001826 -0.005877 0.002774
# 4 -0.002496 -0.002749 -0.001826 0.030935 0.002172 -0.003080
# 5 -0.011787 0.004300 -0.005877 0.002172 0.036386 -0.008492
# 6 0.003085 -0.005409 0.002774 -0.003080 -0.008492 0.022409
#
#
# Mechanical properties :
#
#
# Convention : Reuss Voigt Hill
#
# Bulk Modulus (GPa) = 37.84349 67.30191 52.57270
# Shear Modulus (GPa) = 35.63015 50.95330 43.29173
#
# Velocity S-wave (km/s) = 4.14792 4.96029 4.57218
# Velocity P-wave (km/s) = 6.41983 8.08115 7.29792
#
# Compressibility (1/GPa) = 0.02642462
#
# Stress axis : x y z
#
# Youngs Moduli (GPa) = 53.77388 143.51396 117.04341
#
# Poissons Ratio (x) = 0.38361 -0.15114
# Poissons Ratio (y) = 0.14374 0.28795
# Poissons Ratio (z) = -0.06944 0.35307
#
# Static dielectric constant tensor:
#      x y z
#    x 2.100650 -0.398740 -0.022740 
#    y -0.398740 2.183560 0.032620 
#    z -0.022740 0.032620 1.778480 
# 
# From -- ./inp_files/455640.got.cif
#   From: 2010.05.17/outbox.cif.g08.bks.cpg/sg2_228_cif.got.tgz:455640.got - 2010.06.03 11:33:40.
