data_PCOD9023901
_publ_section_title
;
Structure prediction by ZEFSAII (Michael W. Deem and Ramdas Pophale) SiO2 
 PCOD9023901
Probable space group: P -1
;
_chemical_formula_sum "Si O2"
_cell_formula_units_Z 16
_cell_length_a 9.924534
_cell_length_b 8.637401
_cell_length_c 22.218580
_cell_angle_alpha 64.795024
_cell_angle_beta 152.752864
_cell_angle_gamma 119.430570
_cell_volume 759.175869
_symmetry_space_group_name_H-M "P -1"
_symmetry_group_IT_number 2
_symmetry_cell_setting 'triclinic'
loop_
_space_group_symop_operation_xyz
x,y,z
-x,-y,-z
loop_
_atom_site_type_symbol
_atom_site_label
_atom_site_fract_x
_atom_site_fract_y
_atom_site_fract_z
Si Si1 0.059649 0.294378 0.338914
Si Si2 0.247425 0.682064 0.406387
Si Si3 0.891923 0.635165 0.391467
Si Si4 0.815484 0.865890 0.135005
Si Si5 0.140566 0.739711 0.869710
Si Si6 0.232251 0.408897 0.139971
Si Si7 0.873446 0.987149 0.884761
Si Si8 0.766659 0.962891 0.358191
O O1 0.128306 0.474789 0.374810
O O2 0.389159 0.257106 0.466534
O O3 0.926421 0.315329 0.216700
O O4 0.843974 0.131715 0.316415
O O5 0.146318 0.704608 0.430383
O O6 0.074208 0.785731 0.277323
O O7 0.575064 0.530401 0.252170
O O8 0.818910 0.794401 0.372553
O O9 0.000000 0.500000 0.500000
O O10 0.840374 0.050838 0.149261
O O11 0.475616 0.735002 0.026396
O O12 0.879619 0.912902 0.082603
O O13 0.881109 0.628298 0.829766
O O14 0.216194 0.218272 0.136669
O O15 0.000000 0.500000 0.000000
O O16 0.579018 0.063145 0.753040
O O17 0.000000 0.000000 0.000000
O O18 0.000000 0.000000 0.500000
#
# Coordination Sequence:
#
# PCOD9023901 Si02
#       8
#     2   2   2   2   2   2   2   2
#     4  11  24  41  63  92 123 157 202 254 309 370
#     4  11  24  41  63  92 123 157 202 254 309 370
#     4  12  25  42  64  90 124 164 208 257 308 366
#     4  10  22  40  62  90 123 160 202 248 302 364
#     4  10  22  40  62  90 123 160 202 248 302 364
#     4  11  23  40  64  94 128 165 206 253 307 367
#     4  11  23  40  64  94 128 165 206 253 307 367
#     4  12  25  42  64  90 124 164 208 257 308 366
#
# _framework density 21.075486999999999
#
# number of rings (size 3 to 8) (size 9 to 14) (size 15 to 20)
#    0.000    1.000    0.000    6.750    0.000   10.500 
#    0.000    0.000    0.000    0.000    0.000    0.000 
#    0.000    0.000    0.000    0.000    0.000    0.000 
#
# Total GULP energy -89588.204417 kJ/mol
# GULP energy per Si atom -5599.262776 kJ/mol
# Density = 2.102752 g / cm^3
# Si number density = 21.075487 Si / 1000 Ang^3
#
#
#
# Elastic Constant Matrix: (Units=GPa)
#
#
# Indices 1 2 3 4 5 6 
#
# 1 83.1156 2.9791 -9.1594 -0.3523 -0.7785 -16.1339
# 2 2.9791 28.2411 -17.2954 -5.9856 4.4681 -6.3167
# 3 -9.1594 -17.2954 79.1962 -7.0125 4.0931 -11.7248
# 4 -0.3523 -5.9856 -7.0125 27.2331 4.5442 4.2054
# 5 -0.7785 4.4681 4.0931 4.5442 41.2586 -2.7865
# 6 -16.1339 -6.3167 -11.7248 4.2054 -2.7865 23.7739
#
#
#
# Elastic Compliance Matrix: (Units=1/GPa)
#
#
# Indices 1 2 3 4 5 6 
#
# 1 0.015061 0.004389 0.004738 0.000222 0.000241 0.013713
# 2 0.004389 0.055118 0.017604 0.014458 -0.007682 0.022847
# 3 0.004738 0.017604 0.020238 0.007232 -0.003528 0.016181
# 4 0.000222 0.014458 0.007232 0.043083 -0.007084 -0.000893
# 5 0.000241 -0.007682 -0.003528 -0.007084 0.026252 0.000712
# 6 0.013713 0.022847 0.016181 -0.000893 0.000712 0.065661
#
#
# Mechanical properties :
#
#
# Convention : Reuss Voigt Hill
#
# Bulk Modulus (GPa) = 6.95036 15.95573 11.45304
# Shear Modulus (GPa) = 22.73659 32.72171 27.72915
#
# Velocity S-wave (km/s) = 3.28810 3.94457 3.63120
# Velocity P-wave (km/s) = 4.20957 5.32291 4.79864
#
# Compressibility (1/GPa) = 0.14387751
#
# Stress axis : x y z
#
# Youngs Moduli (GPa) = 66.39561 18.14306 49.41310
#
# Poissons Ratio (x) = -0.07962 -0.23410
# Poissons Ratio (y) = -0.29139 -0.86988
# Poissons Ratio (z) = -0.31456 -0.31939
#
# Static dielectric constant tensor:
#      x y z
#    x 1.729220 0.000920 0.000450 
#    y 0.000920 1.710000 0.002070 
#    z 0.000450 0.002070 1.756250 
# 
# From -- ./inp_files/279987.got.cif
#   From: 2010.05.17/outbox.cif.g08.bks.cpg/sg2_140_cif.got.tgz:279987.got - 2010.06.03 11:33:40.
