data_PCOD9023306
_publ_section_title
;
Structure prediction by ZEFSAII (Michael W. Deem and Ramdas Pophale) SiO2 
 PCOD9023306
Probable space group: P -1
;
_chemical_formula_sum "Si O2"
_cell_formula_units_Z 16
_cell_length_a 5.632968
_cell_length_b 19.433301
_cell_length_c 8.630177
_cell_angle_alpha 107.958904
_cell_angle_beta 123.011177
_cell_angle_gamma 66.420214
_cell_volume 721.022737
_symmetry_space_group_name_H-M "P -1"
_symmetry_group_IT_number 2
_symmetry_cell_setting 'triclinic'
loop_
_space_group_symop_operation_xyz
x,y,z
-x,-y,-z
loop_
_atom_site_type_symbol
_atom_site_label
_atom_site_fract_x
_atom_site_fract_y
_atom_site_fract_z
Si Si1 0.080063 0.686533 0.285130
Si Si2 0.753375 0.577893 0.991605
Si Si3 0.724362 0.193708 0.099674
Si Si4 0.416103 0.320260 0.305521
Si Si5 0.200792 0.666968 0.950975
Si Si6 0.730184 0.861112 0.280122
Si Si7 0.756222 0.995967 0.214590
Si Si8 0.258741 0.074373 0.339132
O O1 0.364791 0.664358 0.479856
O O2 0.915173 0.774601 0.313422
O O3 0.144428 0.678903 0.119957
O O4 0.882533 0.629374 0.190057
O O5 0.659919 0.619877 0.821793
O O6 0.432547 0.585407 0.952089
O O7 0.000000 0.500000 0.000000
O O8 0.561523 0.237205 0.224636
O O9 0.696266 0.262436 0.020354
O O10 0.054835 0.146365 0.223590
O O11 0.552017 0.140816 0.923257
O O12 0.090135 0.324976 0.249580
O O13 0.653908 0.899622 0.445982
O O14 0.889367 0.910745 0.267898
O O15 0.551209 0.038493 0.315793
O O16 0.015958 0.028480 0.262840
O O17 0.500000 0.000000 0.000000
#
# Coordination Sequence:
#
# PCOD9023306 Si02
#       8
#     2   2   2   2   2   2   2   2
#     4  11  23  41  67 102 132 177 230 281 343 414
#     4  10  23  45  67  97 140 176 220 275 344 419
#     4  11  23  41  67  96 132 181 223 287 345 412
#     4  10  22  42  63 104 135 166 231 277 343 416
#     4  10  22  39  67  98 132 176 224 277 348 403
#     4  12  24  45  69  97 138 178 238 287 348 427
#     4  12  28  48  70  99 141 188 238 298 366 416
#     4  12  28  47  68 103 140 187 236 302 361 417
#
# _framework density 22.190702999999999
#
# number of rings (size 3 to 8) (size 9 to 14) (size 15 to 20)
#    0.000    1.000    6.250    1.125    3.500    6.500 
#    0.000    1.250    0.000    0.000    0.000    0.000 
#    0.000    0.000    0.000    0.000    0.000    0.000 
#
# Total GULP energy -89325.852712 kJ/mol
# GULP energy per Si atom -5582.865794 kJ/mol
# Density = 2.214020 g / cm^3
# Si number density = 22.190703 Si / 1000 Ang^3
#
#
#
# Elastic Constant Matrix: (Units=GPa)
#
#
# Indices 1 2 3 4 5 6 
#
# 1 47.5944 4.6088 2.6864 1.1790 10.5773 -11.1935
# 2 4.6088 92.2876 23.6656 -8.1070 7.9164 -14.6162
# 3 2.6864 23.6656 132.7122 -20.2193 16.2956 -7.9844
# 4 1.1790 -8.1070 -20.2193 18.2735 -4.9330 -1.3330
# 5 10.5773 7.9164 16.2956 -4.9330 27.6389 -6.4123
# 6 -11.1935 -14.6162 -7.9844 -1.3330 -6.4123 23.7372
#
#
#
# Elastic Compliance Matrix: (Units=1/GPa)
#
#
# Indices 1 2 3 4 5 6 
#
# 1 0.025185 0.000712 0.000678 -0.002039 -0.008239 0.010202
# 2 0.000712 0.012809 -0.000985 0.004964 -0.000618 0.008004
# 3 0.000678 -0.000985 0.009727 0.009553 -0.003404 0.002602
# 4 -0.002039 0.004964 0.009553 0.070947 0.009116 0.011755
# 5 -0.008239 -0.000618 -0.003404 0.009116 0.044817 0.007208
# 6 0.010202 0.008004 0.002602 0.011755 0.007208 0.055350
#
#
# Mechanical properties :
#
#
# Convention : Reuss Voigt Hill
#
# Bulk Modulus (GPa) = 20.60543 37.16843 28.88693
# Shear Modulus (GPa) = 21.34917 30.03880 25.69398
#
# Velocity S-wave (km/s) = 3.10510 3.68321 3.40644
# Velocity P-wave (km/s) = 4.70758 5.90542 5.34019
#
# Compressibility (1/GPa) = 0.04853089
#
# Stress axis : x y z
#
# Youngs Moduli (GPa) = 39.70685 78.06783 102.80757
#
# Poissons Ratio (x) = -0.05557 -0.06971
# Poissons Ratio (y) = -0.02827 0.10126
# Poissons Ratio (z) = -0.02692 0.07689
#
# Static dielectric constant tensor:
#      x y z
#    x 1.985650 0.004520 0.044860 
#    y 0.004520 1.846760 0.010020 
#    z 0.044860 0.010020 1.793480 
# 
# From -- ./inp_files/47660.got.cif
#   From: 2010.05.17/outbox.cif.g08.bks.cpg/sg2_24_cif.got.tgz:47660.got - 2010.06.03 11:33:40.
