data_PCOD9023870
_publ_section_title
;
Structure prediction by ZEFSAII (Michael W. Deem and Ramdas Pophale) SiO2 
 PCOD9023870
Probable space group: P -1
;
_chemical_formula_sum "Si O2"
_cell_formula_units_Z 14
_cell_length_a 9.916169
_cell_length_b 14.352635
_cell_length_c 8.622843
_cell_angle_alpha 145.296261
_cell_angle_beta 78.857039
_cell_angle_gamma 103.755014
_cell_volume 678.659513
_symmetry_space_group_name_H-M "P -1"
_symmetry_group_IT_number 2
_symmetry_cell_setting 'triclinic'
loop_
_space_group_symop_operation_xyz
x,y,z
-x,-y,-z
loop_
_atom_site_type_symbol
_atom_site_label
_atom_site_fract_x
_atom_site_fract_y
_atom_site_fract_z
Si Si1 0.551736 0.162822 0.309609
Si Si2 0.868643 0.447584 0.071482
Si Si3 0.009198 0.329709 0.174073
Si Si4 0.727096 0.142927 0.526158
Si Si5 0.835981 0.114441 0.152002
Si Si6 0.152469 0.110244 0.643710
Si Si7 0.739508 0.766715 0.548669
O O1 0.589460 0.117490 0.415927
O O2 0.428124 0.269707 0.469623
O O3 0.500000 0.000000 0.000000
O O4 0.292546 0.780709 0.710563
O O5 0.913256 0.345634 0.067372
O O6 0.809728 0.609573 0.362770
O O7 0.753318 0.325779 0.838583
O O8 0.000000 0.500000 0.000000
O O9 0.957264 0.188167 0.115340
O O10 0.000000 0.500000 0.500000
O O11 0.139917 0.264649 0.972851
O O12 0.851241 0.134127 0.359549
O O13 0.747113 0.007567 0.463433
O O14 0.786203 0.924039 0.863038
O O15 0.208272 0.176918 0.557202
O O16 0.000000 0.000000 0.500000
#
# Coordination Sequence:
#
# PCOD9023870 Si02
#       7
#     2   2   2   2   2   2   2
#     4   8  20  40  64  90 118 163 210 250 298 364
#     4  12  23  39  58  95 126 159 205 255 308 365
#     4  12  25  38  59  89 127 159 203 254 309 362
#     4  10  22  40  62  88 123 162 207 249 305 360
#     4   9  21  41  61  85 122 161 204 248 302 364
#     4  12  22  39  60  92 121 162 204 252 310 366
#     4  11  21  40  65  86 127 160 204 255 301 364
#
# _framework density 20.628903000000001
#
# number of rings (size 3 to 8) (size 9 to 14) (size 15 to 20)
#    0.857    0.571    4.286    0.857    2.000    1.714 
#    0.000    0.714    0.000    0.000    0.000    0.000 
#    0.000    0.000    0.000    0.000    0.000    0.000 
#
# Total GULP energy -78025.348469 kJ/mol
# GULP energy per Si atom -5573.239176 kJ/mol
# Density = 2.058195 g / cm^3
# Si number density = 20.628903 Si / 1000 Ang^3
#
#
#
# Elastic Constant Matrix: (Units=GPa)
#
#
# Indices 1 2 3 4 5 6 
#
# 1 50.2215 -14.0029 6.1236 10.5390 -8.9926 -9.8332
# 2 -14.0029 38.8621 -8.1865 -0.2094 2.3979 -5.5890
# 3 6.1236 -8.1865 107.9182 8.0429 -3.3658 -0.4117
# 4 10.5390 -0.2094 8.0429 28.3305 -8.1874 -12.8695
# 5 -8.9926 2.3979 -3.3658 -8.1874 36.3886 -5.1843
# 6 -9.8332 -5.5890 -0.4117 -12.8695 -5.1843 21.1106
#
#
#
# Elastic Compliance Matrix: (Units=1/GPa)
#
#
# Indices 1 2 3 4 5 6 
#
# 1 0.028731 0.012529 -0.000400 0.001140 0.009297 0.019670
# 2 0.012529 0.033044 0.001637 0.005166 0.004937 0.018978
# 3 -0.000400 0.001637 0.009655 -0.003490 -0.000352 -0.001779
# 4 0.001140 0.005166 -0.003490 0.061796 0.019845 0.044377
# 5 0.009297 0.004937 -0.000352 0.019845 0.037732 0.026994
# 6 0.019670 0.018978 -0.001779 0.044377 0.026994 0.095204
#
#
# Mechanical properties :
#
#
# Convention : Reuss Voigt Hill
#
# Bulk Modulus (GPa) = 10.10471 18.31892 14.21182
# Shear Modulus (GPa) = 18.40829 31.37044 24.88937
#
# Velocity S-wave (km/s) = 2.99047 3.90385 3.47728
# Velocity P-wave (km/s) = 4.10279 5.40551 4.79856
#
# Compressibility (1/GPa) = 0.09896372
#
# Stress axis : x y z
#
# Youngs Moduli (GPa) = 34.80594 30.26263 103.56801
#
# Poissons Ratio (x) = -0.37918 0.04141
# Poissons Ratio (y) = -0.43610 -0.16955
# Poissons Ratio (z) = 0.01392 -0.04954
#
# Static dielectric constant tensor:
#      x y z
#    x 1.803120 0.016690 -0.002830 
#    y 0.016690 1.705790 -0.018630 
#    z -0.002830 -0.018630 1.761990 
# 
# From -- ./inp_files/179888.got.cif
#   From: 2010.05.17/outbox.cif.g08.bks.cpg/sg2_90_cif.got.tgz:179888.got - 2010.06.03 11:33:40.
