data_PCOD9023066
_publ_section_title
;
Structure prediction by ZEFSAII (Michael W. Deem and Ramdas Pophale) SiO2 
 PCOD9023066
Probable space group: P -1
;
_chemical_formula_sum "Si O2"
_cell_formula_units_Z 16
_cell_length_a 11.383792
_cell_length_b 20.195882
_cell_length_c 16.482676
_cell_angle_alpha 30.537450
_cell_angle_beta 140.690123
_cell_angle_gamma 157.792666
_cell_volume 722.182235
_symmetry_space_group_name_H-M "P -1"
_symmetry_group_IT_number 2
_symmetry_cell_setting 'triclinic'
loop_
_space_group_symop_operation_xyz
x,y,z
-x,-y,-z
loop_
_atom_site_type_symbol
_atom_site_label
_atom_site_fract_x
_atom_site_fract_y
_atom_site_fract_z
Si Si1 0.607452 0.035635 0.717073
Si Si2 0.788562 0.803317 0.395951
Si Si3 0.145685 0.680514 0.953650
Si Si4 0.887864 0.654518 0.466936
Si Si5 0.415066 0.306350 0.182530
Si Si6 0.844126 0.772401 0.634816
Si Si7 0.319688 0.632691 0.573523
Si Si8 0.237311 0.685528 0.747496
O O1 0.514385 0.132318 0.581417
O O2 0.948602 0.222052 0.661626
O O3 0.507545 0.906316 0.883032
O O4 0.385446 0.850703 0.724868
O O5 0.811289 0.738543 0.391572
O O6 0.417496 0.612102 0.414691
O O7 0.863657 0.758898 0.563012
O O8 0.050586 0.065694 0.261952
O O9 0.967705 0.718258 0.807609
O O10 0.000000 0.500000 0.000000
O O11 0.058809 0.564752 0.113897
O O12 0.144490 0.725152 0.582733
O O13 0.646494 0.395917 0.285463
O O14 0.502684 0.265906 0.196456
O O15 0.500000 0.500000 0.000000
O O16 0.490373 0.613315 0.637564
O O17 0.000000 0.000000 0.500000
O O18 0.000000 0.500000 0.500000
#
# Coordination Sequence:
#
# PCOD9023066 Si02
#       8
#     2   2   2   2   2   2   2   2
#     4  11  20  41  69 100 130 183 231 281 339 424
#     4  11  24  42  66  99 130 173 230 284 339 402
#     4  10  22  39  66 100 134 178 225 280 351 415
#     4  11  22  41  71  99 128 169 232 290 330 409
#     4  12  24  43  68  98 138 184 228 287 356 417
#     4  12  22  40  66  93 133 179 230 272 339 420
#     4  12  25  42  67 101 136 183 237 284 343 424
#     4  11  22  39  69  99 133 175 228 278 357 408
#
# _framework density 22.155072000000001
#
# number of rings (size 3 to 8) (size 9 to 14) (size 15 to 20)
#    0.000    0.750    5.000    4.125    0.000    0.000 
#    2.250    0.625    0.000    5.250    0.000    0.000 
#    0.000    0.000    0.000    0.000    0.000    0.000 
#
# Total GULP energy -89181.336200 kJ/mol
# GULP energy per Si atom -5573.833512 kJ/mol
# Density = 2.210465 g / cm^3
# Si number density = 22.155072 Si / 1000 Ang^3
#
#
#
# Elastic Constant Matrix: (Units=GPa)
#
#
# Indices 1 2 3 4 5 6 
#
# 1 91.6637 18.1008 19.7256 -20.0230 -7.0567 17.8399
# 2 18.1008 97.3626 32.8303 -18.2061 -2.4279 5.9521
# 3 19.7256 32.8303 106.9658 -24.9205 -12.0787 6.0660
# 4 -20.0230 -18.2061 -24.9205 18.2703 8.2065 -9.2487
# 5 -7.0567 -2.4279 -12.0787 8.2065 45.6444 -6.7929
# 6 17.8399 5.9521 6.0660 -9.2487 -6.7929 31.1255
#
#
#
# Elastic Compliance Matrix: (Units=1/GPa)
#
#
# Indices 1 2 3 4 5 6 
#
# 1 0.014957 0.000130 0.001157 0.016424 -0.000945 -0.004149
# 2 0.000130 0.012930 -0.001330 0.012529 -0.001740 0.001055
# 3 0.001157 -0.001330 0.014254 0.020670 0.000624 0.003091
# 4 0.016424 0.012529 0.020670 0.128636 -0.011494 0.019877
# 5 -0.000945 -0.001740 0.000624 -0.011494 0.024294 0.002639
# 6 -0.004149 0.001055 0.003091 0.019877 0.002639 0.040184
#
#
# Mechanical properties :
#
#
# Convention : Reuss Voigt Hill
#
# Bulk Modulus (GPa) = 23.77781 48.58949 36.18365
# Shear Modulus (GPa) = 20.05130 34.03042 27.04086
#
# Velocity S-wave (km/s) = 3.01166 3.92345 3.49739
# Velocity P-wave (km/s) = 4.78008 6.51949 5.71633
#
# Compressibility (1/GPa) = 0.04205601
#
# Stress axis : x y z
#
# Youngs Moduli (GPa) = 66.85766 77.33941 70.15377
#
# Poissons Ratio (x) = -0.01009 -0.08114
# Poissons Ratio (y) = -0.00872 0.09330
# Poissons Ratio (z) = -0.07733 0.10285
#
# Static dielectric constant tensor:
#      x y z
#    x 1.896780 0.044760 -0.043570 
#    y 0.044760 1.938690 -0.090720 
#    z -0.043570 -0.090720 1.810810 
# 
# From -- ./inp_files/570735.got.cif
#   From: 2010.05.17/outbox.cif.g08.bks.cpg/sg2_286_cif.got.tgz:570735.got - 2010.06.03 11:33:40.
