data_PCOD9023535
_publ_section_title
;
Structure prediction by ZEFSAII (Michael W. Deem and Ramdas Pophale) SiO2 
 PCOD9023535
Probable space group: P -1
;
_chemical_formula_sum "Si O2"
_cell_formula_units_Z 14
_cell_length_a 14.730065
_cell_length_b 12.230792
_cell_length_c 7.961457
_cell_angle_alpha 118.990713
_cell_angle_beta 123.794013
_cell_angle_gamma 30.640567
_cell_volume 607.438668
_symmetry_space_group_name_H-M "P -1"
_symmetry_group_IT_number 2
_symmetry_cell_setting 'triclinic'
loop_
_space_group_symop_operation_xyz
x,y,z
-x,-y,-z
loop_
_atom_site_type_symbol
_atom_site_label
_atom_site_fract_x
_atom_site_fract_y
_atom_site_fract_z
Si Si1 0.168269 0.744845 0.004601
Si Si2 0.209455 0.542809 0.558429
Si Si3 0.213061 0.088926 0.623933
Si Si4 0.302632 0.232753 0.639734
Si Si5 0.288161 0.171899 0.090126
Si Si6 0.110964 0.550419 0.990792
Si Si7 0.547655 0.361031 0.591518
O O1 0.192777 0.642517 0.784248
O O2 0.134336 0.675362 0.068246
O O3 0.350322 0.656482 0.170273
O O4 0.000000 0.000000 0.000000
O O5 0.268714 0.347718 0.527918
O O6 0.365371 0.461275 0.545792
O O7 0.001220 0.731442 0.410851
O O8 0.224112 0.166013 0.526626
O O9 0.311203 0.870675 0.514343
O O10 0.311258 0.071627 0.864703
O O11 0.186468 0.412340 0.798383
O O12 0.521746 0.023051 0.756280
O O13 0.104028 0.285860 0.073392
O O14 0.234127 0.363634 0.120677
O O15 0.500000 0.500000 0.500000
#
# Coordination Sequence:
#
# PCOD9023535 Si02
#       7
#     2   2   2   2   2   2   2
#     4  11  24  47  69  93 136 179 221 268 327 394
#     4  11  26  46  68  97 135 175 219 275 336 384
#     4  11  24  43  65 102 136 168 222 275 332 389
#     4  10  23  41  71  98 132 171 222 277 329 393
#     4  10  22  39  71 100 131 174 218 273 334 388
#     4   9  21  39  67  96 133 171 219 265 332 385
#     4  12  30  44  68  98 135 178 224 271 323 398
#
# _framework density 23.047594
#
# number of rings (size 3 to 8) (size 9 to 14) (size 15 to 20)
#    0.000    1.429    1.429    2.571   10.000    4.571 
#    0.000    0.000    0.000    0.000    0.000    0.000 
#    0.000    0.000    0.000    0.000    0.000    0.000 
#
# Total GULP energy -78443.047220 kJ/mol
# GULP energy per Si atom -5603.074801 kJ/mol
# Density = 2.299514 g / cm^3
# Si number density = 23.047594 Si / 1000 Ang^3
#
#
#
# Elastic Constant Matrix: (Units=GPa)
#
#
# Indices 1 2 3 4 5 6 
#
# 1 147.9708 62.3802 5.8502 -12.8290 11.2885 8.6777
# 2 62.3802 140.5060 30.7947 -5.9157 6.5920 14.7122
# 3 5.8502 30.7947 78.9294 0.0439 11.3474 -0.1136
# 4 -12.8290 -5.9157 0.0439 37.0898 -3.1281 10.5822
# 5 11.2885 6.5920 11.3474 -3.1281 36.9216 0.0745
# 6 8.6777 14.7122 -0.1136 10.5822 0.0745 46.5848
#
#
#
# Elastic Compliance Matrix: (Units=1/GPa)
#
#
# Indices 1 2 3 4 5 6 
#
# 1 0.008769 -0.003835 0.001150 0.002522 -0.002134 -0.000989
# 2 -0.003835 0.009923 -0.003682 0.001076 0.000629 -0.002674
# 3 0.001150 -0.003682 0.014637 -0.000909 -0.004272 0.001197
# 4 0.002522 0.001076 -0.000909 0.030368 0.001904 -0.007713
# 5 -0.002134 0.000629 -0.004272 0.001904 0.029100 -0.000291
# 6 -0.000989 -0.002674 0.001197 -0.007713 -0.000291 0.024250
#
#
# Mechanical properties :
#
#
# Convention : Reuss Voigt Hill
#
# Bulk Modulus (GPa) = 48.55553 62.82847 55.69200
# Shear Modulus (GPa) = 36.59090 42.01130 39.30110
#
# Velocity S-wave (km/s) = 3.98882 4.27407 4.13390
# Velocity P-wave (km/s) = 6.50596 7.18863 6.85579
#
# Compressibility (1/GPa) = 0.02059498
#
# Stress axis : x y z
#
# Youngs Moduli (GPa) = 114.03819 100.77910 68.31867
#
# Poissons Ratio (x) = 0.38653 -0.07860
# Poissons Ratio (y) = 0.43739 0.25155
# Poissons Ratio (z) = -0.13120 0.37107
#
# Static dielectric constant tensor:
#      x y z
#    x 1.857980 0.011280 -0.043620 
#    y 0.011280 1.815060 0.002000 
#    z -0.043620 0.002000 1.952100 
# 
# From -- ./inp_files/178469.got.cif
#   From: 2010.05.17/outbox.cif.g08.bks.cpg/sg2_90_cif.got.tgz:178469.got - 2010.06.03 11:33:40.
