data_PCOD9023295
_publ_section_title
;
Structure prediction by ZEFSAII (Michael W. Deem and Ramdas Pophale) SiO2 
 PCOD9023295
Probable space group: P -1
;
_chemical_formula_sum "Si O2"
_cell_formula_units_Z 12
_cell_length_a 22.921179
_cell_length_b 23.327544
_cell_length_c 8.682398
_cell_angle_alpha 149.210668
_cell_angle_beta 148.073244
_cell_angle_gamma 12.031287
_cell_volume 493.757845
_symmetry_space_group_name_H-M "P -1"
_symmetry_group_IT_number 2
_symmetry_cell_setting 'triclinic'
loop_
_space_group_symop_operation_xyz
x,y,z
-x,-y,-z
loop_
_atom_site_type_symbol
_atom_site_label
_atom_site_fract_x
_atom_site_fract_y
_atom_site_fract_z
Si Si1 0.795638 0.095395 0.551846
Si Si2 0.137423 0.492028 0.321942
Si Si3 0.330530 0.892055 0.390193
Si Si4 0.373275 0.209698 0.526690
Si Si5 0.377198 0.641190 0.719426
Si Si6 0.860302 0.789652 0.859952
O O1 0.808051 0.056525 0.670469
O O2 0.511446 0.424613 0.634384
O O3 0.043939 0.937844 0.672481
O O4 0.818192 0.954802 0.195390
O O5 0.407760 0.285206 0.356123
O O6 0.287606 0.335258 0.460767
O O7 0.898594 0.807882 0.494750
O O8 0.000000 0.500000 0.000000
O O9 0.442597 0.703375 0.073848
O O10 0.273427 0.174920 0.240721
O O11 0.183713 0.455440 0.790973
O O12 0.693115 0.922055 0.631781
O O13 0.500000 0.500000 0.500000
#
# Coordination Sequence:
#
# PCOD9023295 Si02
#       6
#     2   2   2   2   2   2
#     4  12  25  47  74 100 146 184 242 288 364 419
#     4  12  26  44  73 105 147 186 239 285 358 424
#     4  12  27  47  74 105 147 190 234 295 358 421
#     4  10  22  40  63 101 140 177 234 282 340 415
#     4  12  28  47  74 107 140 185 246 298 355 418
#     4  10  22  39  67  97 136 185 224 285 350 410
#
# _framework density 24.303412000000002
#
# number of rings (size 3 to 8) (size 9 to 14) (size 15 to 20)
#    0.000    0.667    0.000    7.000    7.000    4.000 
#    0.000    0.000    0.000    0.000    0.000    0.000 
#    0.000    0.000    0.000    0.000    0.000    0.000 
#
# Total GULP energy -67232.139387 kJ/mol
# GULP energy per Si atom -5602.678282 kJ/mol
# Density = 2.424810 g / cm^3
# Si number density = 24.303412 Si / 1000 Ang^3
#
#
#
# Elastic Constant Matrix: (Units=GPa)
#
#
# Indices 1 2 3 4 5 6 
#
# 1 100.6092 8.6225 31.8479 -0.2284 -3.0246 11.1102
# 2 8.6225 87.2060 -2.1119 10.1989 7.7581 4.2449
# 3 31.8479 -2.1119 101.3787 9.3959 20.1911 2.6541
# 4 -0.2284 10.1989 9.3959 35.2322 -0.5909 18.4493
# 5 -3.0246 7.7581 20.1911 -0.5909 28.8903 7.3971
# 6 11.1102 4.2449 2.6541 18.4493 7.3971 48.1668
#
#
#
# Elastic Compliance Matrix: (Units=1/GPa)
#
#
# Indices 1 2 3 4 5 6 
#
# 1 0.012955 -0.002497 -0.006051 0.005577 0.007849 -0.005776
# 2 -0.002497 0.012933 0.002833 -0.005966 -0.006492 0.002562
# 3 -0.006051 0.002833 0.015110 -0.007963 -0.013510 0.005438
# 4 0.005577 -0.005966 -0.007963 0.042202 0.013361 -0.018538
# 5 0.007849 -0.006492 -0.013510 0.013361 0.050309 -0.013338
# 6 -0.005776 0.002562 0.005438 -0.018538 -0.013338 0.030717
#
#
# Mechanical properties :
#
#
# Convention : Reuss Voigt Hill
#
# Bulk Modulus (GPa) = 33.81919 40.65677 37.23798
# Shear Modulus (GPa) = 26.95246 39.18022 33.06634
#
# Velocity S-wave (km/s) = 3.33378 4.01949 3.69258
# Velocity P-wave (km/s) = 5.36324 6.18925 5.79099
#
# Compressibility (1/GPa) = 0.02956901
#
# Stress axis : x y z
#
# Youngs Moduli (GPa) = 77.18881 77.32068 66.18067
#
# Poissons Ratio (x) = 0.19305 0.40044
# Poissons Ratio (y) = 0.19272 -0.18747
# Poissons Ratio (z) = 0.46704 -0.21902
#
# Static dielectric constant tensor:
#      x y z
#    x 2.008960 -0.064510 -0.014480 
#    y -0.064510 1.866480 -0.052290 
#    z -0.014480 -0.052290 1.931810 
# 
# From -- ./inp_files/208591.got.cif
#   From: 2010.05.17/outbox.cif.g08.bks.cpg/sg2_105_cif.got.tgz:208591.got - 2010.06.03 11:33:40.
