data_PCOD9023873
_publ_section_title
;
Structure prediction by ZEFSAII (Michael W. Deem and Ramdas Pophale) SiO2 
 PCOD9023873
Probable space group: P -1
;
_chemical_formula_sum "Si O2"
_cell_formula_units_Z 16
_cell_length_a 5.527975
_cell_length_b 4.915809
_cell_length_c 26.572652
_cell_angle_alpha 119.333534
_cell_angle_beta 93.734275
_cell_angle_gamma 98.477732
_cell_volume 614.683543
_symmetry_space_group_name_H-M "P -1"
_symmetry_group_IT_number 2
_symmetry_cell_setting 'triclinic'
loop_
_space_group_symop_operation_xyz
x,y,z
-x,-y,-z
loop_
_atom_site_type_symbol
_atom_site_label
_atom_site_fract_x
_atom_site_fract_y
_atom_site_fract_z
Si Si1 0.168444 0.287857 0.673265
Si Si2 0.376928 0.451271 0.235078
Si Si3 0.945828 0.381502 0.430962
Si Si4 0.492367 0.203965 0.826841
Si Si5 0.518633 0.368048 0.544072
Si Si6 0.876591 0.877927 0.040681
Si Si7 0.366766 0.789784 0.064977
Si Si8 0.036610 0.949363 0.736876
O O1 0.437689 0.313598 0.704502
O O2 0.288057 0.475650 0.576998
O O3 0.152495 0.647484 0.691809
O O4 0.118772 0.999605 0.607332
O O5 0.514567 0.167526 0.194499
O O6 0.170334 0.242983 0.247644
O O7 0.327095 0.636492 0.201118
O O8 0.209689 0.500336 0.417758
O O9 0.000000 0.500000 0.500000
O O10 0.012520 0.853389 0.294863
O O11 0.227463 0.187918 0.796343
O O12 0.562857 0.359633 0.895374
O O13 0.500000 0.500000 0.500000
O O14 0.500000 0.000000 0.500000
O O15 0.627047 0.993607 0.065323
O O16 0.120742 0.936846 0.084672
O O17 0.752076 0.501238 0.999895
O O18 0.000000 0.000000 0.000000
#
# Coordination Sequence:
#
# PCOD9023873 Si02
#       8
#     2   2   2   2   2   2   2   2
#     4  10  23  40  63  94 126 167 213 267 330 397
#     4  10  22  43  64  91 130 162 218 271 340 384
#     4  10  23  43  66  97 130 170 218 265 324 397
#     4  10  23  39  64  98 121 169 220 277 320 395
#     4  10  22  40  62  88 127 161 206 260 308 371
#     4  10  22  42  61  92 135 177 214 270 327 390
#     4  10  23  39  62  96 127 170 228 264 327 390
#     4  10  22  42  63  92 126 166 214 270 334 394
#
# _framework density 26.029655000000002
#
# number of rings (size 3 to 8) (size 9 to 14) (size 15 to 20)
#    0.000    2.000    0.000    1.500    5.250    4.000 
#    2.250    0.000    0.000    0.000    0.000    0.000 
#    0.000    0.000    0.000    0.000    0.000    0.000 
#
# Total GULP energy -89323.768671 kJ/mol
# GULP energy per Si atom -5582.735542 kJ/mol
# Density = 2.597041 g / cm^3
# Si number density = 26.029655 Si / 1000 Ang^3
#
#
#
# Elastic Constant Matrix: (Units=GPa)
#
#
# Indices 1 2 3 4 5 6 
#
# 1 186.8579 25.8561 15.0689 0.7246 -2.1693 25.7723
# 2 25.8561 146.3598 3.4651 -5.3431 -3.7182 4.1246
# 3 15.0689 3.4651 73.1453 -5.0155 11.2617 13.9013
# 4 0.7246 -5.3431 -5.0155 38.6328 11.4653 -8.6887
# 5 -2.1693 -3.7182 11.2617 11.4653 23.2871 -4.6092
# 6 25.7723 4.1246 13.9013 -8.6887 -4.6092 41.9372
#
#
#
# Elastic Compliance Matrix: (Units=1/GPa)
#
#
# Indices 1 2 3 4 5 6 
#
# 1 0.006054 -0.000983 -0.000723 -0.001363 0.000718 -0.003588
# 2 -0.000983 0.007054 -0.000252 0.000771 0.000825 0.000244
# 3 -0.000723 -0.000252 0.016959 0.004368 -0.011551 -0.005517
# 4 -0.001363 0.000771 0.004368 0.032681 -0.017380 0.004175
# 5 0.000718 0.000825 -0.011551 -0.017380 0.058499 0.006135
# 6 -0.003588 0.000244 -0.005517 0.004175 0.006135 0.029394
#
#
# Mechanical properties :
#
#
# Convention : Reuss Voigt Hill
#
# Bulk Modulus (GPa) = 38.23871 55.01590 46.62731
# Shear Modulus (GPa) = 30.62323 44.90293 37.76308
#
# Velocity S-wave (km/s) = 3.43370 4.15790 3.81303
# Velocity P-wave (km/s) = 5.51749 6.65076 6.11045
#
# Compressibility (1/GPa) = 0.02615151
#
# Stress axis : x y z
#
# Youngs Moduli (GPa) = 165.16769 141.75688 58.96651
#
# Poissons Ratio (x) = 0.13933 0.04262
# Poissons Ratio (y) = 0.16234 0.01488
# Poissons Ratio (z) = 0.11938 0.03577
#
# Static dielectric constant tensor:
#      x y z
#    x 2.297040 -0.074700 -0.088760 
#    y -0.074700 2.087010 -0.040350 
#    z -0.088760 -0.040350 2.116030 
# 
# From -- ./inp_files/603437.got.cif
#   From: 2010.05.17/outbox.cif.g08.bks.cpg/sg2_302_cif.got.tgz:603437.got - 2010.06.03 11:33:40.
