data_PCOD9023550
_publ_section_title
;
Structure prediction by ZEFSAII (Michael W. Deem and Ramdas Pophale) SiO2 
 PCOD9023550
Probable space group: P -1
;
_chemical_formula_sum "Si O2"
_cell_formula_units_Z 14
_cell_length_a 18.375350
_cell_length_b 9.233069
_cell_length_c 11.280671
_cell_angle_alpha 113.423311
_cell_angle_beta 45.943418
_cell_angle_gamma 148.530585
_cell_volume 612.752093
_symmetry_space_group_name_H-M "P -1"
_symmetry_group_IT_number 2
_symmetry_cell_setting 'triclinic'
loop_
_space_group_symop_operation_xyz
x,y,z
-x,-y,-z
loop_
_atom_site_type_symbol
_atom_site_label
_atom_site_fract_x
_atom_site_fract_y
_atom_site_fract_z
Si Si1 0.636738 0.078032 0.953717
Si Si2 0.216705 0.204332 0.803115
Si Si3 0.281475 0.406762 0.536408
Si Si4 0.601763 0.770525 0.717996
Si Si5 0.970907 0.652318 0.196427
Si Si6 0.660518 0.062413 0.185312
Si Si7 0.881282 0.258793 0.350905
O O1 0.880757 0.450635 0.786914
O O2 0.603163 0.856575 0.869992
O O3 0.500000 0.000000 0.000000
O O4 0.583321 0.020625 0.133402
O O5 0.311158 0.403808 0.639548
O O6 0.374556 0.443433 0.809890
O O7 0.182857 0.973104 0.738317
O O8 0.000000 0.000000 0.000000
O O9 0.289978 0.252411 0.409480
O O10 0.072684 0.223763 0.695291
O O11 0.472505 0.770067 0.390163
O O12 0.734908 0.054568 0.564645
O O13 0.889970 0.433153 0.325004
O O14 0.825249 0.405093 0.169748
O O15 0.202607 0.907729 0.989092
#
# Coordination Sequence:
#
# PCOD9023550 Si02
#       7
#     2   2   2   2   2   2   2
#     4  11  25  42  68  97 138 185 219 270 334 411
#     4  11  24  40  71 100 135 172 226 283 336 388
#     4  11  24  40  67  98 129 175 217 285 335 382
#     4  11  24  43  66 100 138 174 225 274 338 404
#     4  10  22  39  71  96 130 173 225 284 330 384
#     4  10  23  41  64  98 136 171 228 274 329 400
#     4  10  22  45  67  99 130 177 228 279 323 403
#
# _framework density 22.847739000000001
#
# number of rings (size 3 to 8) (size 9 to 14) (size 15 to 20)
#    0.000    1.429    0.000    5.143   12.000    0.571 
#    0.000    2.857    0.000    0.000    0.000    0.000 
#    0.000    0.000    0.000    0.000    0.000    0.000 
#
# Total GULP energy -78418.836937 kJ/mol
# GULP energy per Si atom -5601.345496 kJ/mol
# Density = 2.279574 g / cm^3
# Si number density = 22.847739 Si / 1000 Ang^3
#
#
#
# Elastic Constant Matrix: (Units=GPa)
#
#
# Indices 1 2 3 4 5 6 
#
# 1 116.1091 24.3197 27.9157 -2.3327 -6.6292 2.5376
# 2 24.3197 50.0965 16.4805 -6.9531 -3.8297 17.3701
# 3 27.9157 16.4805 59.1170 -0.7589 -11.8089 -1.4965
# 4 -2.3327 -6.9531 -0.7589 25.1341 -5.6262 -7.1373
# 5 -6.6292 -3.8297 -11.8089 -5.6262 38.6583 7.8020
# 6 2.5376 17.3701 -1.4965 -7.1373 7.8020 32.5161
#
#
#
# Elastic Compliance Matrix: (Units=1/GPa)
#
#
# Indices 1 2 3 4 5 6 
#
# 1 0.010362 -0.004278 -0.003672 0.000036 -0.000031 0.001323
# 2 -0.004278 0.030634 -0.006003 0.004213 0.004398 -0.016437
# 3 -0.003672 -0.006003 0.021358 0.000688 0.004693 0.003502
# 4 0.000036 0.004213 0.000688 0.043993 0.005818 0.006039
# 5 -0.000031 0.004398 0.004693 0.005818 0.030214 -0.008104
# 6 0.001323 -0.016437 0.003502 0.006039 -0.008104 0.042863
#
#
# Mechanical properties :
#
#
# Convention : Reuss Voigt Hill
#
# Bulk Modulus (GPa) = 29.03099 40.30604 34.66851
# Shear Modulus (GPa) = 22.85056 29.70216 26.27636
#
# Velocity S-wave (km/s) = 3.16590 3.60947 3.39494
# Velocity P-wave (km/s) = 5.10860 5.92034 5.52939
#
# Compressibility (1/GPa) = 0.03444595
#
# Stress axis : x y z
#
# Youngs Moduli (GPa) = 96.50966 32.64394 46.82009
#
# Poissons Ratio (x) = 0.13965 0.17194
# Poissons Ratio (y) = 0.41287 0.28108
# Poissons Ratio (z) = 0.35442 0.19597
#
# Static dielectric constant tensor:
#      x y z
#    x 1.851630 -0.037690 -0.006590 
#    y -0.037690 1.845300 0.014560 
#    z -0.006590 0.014560 1.863040 
# 
# From -- ./inp_files/391832.got.cif
#   From: 2010.05.17/outbox.cif.g08.bks.cpg/sg2_196_cif.got.tgz:391832.got - 2010.06.03 11:33:40.
