data_PCOD9023063
_publ_section_title
;
Structure prediction by ZEFSAII (Michael W. Deem and Ramdas Pophale) SiO2 
 PCOD9023063
Probable space group: P -1
;
_chemical_formula_sum "Si O2"
_cell_formula_units_Z 16
_cell_length_a 5.391258
_cell_length_b 15.350456
_cell_length_c 15.721812
_cell_angle_alpha 38.499953
_cell_angle_beta 82.642913
_cell_angle_gamma 94.404103
_cell_volume 769.569117
_symmetry_space_group_name_H-M "P -1"
_symmetry_group_IT_number 2
_symmetry_cell_setting 'triclinic'
loop_
_space_group_symop_operation_xyz
x,y,z
-x,-y,-z
loop_
_atom_site_type_symbol
_atom_site_label
_atom_site_fract_x
_atom_site_fract_y
_atom_site_fract_z
Si Si1 0.862651 0.557768 0.884599
Si Si2 0.330329 0.679862 0.670005
Si Si3 0.997826 0.908378 0.307828
Si Si4 0.567395 0.614508 0.535209
Si Si5 0.519425 0.707837 0.829837
Si Si6 0.798781 0.064728 0.906706
Si Si7 0.742075 0.371810 0.629792
Si Si8 0.499768 0.982413 0.350480
O O1 0.816535 0.704647 0.813778
O O2 0.023869 0.603968 0.756677
O O3 0.612154 0.415556 0.000525
O O4 0.000000 0.500000 0.000000
O O5 0.426484 0.618433 0.628051
O O6 0.441161 0.657258 0.774721
O O7 0.428490 0.853908 0.521003
O O8 0.849541 0.734902 0.438870
O O9 0.760769 0.972044 0.298366
O O10 0.132039 0.967593 0.167833
O O11 0.237760 0.941655 0.336381
O O12 0.582355 0.453311 0.634688
O O13 0.422707 0.667486 0.421054
O O14 0.465492 0.857692 0.737411
O O15 0.823003 0.238261 0.770390
O O16 0.500000 0.000000 0.000000
O O17 0.000000 0.000000 0.000000
O O18 0.000000 0.500000 0.500000
#
# Coordination Sequence:
#
# PCOD9023063 Si02
#       8
#     2   2   2   2   2   2   2   2
#     4   9  21  40  63  84 131 179 216 277 339 390
#     4  10  22  39  66 100 129 172 221 289 329 398
#     4  11  24  46  67  98 141 181 214 288 340 401
#     4  10  23  42  69 104 132 174 233 284 346 400
#     4  10  22  42  63  93 131 182 220 273 339 401
#     4  12  25  45  70 100 141 179 223 279 351 408
#     4  11  23  43  76  96 136 182 228 282 342 420
#     4  11  25  40  71  98 134 174 232 272 335 397
#
# _framework density 20.790855000000001
#
# number of rings (size 3 to 8) (size 9 to 14) (size 15 to 20)
#    0.000    1.500    1.250    3.375    8.750    0.500 
#    2.250    5.000    0.000    0.000    0.000    0.000 
#    0.000    0.000    0.000    0.000    0.000    0.000 
#
# Total GULP energy -89139.871680 kJ/mol
# GULP energy per Si atom -5571.241980 kJ/mol
# Density = 2.074353 g / cm^3
# Si number density = 20.790855 Si / 1000 Ang^3
#
#
#
# Elastic Constant Matrix: (Units=GPa)
#
#
# Indices 1 2 3 4 5 6 
#
# 1 117.4790 42.5439 52.8779 0.4774 -4.1713 -20.7735
# 2 42.5439 104.1284 58.0787 -11.3589 0.1551 -30.6333
# 3 52.8779 58.0787 144.2908 -4.3590 -10.0488 -32.2115
# 4 0.4774 -11.3589 -4.3590 24.9334 -19.2831 0.2088
# 5 -4.1713 0.1551 -10.0488 -19.2831 46.0934 0.9886
# 6 -20.7735 -30.6333 -32.2115 0.2088 0.9886 35.9630
#
#
#
# Elastic Compliance Matrix: (Units=1/GPa)
#
#
# Indices 1 2 3 4 5 6 
#
# 1 0.010997 -0.002801 -0.002661 -0.002460 -0.000639 0.001615
# 2 -0.002801 0.016071 -0.002920 0.008724 0.002505 0.009337
# 3 -0.002661 -0.002920 0.010593 0.003025 0.003229 0.005358
# 4 -0.002460 0.008724 0.003025 0.066203 0.027941 0.007568
# 5 -0.000639 0.002505 0.003229 0.027941 0.033946 0.003562
# 6 0.001615 0.009337 0.005358 0.007568 0.003562 0.041349
#
#
# Mechanical properties :
#
#
# Convention : Reuss Voigt Hill
#
# Bulk Modulus (GPa) = 47.85299 74.76656 61.30978
# Shear Modulus (GPa) = 24.64394 35.55779 30.10087
#
# Velocity S-wave (km/s) = 3.44659 4.14002 3.80912
# Velocity P-wave (km/s) = 6.23739 7.67413 6.99276
#
# Compressibility (1/GPa) = 0.02089734
#
# Stress axis : x y z
#
# Youngs Moduli (GPa) = 90.93273 62.22235 94.40017
#
# Poissons Ratio (x) = 0.17431 0.25119
# Poissons Ratio (y) = 0.25473 0.27565
# Poissons Ratio (z) = 0.24196 0.18169
#
# Static dielectric constant tensor:
#      x y z
#    x 2.153320 0.022430 -0.031650 
#    y 0.022430 1.763510 -0.030800 
#    z -0.031650 -0.030800 1.760610 
# 
# From -- ./inp_files/484228.got.cif
#   From: 2010.05.17/outbox.cif.g08.bks.cpg/sg2_243_cif.got.tgz:484228.got - 2010.06.03 11:33:40.
