data_PCOD9023902
_publ_section_title
;
Structure prediction by ZEFSAII (Michael W. Deem and Ramdas Pophale) SiO2 
 PCOD9023902
Probable space group: P -1
;
_chemical_formula_sum "Si O2"
_cell_formula_units_Z 14
_cell_length_a 15.874766
_cell_length_b 5.137256
_cell_length_c 8.166813
_cell_angle_alpha 88.997281
_cell_angle_beta 59.880710
_cell_angle_gamma 98.857639
_cell_volume 565.720097
_symmetry_space_group_name_H-M "P -1"
_symmetry_group_IT_number 2
_symmetry_cell_setting 'triclinic'
loop_
_space_group_symop_operation_xyz
x,y,z
-x,-y,-z
loop_
_atom_site_type_symbol
_atom_site_label
_atom_site_fract_x
_atom_site_fract_y
_atom_site_fract_z
Si Si1 0.570116 0.280287 0.435843
Si Si2 0.091365 0.489108 0.639602
Si Si3 0.131875 0.512316 0.212889
Si Si4 0.794061 0.943843 0.361451
Si Si5 0.398276 0.524413 0.927079
Si Si6 0.370917 0.459775 0.305632
Si Si7 0.749728 0.929942 0.025182
O O1 0.500000 0.500000 0.500000
O O2 0.631165 0.333789 0.208509
O O3 0.629517 0.339590 0.545015
O O4 0.500000 0.000000 0.500000
O O5 0.114648 0.462238 0.424049
O O6 0.125414 0.248589 0.704308
O O7 0.975190 0.490844 0.764031
O O8 0.153911 0.765669 0.638550
O O9 0.183633 0.286073 0.089309
O O10 0.197092 0.799606 0.111279
O O11 0.707472 0.799785 0.568759
O O12 0.750262 0.943511 0.221541
O O13 0.517462 0.597485 0.817036
O O14 0.354586 0.579367 0.143938
O O15 0.358482 0.211596 0.935540
#
# Coordination Sequence:
#
# PCOD9023902 Si02
#       7
#     2   2   2   2   2   2   2
#     4  10  22  40  62  90 127 168 219 272 324 388
#     4  11  25  46  71 100 137 181 232 290 349 416
#     4  11  25  46  71 100 137 181 232 290 349 416
#     4  12  25  43  70 103 140 182 231 288 347 415
#     4  10  22  43  69  99 137 183 229 280 340 407
#     4  10  22  43  69  99 137 183 229 280 340 407
#     4  12  25  43  70 103 140 182 231 288 347 415
#
# _framework density 24.747221
#
# number of rings (size 3 to 8) (size 9 to 14) (size 15 to 20)
#    0.000    1.143    1.429    4.286    0.000   10.857 
#    0.000    5.714    0.000    0.000    0.000    0.000 
#    0.000    0.000    0.000    0.000    0.000    0.000 
#
# Total GULP energy -78514.226391 kJ/mol
# GULP energy per Si atom -5608.159028 kJ/mol
# Density = 2.469089 g / cm^3
# Si number density = 24.747221 Si / 1000 Ang^3
#
#
#
# Elastic Constant Matrix: (Units=GPa)
#
#
# Indices 1 2 3 4 5 6 
#
# 1 115.6392 37.8370 23.3162 0.4504 -1.7436 1.1593
# 2 37.8370 128.1632 22.5274 -0.2239 6.4162 4.7588
# 3 23.3162 22.5274 119.6988 2.8409 29.7341 2.8609
# 4 0.4504 -0.2239 2.8409 33.2301 8.4523 3.5026
# 5 -1.7436 6.4162 29.7341 8.4523 64.1874 0.6594
# 6 1.1593 4.7588 2.8609 3.5026 0.6594 42.4483
#
#
#
# Elastic Compliance Matrix: (Units=1/GPa)
#
#
# Indices 1 2 3 4 5 6 
#
# 1 0.009905 -0.002691 -0.001767 -0.000375 0.001404 0.000159
# 2 -0.002691 0.008832 -0.000992 0.000411 -0.000541 -0.000875
# 3 -0.001767 -0.000992 0.010042 0.000391 -0.004647 -0.000477
# 4 -0.000375 0.000411 0.000391 0.031446 -0.004347 -0.002589
# 5 0.001404 -0.000541 -0.004647 -0.004347 0.018393 0.000408
# 6 0.000159 -0.000875 -0.000477 -0.002589 0.000408 0.023891
#
#
# Mechanical properties :
#
#
# Convention : Reuss Voigt Hill
#
# Bulk Modulus (GPa) = 55.93145 58.98470 57.45808
# Shear Modulus (GPa) = 41.88731 46.62785 44.25758
#
# Velocity S-wave (km/s) = 4.11859 4.34541 4.23352
# Velocity P-wave (km/s) = 6.72809 7.00452 6.86770
#
# Compressibility (1/GPa) = 0.01787903
#
# Stress axis : x y z
#
# Youngs Moduli (GPa) = 100.95683 113.22936 99.58441
#
# Poissons Ratio (x) = 0.30465 0.17595
# Poissons Ratio (y) = 0.27163 0.09883
# Poissons Ratio (z) = 0.17837 0.11237
#
# Static dielectric constant tensor:
#      x y z
#    x 2.148110 -0.090290 -0.034190 
#    y -0.090290 1.968850 0.066380 
#    z -0.034190 0.066380 1.981330 
# 
# From -- ./inp_files/322725.got.cif
#   From: 2010.05.17/outbox.cif.g08.bks.cpg/sg2_162_cif.got.tgz:322725.got - 2010.06.03 11:33:40.
