data_PCOD9023366
_publ_section_title
;
Structure prediction by ZEFSAII (Michael W. Deem and Ramdas Pophale) SiO2 
 PCOD9023366
Probable space group: P -1
;
_chemical_formula_sum "Si O2"
_cell_formula_units_Z 15
_cell_length_a 14.115830
_cell_length_b 12.181554
_cell_length_c 22.356802
_cell_angle_alpha 18.704241
_cell_angle_beta 152.466880
_cell_angle_gamma 146.644470
_cell_volume 569.599785
_symmetry_space_group_name_H-M "P -1"
_symmetry_group_IT_number 2
_symmetry_cell_setting 'triclinic'
loop_
_space_group_symop_operation_xyz
x,y,z
-x,-y,-z
loop_
_atom_site_type_symbol
_atom_site_label
_atom_site_fract_x
_atom_site_fract_y
_atom_site_fract_z
Si Si1 0.244261 0.762203 0.329419
Si Si2 0.535556 0.697603 0.627214
Si Si3 0.851073 0.133312 0.951493
Si Si4 0.500000 0.500000 0.500000
Si Si5 0.526233 0.522853 0.931176
Si Si6 0.852376 0.171678 0.498684
Si Si7 0.074263 0.845399 0.683538
Si Si8 0.858882 0.173664 0.076556
O O1 0.329386 0.643417 0.503013
O O2 0.332487 0.527127 0.447660
O O3 0.359988 0.118737 0.199491
O O4 0.004483 0.856524 0.149319
O O5 0.641647 0.339614 0.892759
O O6 0.500000 0.000000 0.500000
O O7 0.698133 0.860545 0.587712
O O8 0.632686 0.194435 0.767310
O O9 0.844918 0.100040 0.036632
O O10 0.957267 0.497275 0.811309
O O11 0.315632 0.543803 0.764370
O O12 0.500000 0.500000 0.000000
O O13 0.688246 0.250414 0.136244
O O14 0.995095 0.094164 0.562227
O O15 0.015757 0.141699 0.659561
O O16 0.000000 0.000000 0.500000
O O17 0.000000 0.500000 0.000000
#
# Coordination Sequence:
#
# PCOD9023366 Si02
#       8
#     2   2   2   1   2   2   2   2
#     4  10  21  34  54  79 114 149 189 229 275 342
#     4  10  18  30  52  79 115 147 176 234 293 339
#     4  11  21  37  53  84 112 153 190 230 284 340
#     4  12  22  38  54  76 124 154 192 222 276 348
#     4  10  20  33  51  79 116 148 184 230 284 333
#     4  10  19  30  46  80 112 146 176 223 293 338
#     4  11  20  33  55  79 119 151 185 234 284 342
#     4  10  17  31  52  75 118 140 180 237 291 338
#
# _framework density 26.334281000000001
#
# number of rings (size 3 to 8) (size 9 to 14) (size 15 to 20)
#    0.000    1.600    5.333    2.800    3.733    0.000 
#    0.000    0.000    0.000    0.000    0.000    1.867 
#    8.000    0.800    0.000    0.000    0.000    0.000 
#
# Total GULP energy -83681.662092 kJ/mol
# GULP energy per Si atom -5578.777473 kJ/mol
# Density = 2.627434 g / cm^3
# Si number density = 26.334281 Si / 1000 Ang^3
#
#
#
# Elastic Constant Matrix: (Units=GPa)
#
#
# Indices 1 2 3 4 5 6 
#
# 1 125.1334 44.5960 88.2958 3.9740 26.5449 -28.7014
# 2 44.5960 86.5918 47.2773 -7.4607 3.3329 -2.1901
# 3 88.2958 47.2773 281.9112 25.1068 37.6767 -34.9531
# 4 3.9740 -7.4607 25.1068 29.0243 -11.2576 -9.1669
# 5 26.5449 3.3329 37.6767 -11.2576 60.6486 -5.0296
# 6 -28.7014 -2.1901 -34.9531 -9.1669 -5.0296 46.2785
#
#
#
# Elastic Compliance Matrix: (Units=1/GPa)
#
#
# Indices 1 2 3 4 5 6 
#
# 1 0.013759 -0.005890 -0.001850 -0.001559 -0.004335 0.006077
# 2 -0.005890 0.016460 -0.002595 0.008204 0.004583 -0.002711
# 3 -0.001850 -0.002595 0.005812 -0.006435 -0.003734 0.001439
# 4 -0.001559 0.008204 -0.006435 0.049609 0.013927 0.005901
# 5 -0.004335 0.004583 -0.003734 0.013927 0.023036 -0.000029
# 6 0.006077 -0.002711 0.001439 0.005901 -0.000029 0.027502
#
#
# Mechanical properties :
#
#
# Convention : Reuss Voigt Hill
#
# Bulk Modulus (GPa) = 65.09500 94.88606 79.99053
# Shear Modulus (GPa) = 30.87026 48.08809 39.47918
#
# Velocity S-wave (km/s) = 3.42752 4.27788 3.87609
# Velocity P-wave (km/s) = 6.35895 7.77882 7.10444
#
# Compressibility (1/GPa) = 0.01536216
#
# Stress axis : x y z
#
# Youngs Moduli (GPa) = 72.68112 60.75158 172.04626
#
# Poissons Ratio (x) = 0.35781 0.31827
# Poissons Ratio (y) = 0.42807 0.44647
# Poissons Ratio (z) = 0.13445 0.15765
#
# Static dielectric constant tensor:
#      x y z
#    x 2.051230 0.099990 0.019640 
#    y 0.099990 2.170040 -0.057750 
#    z 0.019640 -0.057750 2.686240 
# 
# From -- ./inp_files/421983.got.cif
#   From: 2010.05.17/outbox.cif.g08.bks.cpg/sg2_211_cif.got.tgz:421983.got - 2010.06.03 11:33:40.
