data_PCOD9023482
_publ_section_title
;
Structure prediction by ZEFSAII (Michael W. Deem and Ramdas Pophale) SiO2 
 PCOD9023482
Probable space group: P -1
;
_chemical_formula_sum "Si O2"
_cell_formula_units_Z 16
_cell_length_a 9.446972
_cell_length_b 14.394410
_cell_length_c 9.548912
_cell_angle_alpha 65.253474
_cell_angle_beta 52.175238
_cell_angle_gamma 99.120086
_cell_volume 759.585382
_symmetry_space_group_name_H-M "P -1"
_symmetry_group_IT_number 2
_symmetry_cell_setting 'triclinic'
loop_
_space_group_symop_operation_xyz
x,y,z
-x,-y,-z
loop_
_atom_site_type_symbol
_atom_site_label
_atom_site_fract_x
_atom_site_fract_y
_atom_site_fract_z
Si Si1 0.274051 0.981382 0.177752
Si Si2 0.872447 0.798028 0.370035
Si Si3 0.277112 0.376051 0.159147
Si Si4 0.483551 0.824713 0.632154
Si Si5 0.246570 0.916049 0.545401
Si Si6 0.749932 0.789304 0.972542
Si Si7 0.581565 0.629962 0.438831
Si Si8 0.796386 0.451247 0.053984
O O1 0.286051 0.106437 0.117416
O O2 0.191923 0.904589 0.421661
O O3 0.116448 0.915343 0.180562
O O4 0.500000 0.000000 0.000000
O O5 0.814561 0.715514 0.596313
O O6 0.702572 0.837153 0.440342
O O7 0.815327 0.709524 0.327357
O O8 0.311132 0.310355 0.050334
O O9 0.500000 0.500000 0.000000
O O10 0.146642 0.432085 0.148253
O O11 0.359610 0.849426 0.572262
O O12 0.305129 0.681001 0.880608
O O13 0.579224 0.937094 0.614598
O O14 0.010921 0.857348 0.798927
O O15 0.609667 0.719911 0.240015
O O16 0.500000 0.500000 0.500000
O O17 0.403636 0.589952 0.692862
O O18 0.000000 0.500000 0.000000
#
# Coordination Sequence:
#
# PCOD9023482 Si02
#       8
#     2   2   2   2   2   2   2   2
#     4  12  28  43  67 102 137 179 228 288 342 405
#     4  11  23  44  69  98 139 173 230 276 345 407
#     4  12  21  41  72  98 126 184 220 273 338 408
#     4  10  22  39  70 100 128 178 230 276 332 415
#     4  11  23  44  69  98 134 176 232 280 340 412
#     4  12  24  43  73  94 139 178 223 283 348 398
#     4  11  24  43  66 103 131 176 224 279 338 405
#     4  11  24  41  67  99 138 175 228 276 336 402
#
# _framework density 21.064121
#
# number of rings (size 3 to 8) (size 9 to 14) (size 15 to 20)
#    0.000    0.750    6.250    1.875    3.500    2.500 
#    0.000    0.000    0.000    3.000    0.000    0.000 
#    0.000    0.000    0.000    0.000    0.000    0.000 
#
# Total GULP energy -89314.158454 kJ/mol
# GULP energy per Si atom -5582.134903 kJ/mol
# Density = 2.101618 g / cm^3
# Si number density = 21.064121 Si / 1000 Ang^3
#
#
#
# Elastic Constant Matrix: (Units=GPa)
#
#
# Indices 1 2 3 4 5 6 
#
# 1 140.7872 51.5293 8.2160 -14.8456 1.7965 -10.3195
# 2 51.5293 113.3609 7.9687 -27.7624 -1.1445 16.1120
# 3 8.2160 7.9687 45.8690 -2.3384 13.1465 -13.2672
# 4 -14.8456 -27.7624 -2.3384 20.0771 7.8963 1.9122
# 5 1.7965 -1.1445 13.1465 7.8963 38.4818 -4.1273
# 6 -10.3195 16.1120 -13.2672 1.9122 -4.1273 44.2705
#
#
#
# Elastic Compliance Matrix: (Units=1/GPa)
#
#
# Indices 1 2 3 4 5 6 
#
# 1 0.009102 -0.004742 0.000411 -0.000047 -0.000273 0.003947
# 2 -0.004742 0.018600 -0.002814 0.024588 -0.004402 -0.010191
# 3 0.000411 -0.002814 0.027346 0.002351 -0.009030 0.008372
# 4 -0.000047 0.024588 0.002351 0.093585 -0.020800 -0.014236
# 5 -0.000273 -0.004402 -0.009030 -0.020800 0.033527 0.002857
# 6 0.003947 -0.010191 0.008372 -0.014236 0.002857 0.030607
#
#
# Mechanical properties :
#
#
# Convention : Reuss Voigt Hill
#
# Bulk Modulus (GPa) = 24.53470 48.38278 36.45874
# Shear Modulus (GPa) = 20.77760 36.05275 28.41517
#
# Velocity S-wave (km/s) = 3.14410 4.14160 3.67684
# Velocity P-wave (km/s) = 4.98532 6.77419 5.94740
#
# Compressibility (1/GPa) = 0.04075859
#
# Stress axis : x y z
#
# Youngs Moduli (GPa) = 109.86244 53.76260 36.56862
#
# Poissons Ratio (x) = 0.25492 -0.01503
# Poissons Ratio (y) = 0.52093 0.10292
# Poissons Ratio (z) = -0.04516 0.15131
#
# Static dielectric constant tensor:
#      x y z
#    x 1.800200 0.062740 0.022260 
#    y 0.062740 1.918260 0.013150 
#    z 0.022260 0.013150 1.839730 
# 
# From -- ./inp_files/205844.got.cif
#   From: 2010.05.17/outbox.cif.g08.bks.cpg/sg2_103_cif.got.tgz:205844.got - 2010.06.03 11:33:40.
