data_PCOD9023590
_publ_section_title
;
Structure prediction by ZEFSAII (Michael W. Deem and Ramdas Pophale) SiO2 
 PCOD9023590
Probable space group: P -1
;
_chemical_formula_sum "Si O2"
_cell_formula_units_Z 16
_cell_length_a 17.439644
_cell_length_b 5.516466
_cell_length_c 23.326321
_cell_angle_alpha 98.647586
_cell_angle_beta 17.781559
_cell_angle_gamma 104.454191
_cell_volume 634.041006
_symmetry_space_group_name_H-M "P -1"
_symmetry_group_IT_number 2
_symmetry_cell_setting 'triclinic'
loop_
_space_group_symop_operation_xyz
x,y,z
-x,-y,-z
loop_
_atom_site_type_symbol
_atom_site_label
_atom_site_fract_x
_atom_site_fract_y
_atom_site_fract_z
Si Si1 0.807226 0.650642 0.746773
Si Si2 0.594998 0.354280 0.479029
Si Si3 0.989451 0.127484 0.783173
Si Si4 0.172647 0.311513 0.387414
Si Si5 0.455155 0.464026 0.757221
Si Si6 0.501914 0.857740 0.051681
Si Si7 0.084353 0.943736 0.827828
Si Si8 0.679733 0.009816 0.554389
O O1 0.670725 0.672813 0.784617
O O2 0.680544 0.683867 0.898833
O O3 0.796649 0.351146 0.740104
O O4 0.088206 0.883113 0.558923
O O5 0.500000 0.500000 0.500000
O O6 0.839281 0.573803 0.343875
O O7 0.741821 0.187910 0.336188
O O8 0.319642 0.178887 0.700302
O O9 0.175016 0.999786 0.610021
O O10 0.969629 0.074972 0.863322
O O11 0.682813 0.028124 0.977804
O O12 0.377392 0.426678 0.298500
O O13 0.000000 0.500000 0.500000
O O14 0.000000 0.000000 0.500000
O O15 0.497768 0.718131 0.695179
O O16 0.562417 0.243143 0.647312
O O17 0.146321 0.285189 0.984236
O O18 0.500000 0.000000 0.000000
#
# Coordination Sequence:
#
# PCOD9023590 Si02
#       8
#     2   2   2   2   2   2   2   2
#     4  10  22  40  55  88 127 178 226 276 330 393
#     4   9  21  44  74 100 129 172 230 292 350 412
#     4  10  23  42  70  99 132 188 230 280 347 415
#     4  12  23  39  61  88 127 182 226 264 328 398
#     4  12  25  44  65 103 138 182 227 291 340 415
#     4  10  23  37  63  94 134 173 231 281 322 397
#     4  10  23  44  73  99 135 172 236 289 346 413
#     4  11  26  42  66  97 143 180 223 274 354 405
#
# _framework density 25.234963
#
# number of rings (size 3 to 8) (size 9 to 14) (size 15 to 20)
#    0.000    1.500    2.500    0.750   10.500    3.000 
#    0.000    1.250    0.000    0.000    0.000    0.000 
#    0.000    0.000    0.000    0.000    0.000    0.000 
#
# Total GULP energy -89098.664912 kJ/mol
# GULP energy per Si atom -5568.666557 kJ/mol
# Density = 2.517753 g / cm^3
# Si number density = 25.234963 Si / 1000 Ang^3
#
#
#
# Elastic Constant Matrix: (Units=GPa)
#
#
# Indices 1 2 3 4 5 6 
#
# 1 49.6685 5.1765 -7.6810 -5.7982 11.7053 -0.6132
# 2 5.1765 109.9643 30.0820 -30.6334 -3.6456 6.1850
# 3 -7.6810 30.0820 99.7642 -43.9838 2.9687 3.1949
# 4 -5.7982 -30.6334 -43.9838 54.9852 -0.7974 4.1624
# 5 11.7053 -3.6456 2.9687 -0.7974 40.7029 -9.6675
# 6 -0.6132 6.1850 3.1949 4.1624 -9.6675 27.0665
#
#
#
# Elastic Compliance Matrix: (Units=1/GPa)
#
#
# Indices 1 2 3 4 5 6 
#
# 1 0.023618 -0.000820 0.005243 0.006395 -0.008011 -0.003741
# 2 -0.000820 0.011145 -0.000829 0.005704 0.000669 -0.003106
# 3 0.005243 -0.000829 0.017227 0.014215 -0.003812 -0.005273
# 4 0.006395 0.005704 0.014215 0.034070 -0.003951 -0.009487
# 5 -0.008011 0.000669 -0.003812 -0.003951 0.029836 0.011380
# 6 -0.003741 -0.003106 -0.005273 -0.009487 0.011380 0.043717
#
#
# Mechanical properties :
#
#
# Convention : Reuss Voigt Hill
#
# Bulk Modulus (GPa) = 16.89817 34.95024 25.92420
# Shear Modulus (GPa) = 29.04428 40.00553 34.52491
#
# Velocity S-wave (km/s) = 3.39625 3.98593 3.70285
# Velocity P-wave (km/s) = 4.70003 5.92144 5.34573
#
# Compressibility (1/GPa) = 0.05917800
#
# Stress axis : x y z
#
# Youngs Moduli (GPa) = 42.34040 89.72441 58.04975
#
# Poissons Ratio (x) = 0.07356 -0.30437
# Poissons Ratio (y) = 0.03471 0.04814
# Poissons Ratio (z) = -0.22200 0.07441
#
# Static dielectric constant tensor:
#      x y z
#    x 2.185370 0.107220 0.173990 
#    y 0.107220 2.624190 0.200080 
#    z 0.173990 0.200080 2.519760 
# 
# From -- ./inp_files/483813.got.cif
#   From: 2010.05.17/outbox.cif.g08.bks.cpg/sg2_242_cif.got.tgz:483813.got - 2010.06.03 11:33:40.
