data_PCOD9023116
_publ_section_title
;
Structure prediction by ZEFSAII (Michael W. Deem and Ramdas Pophale) SiO2 
 PCOD9023116
Probable space group: P -1
;
_chemical_formula_sum "Si O2"
_cell_formula_units_Z 14
_cell_length_a 9.876390
_cell_length_b 13.555054
_cell_length_c 7.446351
_cell_angle_alpha 75.356559
_cell_angle_beta 137.961837
_cell_angle_gamma 125.702394
_cell_volume 511.302406
_symmetry_space_group_name_H-M "P -1"
_symmetry_group_IT_number 2
_symmetry_cell_setting 'triclinic'
loop_
_space_group_symop_operation_xyz
x,y,z
-x,-y,-z
loop_
_atom_site_type_symbol
_atom_site_label
_atom_site_fract_x
_atom_site_fract_y
_atom_site_fract_z
Si Si1 0.508634 0.804715 0.471008
Si Si2 0.984253 0.009943 0.197844
Si Si3 0.046508 0.633161 0.863112
Si Si4 0.533639 0.033267 0.233004
Si Si5 0.439062 0.582854 0.666595
Si Si6 0.047272 0.217985 0.557720
Si Si7 0.652005 0.444644 0.027542
O O1 0.536319 0.934531 0.408950
O O2 0.538909 0.728653 0.689092
O O3 0.217782 0.698314 0.175814
O O4 0.752747 0.848088 0.565799
O O5 0.984642 0.911669 0.372249
O O6 0.716431 0.980674 0.968419
O O7 0.000000 0.000000 0.000000
O O8 0.025666 0.738869 0.708355
O O9 0.757703 0.503891 0.646841
O O10 0.210513 0.602765 0.920174
O O11 0.802094 0.175891 0.460926
O O12 0.500000 0.000000 0.000000
O O13 0.648703 0.557972 0.890497
O O14 0.261605 0.518500 0.698245
O O15 0.349646 0.328952 0.815676
#
# Coordination Sequence:
#
# PCOD9023116 Si02
#       7
#     2   2   2   2   2   2   2
#     4  11  25  40  65  95 133 167 222 268 329 382
#     4  11  26  43  66  98 135 173 217 272 330 389
#     4  11  22  39  65  95 124 174 214 271 323 392
#     4  11  24  43  66  97 131 171 218 267 326 389
#     4  10  23  42  59  94 128 169 218 270 324 389
#     4  10  22  39  66  92 129 165 221 260 326 388
#     4  10  22  40  67  90 129 171 219 264 332 387
#
# _framework density 27.381053999999999
#
# number of rings (size 3 to 8) (size 9 to 14) (size 15 to 20)
#    0.000    1.429    1.429    2.571    2.000    6.286 
#    0.000    0.000    0.000    0.000    0.000    0.000 
#    0.000    0.000    0.000    0.000    0.000    0.000 
#
# Total GULP energy -78104.610973 kJ/mol
# GULP energy per Si atom -5578.900784 kJ/mol
# Density = 2.731873 g / cm^3
# Si number density = 27.381054 Si / 1000 Ang^3
#
#
#
# Elastic Constant Matrix: (Units=GPa)
#
#
# Indices 1 2 3 4 5 6 
#
# 1 121.1168 7.6273 31.6199 -18.4197 18.6935 -13.1567
# 2 7.6273 140.2497 58.4821 -52.0412 2.4979 9.3995
# 3 31.6199 58.4821 147.1263 -30.1438 25.3474 12.0424
# 4 -18.4197 -52.0412 -30.1438 69.7733 2.1106 -0.5725
# 5 18.6935 2.4979 25.3474 2.1106 51.6766 1.1653
# 6 -13.1567 9.3995 12.0424 -0.5725 1.1653 22.5626
#
#
#
# Elastic Compliance Matrix: (Units=1/GPa)
#
#
# Indices 1 2 3 4 5 6 
#
# 1 0.010380 0.000866 -0.002087 0.002634 -0.003039 0.007030
# 2 0.000866 0.011177 -0.003020 0.007230 0.000386 -0.002376
# 3 -0.002087 -0.003020 0.009831 0.001520 -0.003871 -0.004968
# 4 0.002634 0.007230 0.001520 0.021150 -0.002876 -0.001602
# 5 -0.003039 0.000386 -0.003871 -0.002876 0.022473 -0.001100
# 6 0.007030 -0.002376 -0.004968 -0.001602 -0.001100 0.052078
#
#
# Mechanical properties :
#
#
# Convention : Reuss Voigt Hill
#
# Bulk Modulus (GPa) = 43.65563 67.10569 55.38066
# Shear Modulus (GPa) = 34.91463 49.52006 42.21735
#
# Velocity S-wave (km/s) = 3.57478 4.25732 3.93089
# Velocity P-wave (km/s) = 5.74605 6.98052 6.39315
#
# Compressibility (1/GPa) = 0.02290655
#
# Stress axis : x y z
#
# Youngs Moduli (GPa) = 96.33721 89.46747 101.72079
#
# Poissons Ratio (x) = -0.07751 0.21232
# Poissons Ratio (y) = -0.08346 0.30719
# Poissons Ratio (z) = 0.20109 0.27018
#
# Static dielectric constant tensor:
#      x y z
#    x 2.228760 -0.090440 -0.083540 
#    y -0.090440 2.203360 0.118260 
#    z -0.083540 0.118260 2.227880 
# 
# From -- ./inp_files/131486.got.cif
#   From: 2010.05.17/outbox.cif.g08.bks.cpg/sg2_66_cif.got.tgz:131486.got - 2010.06.03 11:33:40.
