data_PCOD9023580
_publ_section_title
;
Structure prediction by ZEFSAII (Michael W. Deem and Ramdas Pophale) SiO2 
 PCOD9023580
Probable space group: P -1
;
_chemical_formula_sum "Si O2"
_cell_formula_units_Z 13
_cell_length_a 15.061565
_cell_length_b 8.872428
_cell_length_c 9.466670
_cell_angle_alpha 75.860310
_cell_angle_beta 86.996522
_cell_angle_gamma 27.587839
_cell_volume 528.812364
_symmetry_space_group_name_H-M "P -1"
_symmetry_group_IT_number 2
_symmetry_cell_setting 'triclinic'
loop_
_space_group_symop_operation_xyz
x,y,z
-x,-y,-z
loop_
_atom_site_type_symbol
_atom_site_label
_atom_site_fract_x
_atom_site_fract_y
_atom_site_fract_z
Si Si1 0.317418 0.701131 0.382775
Si Si2 0.198449 0.686135 0.954552
Si Si3 0.000000 0.500000 0.000000
Si Si4 0.716571 0.618050 0.502017
Si Si5 0.951712 0.753245 0.239638
Si Si6 0.848086 0.517051 0.209579
Si Si7 0.529183 0.321602 0.156842
O O1 0.500000 0.500000 0.500000
O O2 0.268239 0.596564 0.446113
O O3 0.398153 0.578241 0.244286
O O4 0.098664 0.136351 0.303235
O O5 0.186809 0.573462 0.867652
O O6 0.172082 0.890274 0.832165
O O7 0.408010 0.362287 0.099896
O O8 0.000000 0.000000 0.000000
O O9 0.024854 0.587262 0.114863
O O10 0.813823 0.712242 0.057545
O O11 0.747882 0.625483 0.339001
O O12 0.869674 0.482504 0.614796
O O13 0.500000 0.000000 0.500000
O O14 0.769865 0.923594 0.266549
O O15 0.500000 0.500000 0.000000
#
# Coordination Sequence:
#
# PCOD9023580 Si02
#       7
#     2   2   1   2   2   2   2
#     4  12  26  46  76 111 145 197 258 303 375 455
#     4  11  19  44  74 108 144 189 253 307 371 449
#     4  12  28  44  78 108 152 198 248 316 386 440
#     4  12  30  50  72 109 158 203 249 314 384 448
#     4  11  24  46  71 107 151 197 248 310 377 445
#     4  12  26  49  78 109 151 201 251 316 375 460
#     4  10  22  39  74 107 141 186 244 309 364 437
#
# _framework density 24.583386999999998
#
# number of rings (size 3 to 8) (size 9 to 14) (size 15 to 20)
#    0.000    0.615    4.615    2.308    8.615    1.846 
#    0.000    1.538    0.000    0.000    0.000    0.000 
#    0.000    0.000    0.000    0.000    0.000    0.000 
#
# Total GULP energy -72368.525297 kJ/mol
# GULP energy per Si atom -5566.809638 kJ/mol
# Density = 2.452743 g / cm^3
# Si number density = 24.583387 Si / 1000 Ang^3
#
#
#
# Elastic Constant Matrix: (Units=GPa)
#
#
# Indices 1 2 3 4 5 6 
#
# 1 144.5568 25.4853 74.5388 15.2109 26.4827 -15.7467
# 2 25.4853 95.1139 51.4810 18.7461 10.3801 -42.4164
# 3 74.5388 51.4810 128.1793 35.6864 28.3697 -20.0526
# 4 15.2109 18.7461 35.6864 55.9450 -13.9899 2.6941
# 5 26.4827 10.3801 28.3697 -13.9899 63.2608 -4.3227
# 6 -15.7467 -42.4164 -20.0526 2.6941 -4.3227 59.6127
#
#
#
# Elastic Compliance Matrix: (Units=1/GPa)
#
#
# Indices 1 2 3 4 5 6 
#
# 1 0.010172 0.001290 -0.005799 -0.000014 -0.001768 0.001526
# 2 0.001290 0.019678 -0.004903 -0.004876 -0.001775 0.012785
# 3 -0.005799 -0.004903 0.017401 -0.009577 -0.006636 0.000785
# 4 -0.000014 -0.004876 -0.009577 0.028709 0.010958 -0.007198
# 5 -0.001768 -0.001775 -0.006636 0.010958 0.022043 -0.002859
# 6 0.001526 0.012785 0.000785 -0.007198 -0.002859 0.026657
#
#
# Mechanical properties :
#
#
# Convention : Reuss Voigt Hill
#
# Bulk Modulus (GPa) = 35.17830 74.54004 54.85917
# Shear Modulus (GPa) = 32.68830 50.18668 41.43749
#
# Velocity S-wave (km/s) = 3.65045 4.52318 4.11005
# Velocity P-wave (km/s) = 5.66644 7.59382 6.69980
#
# Compressibility (1/GPa) = 0.02842662
#
# Stress axis : x y z
#
# Youngs Moduli (GPa) = 98.30557 50.81820 57.46809
#
# Poissons Ratio (x) = -0.06554 0.33328
# Poissons Ratio (y) = -0.12679 0.28176
# Poissons Ratio (z) = 0.57011 0.24915
#
# Static dielectric constant tensor:
#      x y z
#    x 2.224130 -0.020460 0.066310 
#    y -0.020460 2.124780 -0.120490 
#    z 0.066310 -0.120490 1.929250 
# 
# From -- ./inp_files/156086.got.cif
#   From: 2010.05.17/outbox.cif.g08.bks.cpg/sg2_79_cif.got.tgz:156086.got - 2010.06.03 11:33:40.
