data_PCOD9023086
_publ_section_title
;
Structure prediction by ZEFSAII (Michael W. Deem and Ramdas Pophale) SiO2 
 PCOD9023086
Probable space group: P -1
;
_chemical_formula_sum "Si O2"
_cell_formula_units_Z 14
_cell_length_a 9.616499
_cell_length_b 5.803641
_cell_length_c 9.626404
_cell_angle_alpha 93.123360
_cell_angle_beta 87.728634
_cell_angle_gamma 97.539844
_cell_volume 531.533633
_symmetry_space_group_name_H-M "P -1"
_symmetry_group_IT_number 2
_symmetry_cell_setting 'triclinic'
loop_
_space_group_symop_operation_xyz
x,y,z
-x,-y,-z
loop_
_atom_site_type_symbol
_atom_site_label
_atom_site_fract_x
_atom_site_fract_y
_atom_site_fract_z
Si Si1 0.471957 0.201641 0.404276
Si Si2 0.570529 0.662702 0.126370
Si Si3 0.034693 0.691728 0.337687
Si Si4 0.231011 0.959324 0.991763
Si Si5 0.317530 0.806747 0.261434
Si Si6 0.021033 0.182004 0.188996
Si Si7 0.276983 0.449531 0.624653
O O1 0.369504 0.343211 0.499866
O O2 0.628125 0.302507 0.357424
O O3 0.500000 0.000000 0.500000
O O4 0.381871 0.075585 0.279400
O O5 0.446920 0.661514 0.246145
O O6 0.703979 0.631242 0.218301
O O7 0.500000 0.500000 0.000000
O O8 0.623993 0.911751 0.065804
O O9 0.047189 0.440889 0.256867
O O10 0.884750 0.620337 0.414066
O O11 0.197850 0.751993 0.379810
O O12 0.018345 0.946354 0.276058
O O13 0.139462 0.148003 0.069003
O O14 0.251446 0.783893 0.110067
O O15 0.130988 0.835763 0.875510
#
# Coordination Sequence:
#
# PCOD9023086 Si02
#       7
#     2   2   2   2   2   2   2
#     4  11  25  50  71  96 138 185 248 293 356 420
#     4  12  23  39  67 109 143 184 236 292 356 431
#     4  11  25  45  73 108 142 187 236 298 359 428
#     4  10  22  39  66 106 145 189 227 287 355 428
#     4  11  25  43  71 104 145 186 237 298 350 423
#     4  10  23  42  68 105 152 185 229 284 363 433
#     4  11  26  45  76 100 135 193 236 297 358 428
#
# _framework density 26.338878000000001
#
# number of rings (size 3 to 8) (size 9 to 14) (size 15 to 20)
#    0.000    1.143    2.857    2.143    6.000    6.857 
#    0.000    0.714    0.000    0.000    0.000    0.000 
#    0.000    0.000    0.000    0.000    0.000    0.000 
#
# Total GULP energy -78084.518655 kJ/mol
# GULP energy per Si atom -5577.465618 kJ/mol
# Density = 2.627893 g / cm^3
# Si number density = 26.338878 Si / 1000 Ang^3
#
#
#
# Elastic Constant Matrix: (Units=GPa)
#
#
# Indices 1 2 3 4 5 6 
#
# 1 164.0909 26.3518 32.3510 -2.3153 -25.2434 31.0099
# 2 26.3518 107.6625 25.7143 -6.9950 -4.8957 23.4995
# 3 32.3510 25.7143 67.9289 0.4416 -10.9012 9.7743
# 4 -2.3153 -6.9950 0.4416 46.4522 11.4556 -9.5474
# 5 -25.2434 -4.8957 -10.9012 11.4556 44.2685 -1.7382
# 6 31.0099 23.4995 9.7743 -9.5474 -1.7382 45.9355
#
#
#
# Elastic Compliance Matrix: (Units=1/GPa)
#
#
# Indices 1 2 3 4 5 6 
#
# 1 0.008205 -0.000242 -0.002379 -0.001717 0.004310 -0.005103
# 2 -0.000242 0.011251 -0.003497 0.000787 -0.000143 -0.004690
# 3 -0.002379 -0.003497 0.017767 -0.001693 0.003046 -0.000622
# 4 -0.001717 0.000787 -0.001693 0.024638 -0.007451 0.005956
# 5 0.004310 -0.000143 0.003046 -0.007451 0.027553 -0.003991
# 6 -0.005103 -0.004690 -0.000622 0.005956 -0.003991 0.028833
#
#
# Mechanical properties :
#
#
# Convention : Reuss Voigt Hill
#
# Bulk Modulus (GPa) = 40.01935 56.50182 48.26058
# Shear Modulus (GPa) = 36.01976 44.34893 40.18435
#
# Velocity S-wave (km/s) = 3.70205 4.10784 3.91022
# Velocity P-wave (km/s) = 5.78797 6.63307 6.22488
#
# Compressibility (1/GPa) = 0.02498791
#
# Stress axis : x y z
#
# Youngs Moduli (GPa) = 121.87321 88.88023 56.28295
#
# Poissons Ratio (x) = 0.02150 0.13390
# Poissons Ratio (y) = 0.02947 0.19682
# Poissons Ratio (z) = 0.28994 0.31081
#
# Static dielectric constant tensor:
#      x y z
#    x 2.184610 0.007210 0.027570 
#    y 0.007210 2.116830 0.033720 
#    z 0.027570 0.033720 2.152110 
# 
# From -- ./inp_files/78099.got.cif
#   From: 2010.05.17/outbox.cif.g08.bks.cpg/sg2_40_cif.got.tgz:78099.got - 2010.06.03 11:33:40.
