data_PCOD9023775
_publ_section_title
;
Structure prediction by ZEFSAII (Michael W. Deem and Ramdas Pophale) SiO2 
 PCOD9023775
Probable space group: P -1
;
_chemical_formula_sum "Si O2"
_cell_formula_units_Z 15
_cell_length_a 6.498737
_cell_length_b 19.882283
_cell_length_c 17.283786
_cell_angle_alpha 19.365229
_cell_angle_beta 121.883934
_cell_angle_gamma 120.091637
_cell_volume 628.748508
_symmetry_space_group_name_H-M "P -1"
_symmetry_group_IT_number 2
_symmetry_cell_setting 'triclinic'
loop_
_space_group_symop_operation_xyz
x,y,z
-x,-y,-z
loop_
_atom_site_type_symbol
_atom_site_label
_atom_site_fract_x
_atom_site_fract_y
_atom_site_fract_z
Si Si1 0.639832 0.111163 0.130933
Si Si2 0.007561 0.847783 0.576480
Si Si3 0.164101 0.854847 0.038421
Si Si4 0.823958 0.185801 0.650728
Si Si5 0.500000 0.500000 0.500000
Si Si6 0.285438 0.430350 0.696694
Si Si7 0.226513 0.610384 0.745061
Si Si8 0.283518 0.220127 0.265807
O O1 0.803808 0.011614 0.336494
O O2 0.401279 0.970214 0.227978
O O3 0.791643 0.110129 0.082452
O O4 0.534206 0.334572 0.884419
O O5 0.926586 0.741205 0.754435
O O6 0.034489 0.699161 0.671274
O O7 0.244655 0.986766 0.487729
O O8 0.396759 0.731601 0.244638
O O9 0.939406 0.699265 0.175100
O O10 0.070801 0.058410 0.839525
O O11 0.770676 0.341458 0.538769
O O12 0.828686 0.319078 0.428462
O O13 0.336178 0.415154 0.632517
O O14 0.475821 0.713871 0.712353
O O15 0.251654 0.370834 0.023631
#
# Coordination Sequence:
#
# PCOD9023775 Si02
#       8
#     2   2   2   2   1   2   2   2
#     4  10  22  40  61  91 132 164 212 265 308 374
#     4  11  21  41  61  86 125 170 216 266 315 365
#     4  10  22  43  67  94 126 165 204 256 311 379
#     4  11  23  40  64  94 130 169 210 257 319 370
#     4  10  22  46  70  98 132 154 206 260 304 384
#     4  10  24  42  67  97 125 168 204 251 319 380
#     4  11  22  40  59  89 128 164 218 269 304 377
#     4  10  24  38  58  91 122 171 216 264 323 354
#
# _framework density 23.856915999999998
#
# number of rings (size 3 to 8) (size 9 to 14) (size 15 to 20)
#    0.000    1.600    2.667    1.200    1.867    3.733 
#    9.600    6.667    0.000    0.000    0.000    0.000 
#    0.000    0.000    0.000    0.000    0.000    0.000 
#
# Total GULP energy -83596.776336 kJ/mol
# GULP energy per Si atom -5573.118422 kJ/mol
# Density = 2.380262 g / cm^3
# Si number density = 23.856916 Si / 1000 Ang^3
#
#
#
# Elastic Constant Matrix: (Units=GPa)
#
#
# Indices 1 2 3 4 5 6 
#
# 1 124.6412 36.2548 39.3164 -0.8017 4.7421 -22.6412
# 2 36.2548 38.1383 14.2996 -7.5053 5.2861 -13.5523
# 3 39.3164 14.2996 94.3879 5.6066 11.4857 -6.6018
# 4 -0.8017 -7.5053 5.6066 20.9659 -13.9319 4.0975
# 5 4.7421 5.2861 11.4857 -13.9319 56.9601 2.7984
# 6 -22.6412 -13.5523 -6.6018 4.0975 2.7984 40.6161
#
#
#
# Elastic Compliance Matrix: (Units=1/GPa)
#
#
# Indices 1 2 3 4 5 6 
#
# 1 0.012615 -0.010119 -0.003234 -0.003237 -0.000422 0.003486
# 2 -0.010119 0.041853 -0.002632 0.014539 0.000732 0.006379
# 3 -0.003234 -0.002632 0.013300 -0.007376 -0.003997 0.000500
# 4 -0.003237 0.014539 -0.007376 0.067369 0.017187 -0.006133
# 5 -0.000422 0.000732 -0.003997 0.017187 0.022727 -0.003940
# 6 0.003486 0.006379 0.000500 -0.006133 -0.003940 0.029664
#
#
# Mechanical properties :
#
#
# Convention : Reuss Voigt Hill
#
# Bulk Modulus (GPa) = 27.93510 48.54543 38.24027
# Shear Modulus (GPa) = 21.60462 34.86153 28.23308
#
# Velocity S-wave (km/s) = 3.01257 3.82681 3.44384
# Velocity P-wave (km/s) = 4.88217 6.31813 5.64599
#
# Compressibility (1/GPa) = 0.03579726
#
# Stress axis : x y z
#
# Youngs Moduli (GPa) = 79.27032 23.89294 75.18756
#
# Poissons Ratio (x) = 0.24178 0.24317
# Poissons Ratio (y) = 0.80216 0.19790
# Poissons Ratio (z) = 0.25638 0.06289
#
# Static dielectric constant tensor:
#      x y z
#    x 1.878740 0.047550 0.015610 
#    y 0.047550 1.872780 -0.010240 
#    z 0.015610 -0.010240 1.913130 
# 
# From -- ./inp_files/56243.got.cif
#   From: 2010.05.17/outbox.cif.g08.bks.cpg/sg2_29_cif.got.tgz:56243.got - 2010.06.03 11:33:40.
