data_PCOD9023891
_publ_section_title
;
Structure prediction by ZEFSAII (Michael W. Deem and Ramdas Pophale) SiO2 
 PCOD9023891
Probable space group: P -1
;
_chemical_formula_sum "Si O2"
_cell_formula_units_Z 16
_cell_length_a 12.275081
_cell_length_b 17.454121
_cell_length_c 7.366185
_cell_angle_alpha 93.145629
_cell_angle_beta 75.453167
_cell_angle_gamma 33.478846
_cell_volume 732.133829
_symmetry_space_group_name_H-M "P -1"
_symmetry_group_IT_number 2
_symmetry_cell_setting 'triclinic'
loop_
_space_group_symop_operation_xyz
x,y,z
-x,-y,-z
loop_
_atom_site_type_symbol
_atom_site_label
_atom_site_fract_x
_atom_site_fract_y
_atom_site_fract_z
Si Si1 0.403115 0.221870 0.467715
Si Si2 0.654140 0.959636 0.061755
Si Si3 0.859428 0.301454 0.346402
Si Si4 0.242116 0.627387 0.175929
Si Si5 0.047332 0.334240 0.854060
Si Si6 0.817130 0.167555 0.417945
Si Si7 0.892775 0.962105 0.368581
Si Si8 0.309254 0.433323 0.684551
O O1 0.191969 0.299576 0.650777
O O2 0.332696 0.354176 0.508447
O O3 0.502599 0.118001 0.237470
O O4 0.629818 0.087135 0.489880
O O5 0.768867 0.834063 0.147988
O O6 0.868237 0.863677 0.840879
O O7 0.500000 0.000000 0.000000
O O8 0.797219 0.346695 0.589269
O O9 0.764632 0.273494 0.332673
O O10 0.765124 0.435791 0.316820
O O11 0.152223 0.599249 0.144770
O O12 0.062607 0.797550 0.192108
O O13 0.500000 0.500000 0.000000
O O14 0.896059 0.471193 0.083294
O O15 0.572784 0.287991 0.630647
O O16 0.006395 0.078853 0.478861
O O17 0.897351 0.041047 0.274885
#
# Coordination Sequence:
#
# PCOD9023891 Si02
#       8
#     2   2   2   2   2   2   2   2
#     4  11  22  41  65  92 129 164 221 259 307 379
#     4  11  24  40  62  93 126 168 209 261 321 376
#     4  10  22  40  62  89 129 169 206 260 323 375
#     4  11  22  40  67  95 125 164 217 259 316 384
#     4  11  22  39  67  92 124 169 213 260 315 375
#     4   9  18  36  63  86 127 159 211 257 314 368
#     4   9  19  35  59  95 119 158 213 267 297 367
#     4  10  22  41  61  96 129 168 206 268 316 373
#
# _framework density 21.853929000000001
#
# number of rings (size 3 to 8) (size 9 to 14) (size 15 to 20)
#    0.000    1.750    1.250    3.375    3.500    1.000 
#    2.250    8.125    0.000    0.000    0.000    0.000 
#    0.000    0.000    0.000    0.000    0.000    0.000 
#
# Total GULP energy -89226.807070 kJ/mol
# GULP energy per Si atom -5576.675442 kJ/mol
# Density = 2.180419 g / cm^3
# Si number density = 21.853929 Si / 1000 Ang^3
#
#
#
# Elastic Constant Matrix: (Units=GPa)
#
#
# Indices 1 2 3 4 5 6 
#
# 1 122.0303 25.6657 41.5897 18.7699 -22.2712 5.3979
# 2 25.6657 42.8801 23.7566 12.7874 -7.5764 14.5816
# 3 41.5897 23.7566 121.4288 19.5238 -22.5462 2.8571
# 4 18.7699 12.7874 19.5238 30.8617 3.8614 4.5445
# 5 -22.2712 -7.5764 -22.5462 3.8614 28.1131 4.9880
# 6 5.3979 14.5816 2.8571 4.5445 4.9880 30.6348
#
#
#
# Elastic Compliance Matrix: (Units=1/GPa)
#
#
# Indices 1 2 3 4 5 6 
#
# 1 0.011719 -0.002622 -0.000728 -0.006535 0.009115 -0.001264
# 2 -0.002622 0.037176 -0.002154 -0.011277 0.010800 -0.017118
# 3 -0.000728 -0.002154 0.011828 -0.007265 0.009398 -0.000402
# 4 -0.006535 -0.011277 -0.007265 0.047777 -0.021237 0.003567
# 5 0.009115 0.010800 0.009398 -0.021237 0.058644 -0.014022
# 6 -0.001264 -0.017118 -0.000402 0.003567 -0.014022 0.042804
#
#
# Mechanical properties :
#
#
# Convention : Reuss Voigt Hill
#
# Bulk Modulus (GPa) = 20.11436 52.04037 36.07737
# Shear Modulus (GPa) = 21.05012 30.94373 25.99692
#
# Velocity S-wave (km/s) = 3.10694 3.76697 3.45277
# Velocity P-wave (km/s) = 4.70051 6.54100 5.69559
#
# Compressibility (1/GPa) = 0.04971572
#
# Stress axis : x y z
#
# Youngs Moduli (GPa) = 85.33281 26.89925 84.54175
#
# Poissons Ratio (x) = 0.07053 0.06154
# Poissons Ratio (y) = 0.22374 0.18209
# Poissons Ratio (z) = 0.06211 0.05794
#
# Static dielectric constant tensor:
#      x y z
#    x 1.831050 0.036000 0.022080 
#    y 0.036000 1.893500 0.003240 
#    z 0.022080 0.003240 1.817300 
# 
# From -- ./inp_files/277982.got.cif
#   From: 2010.05.17/outbox.cif.g08.bks.cpg/sg2_139_cif.got.tgz:277982.got - 2010.06.03 11:33:40.
