data_PCOD9023586
_publ_section_title
;
Structure prediction by ZEFSAII (Michael W. Deem and Ramdas Pophale) SiO2 
 PCOD9023586
Probable space group: P -1
;
_chemical_formula_sum "Si O2"
_cell_formula_units_Z 15
_cell_length_a 17.009565
_cell_length_b 7.489536
_cell_length_c 8.551686
_cell_angle_alpha 56.611621
_cell_angle_beta 48.273043
_cell_angle_gamma 45.109099
_cell_volume 569.293791
_symmetry_space_group_name_H-M "P -1"
_symmetry_group_IT_number 2
_symmetry_cell_setting 'triclinic'
loop_
_space_group_symop_operation_xyz
x,y,z
-x,-y,-z
loop_
_atom_site_type_symbol
_atom_site_label
_atom_site_fract_x
_atom_site_fract_y
_atom_site_fract_z
Si Si1 0.720295 0.925288 0.260696
Si Si2 0.168859 0.879756 0.223012
Si Si3 0.863202 0.540323 0.690874
Si Si4 0.500000 0.000000 0.500000
Si Si5 0.937783 0.397641 0.246548
Si Si6 0.136114 0.764132 0.874296
Si Si7 0.335399 0.905095 0.444771
Si Si8 0.584847 0.440997 0.764284
O O1 0.827098 0.667976 0.326274
O O2 0.633193 0.904587 0.262477
O O3 0.610732 0.057531 0.479119
O O4 0.777646 0.061925 0.030489
O O5 0.141372 0.669194 0.308424
O O6 0.949350 0.847583 0.700257
O O7 0.273823 0.760241 0.271701
O O8 0.000000 0.500000 0.500000
O O9 0.750458 0.827453 0.660217
O O10 0.843844 0.460381 0.928767
O O11 0.433667 0.296706 0.383530
O O12 0.881137 0.289836 0.254618
O O13 0.000000 0.500000 0.000000
O O14 0.242525 0.829790 0.683612
O O15 0.000000 0.000000 0.000000
O O16 0.433107 0.690788 0.300428
O O17 0.500000 0.500000 0.000000
#
# Coordination Sequence:
#
# PCOD9023586 Si02
#       8
#     2   2   2   1   2   2   2   2
#     4  11  24  48  77 112 153 207 254 316 387 463
#     4  11  23  50  76 110 162 199 257 322 379 458
#     4  12  25  40  75 114 160 202 250 306 386 472
#     4  12  26  52  82 102 152 198 260 314 392 448
#     4  10  22  39  76 106 151 205 240 311 387 445
#     4  12  21  44  66 112 161 200 247 308 375 464
#     4  12  27  46  76 110 150 202 255 313 389 451
#     4  12  29  53  78 113 148 202 268 327 379 464
#
# _framework density 26.348433
#
# number of rings (size 3 to 8) (size 9 to 14) (size 15 to 20)
#    0.000    0.533    5.333    2.400    3.733    1.600 
#    0.000    4.000    0.000    0.000    0.000    0.000 
#    0.000    0.000    0.000    0.000    0.000    0.000 
#
# Total GULP energy -83748.789868 kJ/mol
# GULP energy per Si atom -5583.252658 kJ/mol
# Density = 2.628846 g / cm^3
# Si number density = 26.348433 Si / 1000 Ang^3
#
#
#
# Elastic Constant Matrix: (Units=GPa)
#
#
# Indices 1 2 3 4 5 6 
#
# 1 47.5259 30.6522 15.7566 -4.8814 1.2156 -3.8758
# 2 30.6522 168.9666 72.9844 -27.1479 8.4615 -12.9576
# 3 15.7566 72.9844 171.1573 -14.0507 -5.0129 5.1287
# 4 -4.8814 -27.1479 -14.0507 56.4199 12.4266 15.1047
# 5 1.2156 8.4615 -5.0129 12.4266 44.4985 -4.9873
# 6 -3.8758 -12.9576 5.1287 15.1047 -4.9873 52.1809
#
#
#
# Elastic Compliance Matrix: (Units=1/GPa)
#
#
# Indices 1 2 3 4 5 6 
#
# 1 0.023895 -0.004121 -0.000490 -0.000347 0.000276 0.000926
# 2 -0.004121 0.008816 -0.003206 0.003450 -0.002784 0.000933
# 3 -0.000490 -0.003206 0.007370 0.000413 0.001162 -0.001565
# 4 -0.000347 0.003450 0.000413 0.022925 -0.007740 -0.006585
# 5 0.000276 -0.002784 0.001162 -0.007740 0.025726 0.003914
# 6 0.000926 0.000933 -0.001565 -0.006585 0.003914 0.021899
#
#
# Mechanical properties :
#
#
# Convention : Reuss Voigt Hill
#
# Bulk Modulus (GPa) = 40.90870 69.60400 55.25635
# Shear Modulus (GPa) = 37.19816 48.50365 42.85090
#
# Velocity S-wave (km/s) = 3.76144 4.29517 4.03714
# Velocity P-wave (km/s) = 5.86723 7.14648 6.53821
#
# Compressibility (1/GPa) = 0.02444468
#
# Stress axis : x y z
#
# Youngs Moduli (GPa) = 41.85014 113.42615 135.68871
#
# Poissons Ratio (x) = 0.46748 0.06654
# Poissons Ratio (y) = 0.17248 0.43505
# Poissons Ratio (z) = 0.02052 0.36367
#
# Static dielectric constant tensor:
#      x y z
#    x 1.841670 -0.111490 -0.012530 
#    y -0.111490 2.058700 0.114880 
#    z -0.012530 0.114880 2.165150 
# 
# From -- ./inp_files/342414.got.cif
#   From: 2010.05.17/outbox.cif.g08.bks.cpg/sg2_172_cif.got.tgz:342414.got - 2010.06.03 11:33:40.
