data_PCOD9023010
_publ_section_title
;
Structure prediction by ZEFSAII (Michael W. Deem and Ramdas Pophale) SiO2 
 PCOD9023010
Probable space group: P -1
;
_chemical_formula_sum "Si O2"
_cell_formula_units_Z 11
_cell_length_a 9.038519
_cell_length_b 14.498264
_cell_length_c 4.776143
_cell_angle_alpha 78.297829
_cell_angle_beta 116.827257
_cell_angle_gamma 127.940477
_cell_volume 437.988843
_symmetry_space_group_name_H-M "P -1"
_symmetry_group_IT_number 2
_symmetry_cell_setting 'triclinic'
loop_
_space_group_symop_operation_xyz
x,y,z
-x,-y,-z
loop_
_atom_site_type_symbol
_atom_site_label
_atom_site_fract_x
_atom_site_fract_y
_atom_site_fract_z
Si Si1 0.500000 0.000000 0.500000
Si Si2 0.556951 0.611616 0.151335
Si Si3 0.782416 0.170057 0.151443
Si Si4 0.203879 0.240482 0.253634
Si Si5 0.198775 0.621653 0.707023
Si Si6 0.468941 0.163210 0.498548
O O1 0.708307 0.093480 0.412240
O O2 0.395982 0.068930 0.252386
O O3 0.723474 0.722031 0.026451
O O4 0.349250 0.602399 0.012893
O O5 0.500000 0.500000 0.000000
O O6 0.667266 0.640260 0.523899
O O7 0.848148 0.299308 0.210805
O O8 0.969301 0.181909 0.154021
O O9 0.591684 0.119329 0.795443
O O10 0.293720 0.169158 0.466948
O O11 0.347786 0.707689 0.530856
O O12 0.000000 0.500000 0.500000
#
# Coordination Sequence:
#
# PCOD9023010 Si02
#       6
#     1   2   2   2   2   2
#     4  10  24  44  70  96 124 176 228 282 334 396
#     4  11  23  42  62  99 140 176 227 270 321 405
#     4  11  23  43  68  93 133 173 224 276 337 395
#     4  11  25  42  67  97 135 177 220 277 335 395
#     4  10  22  39  65  96 135 178 217 270 333 397
#     4  10  23  45  63  97 133 170 225 279 329 401
#
# _framework density 25.114796999999999
#
# number of rings (size 3 to 8) (size 9 to 14) (size 15 to 20)
#    0.000    1.455    1.818    2.182    7.636    2.909 
#    0.000    1.818    0.000    0.000    0.000    0.000 
#    0.000    0.000    0.000    0.000    0.000    0.000 
#
# Total GULP energy -61358.381533 kJ/mol
# GULP energy per Si atom -5578.034685 kJ/mol
# Density = 2.505763 g / cm^3
# Si number density = 25.114797 Si / 1000 Ang^3
#
#
#
# Elastic Constant Matrix: (Units=GPa)
#
#
# Indices 1 2 3 4 5 6 
#
# 1 212.3465 52.4200 40.8791 7.0555 29.1629 -8.4631
# 2 52.4200 127.3335 21.6587 15.6128 17.4680 -19.9280
# 3 40.8791 21.6587 86.5754 7.9557 -2.7285 12.8535
# 4 7.0555 15.6128 7.9557 35.2303 1.1435 -6.5059
# 5 29.1629 17.4680 -2.7285 1.1435 41.5558 2.7296
# 6 -8.4631 -19.9280 12.8535 -6.5059 2.7296 32.3269
#
#
#
# Elastic Compliance Matrix: (Units=1/GPa)
#
#
# Indices 1 2 3 4 5 6 
#
# 1 0.006308 -0.001063 -0.003326 0.000622 -0.004400 0.002815
# 2 -0.001063 0.010969 -0.003316 -0.002327 -0.004525 0.007716
# 3 -0.003326 -0.003316 0.016012 -0.003595 0.005567 -0.010475
# 4 0.000622 -0.002327 -0.003595 0.031345 -0.000987 0.006549
# 5 -0.004400 -0.004525 0.005567 -0.000987 0.030031 -0.008889
# 6 0.002815 0.007716 -0.010475 0.006549 -0.008889 0.042661
#
#
# Mechanical properties :
#
#
# Convention : Reuss Voigt Hill
#
# Bulk Modulus (GPa) = 55.93723 72.90789 64.42256
# Shear Modulus (GPa) = 31.50670 42.57576 37.04123
#
# Velocity S-wave (km/s) = 3.54575 4.12180 3.84458
# Velocity P-wave (km/s) = 6.25172 7.19342 6.73904
#
# Compressibility (1/GPa) = 0.01787718
#
# Stress axis : x y z
#
# Youngs Moduli (GPa) = 158.53039 91.16753 62.45322
#
# Poissons Ratio (x) = 0.09691 0.20774
# Poissons Ratio (y) = 0.16851 0.20712
# Poissons Ratio (z) = 0.52733 0.30235
#
# Static dielectric constant tensor:
#      x y z
#    x 2.076930 -0.175390 -0.138470 
#    y -0.175390 2.219640 0.141240 
#    z -0.138470 0.141240 2.195220 
# 
# From -- ./inp_files/19322.got.cif
#   From: 2010.05.17/outbox.cif.g08.bks.cpg/sg2_10_cif.got.tgz:19322.got - 2010.06.03 11:33:40.
