data_PCOD9023667
_publ_section_title
;
Structure prediction by ZEFSAII (Michael W. Deem and Ramdas Pophale) SiO2 
 PCOD9023667
Probable space group: P -1
;
_chemical_formula_sum "Si O2"
_cell_formula_units_Z 14
_cell_length_a 19.740995
_cell_length_b 7.919823
_cell_length_c 17.276858
_cell_angle_alpha 50.394048
_cell_angle_beta 158.204432
_cell_angle_gamma 139.994110
_cell_volume 613.229343
_symmetry_space_group_name_H-M "P -1"
_symmetry_group_IT_number 2
_symmetry_cell_setting 'triclinic'
loop_
_space_group_symop_operation_xyz
x,y,z
-x,-y,-z
loop_
_atom_site_type_symbol
_atom_site_label
_atom_site_fract_x
_atom_site_fract_y
_atom_site_fract_z
Si Si1 0.286115 0.017336 0.836065
Si Si2 0.432341 0.078336 0.137901
Si Si3 0.901196 0.630179 0.426807
Si Si4 0.613821 0.716491 0.627741
Si Si5 0.871884 0.804993 0.014636
Si Si6 0.252200 0.787674 0.190456
Si Si7 0.753581 0.570223 0.122491
O O1 0.180968 0.178595 0.699613
O O2 0.326490 0.929084 0.986896
O O3 0.525961 0.258768 0.981264
O O4 0.123246 0.777212 0.673035
O O5 0.698581 0.325282 0.331534
O O6 0.374127 0.892985 0.204945
O O7 0.325949 0.238388 0.998944
O O8 0.918995 0.633768 0.351428
O O9 0.500000 0.500000 0.500000
O O10 0.693250 0.617663 0.811403
O O11 0.420731 0.758390 0.428642
O O12 0.860674 0.001098 0.782763
O O13 0.795526 0.001887 0.892122
O O14 0.846031 0.652619 0.110228
O O15 0.000000 0.500000 0.000000
#
# Coordination Sequence:
#
# PCOD9023667 Si02
#       7
#     2   2   2   2   2   2   2
#     4   8  13  25  44  75 107 141 178 227 277 335
#     4   8  16  29  45  75 114 142 181 233 276 329
#     4   8  13  25  46  74 107 142 181 223 281 334
#     4  11  23  41  60  83 119 154 196 245 291 339
#     4  10  22  40  60  87 118 154 194 240 291 343
#     4  11  21  40  61  86 118 156 197 240 286 346
#     4   8  15  28  49  76 110 141 183 230 275 340
#
# _framework density 22.829958000000001
#
# number of rings (size 3 to 8) (size 9 to 14) (size 15 to 20)
#    0.000    2.857    1.429    2.143    0.000    1.143 
#   12.857    0.000    0.000    3.429    0.000    6.000 
#    0.000    0.000    0.000    0.000    0.000    0.000 
#
# Total GULP energy -78220.243266 kJ/mol
# GULP energy per Si atom -5587.160233 kJ/mol
# Density = 2.277800 g / cm^3
# Si number density = 22.829958 Si / 1000 Ang^3
#
#
#
# Elastic Constant Matrix: (Units=GPa)
#
#
# Indices 1 2 3 4 5 6 
#
# 1 114.7318 37.7373 55.3723 20.1249 -27.6967 19.1445
# 2 37.7373 57.6822 37.4972 -3.8800 -19.6804 -0.3323
# 3 55.3723 37.4972 162.7154 6.5219 -20.2300 2.2723
# 4 20.1249 -3.8800 6.5219 31.7549 -17.9960 -5.6397
# 5 -27.6967 -19.6804 -20.2300 -17.9960 46.6803 -1.8005
# 6 19.1445 -0.3323 2.2723 -5.6397 -1.8005 43.5121
#
#
#
# Elastic Compliance Matrix: (Units=1/GPa)
#
#
# Indices 1 2 3 4 5 6 
#
# 1 0.017537 -0.011126 -0.002873 -0.014410 -0.001456 -0.009579
# 2 -0.011126 0.033084 -0.002996 0.021592 0.014708 0.008712
# 3 -0.002873 -0.002996 0.007863 0.000344 0.000607 0.000900
# 4 -0.014410 0.021592 0.000344 0.059660 0.024290 0.015225
# 5 -0.001456 0.014708 0.000607 0.024290 0.036594 0.005384
# 6 -0.009579 0.008712 0.000900 0.015225 0.005384 0.029412
#
#
# Mechanical properties :
#
#
# Convention : Reuss Voigt Hill
#
# Bulk Modulus (GPa) = 40.82963 66.26034 53.54499
# Shear Modulus (GPa) = 22.09393 38.02429 30.05911
#
# Velocity S-wave (km/s) = 3.11426 4.08553 3.63251
# Velocity P-wave (km/s) = 5.55469 7.16532 6.41079
#
# Compressibility (1/GPa) = 0.02449202
#
# Stress axis : x y z
#
# Youngs Moduli (GPa) = 57.02259 30.22612 127.17599
#
# Poissons Ratio (x) = 0.33630 0.36544
# Poissons Ratio (y) = 0.63445 0.38105
# Poissons Ratio (z) = 0.16385 0.09057
#
# Static dielectric constant tensor:
#      x y z
#    x 1.902150 -0.067370 -0.004420 
#    y -0.067370 1.846110 -0.058260 
#    z -0.004420 -0.058260 1.850560 
# 
# From -- ./inp_files/491053.got.cif
#   From: 2010.05.17/outbox.cif.g08.bks.cpg/sg2_246_cif.got.tgz:491053.got - 2010.06.03 11:33:40.
