data_PCOD9023181
_publ_section_title
;
Structure prediction by ZEFSAII (Michael W. Deem and Ramdas Pophale) SiO2 
 PCOD9023181
Probable space group: P -1
;
_chemical_formula_sum "Si O2"
_cell_formula_units_Z 14
_cell_length_a 17.155307
_cell_length_b 8.596158
_cell_length_c 10.495002
_cell_angle_alpha 94.875747
_cell_angle_beta 146.936360
_cell_angle_gamma 63.104520
_cell_volume 599.887821
_symmetry_space_group_name_H-M "P -1"
_symmetry_group_IT_number 2
_symmetry_cell_setting 'triclinic'
loop_
_space_group_symop_operation_xyz
x,y,z
-x,-y,-z
loop_
_atom_site_type_symbol
_atom_site_label
_atom_site_fract_x
_atom_site_fract_y
_atom_site_fract_z
Si Si1 0.002995 0.516682 0.159255
Si Si2 0.402348 0.952146 0.140845
Si Si3 0.600833 0.664189 0.645011
Si Si4 0.644545 0.248761 0.154835
Si Si5 0.197894 0.823480 0.168324
Si Si6 0.991541 0.843622 0.294646
Si Si7 0.633330 0.974592 0.292575
O O1 0.064827 0.646061 0.290074
O O2 0.161929 0.274681 0.419419
O O3 0.783560 0.642567 0.923560
O O4 0.000000 0.500000 0.000000
O O5 0.495307 0.827338 0.391511
O O6 0.499898 0.038025 0.236724
O O7 0.445696 0.785448 0.083840
O O8 0.164124 0.125942 0.826934
O O9 0.410155 0.754150 0.476310
O O10 0.724310 0.413650 0.754050
O O11 0.851227 0.179832 0.411103
O O12 0.669596 0.120703 0.304724
O O13 0.500000 0.500000 0.000000
O O14 0.122404 0.946508 0.937459
O O15 0.000000 0.000000 0.000000
O O16 0.500000 0.000000 0.000000
#
# Coordination Sequence:
#
# PCOD9023181 Si02
#       7
#     2   2   2   2   2   2   2
#     4  12  23  42  71  99 141 182 230 288 349 417
#     4  10  22  44  67  97 137 176 231 292 342 416
#     4  10  22  42  63 101 141 177 233 287 350 415
#     4  11  24  43  69  97 131 183 234 284 346 416
#     4  10  22  39  66  97 139 180 228 288 349 414
#     4  11  24  42  66  98 135 180 233 282 352 410
#     4  10  22  44  70  97 138 183 232 281 346 419
#
# _framework density 23.337699000000001
#
# number of rings (size 3 to 8) (size 9 to 14) (size 15 to 20)
#    0.000    1.429    1.429    3.857    2.000    2.286 
#    5.143    7.857    0.000    0.000    0.000    0.000 
#    0.000    0.000    0.000    0.000    0.000    0.000 
#
# Total GULP energy -78157.316521 kJ/mol
# GULP energy per Si atom -5582.665466 kJ/mol
# Density = 2.328458 g / cm^3
# Si number density = 23.337699 Si / 1000 Ang^3
#
#
#
# Elastic Constant Matrix: (Units=GPa)
#
#
# Indices 1 2 3 4 5 6 
#
# 1 67.5529 23.8303 30.0400 -9.3080 32.2621 8.2067
# 2 23.8303 100.8061 24.3975 5.9074 0.8228 18.8084
# 3 30.0400 24.3975 137.3400 -4.5052 31.9486 11.9862
# 4 -9.3080 5.9074 -4.5052 41.7850 9.4212 2.7421
# 5 32.2621 0.8228 31.9486 9.4212 49.5268 -5.2922
# 6 8.2067 18.8084 11.9862 2.7421 -5.2922 34.8194
#
#
#
# Elastic Compliance Matrix: (Units=1/GPa)
#
#
# Indices 1 2 3 4 5 6 
#
# 1 0.031709 -0.006747 0.001408 0.014459 -0.025194 -0.009282
# 2 -0.006747 0.012870 -0.002081 -0.004692 0.006057 -0.003355
# 3 0.001408 -0.002081 0.009774 0.003817 -0.008356 -0.004143
# 4 0.014459 -0.004692 0.003817 0.032991 -0.018897 -0.007658
# 5 -0.025194 0.006057 -0.008356 -0.018897 0.047002 0.014175
# 6 -0.009282 -0.003355 -0.004143 -0.007658 0.014175 0.036903
#
#
# Mechanical properties :
#
#
# Convention : Reuss Voigt Hill
#
# Bulk Modulus (GPa) = 25.30753 51.35939 38.33346
# Shear Modulus (GPa) = 25.09295 40.38830 32.74063
#
# Velocity S-wave (km/s) = 3.28260 4.16457 3.74960
# Velocity P-wave (km/s) = 5.02343 6.72158 5.93357
#
# Compressibility (1/GPa) = 0.03951393
#
# Stress axis : x y z
#
# Youngs Moduli (GPa) = 31.53665 77.69951 102.31720
#
# Poissons Ratio (x) = 0.52420 -0.14405
# Poissons Ratio (y) = 0.21276 0.21290
# Poissons Ratio (z) = -0.04440 0.16167
#
# Static dielectric constant tensor:
#      x y z
#    x 1.974890 -0.071160 0.106630 
#    y -0.071160 1.926550 0.048600 
#    z 0.106630 0.048600 1.936140 
# 
# From -- ./inp_files/461316.got.cif
#   From: 2010.05.17/outbox.cif.g08.bks.cpg/sg2_231_cif.got.tgz:461316.got - 2010.06.03 11:33:40.
