data_PCOD9023350
_publ_section_title
;
Structure prediction by ZEFSAII (Michael W. Deem and Ramdas Pophale) SiO2 
 PCOD9023350
Probable space group: P -1
;
_chemical_formula_sum "Si O2"
_cell_formula_units_Z 11
_cell_length_a 9.657785
_cell_length_b 12.489137
_cell_length_c 9.569662
_cell_angle_alpha 143.832139
_cell_angle_beta 120.733777
_cell_angle_gamma 37.371238
_cell_volume 385.045211
_symmetry_space_group_name_H-M "P -1"
_symmetry_group_IT_number 2
_symmetry_cell_setting 'triclinic'
loop_
_space_group_symop_operation_xyz
x,y,z
-x,-y,-z
loop_
_atom_site_type_symbol
_atom_site_label
_atom_site_fract_x
_atom_site_fract_y
_atom_site_fract_z
Si Si1 0.525170 0.645144 0.854889
Si Si2 0.049018 0.273959 0.692070
Si Si3 0.400256 0.987762 0.780760
Si Si4 0.922630 0.402576 0.454582
Si Si5 0.500000 0.500000 0.000000
Si Si6 0.931875 0.926258 0.083433
O O1 0.809483 0.353382 0.666014
O O2 0.314065 0.755910 0.757071
O O3 0.488282 0.621818 0.971555
O O4 0.530263 0.862067 0.058443
O O5 0.069206 0.285414 0.550396
O O6 0.300978 0.988421 0.585484
O O7 0.000000 0.500000 0.000000
O O8 0.637727 0.678742 0.624590
O O9 0.189025 0.124480 0.929234
O O10 0.000000 0.500000 0.500000
O O11 0.984620 0.197660 0.160397
O O12 0.189739 0.755346 0.107726
#
# Coordination Sequence:
#
# PCOD9023350 Si02
#       6
#     2   2   2   2   1   2
#     4  11  22  43  74  99 141 188 230 288 351 414
#     4  10  22  39  68 104 139 177 218 288 360 402
#     4  11  23  44  77 105 142 177 231 306 355 401
#     4  12  24  40  73 116 136 172 238 304 352 407
#     4  12  28  44  70 102 144 200 234 270 354 440
#     4  12  25  47  74 106 140 186 236 290 355 416
#
# _framework density 28.568072999999998
#
# number of rings (size 3 to 8) (size 9 to 14) (size 15 to 20)
#    0.000    0.727    5.455    3.273    2.545    2.182 
#    0.000    1.818    0.000    0.000    0.000    0.000 
#    0.000    0.000    0.000    0.000    0.000    0.000 
#
# Total GULP energy -61279.864363 kJ/mol
# GULP energy per Si atom -5570.896760 kJ/mol
# Density = 2.850305 g / cm^3
# Si number density = 28.568073 Si / 1000 Ang^3
#
#
#
# Elastic Constant Matrix: (Units=GPa)
#
#
# Indices 1 2 3 4 5 6 
#
# 1 217.2610 76.3335 64.7207 -3.2540 -34.6447 23.3624
# 2 76.3335 295.7726 63.4988 -44.6607 -2.6174 -9.7700
# 3 64.7207 63.4988 99.0875 -27.1378 -9.0843 2.6972
# 4 -3.2540 -44.6607 -27.1378 69.6520 6.0427 -18.0183
# 5 -34.6447 -2.6174 -9.0843 6.0427 49.3971 -2.5144
# 6 23.3624 -9.7700 2.6972 -18.0183 -2.5144 72.6371
#
#
#
# Elastic Compliance Matrix: (Units=1/GPa)
#
#
# Indices 1 2 3 4 5 6 
#
# 1 0.007491 -0.001611 -0.004334 -0.003602 0.004650 -0.003198
# 2 -0.001611 0.004560 -0.001234 0.002971 -0.001384 0.001866
# 3 -0.004334 -0.001234 0.015076 0.005475 -0.000900 0.001995
# 4 -0.003602 0.002971 0.005475 0.020143 -0.003509 0.006230
# 5 0.004650 -0.001384 -0.000900 -0.003509 0.023609 -0.001701
# 6 -0.003198 0.001866 0.001995 0.006230 -0.001701 0.016459
#
#
# Mechanical properties :
#
#
# Convention : Reuss Voigt Hill
#
# Bulk Modulus (GPa) = 78.31274 113.46967 95.89121
# Shear Modulus (GPa) = 47.19171 65.50844 56.35007
#
# Velocity S-wave (km/s) = 4.06877 4.79379 4.44608
# Velocity P-wave (km/s) = 7.03885 8.39320 7.74568
#
# Compressibility (1/GPa) = 0.01276931
#
# Stress axis : x y z
#
# Youngs Moduli (GPa) = 133.48948 219.31602 66.33184
#
# Poissons Ratio (x) = 0.35340 0.28746
# Poissons Ratio (y) = 0.21510 0.08182
# Poissons Ratio (z) = 0.57850 0.27054
#
# Static dielectric constant tensor:
#      x y z
#    x 2.301080 -0.034410 0.061560 
#    y -0.034410 2.303380 0.185350 
#    z 0.061560 0.185350 2.587460 
# 
# From -- ./inp_files/183357.got.cif
#   From: 2010.05.17/outbox.cif.g08.bks.cpg/sg2_92_cif.got.tgz:183357.got - 2010.06.03 11:33:40.
