data_PCOD9023614
_publ_section_title
;
Structure prediction by ZEFSAII (Michael W. Deem and Ramdas Pophale) SiO2 
 PCOD9023614
Probable space group: P -1
;
_chemical_formula_sum "Si O2"
_cell_formula_units_Z 15
_cell_length_a 8.360818
_cell_length_b 19.280096
_cell_length_c 11.101594
_cell_angle_alpha 148.329568
_cell_angle_beta 118.786500
_cell_angle_gamma 42.549681
_cell_volume 579.611753
_symmetry_space_group_name_H-M "P -1"
_symmetry_group_IT_number 2
_symmetry_cell_setting 'triclinic'
loop_
_space_group_symop_operation_xyz
x,y,z
-x,-y,-z
loop_
_atom_site_type_symbol
_atom_site_label
_atom_site_fract_x
_atom_site_fract_y
_atom_site_fract_z
Si Si1 0.207804 0.831423 0.664969
Si Si2 0.676205 0.843093 0.614171
Si Si3 0.150793 0.145020 0.555805
Si Si4 0.500000 0.500000 0.000000
Si Si5 0.935210 0.215920 0.196223
Si Si6 0.703117 0.121804 0.588466
Si Si7 0.990341 0.592349 0.909793
Si Si8 0.262095 0.404976 0.389833
O O1 0.163869 0.786341 0.713521
O O2 0.497251 0.734147 0.639148
O O3 0.146815 0.758262 0.429007
O O4 0.991946 0.056513 0.904390
O O5 0.730032 0.899645 0.597453
O O6 0.397383 0.921266 0.619280
O O7 0.778148 0.871617 0.805479
O O8 0.878399 0.617941 0.342911
O O9 0.310297 0.959331 0.417351
O O10 0.126242 0.291112 0.837232
O O11 0.542683 0.337700 0.844026
O O12 0.223268 0.577197 0.945901
O O13 0.761459 0.426526 0.401032
O O14 0.000000 0.000000 0.500000
O O15 0.757483 0.681123 0.860960
O O16 0.000000 0.500000 0.500000
#
# Coordination Sequence:
#
# PCOD9023614 Si02
#       8
#     2   2   2   1   2   2   2   2
#     4  10  23  42  67  92 128 167 213 270 311 379
#     4   9  21  40  65  94 127 166 215 268 310 377
#     4  11  22  40  65  98 125 165 218 260 323 373
#     4  10  22  40  58  88 124 166 200 250 318 372
#     4   9  21  45  65  90 126 172 216 258 321 374
#     4  11  22  38  61  89 129 166 202 257 316 375
#     4  10  22  40  65  93 129 169 210 264 321 371
#     4  11  25  41  65  95 128 172 215 257 321 385
#
# _framework density 25.879390000000001
#
# number of rings (size 3 to 8) (size 9 to 14) (size 15 to 20)
#    0.000    1.867    1.333    1.200    3.733    2.667 
#    4.800    0.000    0.000    0.000    0.000    0.000 
#    0.000    0.000    0.000    0.000    0.000    0.000 
#
# Total GULP energy -83675.213161 kJ/mol
# GULP energy per Si atom -5578.347544 kJ/mol
# Density = 2.582049 g / cm^3
# Si number density = 25.879390 Si / 1000 Ang^3
#
#
#
# Elastic Constant Matrix: (Units=GPa)
#
#
# Indices 1 2 3 4 5 6 
#
# 1 49.5754 1.0739 -2.5415 6.6998 9.5722 -12.8392
# 2 1.0739 97.7787 25.6415 -13.0021 2.8017 -27.3858
# 3 -2.5415 25.6415 118.7282 -1.8808 12.1487 6.4879
# 4 6.6998 -13.0021 -1.8808 40.6846 6.3156 18.5630
# 5 9.5722 2.8017 12.1487 6.3156 28.2625 1.2014
# 6 -12.8392 -27.3858 6.4879 18.5630 1.2014 57.0629
#
#
#
# Elastic Compliance Matrix: (Units=1/GPa)
#
#
# Indices 1 2 3 4 5 6 
#
# 1 0.024634 0.001325 0.000470 -0.006216 -0.007641 0.008308
# 2 0.001325 0.013007 -0.003032 0.000929 -0.000923 0.006603
# 3 0.000470 -0.003032 0.009691 0.001329 -0.004203 -0.002795
# 4 -0.006216 0.000929 0.001329 0.031970 -0.005218 -0.011394
# 5 -0.007641 -0.000923 -0.004203 -0.005218 0.041071 -0.000852
# 6 0.008308 0.006603 -0.002795 -0.011394 -0.000852 0.026605
#
#
# Mechanical properties :
#
#
# Convention : Reuss Voigt Hill
#
# Bulk Modulus (GPa) = 22.29195 34.93669 28.61432
# Shear Modulus (GPa) = 30.41286 41.32922 35.87104
#
# Velocity S-wave (km/s) = 3.43180 4.00058 3.72706
# Velocity P-wave (km/s) = 4.93311 5.90496 5.44078
#
# Compressibility (1/GPa) = 0.04485924
#
# Stress axis : x y z
#
# Youngs Moduli (GPa) = 40.59467 76.88125 103.18401
#
# Poissons Ratio (x) = -0.10190 -0.04854
# Poissons Ratio (y) = -0.05381 0.31289
# Poissons Ratio (z) = -0.01910 0.23313
#
# Static dielectric constant tensor:
#      x y z
#    x 1.961570 -0.105310 0.112490 
#    y -0.105310 2.222500 -0.082600 
#    z 0.112490 -0.082600 1.976610 
# 
# From -- ./inp_files/405147.got.cif
#   From: 2010.05.17/outbox.cif.g08.bks.cpg/sg2_203_cif.got.tgz:405147.got - 2010.06.03 11:33:40.
