data_PCOD9023328
_publ_section_title
;
Structure prediction by ZEFSAII (Michael W. Deem and Ramdas Pophale) SiO2 
 PCOD9023328
Probable space group: P -1
;
_chemical_formula_sum "Si O2"
_cell_formula_units_Z 14
_cell_length_a 9.747719
_cell_length_b 8.227738
_cell_length_c 9.264165
_cell_angle_alpha 71.541499
_cell_angle_beta 98.865595
_cell_angle_gamma 124.631120
_cell_volume 579.592495
_symmetry_space_group_name_H-M "P -1"
_symmetry_group_IT_number 2
_symmetry_cell_setting 'triclinic'
loop_
_space_group_symop_operation_xyz
x,y,z
-x,-y,-z
loop_
_atom_site_type_symbol
_atom_site_label
_atom_site_fract_x
_atom_site_fract_y
_atom_site_fract_z
Si Si1 0.819632 0.700884 0.978147
Si Si2 0.400573 0.802061 0.638394
Si Si3 0.909925 0.203761 0.497592
Si Si4 0.706312 0.996419 0.812413
Si Si5 0.767998 0.616587 0.323170
Si Si6 0.850727 0.042987 0.228260
Si Si7 0.195957 0.668310 0.024504
O O1 0.730466 0.824289 0.932385
O O2 0.739325 0.482959 0.940354
O O3 0.996668 0.865390 0.885708
O O4 0.835117 0.645998 0.160474
O O5 0.207640 0.724924 0.604866
O O6 0.511716 0.877366 0.777799
O O7 0.397927 0.607695 0.632993
O O8 0.500000 0.000000 0.500000
O O9 0.924543 0.104957 0.382518
O O10 0.094211 0.351461 0.548749
O O11 0.808424 0.063794 0.658672
O O12 0.767629 0.203789 0.856885
O O13 0.740412 0.799182 0.282611
O O14 0.757617 0.150611 0.132834
O O15 0.000000 0.500000 0.000000
#
# Coordination Sequence:
#
# PCOD9023328 Si02
#       7
#     2   2   2   2   2   2   2
#     4  11  23  42  73 106 137 177 223 288 349 397
#     4  10  26  46  65  97 138 188 228 278 348 404
#     4  11  23  43  70  99 137 179 233 286 334 407
#     4  11  23  48  67  99 149 176 225 286 337 417
#     4  12  22  42  73  99 135 183 232 284 340 403
#     4  11  22  40  67 111 136 166 238 287 339 400
#     4  10  22  39  68 101 132 176 225 275 338 398
#
# _framework density 24.154900000000001
#
# number of rings (size 3 to 8) (size 9 to 14) (size 15 to 20)
#    0.000    1.143    2.857    3.857    0.000    6.286 
#    2.571    2.857    0.000    0.000    0.000    0.000 
#    0.000    0.000    0.000    0.000    0.000    0.000 
#
# Total GULP energy -78060.603915 kJ/mol
# GULP energy per Si atom -5575.757423 kJ/mol
# Density = 2.409992 g / cm^3
# Si number density = 24.154900 Si / 1000 Ang^3
#
#
#
# Elastic Constant Matrix: (Units=GPa)
#
#
# Indices 1 2 3 4 5 6 
#
# 1 58.3378 39.1934 18.3077 0.3240 18.9003 -9.8390
# 2 39.1934 204.9710 48.1549 -4.1016 13.1813 -22.4385
# 3 18.3077 48.1549 119.3470 18.6154 2.7617 -9.5027
# 4 0.3240 -4.1016 18.6154 23.7544 -0.7158 0.0185
# 5 18.9003 13.1813 2.7617 -0.7158 33.5787 -0.4311
# 6 -9.8390 -22.4385 -9.5027 0.0185 -0.4311 22.9162
#
#
#
# Elastic Compliance Matrix: (Units=1/GPa)
#
#
# Indices 1 2 3 4 5 6 
#
# 1 0.024845 -0.002717 -0.001914 0.000305 -0.012665 0.006975
# 2 -0.002717 0.006511 -0.002317 0.002952 -0.000719 0.004232
# 3 -0.001914 -0.002317 0.011124 -0.009065 0.000899 0.001546
# 4 0.000305 0.002952 -0.009065 0.049722 0.000465 -0.000769
# 5 -0.012665 -0.000719 0.000899 0.000465 0.037062 -0.005072
# 6 0.006975 0.004232 0.001546 -0.000769 -0.005072 0.051322
#
#
# Mechanical properties :
#
#
# Convention : Reuss Voigt Hill
#
# Bulk Modulus (GPa) = 34.98517 65.99641 50.49079
# Shear Modulus (GPa) = 24.50841 34.51652 29.51247
#
# Velocity S-wave (km/s) = 3.18879 3.78427 3.49922
# Velocity P-wave (km/s) = 5.29839 6.81731 6.10527
#
# Compressibility (1/GPa) = 0.02858354
#
# Stress axis : x y z
#
# Youngs Moduli (GPa) = 40.24906 153.57916 89.89665
#
# Poissons Ratio (x) = 0.41728 0.17207
# Poissons Ratio (y) = 0.10936 0.20832
# Poissons Ratio (z) = 0.07704 0.35589
#
# Static dielectric constant tensor:
#      x y z
#    x 2.052450 -0.076010 -0.005870 
#    y -0.076010 1.969520 0.033470 
#    z -0.005870 0.033470 1.936390 
# 
# From -- ./inp_files/237912.got.cif
#   From: 2010.05.17/outbox.cif.g08.bks.cpg/sg2_119_cif.got.tgz:237912.got - 2010.06.03 11:33:40.
