data_PCOD9023839
_publ_section_title
;
Structure prediction by ZEFSAII (Michael W. Deem and Ramdas Pophale) SiO2 
 PCOD9023839
Probable space group: P -1
;
_chemical_formula_sum "Si O2"
_cell_formula_units_Z 15
_cell_length_a 15.242260
_cell_length_b 9.933015
_cell_length_c 8.827100
_cell_angle_alpha 43.921641
_cell_angle_beta 125.237395
_cell_angle_gamma 139.953761
_cell_volume 595.490779
_symmetry_space_group_name_H-M "P -1"
_symmetry_group_IT_number 2
_symmetry_cell_setting 'triclinic'
loop_
_space_group_symop_operation_xyz
x,y,z
-x,-y,-z
loop_
_atom_site_type_symbol
_atom_site_label
_atom_site_fract_x
_atom_site_fract_y
_atom_site_fract_z
Si Si1 0.818102 0.566894 0.482951
Si Si2 0.424946 0.450530 0.809012
Si Si3 0.990935 0.094244 0.134391
Si Si4 0.875193 0.246240 0.657978
Si Si5 0.774629 0.036240 0.174715
Si Si6 0.748428 0.475588 0.825533
Si Si7 0.500000 0.000000 0.000000
Si Si8 0.642520 0.907915 0.455454
O O1 0.689936 0.511656 0.311509
O O2 0.827751 0.349127 0.653314
O O3 0.790564 0.595464 0.605039
O O4 0.950235 0.827762 0.340838
O O5 0.338650 0.171429 0.886105
O O6 0.531515 0.647864 0.632873
O O7 0.500000 0.500000 0.000000
O O8 0.149195 0.322542 0.114683
O O9 0.918199 0.127344 0.176757
O O10 0.923556 0.108110 0.905700
O O11 0.754478 0.082642 0.552130
O O12 0.000000 0.500000 0.500000
O O13 0.727267 0.914795 0.392218
O O14 0.764827 0.257625 0.002448
O O15 0.589607 0.302969 0.842848
O O16 0.565483 0.008225 0.225494
#
# Coordination Sequence:
#
# PCOD9023839 Si02
#       8
#     2   2   2   2   2   2   1   2
#     4  11  25  43  72 104 138 187 244 288 362 424
#     4  11  24  45  70 106 147 188 238 295 358 432
#     4  11  24  46  73 103 140 185 241 298 357 423
#     4  12  27  47  70 104 144 189 239 298 363 421
#     4  10  22  40  70 101 135 183 232 290 354 413
#     4  11  21  42  70 102 142 181 235 297 352 431
#     4  10  22  40  62 102 134 176 238 284 350 420
#     4  11  23  42  68  99 145 187 232 297 354 423
#
# _framework density 25.189308
#
# number of rings (size 3 to 8) (size 9 to 14) (size 15 to 20)
#    0.000    1.067    2.667    4.400    1.867    3.200 
#    0.000    1.333    0.000    0.000    0.000    0.000 
#    0.000    0.000    0.000    0.000    0.000    0.000 
#
# Total GULP energy -83777.248108 kJ/mol
# GULP energy per Si atom -5585.149874 kJ/mol
# Density = 2.513198 g / cm^3
# Si number density = 25.189308 Si / 1000 Ang^3
#
#
#
# Elastic Constant Matrix: (Units=GPa)
#
#
# Indices 1 2 3 4 5 6 
#
# 1 64.8604 27.8228 -2.4924 -3.5335 -7.3177 7.6637
# 2 27.8228 230.8733 65.1121 13.0742 -4.4556 45.5159
# 3 -2.4924 65.1121 151.8647 4.2589 -12.0352 0.9238
# 4 -3.5335 13.0742 4.2589 53.0254 4.4747 2.6825
# 5 -7.3177 -4.4556 -12.0352 4.4747 39.9113 -12.1823
# 6 7.6637 45.5159 0.9238 2.6825 -12.1823 53.3213
#
#
#
# Elastic Compliance Matrix: (Units=1/GPa)
#
#
# Indices 1 2 3 4 5 6 
#
# 1 0.016989 -0.002601 0.001615 0.001344 0.003294 0.000436
# 2 -0.002601 0.006632 -0.003000 -0.001089 -0.002258 -0.005696
# 3 0.001615 -0.003000 0.008152 -0.000240 0.003351 0.002965
# 4 0.001344 -0.001089 -0.000240 0.019476 -0.002369 -0.000781
# 5 0.003294 -0.002258 0.003351 -0.002369 0.029181 0.008182
# 6 0.000436 -0.005696 0.002965 -0.000781 0.008182 0.025411
#
#
# Mechanical properties :
#
#
# Convention : Reuss Voigt Hill
#
# Bulk Modulus (GPa) = 42.01655 69.83150 55.92403
# Shear Modulus (GPa) = 41.06878 53.06199 47.06539
#
# Velocity S-wave (km/s) = 4.04221 4.59467 4.32727
# Velocity P-wave (km/s) = 6.20503 7.47870 6.87144
#
# Compressibility (1/GPa) = 0.02380014
#
# Stress axis : x y z
#
# Youngs Moduli (GPa) = 58.86186 150.78345 122.67196
#
# Poissons Ratio (x) = 0.39221 -0.19809
# Poissons Ratio (y) = 0.15311 0.36801
# Poissons Ratio (z) = -0.09505 0.45234
#
# Static dielectric constant tensor:
#      x y z
#    x 3.315390 0.859540 -0.025350 
#    y 0.859540 2.498550 -0.041480 
#    z -0.025350 -0.041480 1.974240 
# 
# From -- ./inp_files/304788.got.cif
#   From: 2010.05.17/outbox.cif.g08.bks.cpg/sg2_153_cif.got.tgz:304788.got - 2010.06.03 11:33:40.
