data_PCOD9023518
_publ_section_title
;
Structure prediction by ZEFSAII (Michael W. Deem and Ramdas Pophale) SiO2 
 PCOD9023518
Probable space group: P -1
;
_chemical_formula_sum "Si O2"
_cell_formula_units_Z 14
_cell_length_a 32.826527
_cell_length_b 31.982482
_cell_length_c 12.868337
_cell_angle_alpha 162.202470
_cell_angle_beta 18.085933
_cell_angle_gamma 171.184513
_cell_volume 619.138273
_symmetry_space_group_name_H-M "P -1"
_symmetry_group_IT_number 2
_symmetry_cell_setting 'triclinic'
loop_
_space_group_symop_operation_xyz
x,y,z
-x,-y,-z
loop_
_atom_site_type_symbol
_atom_site_label
_atom_site_fract_x
_atom_site_fract_y
_atom_site_fract_z
Si Si1 0.781666 0.111050 0.661582
Si Si2 0.336339 0.672265 0.542520
Si Si3 0.666407 0.378226 0.805830
Si Si4 0.965322 0.820014 0.464004
Si Si5 0.927903 0.053996 0.724604
Si Si6 0.606780 0.726237 0.342419
Si Si7 0.213326 0.753143 0.665821
O O1 0.101497 0.403816 0.553735
O O2 0.622390 0.916275 0.483689
O O3 0.681757 0.922515 0.550596
O O4 0.705249 0.201802 0.075141
O O5 0.319071 0.586822 0.269907
O O6 0.742240 0.291244 0.441518
O O7 0.883479 0.652426 0.998865
O O8 0.377211 0.169280 0.052273
O O9 0.658319 0.495648 0.467036
O O10 0.994268 0.916625 0.510962
O O11 0.124536 0.051394 0.712975
O O12 0.132741 0.832558 0.076212
O O13 0.000000 0.000000 0.500000
O O14 0.500000 0.500000 0.000000
O O15 0.000000 0.500000 0.500000
O O16 0.500000 0.000000 0.500000
#
# Coordination Sequence:
#
# PCOD9023518 Si02
#       7
#     2   2   2   2   2   2   2
#     4  10  22  43  63  99 133 173 230 287 345 397
#     4  10  22  39  70  95 134 173 222 288 348 407
#     4  12  23  43  68 103 132 180 227 274 352 417
#     4  12  25  46  70 101 142 182 232 297 351 403
#     4  12  27  45  66  97 141 181 226 275 339 427
#     4  12  27  45  70  98 139 189 241 284 344 417
#     4  12  22  41  71 102 140 173 222 287 346 417
#
# _framework density 22.612072999999999
#
# number of rings (size 3 to 8) (size 9 to 14) (size 15 to 20)
#    0.000    0.571    2.857    5.143    0.000    6.857 
#    0.000    0.000    0.000    0.000    0.000    0.000 
#    0.000    0.000    0.000    0.000    0.000    0.000 
#
# Total GULP energy -78330.348251 kJ/mol
# GULP energy per Si atom -5595.024875 kJ/mol
# Density = 2.256061 g / cm^3
# Si number density = 22.612073 Si / 1000 Ang^3
#
#
#
# Elastic Constant Matrix: (Units=GPa)
#
#
# Indices 1 2 3 4 5 6 
#
# 1 156.7878 45.9825 21.4613 10.3905 -1.3200 -4.9274
# 2 45.9825 173.0946 14.0120 2.8116 6.6424 14.2707
# 3 21.4613 14.0120 39.1502 3.8347 -2.8203 -6.9953
# 4 10.3905 2.8116 3.8347 28.6234 4.2823 6.5870
# 5 -1.3200 6.6424 -2.8203 4.2823 42.9980 10.9156
# 6 -4.9274 14.2707 -6.9953 6.5870 10.9156 49.9663
#
#
#
# Elastic Compliance Matrix: (Units=1/GPa)
#
#
# Indices 1 2 3 4 5 6 
#
# 1 0.007522 -0.001816 -0.003018 -0.002442 0.000278 0.001099
# 2 -0.001816 0.006618 -0.001924 0.000903 -0.000710 -0.002302
# 3 -0.003018 -0.001924 0.029176 -0.003873 0.001348 0.004553
# 4 -0.002442 0.000903 -0.003873 0.037929 -0.002872 -0.005414
# 5 0.000278 -0.000710 0.001348 -0.002872 0.024930 -0.004649
# 6 0.001099 -0.002302 0.004553 -0.005414 -0.004649 0.023146
#
#
# Mechanical properties :
#
#
# Convention : Reuss Voigt Hill
#
# Bulk Modulus (GPa) = 33.55711 59.10492 46.33101
# Shear Modulus (GPa) = 32.72906 43.48936 38.10921
#
# Velocity S-wave (km/s) = 3.80862 4.39028 4.10975
# Velocity P-wave (km/s) = 5.84922 7.20381 6.56156
#
# Compressibility (1/GPa) = 0.02979995
#
# Stress axis : x y z
#
# Youngs Moduli (GPa) = 132.93633 151.11095 34.27503
#
# Poissons Ratio (x) = 0.27436 0.10345
# Poissons Ratio (y) = 0.24136 0.06595
# Poissons Ratio (z) = 0.40122 0.29076
#
# Static dielectric constant tensor:
#      x y z
#    x 1.842170 -0.033260 0.024500 
#    y -0.033260 1.597260 -0.199600 
#    z 0.024500 -0.199600 1.548750 
# 
# From -- ./inp_files/477845.got.cif
#   From: 2010.05.17/outbox.cif.g08.bks.cpg/sg2_239_cif.got.tgz:477845.got - 2010.06.03 11:33:40.
