data_PCOD9023449
_publ_section_title
;
Structure prediction by ZEFSAII (Michael W. Deem and Ramdas Pophale) SiO2 
 PCOD9023449
Probable space group: P -1
;
_chemical_formula_sum "Si O2"
_cell_formula_units_Z 16
_cell_length_a 22.433694
_cell_length_b 4.922728
_cell_length_c 20.900991
_cell_angle_alpha 92.338014
_cell_angle_beta 17.568646
_cell_angle_gamma 95.506202
_cell_volume 683.573056
_symmetry_space_group_name_H-M "P -1"
_symmetry_group_IT_number 2
_symmetry_cell_setting 'triclinic'
loop_
_space_group_symop_operation_xyz
x,y,z
-x,-y,-z
loop_
_atom_site_type_symbol
_atom_site_label
_atom_site_fract_x
_atom_site_fract_y
_atom_site_fract_z
Si Si1 0.820421 0.610734 0.373393
Si Si2 0.990878 0.738927 0.459686
Si Si3 0.558359 0.071461 0.673410
Si Si4 0.375358 0.027430 0.996929
Si Si5 0.686669 0.363146 0.289872
Si Si6 0.201728 0.935102 0.949763
Si Si7 0.553016 0.591860 0.874525
Si Si8 0.928313 0.251573 0.146241
O O1 0.677978 0.837034 0.524216
O O2 0.839126 0.470298 0.283430
O O3 0.719020 0.355137 0.518499
O O4 0.054764 0.740030 0.147720
O O5 0.513359 0.895818 0.903860
O O6 0.789483 0.621618 0.625682
O O7 0.000000 0.500000 0.500000
O O8 0.000000 0.000000 0.500000
O O9 0.449528 0.978575 0.850020
O O10 0.384241 0.119419 0.802446
O O11 0.160156 0.855892 0.235648
O O12 0.415767 0.356901 0.970222
O O13 0.500000 0.500000 0.500000
O O14 0.691634 0.224899 0.214108
O O15 0.748083 0.157626 0.279390
O O16 0.878073 0.612719 0.091687
O O17 0.034592 0.069420 0.084168
O O18 0.500000 0.500000 0.000000
#
# Coordination Sequence:
#
# PCOD9023449 Si02
#       8
#     2   2   2   2   2   2   2   2
#     4  11  25  48  70 100 139 191 240 298 354 414
#     4  12  23  41  72 105 140 180 222 284 350 417
#     4  12  28  45  74  99 143 191 248 285 354 425
#     4  12  26  45  66 110 139 184 237 287 341 432
#     4  10  22  39  69 106 143 182 237 298 369 427
#     4  11  25  45  74 100 145 192 239 297 362 421
#     4  12  23  44  75 100 143 181 224 285 358 406
#     4  10  22  42  68 105 139 184 240 301 360 432
#
# _framework density 23.406421999999999
#
# number of rings (size 3 to 8) (size 9 to 14) (size 15 to 20)
#    0.000    0.750    3.750    3.000    5.250    2.500 
#    0.000    0.000    0.000    0.000    0.000    0.000 
#    0.000    0.000    0.000    0.000    0.000    0.000 
#
# Total GULP energy -89341.377721 kJ/mol
# GULP energy per Si atom -5583.836108 kJ/mol
# Density = 2.335315 g / cm^3
# Si number density = 23.406422 Si / 1000 Ang^3
#
#
#
# Elastic Constant Matrix: (Units=GPa)
#
#
# Indices 1 2 3 4 5 6 
#
# 1 50.9558 11.6946 47.6166 10.1611 16.2621 -3.5938
# 2 11.6946 113.1136 36.2017 -2.6452 11.5859 1.6569
# 3 47.6166 36.2017 174.1317 -24.3898 31.4503 -2.6160
# 4 10.1611 -2.6452 -24.3898 31.0066 6.2909 3.6208
# 5 16.2621 11.5859 31.4503 6.2909 29.4252 -4.4403
# 6 -3.5938 1.6569 -2.6160 3.6208 -4.4403 24.0185
#
#
#
# Elastic Compliance Matrix: (Units=1/GPa)
#
#
# Indices 1 2 3 4 5 6 
#
# 1 0.037508 -0.000251 -0.013404 -0.023748 -0.000059 0.007739
# 2 -0.000251 0.009607 -0.001469 0.000383 -0.002360 -0.001354
# 3 -0.013404 -0.001469 0.014498 0.018814 -0.012353 -0.005445
# 4 -0.023748 0.000383 0.018814 0.061162 -0.022459 -0.014903
# 5 -0.000059 -0.002360 -0.012353 -0.022459 0.054812 0.012327
# 6 0.007739 -0.001354 -0.005445 -0.014903 0.012327 0.046818
#
#
# Mechanical properties :
#
#
# Convention : Reuss Voigt Hill
#
# Bulk Modulus (GPa) = 31.88160 58.80297 45.34228
# Shear Modulus (GPa) = 18.86014 33.06930 25.96472
#
# Velocity S-wave (km/s) = 2.84168 3.76284 3.33423
# Velocity P-wave (km/s) = 4.94139 6.63745 5.85120
#
# Compressibility (1/GPa) = 0.03136606
#
# Stress axis : x y z
#
# Youngs Moduli (GPa) = 26.66074 104.08700 68.97476
#
# Poissons Ratio (x) = 0.02609 0.92454
# Poissons Ratio (y) = 0.00668 0.10134
# Poissons Ratio (z) = 0.35736 0.15293
#
# Static dielectric constant tensor:
#      x y z
#    x 1.868280 -0.037720 -0.003830 
#    y -0.037720 1.964610 -0.017550 
#    z -0.003830 -0.017550 1.887310 
# 
# From -- ./inp_files/600750.got.cif
#   From: 2010.05.17/outbox.cif.g08.bks.cpg/sg2_301_cif.got.tgz:600750.got - 2010.06.03 11:33:40.
