data_PCOD9023796
_publ_section_title
;
Structure prediction by ZEFSAII (Michael W. Deem and Ramdas Pophale) SiO2 
 PCOD9023796
Probable space group: P -1
;
_chemical_formula_sum "Si O2"
_cell_formula_units_Z 16
_cell_length_a 14.484483
_cell_length_b 13.702514
_cell_length_c 8.422684
_cell_angle_alpha 135.300103
_cell_angle_beta 130.527209
_cell_angle_gamma 39.304197
_cell_volume 725.904397
_symmetry_space_group_name_H-M "P -1"
_symmetry_group_IT_number 2
_symmetry_cell_setting 'triclinic'
loop_
_space_group_symop_operation_xyz
x,y,z
-x,-y,-z
loop_
_atom_site_type_symbol
_atom_site_label
_atom_site_fract_x
_atom_site_fract_y
_atom_site_fract_z
Si Si1 0.110605 0.556006 0.987822
Si Si2 0.714113 0.563467 0.466566
Si Si3 0.050732 0.844164 0.492612
Si Si4 0.465129 0.656874 0.530475
Si Si5 0.324695 0.835989 0.886742
Si Si6 0.192276 0.211633 0.288999
Si Si7 0.381607 0.492898 0.020525
Si Si8 0.068136 0.285510 0.589421
O O1 0.102685 0.678697 0.254029
O O2 0.251938 0.493372 0.964094
O O3 0.115953 0.392548 0.860668
O O4 0.962272 0.670668 0.846572
O O5 0.615147 0.618958 0.578605
O O6 0.708974 0.720788 0.567931
O O7 0.649189 0.499931 0.191049
O O8 0.889255 0.416364 0.513909
O O9 0.187725 0.818422 0.713351
O O10 0.919463 0.867330 0.480716
O O11 0.000000 0.000000 0.500000
O O12 0.500000 0.500000 0.500000
O O13 0.377288 0.812581 0.733983
O O14 0.376227 0.648857 0.274444
O O15 0.462694 0.683071 0.962646
O O16 0.270614 0.017875 0.102208
O O17 0.149471 0.236832 0.455399
#
# Coordination Sequence:
#
# PCOD9023796 Si02
#       8
#     2   2   2   2   2   2   2   2
#     4  11  21  44  72  97 131 174 229 271 327 400
#     4  11  22  42  71  97 129 174 223 278 320 400
#     4  12  25  45  66  99 138 175 219 280 335 387
#     4  10  22  40  61  93 130 172 216 263 327 395
#     4  11  25  42  63  98 139 172 215 275 336 394
#     4  11  23  45  66  98 134 173 225 273 334 391
#     4  11  21  41  69  97 128 174 221 271 331 399
#     4  11  23  43  73  99 129 177 229 271 325 397
#
# _framework density 22.04147
#
# number of rings (size 3 to 8) (size 9 to 14) (size 15 to 20)
#    0.000    1.000    5.000    3.000    1.750    1.500 
#    2.250    0.000    0.000    0.000    0.000    0.000 
#    0.000    0.000    0.000    0.000    0.000    0.000 
#
# Total GULP energy -89511.536998 kJ/mol
# GULP energy per Si atom -5594.471062 kJ/mol
# Density = 2.199130 g / cm^3
# Si number density = 22.041470 Si / 1000 Ang^3
#
#
#
# Elastic Constant Matrix: (Units=GPa)
#
#
# Indices 1 2 3 4 5 6 
#
# 1 174.3720 25.0589 47.5795 27.8327 -8.9628 9.3291
# 2 25.0589 64.1292 30.0006 6.8010 9.0164 2.7576
# 3 47.5795 30.0006 130.8231 24.9385 -0.7515 3.6994
# 4 27.8327 6.8010 24.9385 30.6758 -2.5255 1.8343
# 5 -8.9628 9.0164 -0.7515 -2.5255 19.5145 -2.1098
# 6 9.3291 2.7576 3.6994 1.8343 -2.1098 27.8015
#
#
#
# Elastic Compliance Matrix: (Units=1/GPa)
#
#
# Indices 1 2 3 4 5 6 
#
# 1 0.007433 -0.002276 -0.001186 -0.004886 0.003624 -0.001513
# 2 -0.002276 0.019765 -0.003708 -0.000077 -0.010492 -0.001495
# 3 -0.001186 -0.003708 0.010128 -0.006268 0.000735 -0.000112
# 4 -0.004886 -0.000077 -0.006268 0.042399 0.003028 -0.000086
# 5 0.003624 -0.010492 0.000735 0.003028 0.058606 0.003975
# 6 -0.001513 -0.001495 -0.000112 -0.000086 0.003975 0.036948
#
#
# Mechanical properties :
#
#
# Convention : Reuss Voigt Hill
#
# Bulk Modulus (GPa) = 43.50597 63.84469 53.67533
# Shear Modulus (GPa) = 25.34458 33.37736 29.36097
#
# Velocity S-wave (km/s) = 3.39464 3.89562 3.65372
# Velocity P-wave (km/s) = 5.92839 7.01877 6.49649
#
# Compressibility (1/GPa) = 0.02298535
#
# Stress axis : x y z
#
# Youngs Moduli (GPa) = 134.54051 50.59437 98.73597
#
# Poissons Ratio (x) = 0.11513 0.11714
# Poissons Ratio (y) = 0.30616 0.36614
# Poissons Ratio (z) = 0.15961 0.18762
#
# Static dielectric constant tensor:
#      x y z
#    x 1.866090 0.037010 -0.002670 
#    y 0.037010 1.829040 -0.020400 
#    z -0.002670 -0.020400 1.827010 
# 
# From -- ./inp_files/314289.got.cif
#   From: 2010.05.17/outbox.cif.g08.bks.cpg/sg2_158_cif.got.tgz:314289.got - 2010.06.03 11:33:40.
