data_PCOD9023451
_publ_section_title
;
Structure prediction by ZEFSAII (Michael W. Deem and Ramdas Pophale) SiO2 
 PCOD9023451
Probable space group: P -1
;
_chemical_formula_sum "Si O2"
_cell_formula_units_Z 16
_cell_length_a 16.662354
_cell_length_b 8.932854
_cell_length_c 12.544117
_cell_angle_alpha 99.565786
_cell_angle_beta 39.832124
_cell_angle_gamma 132.690087
_cell_volume 578.500060
_symmetry_space_group_name_H-M "P -1"
_symmetry_group_IT_number 2
_symmetry_cell_setting 'triclinic'
loop_
_space_group_symop_operation_xyz
x,y,z
-x,-y,-z
loop_
_atom_site_type_symbol
_atom_site_label
_atom_site_fract_x
_atom_site_fract_y
_atom_site_fract_z
Si Si1 0.232301 0.701941 0.962459
Si Si2 0.488539 0.384761 0.606398
Si Si3 0.811234 0.934589 0.444776
Si Si4 0.144932 0.047443 0.228768
Si Si5 0.105748 0.492233 0.308742
Si Si6 0.334646 0.519661 0.234548
Si Si7 0.319710 0.726651 0.564492
Si Si8 0.008222 0.828315 0.944832
O O1 0.963761 0.501312 0.180729
O O2 0.385173 0.200805 0.971022
O O3 0.206949 0.649704 0.109042
O O4 0.220832 0.528360 0.887274
O O5 0.500000 0.500000 0.500000
O O6 0.547681 0.565480 0.661716
O O7 0.694457 0.467797 0.414653
O O8 0.225501 0.015160 0.829850
O O9 0.862003 0.048731 0.289261
O O10 0.030659 0.044218 0.260741
O O11 0.862250 0.123177 0.494425
O O12 0.901521 0.693382 0.472385
O O13 0.249330 0.263456 0.245169
O O14 0.322432 0.622436 0.161866
O O15 0.000000 0.500000 0.500000
O O16 0.496018 0.939077 0.304777
O O17 0.500000 0.000000 0.500000
O O18 0.000000 0.000000 0.000000
#
# Coordination Sequence:
#
# PCOD9023451 Si02
#       8
#     2   2   2   2   2   2   2   2
#     4  11  27  48  78 116 158 205 262 317 395 470
#     4  10  23  42  71 108 153 200 253 311 390 465
#     4   9  21  40  67 106 146 196 262 316 378 463
#     4   9  18  37  64  97 134 175 240 309 373 423
#     4  10  23  48  74 108 153 210 264 322 384 460
#     4   9  19  37  68  96 130 184 238 306 370 430
#     4  12  26  48  80 115 160 205 250 323 395 467
#     4  10  22  39  69 109 154 204 251 314 388 464
#
# _framework density 27.657736
#
# number of rings (size 3 to 8) (size 9 to 14) (size 15 to 20)
#    0.000    2.000    1.250    0.375    3.500    3.000 
#    0.000   12.500    0.000    2.250    0.000    0.000 
#    0.000    0.000    0.000    0.000    0.000    0.000 
#
# Total GULP energy -89508.465435 kJ/mol
# GULP energy per Si atom -5594.279090 kJ/mol
# Density = 2.759479 g / cm^3
# Si number density = 27.657736 Si / 1000 Ang^3
#
#
#
# Elastic Constant Matrix: (Units=GPa)
#
#
# Indices 1 2 3 4 5 6 
#
# 1 123.8953 45.0258 54.3075 -12.1323 4.7569 -15.9291
# 2 45.0258 180.6215 57.6614 17.2723 1.3068 4.1599
# 3 54.3075 57.6614 143.4793 -17.5423 3.7269 -4.6387
# 4 -12.1323 17.2723 -17.5423 51.9926 0.0556 -3.9538
# 5 4.7569 1.3068 3.7269 0.0556 33.2247 -2.5921
# 6 -15.9291 4.1599 -4.6387 -3.9538 -2.5921 39.4637
#
#
#
# Elastic Compliance Matrix: (Units=1/GPa)
#
#
# Indices 1 2 3 4 5 6 
#
# 1 0.010968 -0.002210 -0.002764 0.002708 -0.000823 0.004552
# 2 -0.002210 0.007397 -0.002715 -0.004071 0.000150 -0.002389
# 3 -0.002764 -0.002715 0.009573 0.003534 -0.000529 0.000615
# 4 0.002708 -0.004071 0.003534 0.022730 -0.000335 0.004193
# 5 -0.000823 0.000150 -0.000529 -0.000335 0.030391 0.001552
# 6 0.004552 -0.002389 0.000615 0.004193 0.001552 0.028023
#
#
# Mechanical properties :
#
#
# Convention : Reuss Voigt Hill
#
# Bulk Modulus (GPa) = 79.61492 84.66505 82.13998
# Shear Modulus (GPa) = 38.86625 44.33627 41.60126
#
# Velocity S-wave (km/s) = 3.75274 4.00813 3.88254
# Velocity P-wave (km/s) = 6.90114 7.21792 7.06130
#
# Compressibility (1/GPa) = 0.01256046
#
# Stress axis : x y z
#
# Youngs Moduli (GPa) = 91.17551 135.18348 104.46331
#
# Poissons Ratio (x) = 0.29871 0.28871
# Poissons Ratio (y) = 0.20147 0.28366
# Poissons Ratio (z) = 0.25198 0.36707
#
# Static dielectric constant tensor:
#      x y z
#    x 2.206710 -0.017920 -0.056670 
#    y -0.017920 2.189090 -0.105050 
#    z -0.056670 -0.105050 2.572560 
# 
# From -- ./inp_files/406140.got.cif
#   From: 2010.05.17/outbox.cif.g08.bks.cpg/sg2_204_cif.got.tgz:406140.got - 2010.06.03 11:33:40.
