data_PCOD9023353
_publ_section_title
;
Structure prediction by ZEFSAII (Michael W. Deem and Ramdas Pophale) SiO2 
 PCOD9023353
Probable space group: P -1
;
_chemical_formula_sum "Si O2"
_cell_formula_units_Z 16
_cell_length_a 5.272266
_cell_length_b 11.449745
_cell_length_c 19.984676
_cell_angle_alpha 39.108095
_cell_angle_beta 59.600004
_cell_angle_gamma 56.156184
_cell_volume 625.720919
_symmetry_space_group_name_H-M "P -1"
_symmetry_group_IT_number 2
_symmetry_cell_setting 'triclinic'
loop_
_space_group_symop_operation_xyz
x,y,z
-x,-y,-z
loop_
_atom_site_type_symbol
_atom_site_label
_atom_site_fract_x
_atom_site_fract_y
_atom_site_fract_z
Si Si1 0.598221 0.358069 0.275401
Si Si2 0.396137 0.331138 0.762944
Si Si3 0.542167 0.056558 0.123426
Si Si4 0.008449 0.049806 0.619822
Si Si5 0.212605 0.636167 0.100453
Si Si6 0.831571 0.485756 0.430360
Si Si7 0.139807 0.420827 0.087060
Si Si8 0.261358 0.113039 0.695582
O O1 0.487650 0.512172 0.281669
O O2 0.347957 0.441993 0.213353
O O3 0.887155 0.402225 0.181779
O O4 0.752280 0.130206 0.371563
O O5 0.241104 0.441368 0.668019
O O6 0.136665 0.284202 0.865129
O O7 0.582865 0.113659 0.812213
O O8 0.327744 0.208038 0.135546
O O9 0.792541 0.949067 0.193726
O O10 0.636213 0.188020 0.995824
O O11 0.137904 0.016070 0.693818
O O12 0.034908 0.262298 0.503151
O O13 0.637115 0.077144 0.650769
O O14 0.270982 0.567024 0.046656
O O15 0.500000 0.500000 0.500000
O O16 0.918134 0.655340 0.383867
O O17 0.000000 0.500000 0.000000
#
# Coordination Sequence:
#
# PCOD9023353 Si02
#       8
#     2   2   2   2   2   2   2   2
#     4  11  24  41  63  94 140 179 216 283 334 412
#     4  10  25  46  61  96 136 173 226 277 349 413
#     4  11  21  41  66  97 129 182 227 276 333 404
#     4  11  22  41  70  98 134 178 226 285 349 398
#     4  11  24  42  62  95 140 175 223 274 343 408
#     4   9  21  46  71  99 130 169 231 291 343 408
#     4  11  22  39  65  94 130 174 234 275 324 396
#     4  10  22  39  68 106 132 168 233 291 333 401
#
# _framework density 25.570508
#
# number of rings (size 3 to 8) (size 9 to 14) (size 15 to 20)
#    0.000    1.500    2.500    1.875    3.500    1.000 
#   20.250    0.625    0.000    0.000    0.000    0.000 
#    0.000    0.000    0.000    0.000    0.000    0.000 
#
# Total GULP energy -89269.248472 kJ/mol
# GULP energy per Si atom -5579.328029 kJ/mol
# Density = 2.551231 g / cm^3
# Si number density = 25.570508 Si / 1000 Ang^3
#
#
#
# Elastic Constant Matrix: (Units=GPa)
#
#
# Indices 1 2 3 4 5 6 
#
# 1 94.5543 40.2873 10.6261 -9.7766 8.4358 17.4893
# 2 40.2873 150.1253 32.1872 -23.5044 -1.6467 15.9569
# 3 10.6261 32.1872 94.5812 -30.9685 4.6305 4.3818
# 4 -9.7766 -23.5044 -30.9685 53.5319 -2.0428 2.3505
# 5 8.4358 -1.6467 4.6305 -2.0428 28.1108 4.7418
# 6 17.4893 15.9569 4.3818 2.3505 4.7418 35.0286
#
#
#
# Elastic Compliance Matrix: (Units=1/GPa)
#
#
# Indices 1 2 3 4 5 6 
#
# 1 0.013113 -0.002883 0.000364 0.001433 -0.003227 -0.004939
# 2 -0.002883 0.008498 -0.001776 0.002382 0.002280 -0.002678
# 3 0.000364 -0.001776 0.013627 0.007163 -0.001714 -0.001326
# 4 0.001433 0.002382 0.007163 0.024369 0.001055 -0.004475
# 5 -0.003227 0.002280 -0.001714 0.001055 0.037776 -0.004398
# 6 -0.004939 -0.002678 -0.001326 -0.004475 -0.004398 0.033295
#
#
# Mechanical properties :
#
#
# Convention : Reuss Voigt Hill
#
# Bulk Modulus (GPa) = 37.52555 56.16244 46.84400
# Shear Modulus (GPa) = 33.74939 40.41163 37.08051
#
# Velocity S-wave (km/s) = 3.63692 3.97974 3.81219
# Velocity P-wave (km/s) = 5.68713 6.56728 6.14299
#
# Compressibility (1/GPa) = 0.02664851
#
# Stress axis : x y z
#
# Youngs Moduli (GPa) = 76.26029 117.67272 73.38370
#
# Poissons Ratio (x) = 0.33926 -0.02671
# Poissons Ratio (y) = 0.21986 0.13031
# Poissons Ratio (z) = -0.02776 0.20895
#
# Static dielectric constant tensor:
#      x y z
#    x 2.329280 -0.378160 0.407680 
#    y -0.378160 2.483680 -0.591870 
#    z 0.407680 -0.591870 2.779160 
# 
# From -- ./inp_files/582995.got.cif
#   From: 2010.05.17/outbox.cif.g08.bks.cpg/sg2_292_cif.got.tgz:582995.got - 2010.06.03 11:33:40.
