data_PCOD9023201
_publ_section_title
;
Structure prediction by ZEFSAII (Michael W. Deem and Ramdas Pophale) SiO2 
 PCOD9023201
Probable space group: P -1
;
_chemical_formula_sum "Si O2"
_cell_formula_units_Z 14
_cell_length_a 11.713414
_cell_length_b 14.511075
_cell_length_c 8.476987
_cell_angle_alpha 118.627202
_cell_angle_beta 127.545678
_cell_angle_gamma 29.591569
_cell_volume 559.373577
_symmetry_space_group_name_H-M "P -1"
_symmetry_group_IT_number 2
_symmetry_cell_setting 'triclinic'
loop_
_space_group_symop_operation_xyz
x,y,z
-x,-y,-z
loop_
_atom_site_type_symbol
_atom_site_label
_atom_site_fract_x
_atom_site_fract_y
_atom_site_fract_z
Si Si1 0.838766 0.004037 0.101768
Si Si2 0.334308 0.586299 0.273585
Si Si3 0.832574 0.230630 0.231017
Si Si4 0.229502 0.136617 0.299796
Si Si5 0.201781 0.359457 0.288065
Si Si6 0.095333 0.297144 0.843571
Si Si7 0.727833 0.032181 0.370656
O O1 0.709840 0.098555 0.241375
O O2 0.135123 0.796238 0.222790
O O3 0.808427 0.124875 0.069307
O O4 0.720621 0.972331 0.894273
O O5 0.500000 0.500000 0.500000
O O6 0.545253 0.442461 0.198175
O O7 0.143464 0.607256 0.179568
O O8 0.010805 0.203755 0.263997
O O9 0.996647 0.118035 0.438880
O O10 0.121090 0.314015 0.295404
O O11 0.500000 0.000000 0.500000
O O12 0.016278 0.570421 0.289408
O O13 0.502061 0.203646 0.438854
O O14 0.218166 0.301251 0.076313
O O15 0.265304 0.097231 0.764956
#
# Coordination Sequence:
#
# PCOD9023201 Si02
#       7
#     2   2   2   2   2   2   2
#     4  11  25  45  70 100 135 181 228 283 333 396
#     4  11  22  41  69 102 133 164 231 285 329 400
#     4  12  25  42  70 101 137 183 218 274 351 404
#     4  12  26  47  67 100 143 183 228 273 339 420
#     4  11  22  42  65  96 136 175 221 283 332 390
#     4  10  22  39  67 100 128 168 227 287 329 382
#     4  11  21  40  73  99 130 173 232 281 332 395
#
# _framework density 25.027996999999999
#
# number of rings (size 3 to 8) (size 9 to 14) (size 15 to 20)
#    0.000    0.857    7.143    2.143    2.000    0.571 
#    0.000    2.143    0.000    0.000    0.000    0.000 
#    0.000    0.000    0.000    0.000    0.000    0.000 
#
# Total GULP energy -78326.116189 kJ/mol
# GULP energy per Si atom -5594.722585 kJ/mol
# Density = 2.497103 g / cm^3
# Si number density = 25.027997 Si / 1000 Ang^3
#
#
#
# Elastic Constant Matrix: (Units=GPa)
#
#
# Indices 1 2 3 4 5 6 
#
# 1 189.8442 56.9205 -5.5086 -7.0506 11.0241 10.0287
# 2 56.9205 96.5709 -7.8735 -22.4611 13.7535 18.5464
# 3 -5.5086 -7.8735 47.7148 -11.6789 10.9531 -6.0985
# 4 -7.0506 -22.4611 -11.6789 24.2419 -4.2001 6.5210
# 5 11.0241 13.7535 10.9531 -4.2001 32.2269 -2.9179
# 6 10.0287 18.5464 -6.0985 6.5210 -2.9179 36.5129
#
#
#
# Elastic Compliance Matrix: (Units=1/GPa)
#
#
# Indices 1 2 3 4 5 6 
#
# 1 0.006533 -0.004818 -0.000619 -0.003207 -0.000287 0.001099
# 2 -0.004818 0.025995 0.011690 0.030816 -0.010879 -0.016301
# 3 -0.000619 0.011690 0.031072 0.025065 -0.012620 -0.006063
# 4 -0.003207 0.030816 0.025065 0.086144 -0.011783 -0.026912
# 5 -0.000287 -0.010879 -0.012620 -0.011783 0.039316 0.008743
# 6 0.001099 -0.016301 -0.006063 -0.026912 0.008743 0.039858
#
#
# Mechanical properties :
#
#
# Convention : Reuss Voigt Hill
#
# Bulk Modulus (GPa) = 13.13943 46.80074 29.97009
# Shear Modulus (GPa) = 20.67979 37.96909 29.32444
#
# Velocity S-wave (km/s) = 2.87760 3.89918 3.42667
# Velocity P-wave (km/s) = 4.03758 6.24591 5.25897
#
# Compressibility (1/GPa) = 0.07610681
#
# Stress axis : x y z
#
# Youngs Moduli (GPa) = 153.05892 38.46880 32.18295
#
# Poissons Ratio (x) = 0.18532 0.01993
# Poissons Ratio (y) = 0.73736 -0.37621
# Poissons Ratio (z) = 0.09479 -0.44969
#
# Static dielectric constant tensor:
#      x y z
#    x 2.027400 -0.013620 0.005270 
#    y -0.013620 1.985840 -0.005860 
#    z 0.005270 -0.005860 2.092840 
# 
# From -- ./inp_files/274145.got.cif
#   From: 2010.05.17/outbox.cif.g08.bks.cpg/sg2_138_cif.got.tgz:274145.got - 2010.06.03 11:33:40.
