data_PCOD9023031
_publ_section_title
;
Structure prediction by ZEFSAII (Michael W. Deem and Ramdas Pophale) SiO2 
 PCOD9023031
Probable space group: P -1
;
_chemical_formula_sum "Si O2"
_cell_formula_units_Z 14
_cell_length_a 12.630241
_cell_length_b 30.063292
_cell_length_c 5.530686
_cell_angle_alpha 111.071438
_cell_angle_beta 68.071465
_cell_angle_gamma 161.396259
_cell_volume 621.374448
_symmetry_space_group_name_H-M "P -1"
_symmetry_group_IT_number 2
_symmetry_cell_setting 'triclinic'
loop_
_space_group_symop_operation_xyz
x,y,z
-x,-y,-z
loop_
_atom_site_type_symbol
_atom_site_label
_atom_site_fract_x
_atom_site_fract_y
_atom_site_fract_z
Si Si1 0.776646 0.235546 0.611871
Si Si2 0.243649 0.941637 0.557736
Si Si3 0.364824 0.159521 0.041317
Si Si4 0.302671 0.636818 0.164446
Si Si5 0.604643 0.498123 0.085048
Si Si6 0.827058 0.324859 0.349307
Si Si7 0.824633 0.762760 0.060228
O O1 0.794324 0.260072 0.370521
O O2 0.156576 0.383423 0.680911
O O3 0.501152 0.087033 0.594154
O O4 0.613357 0.217688 0.838750
O O5 0.037795 0.851644 0.304542
O O6 0.500000 0.000000 0.500000
O O7 0.021334 0.855425 0.826189
O O8 0.467080 0.198862 0.307055
O O9 0.441639 0.237724 0.992613
O O10 0.000000 0.000000 0.000000
O O11 0.118471 0.606747 0.408634
O O12 0.513556 0.677590 0.187451
O O13 0.000000 0.500000 0.000000
O O14 0.500000 0.500000 0.000000
O O15 0.298872 0.340923 0.087591
O O16 0.860054 0.561276 0.864790
#
# Coordination Sequence:
#
# PCOD9023031 Si02
#       7
#     2   2   2   2   2   2   2
#     4  10  24  43  69 102 141 190 240 302 363 434
#     4  12  29  50  75 109 153 193 251 313 372 436
#     4  10  22  39  65  97 139 182 239 282 363 433
#     4  11  25  43  68 104 151 184 244 301 367 442
#     4  11  26  47  74 102 143 192 257 300 367 446
#     4  10  24  42  72 101 142 191 235 307 363 431
#     4  12  29  47  78 113 146 200 247 306 381 437
#
# _framework density 22.530695999999999
#
# number of rings (size 3 to 8) (size 9 to 14) (size 15 to 20)
#    0.000    1.143    0.000    4.714   16.000    2.857 
#    0.000    0.000    0.000    0.000    0.000    0.000 
#    0.000    0.000    0.000    0.000    0.000    0.000 
#
# Total GULP energy -77982.842863 kJ/mol
# GULP energy per Si atom -5570.203062 kJ/mol
# Density = 2.247941 g / cm^3
# Si number density = 22.530696 Si / 1000 Ang^3
#
#
#
# Elastic Constant Matrix: (Units=GPa)
#
#
# Indices 1 2 3 4 5 6 
#
# 1 96.2262 30.9117 15.5440 27.5763 -21.6882 -3.9989
# 2 30.9117 139.8172 44.3349 26.0471 -4.8999 -19.5611
# 3 15.5440 44.3349 71.5388 13.4281 7.8119 2.2040
# 4 27.5763 26.0471 13.4281 38.5639 11.3069 -1.4344
# 5 -21.6882 -4.8999 7.8119 11.3069 14.6306 -0.9025
# 6 -3.9989 -19.5611 2.2040 -1.4344 -0.9025 47.6783
#
#
#
# Elastic Compliance Matrix: (Units=1/GPa)
#
#
# Indices 1 2 3 4 5 6 
#
# 1 -0.048893 -0.021180 0.025454 0.087205 -0.161445 -0.014399
# 2 -0.021180 0.004107 0.002754 0.026685 -0.052139 -0.000403
# 3 0.025454 0.002754 0.007200 -0.042305 0.067686 0.002940
# 4 0.087205 0.026685 -0.042305 -0.111784 0.248516 0.021559
# 5 -0.161445 -0.052139 0.067686 0.248516 -0.419014 -0.038516
# 6 -0.014399 -0.000403 0.002940 0.021559 -0.038516 0.019384
#
#
# Mechanical properties :
#
#
# Convention : Reuss Voigt Hill
#
# Bulk Modulus (GPa) = -42.49876 54.35147 5.92636
# Shear Modulus (GPa) = -8.75813 34.62731 12.93459
#
# Velocity S-wave (km/s) = -1.97374 3.92458 2.39861
# Velocity P-wave (km/s) = 4.90894 6.68671 3.21048
#
# Compressibility (1/GPa) = -0.02353010
#
# Stress axis : x y z
#
# Youngs Moduli (GPa) = -20.45292 243.50657 138.88604
#
# Poissons Ratio (x) = 5.15739 -3.53515
# Poissons Ratio (y) = -0.43319 -0.38249
# Poissons Ratio (z) = 0.52060 -0.67061
#
# Static dielectric constant tensor:
#      x y z
#    x 1.931190 -0.023630 0.172150 
#    y -0.023630 2.028620 0.027680 
#    z 0.172150 0.027680 2.090800 
# 
# From -- ./inp_files/68092.got.cif
#   From: 2010.05.17/outbox.cif.g08.bks.cpg/sg2_35_cif.got.tgz:68092.got - 2010.06.03 11:33:40.
