data_PCOD9023032
_publ_section_title
;
Structure prediction by ZEFSAII (Michael W. Deem and Ramdas Pophale) SiO2 
 PCOD9023032
Probable space group: P -1
;
_chemical_formula_sum "Si O2"
_cell_formula_units_Z 14
_cell_length_a 13.604144
_cell_length_b 9.164245
_cell_length_c 13.168642
_cell_angle_alpha 147.037628
_cell_angle_beta 135.559580
_cell_angle_gamma 60.864680
_cell_volume 597.702933
_symmetry_space_group_name_H-M "P -1"
_symmetry_group_IT_number 2
_symmetry_cell_setting 'triclinic'
loop_
_space_group_symop_operation_xyz
x,y,z
-x,-y,-z
loop_
_atom_site_type_symbol
_atom_site_label
_atom_site_fract_x
_atom_site_fract_y
_atom_site_fract_z
Si Si1 0.211241 0.656757 0.323450
Si Si2 0.455909 0.048023 0.881724
Si Si3 0.654288 0.471787 0.995675
Si Si4 0.651884 0.824986 0.401342
Si Si5 0.033033 0.597924 0.862893
Si Si6 0.649929 0.759034 0.759352
Si Si7 0.822945 0.768216 0.683733
O O1 0.319441 0.823587 0.592154
O O2 0.247278 0.363086 0.163011
O O3 0.049723 0.579533 0.206784
O O4 0.252236 0.864327 0.379993
O O5 0.597969 0.022693 0.908701
O O6 0.405559 0.325735 0.002346
O O7 0.500000 0.000000 0.000000
O O8 0.661773 0.622973 0.197784
O O9 0.813193 0.452328 0.075988
O O10 0.519380 0.187427 0.726545
O O11 0.708737 0.703524 0.470570
O O12 0.916613 0.557707 0.659695
O O13 0.067858 0.933163 0.097130
O O14 0.500000 0.500000 0.500000
O O15 0.733005 0.800692 0.737567
#
# Coordination Sequence:
#
# PCOD9023032 Si02
#       7
#     2   2   2   2   2   2   2
#     4   9  21  43  64  93 131 168 214 269 317 381
#     4  10  22  39  65  98 126 168 217 264 320 378
#     4  10  24  41  63  99 136 163 213 273 321 384
#     4  10  23  41  67  98 127 171 219 262 323 382
#     4  10  23  43  63  91 137 170 210 272 321 384
#     4   9  20  38  63  92 124 163 215 271 299 378
#     4  10  23  42  67  93 126 177 218 259 324 383
#
# _framework density 23.423007999999999
#
# number of rings (size 3 to 8) (size 9 to 14) (size 15 to 20)
#    0.000    2.286    0.000    0.000   14.000    5.143 
#    0.000    7.143    0.000    0.000    0.000    0.000 
#    0.000    0.000    0.000    0.000    0.000    0.000 
#
# Total GULP energy -78139.905399 kJ/mol
# GULP energy per Si atom -5581.421814 kJ/mol
# Density = 2.336970 g / cm^3
# Si number density = 23.423008 Si / 1000 Ang^3
#
#
#
# Elastic Constant Matrix: (Units=GPa)
#
#
# Indices 1 2 3 4 5 6 
#
# 1 141.9614 78.8546 40.0973 -17.2461 45.6468 -13.6273
# 2 78.8546 168.1616 31.5550 -18.4317 14.2863 -2.4486
# 3 40.0973 31.5550 46.6354 -8.4829 24.8877 -2.4656
# 4 -17.2461 -18.4317 -8.4829 42.1109 5.5073 2.7262
# 5 45.6468 14.2863 24.8877 5.5073 42.4377 -10.4388
# 6 -13.6273 -2.4486 -2.4656 2.7262 -10.4388 38.8177
#
#
#
# Elastic Compliance Matrix: (Units=1/GPa)
#
#
# Indices 1 2 3 4 5 6 
#
# 1 0.016102 -0.005415 -0.000609 0.006128 -0.015788 0.000596
# 2 -0.005415 0.008822 -0.004040 0.000172 0.005145 -0.000230
# 3 -0.000609 -0.004040 0.038209 0.008962 -0.022732 -0.004784
# 4 0.006128 0.000172 0.008962 0.030596 -0.016847 -0.003948
# 5 -0.015788 0.005145 -0.022732 -0.016847 0.056737 0.009779
# 6 0.000596 -0.000230 -0.004784 -0.003948 0.009779 0.028559
#
#
# Mechanical properties :
#
#
# Convention : Reuss Voigt Hill
#
# Bulk Modulus (GPa) = 23.25293 73.08580 48.16936
# Shear Modulus (GPa) = 23.42033 38.42337 30.92185
#
# Velocity S-wave (km/s) = 3.16553 4.05459 3.63733
# Velocity P-wave (km/s) = 4.82801 7.29314 6.18464
#
# Compressibility (1/GPa) = 0.04300533
#
# Stress axis : x y z
#
# Youngs Moduli (GPa) = 62.10288 113.34875 26.17183
#
# Poissons Ratio (x) = 0.61375 0.01594
# Poissons Ratio (y) = 0.33627 0.10574
# Poissons Ratio (z) = 0.03782 0.45797
#
# Static dielectric constant tensor:
#      x y z
#    x 1.876100 0.012950 0.012180 
#    y 0.012950 1.955540 0.012460 
#    z 0.012180 0.012460 2.030890 
# 
# From -- ./inp_files/527034.got.cif
#   From: 2010.05.17/outbox.cif.g08.bks.cpg/sg2_264_cif.got.tgz:527034.got - 2010.06.03 11:33:40.
