data_PCOD9023117
_publ_section_title
;
Structure prediction by ZEFSAII (Michael W. Deem and Ramdas Pophale) SiO2 
 PCOD9023117
Probable space group: P -1
;
_chemical_formula_sum "Si O2"
_cell_formula_units_Z 14
_cell_length_a 27.934968
_cell_length_b 5.138363
_cell_length_c 11.879290
_cell_angle_alpha 95.591375
_cell_angle_beta 20.936759
_cell_angle_gamma 92.397945
_cell_volume 600.594156
_symmetry_space_group_name_H-M "P -1"
_symmetry_group_IT_number 2
_symmetry_cell_setting 'triclinic'
loop_
_space_group_symop_operation_xyz
x,y,z
-x,-y,-z
loop_
_atom_site_type_symbol
_atom_site_label
_atom_site_fract_x
_atom_site_fract_y
_atom_site_fract_z
Si Si1 0.852624 0.124333 0.370167
Si Si2 0.136760 0.997704 0.127193
Si Si3 0.821320 0.660486 0.589315
Si Si4 0.525082 0.557222 0.246022
Si Si5 0.568109 0.244721 0.906852
Si Si6 0.050220 0.509594 0.260293
Si Si7 0.586180 0.901274 0.414809
O O1 0.812642 0.935917 0.552395
O O2 0.861831 0.419480 0.404424
O O3 0.730646 0.155145 0.548469
O O4 0.000000 0.000000 0.000000
O O5 0.106331 0.205794 0.102025
O O6 0.000000 0.000000 0.500000
O O7 0.165262 0.697853 0.011083
O O8 0.255186 0.088722 0.944363
O O9 0.933079 0.627941 0.439297
O O10 0.676502 0.601939 0.950887
O O11 0.455340 0.858579 0.394186
O O12 0.446641 0.388179 0.496175
O O13 0.540595 0.358276 0.098252
O O14 0.500000 0.500000 0.000000
O O15 0.500000 0.000000 0.000000
O O16 0.000000 0.500000 0.500000
O O17 0.500000 0.000000 0.500000
#
# Coordination Sequence:
#
# PCOD9023117 Si02
#       7
#     2   2   2   2   2   2   2
#     4  11  24  46  70 106 135 174 233 280 347 424
#     4  10  23  41  61  91 134 175 228 270 337 390
#     4  11  23  43  72  98 137 185 220 282 344 408
#     4  11  25  44  70 101 134 177 241 267 345 422
#     4  11  23  47  74  98 135 180 218 293 357 405
#     4  10  22  39  66  92 133 175 227 267 335 396
#     4  12  26  42  68  97 140 180 228 284 328 405
#
# _framework density 23.310251000000001
#
# number of rings (size 3 to 8) (size 9 to 14) (size 15 to 20)
#    0.000    1.143    0.000    6.857    8.000    0.000 
#   15.429    0.000    0.000    0.000    0.000    0.000 
#    0.000    0.000    0.000    0.000    0.000    0.000 
#
# Total GULP energy -78172.760015 kJ/mol
# GULP energy per Si atom -5583.768572 kJ/mol
# Density = 2.325720 g / cm^3
# Si number density = 23.310251 Si / 1000 Ang^3
#
#
#
# Elastic Constant Matrix: (Units=GPa)
#
#
# Indices 1 2 3 4 5 6 
#
# 1 94.5185 26.9604 41.2769 -15.3760 -44.4377 -9.5806
# 2 26.9604 168.7547 20.4731 -18.4864 -11.9800 -17.0114
# 3 41.2769 20.4731 120.7138 -7.9366 -37.9295 -4.9791
# 4 -15.3760 -18.4864 -7.9366 45.8872 6.3369 0.4735
# 5 -44.4377 -11.9800 -37.9295 6.3369 34.9986 11.1775
# 6 -9.5806 -17.0114 -4.9791 0.4735 11.1775 46.6973
#
#
#
# Elastic Compliance Matrix: (Units=1/GPa)
#
#
# Indices 1 2 3 4 5 6 
#
# 1 0.028706 -0.002135 0.003101 0.003856 0.039689 -0.004097
# 2 -0.002135 0.006687 -0.001010 0.002152 -0.002711 0.002517
# 3 0.003101 -0.001010 0.013181 0.000357 0.018709 -0.002808
# 4 0.003856 0.002152 0.000357 0.023813 0.001376 0.001042
# 5 0.039689 -0.002711 0.018709 0.001376 0.103022 -0.015523
# 6 -0.004097 0.002517 -0.002808 0.001042 -0.015523 0.024897
#
#
# Mechanical properties :
#
#
# Convention : Reuss Voigt Hill
#
# Bulk Modulus (GPa) = 20.62479 62.37867 41.50173
# Shear Modulus (GPa) = 23.08875 45.20173 34.14524
#
# Velocity S-wave (km/s) = 3.15063 4.40834 3.83144
# Velocity P-wave (km/s) = 4.70133 7.26151 6.11686
#
# Compressibility (1/GPa) = 0.04848534
#
# Stress axis : x y z
#
# Youngs Moduli (GPa) = 34.83561 149.55502 75.86561
#
# Poissons Ratio (x) = 0.31936 -0.23530
# Poissons Ratio (y) = 0.07439 0.07665
# Poissons Ratio (z) = -0.10804 0.15111
#
# Static dielectric constant tensor:
#      x y z
#    x 1.963440 0.109240 0.096540 
#    y 0.109240 2.145420 0.199370 
#    z 0.096540 0.199370 2.045770 
# 
# From -- ./inp_files/475843.got.cif
#   From: 2010.05.17/outbox.cif.g08.bks.cpg/sg2_238_cif.got.tgz:475843.got - 2010.06.03 11:33:40.
