data_PCOD9023332
_publ_section_title
;
Structure prediction by ZEFSAII (Michael W. Deem and Ramdas Pophale) SiO2 
 PCOD9023332
Probable space group: P -1
;
_chemical_formula_sum "Si O2"
_cell_formula_units_Z 13
_cell_length_a 13.537760
_cell_length_b 7.815257
_cell_length_c 8.698308
_cell_angle_alpha 46.923684
_cell_angle_beta 85.713063
_cell_angle_gamma 111.403915
_cell_volume 550.267020
_symmetry_space_group_name_H-M "P -1"
_symmetry_group_IT_number 2
_symmetry_cell_setting 'triclinic'
loop_
_space_group_symop_operation_xyz
x,y,z
-x,-y,-z
loop_
_atom_site_type_symbol
_atom_site_label
_atom_site_fract_x
_atom_site_fract_y
_atom_site_fract_z
Si Si1 0.368745 0.200585 0.705799
Si Si2 0.000000 0.500000 0.000000
Si Si3 0.584201 0.211267 0.225773
Si Si4 0.207941 0.402722 0.578774
Si Si5 0.002320 0.228595 0.470064
Si Si6 0.837416 0.724506 0.989204
Si Si7 0.413092 0.035755 0.100508
O O1 0.500000 0.500000 0.500000
O O2 0.269067 0.238368 0.625144
O O3 0.369288 0.958008 0.764804
O O4 0.349802 0.125664 0.934704
O O5 0.000622 0.440106 0.224102
O O6 0.910709 0.604976 0.981199
O O7 0.698447 0.502331 0.095941
O O8 0.500000 0.000000 0.500000
O O9 0.502608 0.243975 0.093987
O O10 0.150421 0.276452 0.828131
O O11 0.316456 0.734483 0.374317
O O12 0.117821 0.368340 0.480590
O O13 0.000000 0.000000 0.500000
O O14 0.890086 0.032565 0.718262
O O15 0.500000 0.000000 0.000000
#
# Coordination Sequence:
#
# PCOD9023332 Si02
#       7
#     2   1   2   2   2   2   2
#     4  11  23  40  69  98 136 186 223 276 350 403
#     4  10  26  48  68 102 128 192 226 286 352 396
#     4  11  22  45  68 102 141 177 226 285 343 411
#     4  12  24  46  69 102 139 182 234 287 341 418
#     4  10  26  44  71  99 135 180 236 288 343 410
#     4  11  25  46  70 102 144 177 235 289 340 419
#     4  10  22  39  68 101 139 177 226 280 344 405
#
# _framework density 23.624891999999999
#
# number of rings (size 3 to 8) (size 9 to 14) (size 15 to 20)
#    0.000    1.231    4.615    0.462   12.923    1.846 
#    0.000    1.538    0.000    0.000    0.000    0.000 
#    0.000    0.000    0.000    0.000    0.000    0.000 
#
# Total GULP energy -72485.136670 kJ/mol
# GULP energy per Si atom -5575.779744 kJ/mol
# Density = 2.357112 g / cm^3
# Si number density = 23.624892 Si / 1000 Ang^3
#
#
#
# Elastic Constant Matrix: (Units=GPa)
#
#
# Indices 1 2 3 4 5 6 
#
# 1 84.3148 49.0156 61.7595 3.0376 9.4970 23.9949
# 2 49.0156 91.9141 33.1367 14.1386 9.6364 15.0517
# 3 61.7595 33.1367 146.9897 41.4211 11.6145 29.3521
# 4 3.0376 14.1386 41.4211 34.5022 6.6770 7.3569
# 5 9.4970 9.6364 11.6145 6.6770 35.4547 15.6850
# 6 23.9949 15.0517 29.3521 7.3569 15.6850 46.4577
#
#
#
# Elastic Compliance Matrix: (Units=1/GPa)
#
#
# Indices 1 2 3 4 5 6 
#
# 1 0.032739 -0.014273 -0.016000 0.023649 -0.001744 -0.005333
# 2 -0.014273 0.018537 0.005434 -0.012772 -0.000670 0.000182
# 3 -0.016000 0.005434 0.019428 -0.023984 0.002156 -0.002702
# 4 0.023649 -0.012772 -0.023984 0.062311 -0.006473 -0.000605
# 5 -0.001744 -0.000670 0.002156 -0.006473 0.034118 -0.010738
# 6 -0.005333 0.000182 -0.002702 -0.000605 -0.010738 0.029649
#
#
# Mechanical properties :
#
#
# Convention : Reuss Voigt Hill
#
# Bulk Modulus (GPa) = 47.55701 67.89357 57.72529
# Shear Modulus (GPa) = 19.72634 35.23670 27.48152
#
# Velocity S-wave (km/s) = 2.89274 3.86619 3.41434
# Velocity P-wave (km/s) = 5.59741 6.98072 6.32698
#
# Compressibility (1/GPa) = 0.02102739
#
# Stress axis : x y z
#
# Youngs Moduli (GPa) = 30.54437 53.94571 51.47106
#
# Poissons Ratio (x) = 0.76994 0.82353
# Poissons Ratio (y) = 0.43595 -0.27968
# Poissons Ratio (z) = 0.48870 -0.29312
#
# Static dielectric constant tensor:
#      x y z
#    x 1.919390 -0.026180 -0.007890 
#    y -0.026180 1.883300 0.047520 
#    z -0.007890 0.047520 1.469160 
# 
# From -- ./inp_files/241810.got.cif
#   From: 2010.05.17/outbox.cif.g08.bks.cpg/sg2_121_cif.got.tgz:241810.got - 2010.06.03 11:33:40.
