data_PCOD9023460
_publ_section_title
;
Structure prediction by ZEFSAII (Michael W. Deem and Ramdas Pophale) SiO2 
 PCOD9023460
Probable space group: P -1
;
_chemical_formula_sum "Si O2"
_cell_formula_units_Z 14
_cell_length_a 9.561575
_cell_length_b 18.200210
_cell_length_c 10.071991
_cell_angle_alpha 30.361167
_cell_angle_beta 138.719144
_cell_angle_gamma 139.083673
_cell_volume 553.441284
_symmetry_space_group_name_H-M "P -1"
_symmetry_group_IT_number 2
_symmetry_cell_setting 'triclinic'
loop_
_space_group_symop_operation_xyz
x,y,z
-x,-y,-z
loop_
_atom_site_type_symbol
_atom_site_label
_atom_site_fract_x
_atom_site_fract_y
_atom_site_fract_z
Si Si1 0.949682 0.014364 0.165967
Si Si2 0.890606 0.337888 0.914220
Si Si3 0.573305 0.228533 0.099596
Si Si4 0.520433 0.778445 0.355688
Si Si5 0.662872 0.550610 0.328781
Si Si6 0.719015 0.738627 0.810236
Si Si7 0.771170 0.109792 0.647370
O O1 0.138712 0.103073 0.265790
O O2 0.727920 0.912418 0.239408
O O3 0.892499 0.133312 0.838319
O O4 0.055181 0.915814 0.298096
O O5 0.717921 0.220476 0.871456
O O6 0.876746 0.504093 0.601669
O O7 0.778714 0.295390 0.043268
O O8 0.123623 0.312325 0.101799
O O9 0.661036 0.223413 0.320300
O O10 0.425963 0.055683 0.226078
O O11 0.413400 0.332587 0.819120
O O12 0.521343 0.617754 0.541495
O O13 0.528493 0.763734 0.542544
O O14 0.674674 0.614477 0.088752
#
# Coordination Sequence:
#
# PCOD9023460 Si02
#       7
#     2   2   2   2   2   2   2
#     4  11  22  43  64  98 127 170 213 272 317 376
#     4  10  24  41  67  94 134 163 219 261 319 385
#     4  11  20  44  66  95 123 175 212 267 321 375
#     4  10  24  41  64  94 139 160 217 263 317 385
#     4  10  23  44  66  92 133 171 211 267 320 378
#     4  12  23  43  66  97 131 174 209 263 326 378
#     4  10  22  39  69  93 129 161 226 263 314 386
#
# _framework density 25.296268999999999
#
# number of rings (size 3 to 8) (size 9 to 14) (size 15 to 20)
#    0.857    0.571    2.857    2.571    0.000    1.714 
#    2.571    1.429    0.000    0.000    0.000    0.000 
#    0.000    0.000    0.000    0.000    0.000    0.000 
#
# Total GULP energy -78372.626496 kJ/mol
# GULP energy per Si atom -5598.044750 kJ/mol
# Density = 2.523869 g / cm^3
# Si number density = 25.296269 Si / 1000 Ang^3
#
#
#
# Elastic Constant Matrix: (Units=GPa)
#
#
# Indices 1 2 3 4 5 6 
#
# 1 76.1290 -16.8506 6.5546 -4.8390 -4.9957 4.6030
# 2 -16.8506 40.3229 21.6359 -1.6261 -3.8969 -5.5288
# 3 6.5546 21.6359 52.8087 9.5308 -4.1730 -3.6342
# 4 -4.8390 -1.6261 9.5308 38.6764 -3.0423 -9.6760
# 5 -4.9957 -3.8969 -4.1730 -3.0423 45.1299 7.4366
# 6 4.6030 -5.5288 -3.6342 -9.6760 7.4366 27.3689
#
#
#
# Elastic Compliance Matrix: (Units=1/GPa)
#
#
# Indices 1 2 3 4 5 6 
#
# 1 0.016750 0.011273 -0.007337 0.004417 0.002553 -0.000646
# 2 0.011273 0.041558 -0.019538 0.009848 0.002592 0.006682
# 3 -0.007337 -0.019538 0.029419 -0.009534 -0.000066 -0.002159
# 4 0.004417 0.009848 -0.009534 0.032006 0.000789 0.011082
# 5 0.002553 0.002592 -0.000066 0.000789 0.023714 -0.006079
# 6 -0.000646 0.006682 -0.002159 0.011082 -0.006079 0.043279
#
#
# Mechanical properties :
#
#
# Convention : Reuss Voigt Hill
#
# Bulk Modulus (GPa) = 17.69245 21.32671 19.50958
# Shear Modulus (GPa) = 21.11735 32.76310 26.94023
#
# Velocity S-wave (km/s) = 2.89243 3.60276 3.26696
# Velocity P-wave (km/s) = 4.26194 5.07499 4.68613
#
# Compressibility (1/GPa) = 0.05652128
#
# Stress axis : x y z
#
# Youngs Moduli (GPa) = 59.70178 24.06258 33.99170
#
# Poissons Ratio (x) = -0.27126 0.24941
# Poissons Ratio (y) = -0.67302 0.66415
# Poissons Ratio (z) = 0.43806 0.47015
#
# Static dielectric constant tensor:
#      x y z
#    x 1.969260 -0.006050 0.018120 
#    y -0.006050 1.995650 0.016870 
#    z 0.018120 0.016870 2.021340 
# 
# From -- ./inp_files/221588.got.cif
#   From: 2010.05.17/outbox.cif.g08.bks.cpg/sg2_111_cif.got.tgz:221588.got - 2010.06.03 11:33:40.
