data_PCOD9023480
_publ_section_title
;
Structure prediction by ZEFSAII (Michael W. Deem and Ramdas Pophale) SiO2 
 PCOD9023480
Probable space group: P -1
;
_chemical_formula_sum "Si O2"
_cell_formula_units_Z 14
_cell_length_a 15.165824
_cell_length_b 10.351997
_cell_length_c 21.916115
_cell_angle_alpha 139.755925
_cell_angle_beta 17.188052
_cell_angle_gamma 133.595779
_cell_volume 642.562601
_symmetry_space_group_name_H-M "P -1"
_symmetry_group_IT_number 2
_symmetry_cell_setting 'triclinic'
loop_
_space_group_symop_operation_xyz
x,y,z
-x,-y,-z
loop_
_atom_site_type_symbol
_atom_site_label
_atom_site_fract_x
_atom_site_fract_y
_atom_site_fract_z
Si Si1 0.862090 0.517355 0.663710
Si Si2 0.324801 0.739110 0.214106
Si Si3 0.173934 0.740778 0.187575
Si Si4 0.834537 0.937281 0.146937
Si Si5 0.067506 0.146205 0.177795
Si Si6 0.824000 0.498262 0.254351
Si Si7 0.138680 0.076023 0.654450
O O1 0.826837 0.300612 0.636645
O O2 0.028530 0.632632 0.645944
O O3 0.000000 0.500000 0.500000
O O4 0.536021 0.670672 0.924322
O O5 0.096967 0.799934 0.329743
O O6 0.500000 0.500000 0.000000
O O7 0.594281 0.863160 0.077103
O O8 0.050219 0.904770 0.276750
O O9 0.039176 0.546118 0.184965
O O10 0.024817 0.710978 0.953058
O O11 0.478059 0.940034 0.374180
O O12 0.866002 0.090890 0.236185
O O13 0.000000 0.000000 0.000000
O O14 0.040291 0.993365 0.196092
O O15 0.500000 0.500000 0.500000
O O16 0.808962 0.692321 0.290535
#
# Coordination Sequence:
#
# PCOD9023480 Si02
#       7
#     2   2   2   2   2   2   2
#     4  10  22  39  69  99 130 177 218 283 334 385
#     4   8  18  37  64  91 129 170 216 280 325 384
#     4   8  19  40  63  91 133 171 215 268 332 389
#     4  12  24  39  69  96 132 182 218 276 331 392
#     4  10  23  39  62  97 133 172 229 267 328 400
#     4  10  22  41  65  96 131 173 216 269 331 383
#     4  10  23  40  64  98 137 173 221 276 323 400
#
# _framework density 21.787762000000001
#
# number of rings (size 3 to 8) (size 9 to 14) (size 15 to 20)
#    0.857    1.714    1.429    0.429    8.000    2.857 
#    0.000    2.857    0.000   15.429    0.000    0.000 
#    0.000    0.000    0.000    0.000    0.000    0.000 
#
# Total GULP energy -78021.716140 kJ/mol
# GULP energy per Si atom -5572.979724 kJ/mol
# Density = 2.173817 g / cm^3
# Si number density = 21.787762 Si / 1000 Ang^3
#
#
#
# Elastic Constant Matrix: (Units=GPa)
#
#
# Indices 1 2 3 4 5 6 
#
# 1 143.4372 26.1255 48.4414 -14.5121 15.8401 -10.5144
# 2 26.1255 91.7384 41.3761 -15.8455 16.8430 -17.8681
# 3 48.4414 41.3761 78.7638 -6.5155 13.4030 -12.5853
# 4 -14.5121 -15.8455 -6.5155 36.9664 -8.5807 16.4948
# 5 15.8401 16.8430 13.4030 -8.5807 36.4800 -9.5079
# 6 -10.5144 -17.8681 -12.5853 16.4948 -9.5079 43.5565
#
#
#
# Elastic Compliance Matrix: (Units=1/GPa)
#
#
# Indices 1 2 3 4 5 6 
#
# 1 0.009147 0.000543 -0.005484 0.002706 -0.001715 -0.000553
# 2 0.000543 0.015802 -0.007385 0.003899 -0.003306 0.002281
# 3 -0.005484 -0.007385 0.020370 -0.003200 -0.001835 0.002344
# 4 0.002706 0.003899 -0.003200 0.035022 0.003528 -0.011164
# 5 -0.001715 -0.003306 -0.001835 0.003528 0.032064 0.003362
# 6 -0.000553 0.002281 0.002344 -0.011164 0.003362 0.029400
#
#
# Mechanical properties :
#
#
# Convention : Reuss Voigt Hill
#
# Bulk Modulus (GPa) = 48.38464 60.64727 54.51596
# Shear Modulus (GPa) = 28.84399 36.60035 32.72217
#
# Velocity S-wave (km/s) = 3.64244 4.10305 3.87959
# Velocity P-wave (km/s) = 6.32023 7.09525 6.71893
#
# Compressibility (1/GPa) = 0.02066772
#
# Stress axis : x y z
#
# Youngs Moduli (GPa) = 109.32064 63.28445 49.09107
#
# Poissons Ratio (x) = -0.03435 0.26920
# Poissons Ratio (y) = -0.05934 0.36254
# Poissons Ratio (z) = 0.59947 0.46736
#
# Static dielectric constant tensor:
#      x y z
#    x 1.859380 0.018480 0.035900 
#    y 0.018480 1.863390 0.010040 
#    z 0.035900 0.010040 1.838580 
# 
# From -- ./inp_files/597720.got.cif
#   From: 2010.05.17/outbox.cif.g08.bks.cpg/sg2_299_cif.got.tgz:597720.got - 2010.06.03 11:33:40.
