data_PCOD9023219
_publ_section_title
;
Structure prediction by ZEFSAII (Michael W. Deem and Ramdas Pophale) SiO2 
 PCOD9023219
Probable space group: P -1
;
_chemical_formula_sum "Si O2"
_cell_formula_units_Z 16
_cell_length_a 21.966470
_cell_length_b 5.022106
_cell_length_c 13.847889
_cell_angle_alpha 92.743875
_cell_angle_beta 150.574867
_cell_angle_gamma 87.628306
_cell_volume 749.662355
_symmetry_space_group_name_H-M "P -1"
_symmetry_group_IT_number 2
_symmetry_cell_setting 'triclinic'
loop_
_space_group_symop_operation_xyz
x,y,z
-x,-y,-z
loop_
_atom_site_type_symbol
_atom_site_label
_atom_site_fract_x
_atom_site_fract_y
_atom_site_fract_z
Si Si1 0.402851 0.379949 0.146805
Si Si2 0.446487 0.441206 0.819184
Si Si3 0.503026 0.739379 0.433861
Si Si4 0.160960 0.520038 0.420374
Si Si5 0.891895 0.012849 0.772952
Si Si6 0.129194 0.226083 0.759797
Si Si7 0.026333 0.248978 0.409806
Si Si8 0.376252 0.020755 0.557244
O O1 0.443624 0.457258 0.096769
O O2 0.398464 0.645426 0.211067
O O3 0.517419 0.187507 0.327539
O O4 0.274477 0.231679 0.977485
O O5 0.309008 0.572909 0.630671
O O6 0.412533 0.157742 0.713068
O O7 0.500000 0.500000 0.000000
O O8 0.500000 0.500000 0.500000
O O9 0.500000 0.000000 0.500000
O O10 0.617090 0.764199 0.516537
O O11 0.091766 0.784776 0.291178
O O12 0.112119 0.382110 0.448874
O O13 0.133806 0.287150 0.302234
O O14 0.759108 0.103799 0.632904
O O15 0.000000 0.000000 0.000000
O O16 0.071582 0.518230 0.698674
O O17 0.106154 0.170994 0.613237
O O18 0.055994 0.016432 0.721732
#
# Coordination Sequence:
#
# PCOD9023219 Si02
#       8
#     2   2   2   2   2   2   2   2
#     4  11  22  42  66  99 135 171 220 275 336 403
#     4  10  22  39  67 106 136 175 214 274 345 407
#     4  11  23  42  65  93 129 171 215 272 334 388
#     4  11  22  44  67  97 130 167 229 276 321 408
#     4  11  24  45  66  92 127 174 219 282 341 383
#     4  10  23  40  65  91 137 178 213 266 329 396
#     4  10  22  43  62  94 132 178 219 265 325 392
#     4  10  23  43  66  96 137 169 219 280 336 403
#
# _framework density 21.342941
#
# number of rings (size 3 to 8) (size 9 to 14) (size 15 to 20)
#    0.000    1.500    2.500    1.875    3.500    0.500 
#   11.250    0.000    0.000    0.000    0.000    0.000 
#    0.000    0.000    0.000    0.000    0.000    0.000 
#
# Total GULP energy -89103.005915 kJ/mol
# GULP energy per Si atom -5568.937870 kJ/mol
# Density = 2.129436 g / cm^3
# Si number density = 21.342941 Si / 1000 Ang^3
#
#
#
# Elastic Constant Matrix: (Units=GPa)
#
#
# Indices 1 2 3 4 5 6 
#
# 1 97.1438 38.7892 57.5547 15.6991 -11.8520 7.6488
# 2 38.7892 114.0439 44.6534 5.6117 -4.9154 14.6298
# 3 57.5547 44.6534 121.5792 12.2462 0.1006 -9.7118
# 4 15.6991 5.6117 12.2462 17.4637 -0.4831 0.5427
# 5 -11.8520 -4.9154 0.1006 -0.4831 39.3563 -0.0505
# 6 7.6488 14.6298 -9.7118 0.5427 -0.0505 33.6039
#
#
#
# Elastic Compliance Matrix: (Units=1/GPa)
#
#
# Indices 1 2 3 4 5 6 
#
# 1 0.018008 -0.001917 -0.007209 -0.010216 0.005070 -0.005175
# 2 -0.001917 0.011707 -0.003952 0.000938 0.000899 -0.005816
# 3 -0.007209 -0.003952 0.013917 -0.002314 -0.002719 0.007417
# 4 -0.010216 0.000938 -0.002314 0.067703 -0.002122 0.000151
# 5 0.005070 0.000899 -0.002719 -0.002122 0.027026 -0.002256
# 6 -0.005175 -0.005816 0.007417 0.000151 -0.002256 0.035606
#
#
# Mechanical properties :
#
#
# Convention : Reuss Voigt Hill
#
# Bulk Modulus (GPa) = 57.22440 68.30683 62.76562
# Shear Modulus (GPa) = 24.27794 30.86943 27.57368
#
# Velocity S-wave (km/s) = 3.37637 3.80722 3.59825
# Velocity P-wave (km/s) = 6.48613 7.16941 6.83631
#
# Compressibility (1/GPa) = 0.01747506
#
# Stress axis : x y z
#
# Youngs Moduli (GPa) = 55.53186 85.42164 71.85361
#
# Poissons Ratio (x) = 0.16376 0.51801
# Poissons Ratio (y) = 0.10646 0.28396
# Poissons Ratio (z) = 0.40034 0.33758
#
# Static dielectric constant tensor:
#      x y z
#    x 1.806860 0.030820 -0.018640 
#    y 0.030820 1.879720 -0.015400 
#    z -0.018640 -0.015400 1.766730 
# 
# From -- ./inp_files/468378.got.cif
#   From: 2010.05.17/outbox.cif.g08.bks.cpg/sg2_235_cif.got.tgz:468378.got - 2010.06.03 11:33:40.
