data_PCOD9023198
_publ_section_title
;
Structure prediction by ZEFSAII (Michael W. Deem and Ramdas Pophale) SiO2 
 PCOD9023198
Probable space group: P -1
;
_chemical_formula_sum "Si O2"
_cell_formula_units_Z 14
_cell_length_a 8.014634
_cell_length_b 18.409501
_cell_length_c 11.939075
_cell_angle_alpha 29.710851
_cell_angle_beta 47.455948
_cell_angle_gamma 66.421083
_cell_volume 552.221191
_symmetry_space_group_name_H-M "P -1"
_symmetry_group_IT_number 2
_symmetry_cell_setting 'triclinic'
loop_
_space_group_symop_operation_xyz
x,y,z
-x,-y,-z
loop_
_atom_site_type_symbol
_atom_site_label
_atom_site_fract_x
_atom_site_fract_y
_atom_site_fract_z
Si Si1 0.022556 0.452161 0.682983
Si Si2 0.655830 0.251485 0.510143
Si Si3 0.917183 0.065992 0.749474
Si Si4 0.475334 0.479655 0.329678
Si Si5 0.768603 0.644274 0.624361
Si Si6 0.789215 0.161612 0.341217
Si Si7 0.239609 0.141962 0.298660
O O1 0.979508 0.581063 0.605571
O O2 0.000000 0.500000 0.500000
O O3 0.302376 0.461260 0.540312
O O4 0.824796 0.266219 0.072764
O O5 0.857216 0.205012 0.536230
O O6 0.693574 0.426303 0.308715
O O7 0.692659 0.238449 0.378651
O O8 0.363804 0.097255 0.879994
O O9 0.106709 0.170330 0.625647
O O10 0.063297 0.028710 0.634081
O O11 0.303848 0.356757 0.470889
O O12 0.577966 0.670587 0.987311
O O13 0.500000 0.500000 0.000000
O O14 0.060132 0.172370 0.249604
O O15 0.619036 0.955419 0.683012
#
# Coordination Sequence:
#
# PCOD9023198 Si02
#       7
#     2   2   2   2   2   2   2
#     4  10  24  42  63  93 133 175 224 273 325 399
#     4  10  23  41  68 102 129 174 223 276 332 396
#     4  10  22  41  67  96 139 170 222 273 335 398
#     4  11  23  41  65  98 132 172 226 273 333 394
#     4  11  22  41  66  94 131 178 219 276 329 395
#     4  10  22  41  64  98 135 174 221 270 339 387
#     4  10  22  39  66  99 136 173 215 278 329 398
#
# _framework density 25.352160000000001
#
# number of rings (size 3 to 8) (size 9 to 14) (size 15 to 20)
#    0.000    1.714    1.429    1.714    4.000    3.429 
#    0.000    2.857    0.000    0.000    0.000    0.000 
#    0.000    0.000    0.000    0.000    0.000    0.000 
#
# Total GULP energy -78212.383456 kJ/mol
# GULP energy per Si atom -5586.598818 kJ/mol
# Density = 2.529446 g / cm^3
# Si number density = 25.352160 Si / 1000 Ang^3
#
#
#
# Elastic Constant Matrix: (Units=GPa)
#
#
# Indices 1 2 3 4 5 6 
#
# 1 59.0439 15.0997 7.2554 -4.8780 12.7663 11.5836
# 2 15.0997 145.4625 32.7047 -0.7289 9.2015 -18.5612
# 3 7.2554 32.7047 74.2664 5.3208 15.4137 0.6199
# 4 -4.8780 -0.7289 5.3208 38.7333 -4.8559 -0.9250
# 5 12.7663 9.2015 15.4137 -4.8559 36.8124 -9.4832
# 6 11.5836 -18.5612 0.6199 -0.9250 -9.4832 41.1119
#
#
#
# Elastic Compliance Matrix: (Units=1/GPa)
#
#
# Indices 1 2 3 4 5 6 
#
# 1 0.021673 -0.003168 0.001284 0.001052 -0.009636 -0.009756
# 2 -0.003168 0.008667 -0.004039 0.000710 0.002100 0.005367
# 3 0.001284 -0.004039 0.017095 -0.003393 -0.008176 -0.004405
# 4 0.001052 0.000710 -0.003393 0.027090 0.004920 0.001820
# 5 -0.009636 0.002100 -0.008176 0.004920 0.037273 0.012495
# 6 -0.009756 0.005367 -0.004405 0.001820 0.012495 0.032485
#
#
# Mechanical properties :
#
#
# Convention : Reuss Voigt Hill
#
# Bulk Modulus (GPa) = 28.09862 43.21024 35.65443
# Shear Modulus (GPa) = 29.76322 38.24572 34.00447
#
# Velocity S-wave (km/s) = 3.43007 3.88826 3.66633
# Velocity P-wave (km/s) = 5.17635 6.10238 5.65834
#
# Compressibility (1/GPa) = 0.03558893
#
# Stress axis : x y z
#
# Youngs Moduli (GPa) = 46.13945 115.37859 58.49717
#
# Poissons Ratio (x) = 0.36557 -0.07510
# Poissons Ratio (y) = 0.14619 0.23625
# Poissons Ratio (z) = -0.05924 0.46598
#
# Static dielectric constant tensor:
#      x y z
#    x 2.150420 -0.013150 -0.040010 
#    y -0.013150 2.043030 -0.034830 
#    z -0.040010 -0.034830 2.036740 
# 
# From -- ./inp_files/183953.got.cif
#   From: 2010.05.17/outbox.cif.g08.bks.cpg/sg2_92_cif.got.tgz:183953.got - 2010.06.03 11:33:40.
