data_PCOD9023736
_publ_section_title
;
Structure prediction by ZEFSAII (Michael W. Deem and Ramdas Pophale) SiO2 
 PCOD9023736
Probable space group: P -1
;
_chemical_formula_sum "Si O2"
_cell_formula_units_Z 16
_cell_length_a 17.038808
_cell_length_b 8.380870
_cell_length_c 6.353476
_cell_angle_alpha 98.024169
_cell_angle_beta 86.440174
_cell_angle_gamma 53.049524
_cell_volume 705.630396
_symmetry_space_group_name_H-M "P -1"
_symmetry_group_IT_number 2
_symmetry_cell_setting 'triclinic'
loop_
_space_group_symop_operation_xyz
x,y,z
-x,-y,-z
loop_
_atom_site_type_symbol
_atom_site_label
_atom_site_fract_x
_atom_site_fract_y
_atom_site_fract_z
Si Si1 0.600294 0.983173 0.502230
Si Si2 0.071166 0.293677 0.583614
Si Si3 0.065785 0.803196 0.303254
Si Si4 0.768294 0.855078 0.136076
Si Si5 0.741808 0.632831 0.741885
Si Si6 0.824065 0.056753 0.854437
Si Si7 0.498753 0.432253 0.716521
Si Si8 0.366157 0.512305 0.064598
O O1 0.658747 0.967638 0.278627
O O2 0.682219 0.781783 0.585449
O O3 0.500000 0.000000 0.500000
O O4 0.568708 0.186132 0.667318
O O5 0.151023 0.277645 0.718043
O O6 0.000000 0.500000 0.500000
O O7 0.004759 0.260305 0.736827
O O8 0.127434 0.117130 0.363760
O O9 0.163448 0.602058 0.362918
O O10 0.107316 0.868551 0.125294
O O11 0.000000 0.000000 0.500000
O O12 0.778392 0.722461 0.913572
O O13 0.795182 0.994919 0.056397
O O14 0.663060 0.625100 0.883742
O O15 0.721297 0.256615 0.816564
O O16 0.500000 0.500000 0.500000
O O17 0.534329 0.545007 0.858860
O O18 0.390267 0.503926 0.814591
#
# Coordination Sequence:
#
# PCOD9023736 Si02
#       8
#     2   2   2   2   2   2   2   2
#     4  12  26  43  66  97 134 176 220 274 332 391
#     4  11  23  42  67  97 132 170 216 271 334 398
#     4   9  21  43  68  95 132 172 213 275 332 389
#     4  12  24  40  67  95 128 172 216 270 332 394
#     4  11  24  43  65  97 133 169 222 272 326 395
#     4  10  22  41  63  91 127 166 214 267 325 392
#     4  11  22  38  62  90 123 169 220 267 326 386
#     4  10  22  40  61  87 124 166 214 272 320 383
#
# _framework density 22.674759999999999
#
# number of rings (size 3 to 8) (size 9 to 14) (size 15 to 20)
#    0.000    1.250    0.000    6.000    0.000    6.500 
#    0.000   13.750    0.000    0.000    0.000    0.000 
#    0.000    0.000    0.000    0.000    0.000    0.000 
#
# Total GULP energy -89303.692243 kJ/mol
# GULP energy per Si atom -5581.480765 kJ/mol
# Density = 2.262315 g / cm^3
# Si number density = 22.674760 Si / 1000 Ang^3
#
#
#
# Elastic Constant Matrix: (Units=GPa)
#
#
# Indices 1 2 3 4 5 6 
#
# 1 162.7643 35.9718 42.9454 -20.6845 -31.3726 17.1859
# 2 35.9718 115.7494 28.8762 2.0063 -11.3714 6.1515
# 3 42.9454 28.8762 49.5090 -6.2407 -24.2792 1.8436
# 4 -20.6845 2.0063 -6.2407 34.9158 -0.5443 -7.4730
# 5 -31.3726 -11.3714 -24.2792 -0.5443 47.6121 -8.4921
# 6 17.1859 6.1515 1.8436 -7.4730 -8.4921 31.1892
#
#
#
# Elastic Compliance Matrix: (Units=1/GPa)
#
#
# Indices 1 2 3 4 5 6 
#
# 1 0.009105 -0.001155 -0.005392 0.003927 0.002512 -0.002846
# 2 -0.001155 0.010581 -0.006414 -0.002964 -0.001951 -0.002313
# 3 -0.005392 -0.006414 0.036295 0.005484 0.014813 0.007438
# 4 0.003927 -0.002964 0.005484 0.033929 0.006490 0.007993
# 5 0.002512 -0.001951 0.014813 0.006490 0.031282 0.008198
# 6 -0.002846 -0.002313 0.007438 0.007993 0.008198 0.037794
#
#
# Mechanical properties :
#
#
# Convention : Reuss Voigt Hill
#
# Bulk Modulus (GPa) = 33.26695 60.40105 46.83400
# Shear Modulus (GPa) = 25.65045 37.42538 31.53791
#
# Velocity S-wave (km/s) = 3.36703 4.06708 3.73350
# Velocity P-wave (km/s) = 5.46068 6.98217 6.26776
#
# Compressibility (1/GPa) = 0.03005986
#
# Stress axis : x y z
#
# Youngs Moduli (GPa) = 109.82508 94.50980 27.55185
#
# Poissons Ratio (x) = 0.10912 0.14857
# Poissons Ratio (y) = 0.12680 0.17672
# Poissons Ratio (z) = 0.59221 0.60619
#
# Static dielectric constant tensor:
#      x y z
#    x 1.936480 -0.005060 -0.219660 
#    y -0.005060 1.835650 0.041120 
#    z -0.219660 0.041120 2.732630 
# 
# From -- ./inp_files/107176.got.cif
#   From: 2010.05.17/outbox.cif.g08.bks.cpg/sg2_54_cif.got.tgz:107176.got - 2010.06.03 11:33:40.
