data_PCOD9023069
_publ_section_title
;
Structure prediction by ZEFSAII (Michael W. Deem and Ramdas Pophale) SiO2 
 PCOD9023069
Probable space group: P -1
;
_chemical_formula_sum "Si O2"
_cell_formula_units_Z 12
_cell_length_a 8.760410
_cell_length_b 9.672176
_cell_length_c 12.612908
_cell_angle_alpha 68.078230
_cell_angle_beta 128.773881
_cell_angle_gamma 73.334915
_cell_volume 536.588813
_symmetry_space_group_name_H-M "P -1"
_symmetry_group_IT_number 2
_symmetry_cell_setting 'triclinic'
loop_
_space_group_symop_operation_xyz
x,y,z
-x,-y,-z
loop_
_atom_site_type_symbol
_atom_site_label
_atom_site_fract_x
_atom_site_fract_y
_atom_site_fract_z
Si Si1 0.290844 0.824875 0.113491
Si Si2 0.122112 0.128167 0.402025
Si Si3 0.806974 0.728974 0.408787
Si Si4 0.240787 0.296176 0.235055
Si Si5 0.142669 0.996795 0.765693
Si Si6 0.496260 0.421842 0.409164
O O1 0.515101 0.804108 0.278549
O O2 0.386644 0.601704 0.225763
O O3 0.278725 0.881959 0.970037
O O4 0.000000 0.000000 0.000000
O O5 0.055367 0.281036 0.422053
O O6 0.549451 0.103411 0.370352
O O7 0.888908 0.125808 0.292979
O O8 0.140475 0.200060 0.275357
O O9 0.747618 0.909341 0.261611
O O10 0.000000 0.500000 0.500000
O O11 0.693861 0.619687 0.668446
O O12 0.000000 0.500000 0.000000
O O13 0.814079 0.205251 0.586090
O O14 0.500000 0.500000 0.500000
#
# Coordination Sequence:
#
# PCOD9023069 Si02
#       6
#     2   2   2   2   2   2
#     4  12  25  41  72 100 133 179 233 275 330 402
#     4  10  24  43  68  95 137 180 225 276 336 405
#     4  12  26  47  69  99 142 181 220 282 349 399
#     4  10  22  39  66 101 133 172 228 279 332 392
#     4  11  24  45  66  97 138 177 222 279 340 398
#     4  11  21  38  65  99 134 172 222 278 326 394
#
# _framework density 22.363492999999998
#
# number of rings (size 3 to 8) (size 9 to 14) (size 15 to 20)
#    0.000    1.000    3.333    3.000    7.000    0.000 
#    3.000    0.833    0.000    0.000    0.000    0.000 
#    0.000    0.000    0.000    0.000    0.000    0.000 
#
# Total GULP energy -67100.360869 kJ/mol
# GULP energy per Si atom -5591.696739 kJ/mol
# Density = 2.231259 g / cm^3
# Si number density = 22.363493 Si / 1000 Ang^3
#
#
#
# Elastic Constant Matrix: (Units=GPa)
#
#
# Indices 1 2 3 4 5 6 
#
# 1 60.7654 18.0149 5.2564 3.2886 -4.5876 22.7401
# 2 18.0149 120.3383 18.1840 22.7317 5.3579 9.6364
# 3 5.2564 18.1840 75.1119 -13.5840 -9.6878 -3.0337
# 4 3.2886 22.7317 -13.5840 33.8284 12.7322 -9.5790
# 5 -4.5876 5.3579 -9.6878 12.7322 36.3686 2.8067
# 6 22.7401 9.6364 -3.0337 -9.5790 2.8067 36.3768
#
#
#
# Elastic Compliance Matrix: (Units=1/GPa)
#
#
# Indices 1 2 3 4 5 6 
#
# 1 0.025865 0.000677 -0.004223 -0.013804 0.008491 -0.020990
# 2 0.000677 0.012079 -0.005426 -0.013363 0.002137 -0.007759
# 3 -0.004223 -0.005426 0.017760 0.014068 -0.000646 0.009313
# 4 -0.013804 -0.013363 0.014068 0.061940 -0.020118 0.031205
# 5 0.008491 0.002137 -0.000646 -0.020118 0.036205 -0.014019
# 6 -0.020990 -0.007759 0.009313 0.031205 -0.014019 0.052742
#
#
# Mechanical properties :
#
#
# Convention : Reuss Voigt Hill
#
# Bulk Modulus (GPa) = 26.48413 37.68068 32.08240
# Shear Modulus (GPa) = 21.08631 35.63210 28.35920
#
# Velocity S-wave (km/s) = 3.07398 3.99597 3.56491
# Velocity P-wave (km/s) = 4.94646 6.17868 5.59659
#
# Compressibility (1/GPa) = 0.03775847
#
# Stress axis : x y z
#
# Youngs Moduli (GPa) = 38.66276 82.78925 56.30762
#
# Poissons Ratio (x) = -0.05601 0.23778
# Poissons Ratio (y) = -0.02616 0.30552
# Poissons Ratio (z) = 0.16327 0.44920
#
# Static dielectric constant tensor:
#      x y z
#    x 1.811450 0.021510 -0.028800 
#    y 0.021510 1.912170 0.009830 
#    z -0.028800 0.009830 1.815110 
# 
# From -- ./inp_files/378460.got.cif
#   From: 2010.05.17/outbox.cif.g08.bks.cpg/sg2_190_cif.got.tgz:378460.got - 2010.06.03 11:33:40.
