data_PCOD9023809
_publ_section_title
;
Structure prediction by ZEFSAII (Michael W. Deem and Ramdas Pophale) SiO2 
 PCOD9023809
Probable space group: P -1
;
_chemical_formula_sum "Si O2"
_cell_formula_units_Z 14
_cell_length_a 8.565400
_cell_length_b 6.844065
_cell_length_c 14.257036
_cell_angle_alpha 86.382411
_cell_angle_beta 55.369623
_cell_angle_gamma 108.803903
_cell_volume 617.608054
_symmetry_space_group_name_H-M "P -1"
_symmetry_group_IT_number 2
_symmetry_cell_setting 'triclinic'
loop_
_space_group_symop_operation_xyz
x,y,z
-x,-y,-z
loop_
_atom_site_type_symbol
_atom_site_label
_atom_site_fract_x
_atom_site_fract_y
_atom_site_fract_z
Si Si1 0.108556 0.161962 0.873074
Si Si2 0.204349 0.826155 0.578373
Si Si3 0.732444 0.529037 0.779197
Si Si4 0.493451 0.270257 0.396485
Si Si5 0.452800 0.698240 0.345013
Si Si6 0.621390 0.357429 0.149393
Si Si7 0.727163 0.190608 0.940877
O O1 0.303501 0.134142 0.760479
O O2 0.218221 0.409407 0.869499
O O3 0.924324 0.134001 0.864388
O O4 0.000000 0.000000 0.000000
O O5 0.295436 0.730453 0.633112
O O6 0.301715 0.764250 0.455513
O O7 0.955658 0.722586 0.671407
O O8 0.312376 0.086829 0.525587
O O9 0.648490 0.377424 0.720430
O O10 0.551435 0.607045 0.855462
O O11 0.758928 0.394083 0.859814
O O12 0.469087 0.492827 0.396551
O O13 0.497201 0.219571 0.286096
O O14 0.727494 0.251196 0.048369
O O15 0.500000 0.000000 0.000000
#
# Coordination Sequence:
#
# PCOD9023809 Si02
#       7
#     2   2   2   2   2   2   2
#     4  10  22  41  64  93 122 169 214 252 322 377
#     4  11  21  40  65  91 126 165 209 261 310 380
#     4  10  22  40  61  95 124 161 210 252 321 374
#     4   9  22  39  61  91 121 166 216 246 321 372
#     4  10  22  41  62  91 131 162 206 265 307 383
#     4  10  23  43  64  89 131 166 205 272 307 382
#     4  12  24  41  64  96 126 166 211 264 317 378
#
# _framework density 22.668099000000002
#
# number of rings (size 3 to 8) (size 9 to 14) (size 15 to 20)
#    0.000    2.000    0.000    5.143    4.000    2.286 
#   10.286    0.000    0.000    0.000    0.000    0.000 
#    0.000    0.000    0.000    0.000    0.000    0.000 
#
# Total GULP energy -78274.269525 kJ/mol
# GULP energy per Si atom -5591.019252 kJ/mol
# Density = 2.261651 g / cm^3
# Si number density = 22.668099 Si / 1000 Ang^3
#
#
#
# Elastic Constant Matrix: (Units=GPa)
#
#
# Indices 1 2 3 4 5 6 
#
# 1 95.2970 -5.6913 25.1571 -19.9224 -13.7433 -0.8720
# 2 -5.6913 42.6933 20.4197 -5.9472 -7.8514 -1.8990
# 3 25.1571 20.4197 83.6480 -22.5007 -9.6033 -0.0687
# 4 -19.9224 -5.9472 -22.5007 32.1658 8.7219 2.8626
# 5 -13.7433 -7.8514 -9.6033 8.7219 53.0645 -11.1860
# 6 -0.8720 -1.8990 -0.0687 2.8626 -11.1860 29.5924
#
#
#
# Elastic Compliance Matrix: (Units=1/GPa)
#
#
# Indices 1 2 3 4 5 6 
#
# 1 0.013293 0.004714 -0.003213 0.005987 0.002822 0.001174
# 2 0.004714 0.028875 -0.007555 0.001391 0.004656 0.003600
# 3 -0.003213 -0.007555 0.017078 0.008888 -0.000668 -0.001652
# 4 0.005987 0.001391 0.008888 0.043122 -0.004935 -0.005751
# 5 0.002822 0.004656 -0.000668 -0.004935 0.022966 0.009539
# 6 0.001174 0.003600 -0.001652 -0.005751 0.009539 0.038216
#
#
# Mechanical properties :
#
#
# Convention : Reuss Voigt Hill
#
# Bulk Modulus (GPa) = 21.21437 33.48991 27.35214
# Shear Modulus (GPa) = 26.12741 35.08138 30.60440
#
# Velocity S-wave (km/s) = 3.39869 3.93824 3.67837
# Velocity P-wave (km/s) = 4.97800 5.95699 5.48936
#
# Compressibility (1/GPa) = 0.04713786
#
# Stress axis : x y z
#
# Youngs Moduli (GPa) = 75.22951 34.63217 58.55432
#
# Poissons Ratio (x) = -0.16326 0.18814
# Poissons Ratio (y) = -0.35463 0.44237
# Poissons Ratio (z) = 0.24171 0.26164
#
# Static dielectric constant tensor:
#      x y z
#    x 1.824820 0.001840 0.002270 
#    y 0.001840 1.897640 0.015020 
#    z 0.002270 0.015020 1.814620 
# 
# From -- ./inp_files/233284.got.cif
#   From: 2010.05.17/outbox.cif.g08.bks.cpg/sg2_117_cif.got.tgz:233284.got - 2010.06.03 11:33:40.
