data_PCOD9023284
_publ_section_title
;
Structure prediction by ZEFSAII (Michael W. Deem and Ramdas Pophale) SiO2 
 PCOD9023284
Probable space group: P -1
;
_chemical_formula_sum "Si O2"
_cell_formula_units_Z 16
_cell_length_a 15.393137
_cell_length_b 8.571893
_cell_length_c 7.681906
_cell_angle_alpha 67.900636
_cell_angle_beta 96.676611
_cell_angle_gamma 51.980108
_cell_volume 650.363685
_symmetry_space_group_name_H-M "P -1"
_symmetry_group_IT_number 2
_symmetry_cell_setting 'triclinic'
loop_
_space_group_symop_operation_xyz
x,y,z
-x,-y,-z
loop_
_atom_site_type_symbol
_atom_site_label
_atom_site_fract_x
_atom_site_fract_y
_atom_site_fract_z
Si Si1 0.747501 0.899652 0.599874
Si Si2 0.628995 0.739123 0.706682
Si Si3 0.646179 0.779824 0.101685
Si Si4 0.491114 0.444333 0.218414
Si Si5 0.141551 0.677314 0.519408
Si Si6 0.977829 0.832519 0.101487
Si Si7 0.971501 0.796378 0.730141
Si Si8 0.284725 0.963497 0.061784
O O1 0.628664 0.175067 0.393871
O O2 0.744114 0.941640 0.788431
O O3 0.726061 0.730702 0.639548
O O4 0.881451 0.785874 0.622383
O O5 0.606500 0.572458 0.753115
O O6 0.500000 0.000000 0.500000
O O7 0.655376 0.722041 0.924973
O O8 0.710776 0.556524 0.336610
O O9 0.500000 0.000000 0.000000
O O10 0.708819 0.874058 0.114686
O O11 0.422907 0.689735 0.202390
O O12 0.500000 0.500000 0.000000
O O13 0.064460 0.686993 0.349615
O O14 0.089756 0.677873 0.690325
O O15 0.109180 0.918955 0.399455
O O16 0.006519 0.705667 0.975335
O O17 0.832425 0.989890 0.042358
O O18 0.000000 0.000000 0.000000
#
# Coordination Sequence:
#
# PCOD9023284 Si02
#       8
#     2   2   2   2   2   2   2   2
#     4   9  20  40  62  88 131 168 216 269 336 392
#     4   9  21  42  57  90 134 165 217 269 327 392
#     4  11  24  43  62  92 136 171 215 267 336 389
#     4  11  22  34  64  97 125 172 217 271 328 386
#     4  10  22  39  67  96 131 172 219 286 324 393
#     4   9  20  42  62  93 129 164 221 272 336 393
#     4   9  20  40  68  96 126 171 227 272 336 399
#     4  10  22  40  63  89 130 170 217 266 319 412
#
# _framework density 24.601618999999999
#
# number of rings (size 3 to 8) (size 9 to 14) (size 15 to 20)
#    0.000    2.250    0.000    1.125    5.250    2.500 
#   13.500    6.875    0.000    0.000    0.000    0.000 
#    0.000    0.000    0.000    0.000    0.000    0.000 
#
# Total GULP energy -89392.589061 kJ/mol
# GULP energy per Si atom -5587.036816 kJ/mol
# Density = 2.454563 g / cm^3
# Si number density = 24.601619 Si / 1000 Ang^3
#
#
#
# Elastic Constant Matrix: (Units=GPa)
#
#
# Indices 1 2 3 4 5 6 
#
# 1 103.7126 1.1531 24.9468 -11.4365 10.8054 11.4780
# 2 1.1531 42.3990 18.8838 -12.0002 -1.2445 0.3876
# 3 24.9468 18.8838 136.3433 -10.8473 21.5582 -7.2508
# 4 -11.4365 -12.0002 -10.8473 30.5423 -2.0332 0.2627
# 5 10.8054 -1.2445 21.5582 -2.0332 32.6759 -2.2632
# 6 11.4780 0.3876 -7.2508 0.2627 -2.2632 28.1692
#
#
#
# Elastic Compliance Matrix: (Units=1/GPa)
#
#
# Indices 1 2 3 4 5 6 
#
# 1 0.011394 0.001663 -0.001863 0.004132 -0.002592 -0.005392
# 2 0.001663 0.028506 -0.004105 0.010633 0.003773 -0.001922
# 3 -0.001863 -0.004105 0.009301 0.000606 -0.005447 0.002766
# 4 0.004132 0.010633 0.000606 0.038759 0.000915 -0.001962
# 5 -0.002592 0.003773 -0.005447 0.000915 0.035424 0.002439
# 6 -0.005392 -0.001922 0.002766 -0.001962 0.002439 0.038650
#
#
# Mechanical properties :
#
#
# Convention : Reuss Voigt Hill
#
# Bulk Modulus (GPa) = 24.63716 41.38026 33.00871
# Shear Modulus (GPa) = 27.14807 34.10889 30.62848
#
# Velocity S-wave (km/s) = 3.32551 3.72754 3.53225
# Velocity P-wave (km/s) = 4.97811 5.94834 5.48472
#
# Compressibility (1/GPa) = 0.04058910
#
# Stress axis : x y z
#
# Youngs Moduli (GPa) = 87.76479 35.07998 107.52053
#
# Poissons Ratio (x) = -0.05833 0.20035
# Poissons Ratio (y) = -0.14592 0.44140
# Poissons Ratio (z) = 0.16353 0.14401
#
# Static dielectric constant tensor:
#      x y z
#    x 1.985800 -0.004120 -0.006470 
#    y -0.004120 1.974500 -0.017740 
#    z -0.006470 -0.017740 1.935100 
# 
# From -- ./inp_files/297680.got.cif
#   From: 2010.05.17/outbox.cif.g08.bks.cpg/sg2_149_cif.got.tgz:297680.got - 2010.06.03 11:33:40.
