data_PCOD9023820
_publ_section_title
;
Structure prediction by ZEFSAII (Michael W. Deem and Ramdas Pophale) SiO2 
 PCOD9023820
Probable space group: P -1
;
_chemical_formula_sum "Si O2"
_cell_formula_units_Z 14
_cell_length_a 5.249477
_cell_length_b 11.354617
_cell_length_c 11.211299
_cell_angle_alpha 59.153561
_cell_angle_beta 77.224638
_cell_angle_gamma 105.416558
_cell_volume 498.849963
_symmetry_space_group_name_H-M "P -1"
_symmetry_group_IT_number 2
_symmetry_cell_setting 'triclinic'
loop_
_space_group_symop_operation_xyz
x,y,z
-x,-y,-z
loop_
_atom_site_type_symbol
_atom_site_label
_atom_site_fract_x
_atom_site_fract_y
_atom_site_fract_z
Si Si1 0.425895 0.524953 0.317262
Si Si2 0.960184 0.139222 0.090287
Si Si3 0.928601 0.238469 0.619411
Si Si4 0.792177 0.411139 0.941715
Si Si5 0.381651 0.682452 0.750845
Si Si6 0.356953 0.094481 0.582585
Si Si7 0.577510 0.839434 0.130487
O O1 0.310953 0.572188 0.186232
O O2 0.563588 0.419969 0.303993
O O3 0.613885 0.695357 0.261499
O O4 0.159957 0.415768 0.484281
O O5 0.816459 0.081011 0.264419
O O6 0.751166 0.001014 0.095894
O O7 0.938197 0.294500 0.983953
O O8 0.272247 0.144616 0.022457
O O9 0.664873 0.181531 0.577323
O O10 0.755505 0.203868 0.779448
O O11 0.116120 0.148885 0.619648
O O12 0.030783 0.587662 0.848993
O O13 0.547511 0.346231 0.105997
O O14 0.561825 0.852205 0.590076
#
# Coordination Sequence:
#
# PCOD9023820 Si02
#       7
#     2   2   2   2   2   2   2
#     4  11  21  39  66  97 126 168 216 274 318 386
#     4  10  23  41  63  96 132 169 213 261 330 390
#     4  10  22  40  66  97 132 172 215 267 321 386
#     4  11  22  40  67  90 127 168 218 271 320 382
#     4  10  22  42  63  93 125 168 221 268 322 376
#     4  10  22  43  66  94 135 169 217 265 325 389
#     4  10  22  40  61  96 131 171 209 264 323 395
#
# _framework density 28.064547000000001
#
# number of rings (size 3 to 8) (size 9 to 14) (size 15 to 20)
#    0.000    1.714    2.857    0.857    0.000    7.429 
#    0.000    7.143    0.000    8.571    0.000    0.000 
#    0.000    0.000    0.000    0.000    0.000    0.000 
#
# Total GULP energy -78269.250492 kJ/mol
# GULP energy per Si atom -5590.660749 kJ/mol
# Density = 2.800067 g / cm^3
# Si number density = 28.064547 Si / 1000 Ang^3
#
#
#
# Elastic Constant Matrix: (Units=GPa)
#
#
# Indices 1 2 3 4 5 6 
#
# 1 106.2834 23.4988 42.3725 15.8274 -14.2124 -18.9060
# 2 23.4988 93.3524 31.6802 1.2201 -17.0608 -1.6383
# 3 42.3725 31.6802 251.1731 -6.9550 -23.5857 -3.6890
# 4 15.8274 1.2201 -6.9550 58.0410 -9.4213 -12.1568
# 5 -14.2124 -17.0608 -23.5857 -9.4213 53.1114 4.6180
# 6 -18.9060 -1.6383 -3.6890 -12.1568 4.6180 25.4839
#
#
#
# Elastic Compliance Matrix: (Units=1/GPa)
#
#
# Indices 1 2 3 4 5 6 
#
# 1 0.012315 -0.002223 -0.001650 -0.001742 0.000864 0.007767
# 2 -0.002223 0.012104 -0.000866 0.000473 0.003109 -0.001334
# 3 -0.001650 -0.000866 0.004541 0.001192 0.001537 -0.000332
# 4 -0.001742 0.000473 0.001192 0.019989 0.003075 0.007889
# 5 0.000864 0.003109 0.001537 0.003075 0.021404 -0.001348
# 6 0.007767 -0.001334 -0.000332 0.007889 -0.001348 0.048876
#
#
# Mechanical properties :
#
#
# Convention : Reuss Voigt Hill
#
# Bulk Modulus (GPa) = 51.33018 71.76798 61.54908
# Shear Modulus (GPa) = 36.98207 50.87777 43.92992
#
# Velocity S-wave (km/s) = 3.63402 4.26242 3.96070
# Velocity P-wave (km/s) = 5.99482 7.06061 6.54943
#
# Compressibility (1/GPa) = 0.01948171
#
# Stress axis : x y z
#
# Youngs Moduli (GPa) = 81.20403 82.61640 220.19410
#
# Poissons Ratio (x) = 0.18365 0.36335
# Poissons Ratio (y) = 0.18051 0.19075
# Poissons Ratio (z) = 0.13400 0.07157
#
# Static dielectric constant tensor:
#      x y z
#    x 2.228120 0.082330 0.061140 
#    y 0.082330 2.375810 0.001880 
#    z 0.061140 0.001880 2.211280 
# 
# From -- ./inp_files/65600.got.cif
#   From: 2010.05.17/outbox.cif.g08.bks.cpg/sg2_33_cif.got.tgz:65600.got - 2010.06.03 11:33:40.
