data_PCOD9023309
_publ_section_title
;
Structure prediction by ZEFSAII (Michael W. Deem and Ramdas Pophale) SiO2 
 PCOD9023309
Probable space group: P -1
;
_chemical_formula_sum "Si O2"
_cell_formula_units_Z 12
_cell_length_a 10.309257
_cell_length_b 6.571093
_cell_length_c 10.591704
_cell_angle_alpha 95.938811
_cell_angle_beta 77.442976
_cell_angle_gamma 43.320765
_cell_volume 442.308565
_symmetry_space_group_name_H-M "P -1"
_symmetry_group_IT_number 2
_symmetry_cell_setting 'triclinic'
loop_
_space_group_symop_operation_xyz
x,y,z
-x,-y,-z
loop_
_atom_site_type_symbol
_atom_site_label
_atom_site_fract_x
_atom_site_fract_y
_atom_site_fract_z
Si Si1 0.673621 0.817323 0.119301
Si Si2 0.538000 0.282615 0.585394
Si Si3 0.827572 0.544327 0.432368
Si Si4 0.081658 0.291636 0.138917
Si Si5 0.277015 0.654696 0.038695
Si Si6 0.716466 0.448902 0.691718
O O1 0.876972 0.639750 0.145202
O O2 0.475099 0.162329 0.240007
O O3 0.679142 0.569534 0.087428
O O4 0.715599 0.841711 0.968769
O O5 0.500000 0.500000 0.500000
O O6 0.321734 0.409907 0.628325
O O7 0.620436 0.338407 0.678896
O O8 0.709766 0.899888 0.502169
O O9 0.040811 0.333341 0.298412
O O10 0.851973 0.376715 0.542047
O O11 0.113804 0.024810 0.063240
O O12 0.197175 0.662044 0.191603
O O13 0.500000 0.500000 0.000000
#
# Coordination Sequence:
#
# PCOD9023309 Si02
#       6
#     2   2   2   2   2   2
#     4  11  25  45  69  98 133 176 227 269 328 397
#     4   9  19  38  65  99 132 173 219 262 331 393
#     4  10  22  39  67  98 136 171 217 279 325 393
#     4  11  25  43  68 101 132 174 218 283 326 392
#     4  12  27  44  69  97 135 180 222 273 333 396
#     4  11  24  41  70  98 132 178 221 270 332 399
#
# _framework density 27.130382999999998
#
# number of rings (size 3 to 8) (size 9 to 14) (size 15 to 20)
#    0.000    1.333    1.667    4.000    4.667    6.000 
#    0.000    1.667    0.000    0.000    0.000    0.000 
#    0.000    0.000    0.000    0.000    0.000    0.000 
#
# Total GULP energy -67189.272804 kJ/mol
# GULP energy per Si atom -5599.106067 kJ/mol
# Density = 2.706863 g / cm^3
# Si number density = 27.130383 Si / 1000 Ang^3
#
#
#
# Elastic Constant Matrix: (Units=GPa)
#
#
# Indices 1 2 3 4 5 6 
#
# 1 93.8492 23.4989 45.4095 2.5708 17.9170 14.3010
# 2 23.4989 131.8556 27.1816 11.8066 0.7840 19.4381
# 3 45.4095 27.1816 126.2557 -19.0679 -13.6389 30.2143
# 4 2.5708 11.8066 -19.0679 50.3923 17.7794 0.4208
# 5 17.9170 0.7840 -13.6389 17.7794 56.0241 7.7208
# 6 14.3010 19.4381 30.2143 0.4208 7.7208 40.2793
#
#
#
# Elastic Compliance Matrix: (Units=1/GPa)
#
#
# Indices 1 2 3 4 5 6 
#
# 1 0.015025 -0.001507 -0.006122 -0.000527 -0.006271 0.001193
# 2 -0.001507 0.008751 -0.000797 -0.002779 0.001509 -0.003350
# 3 -0.006122 -0.000797 0.013497 0.003835 0.005224 -0.008608
# 4 -0.000527 -0.002779 0.003835 0.024275 -0.006514 -0.000353
# 5 -0.006271 0.001509 0.005224 -0.006514 0.024135 -0.006979
# 6 0.001193 -0.003350 -0.008608 -0.000353 -0.006979 0.033818
#
#
# Mechanical properties :
#
#
# Convention : Reuss Voigt Hill
#
# Bulk Modulus (GPa) = 48.96844 60.46004 54.71424
# Shear Modulus (GPa) = 34.92617 46.39719 40.66168
#
# Velocity S-wave (km/s) = 3.59185 4.13989 3.87557
# Velocity P-wave (km/s) = 5.94057 6.72198 6.34332
#
# Compressibility (1/GPa) = 0.02042132
#
# Stress axis : x y z
#
# Youngs Moduli (GPa) = 66.55642 114.27654 74.08899
#
# Poissons Ratio (x) = 0.17221 0.45357
# Poissons Ratio (y) = 0.10030 0.05904
# Poissons Ratio (z) = 0.40745 0.09106
#
# Static dielectric constant tensor:
#      x y z
#    x 2.159360 0.034730 0.007080 
#    y 0.034730 2.083110 -0.093870 
#    z 0.007080 -0.093870 2.143590 
# 
# From -- ./inp_files/22140.got.cif
#   From: 2010.05.17/outbox.cif.g08.bks.cpg/sg2_12_cif.got.tgz:22140.got - 2010.06.03 11:33:40.
