data_PCOD9023539
_publ_section_title
;
Structure prediction by ZEFSAII (Michael W. Deem and Ramdas Pophale) SiO2 
 PCOD9023539
Probable space group: P -1
;
_chemical_formula_sum "Si O2"
_cell_formula_units_Z 16
_cell_length_a 10.335394
_cell_length_b 15.868699
_cell_length_c 7.832330
_cell_angle_alpha 115.216836
_cell_angle_beta 108.297274
_cell_angle_gamma 34.476797
_cell_volume 656.121142
_symmetry_space_group_name_H-M "P -1"
_symmetry_group_IT_number 2
_symmetry_cell_setting 'triclinic'
loop_
_space_group_symop_operation_xyz
x,y,z
-x,-y,-z
loop_
_atom_site_type_symbol
_atom_site_label
_atom_site_fract_x
_atom_site_fract_y
_atom_site_fract_z
Si Si1 0.480822 0.118986 0.649816
Si Si2 0.625612 0.526564 0.316455
Si Si3 0.923178 0.639362 0.511293
Si Si4 0.662847 0.215993 0.283083
Si Si5 0.539723 0.363469 0.019291
Si Si6 0.022399 0.131113 0.856368
Si Si7 0.072291 0.053393 0.468203
Si Si8 0.683865 0.913415 0.859621
O O1 0.217157 0.292534 0.664473
O O2 0.500000 0.000000 0.500000
O O3 0.589354 0.047983 0.818870
O O4 0.666430 0.078740 0.590422
O O5 0.625250 0.562362 0.148566
O O6 0.460957 0.676225 0.505350
O O7 0.862868 0.408763 0.417725
O O8 0.537759 0.469248 0.192441
O O9 0.726244 0.793544 0.678466
O O10 0.000000 0.500000 0.500000
O O11 0.899884 0.147041 0.318713
O O12 0.761067 0.057818 0.200875
O O13 0.524421 0.307214 0.130505
O O14 0.790267 0.215021 0.905469
O O15 0.011619 0.163445 0.680532
O O16 0.080171 0.186703 0.042287
O O17 0.000000 0.000000 0.500000
O O18 0.500000 0.000000 0.000000
#
# Coordination Sequence:
#
# PCOD9023539 Si02
#       8
#     2   2   2   2   2   2   2   2
#     4  10  23  45  70 103 138 193 243 292 368 441
#     4  11  25  45  64  96 147 181 230 286 370 430
#     4  11  26  44  71  97 143 191 235 298 368 442
#     4  11  24  39  69 102 136 181 232 299 355 427
#     4  11  23  44  64 101 137 185 231 291 361 424
#     4  11  21  40  67  99 134 174 239 298 349 410
#     4  10  22  39  71 103 139 181 240 299 357 418
#     4  11  24  46  70 100 139 187 249 302 352 433
#
# _framework density 24.385739999999998
#
# number of rings (size 3 to 8) (size 9 to 14) (size 15 to 20)
#    0.000    1.250    2.500    3.000    7.000    2.000 
#    2.250    0.625    0.000    0.000    0.000    0.000 
#    0.000    0.000    0.000    0.000    0.000    0.000 
#
# Total GULP energy -89246.908010 kJ/mol
# GULP energy per Si atom -5577.931751 kJ/mol
# Density = 2.433024 g / cm^3
# Si number density = 24.385740 Si / 1000 Ang^3
#
#
#
# Elastic Constant Matrix: (Units=GPa)
#
#
# Indices 1 2 3 4 5 6 
#
# 1 72.7025 23.9399 17.3280 -6.0759 1.1414 -6.0733
# 2 23.9399 115.0379 27.3891 -2.1917 -6.6147 -6.3602
# 3 17.3280 27.3891 81.8482 -6.4785 -3.6557 -5.3863
# 4 -6.0759 -2.1917 -6.4785 54.6514 -2.5691 8.4658
# 5 1.1414 -6.6147 -3.6557 -2.5691 33.9314 -4.4195
# 6 -6.0733 -6.3602 -5.3863 8.4658 -4.4195 36.9561
#
#
#
# Elastic Compliance Matrix: (Units=1/GPa)
#
#
# Indices 1 2 3 4 5 6 
#
# 1 0.015376 -0.002626 -0.002245 0.001077 -0.001010 0.001380
# 2 -0.002626 0.010044 -0.002665 -0.000303 0.001893 0.001204
# 3 -0.002245 -0.002665 0.013805 0.001174 0.001271 0.001067
# 4 0.001077 -0.000303 0.001174 0.019208 0.000966 -0.003989
# 5 -0.001010 0.001893 0.001271 0.000966 0.030577 0.003780
# 6 0.001380 0.001204 0.001067 -0.003989 0.003780 0.029015
#
#
# Mechanical properties :
#
#
# Convention : Reuss Voigt Hill
#
# Bulk Modulus (GPa) = 41.40686 45.21142 43.30914
# Shear Modulus (GPa) = 35.42401 38.50320 36.96361
#
# Velocity S-wave (km/s) = 3.81550 3.97788 3.89754
# Velocity P-wave (km/s) = 6.03552 6.29908 6.16871
#
# Compressibility (1/GPa) = 0.02415059
#
# Stress axis : x y z
#
# Youngs Moduli (GPa) = 65.03721 99.56655 72.43810
#
# Poissons Ratio (x) = 0.26150 0.16265
# Poissons Ratio (y) = 0.17082 0.19305
# Poissons Ratio (z) = 0.14603 0.26535
#
# Static dielectric constant tensor:
#      x y z
#    x 1.954800 0.047910 0.073380 
#    y 0.047910 1.891810 -0.086340 
#    z 0.073380 -0.086340 2.156200 
# 
# From -- ./inp_files/278310.got.cif
#   From: 2010.05.17/outbox.cif.g08.bks.cpg/sg2_140_cif.got.tgz:278310.got - 2010.06.03 11:33:40.
