data_PCOD9023045
_publ_section_title
;
Structure prediction by ZEFSAII (Michael W. Deem and Ramdas Pophale) SiO2 
 PCOD9023045
Probable space group: P -1
;
_chemical_formula_sum "Si O2"
_cell_formula_units_Z 14
_cell_length_a 18.348947
_cell_length_b 10.305567
_cell_length_c 20.558061
_cell_angle_alpha 142.308577
_cell_angle_beta 159.082993
_cell_angle_gamma 25.757014
_cell_volume 570.962504
_symmetry_space_group_name_H-M "P -1"
_symmetry_group_IT_number 2
_symmetry_cell_setting 'triclinic'
loop_
_space_group_symop_operation_xyz
x,y,z
-x,-y,-z
loop_
_atom_site_type_symbol
_atom_site_label
_atom_site_fract_x
_atom_site_fract_y
_atom_site_fract_z
Si Si1 0.315507 0.166112 0.101810
Si Si2 0.274913 0.302258 0.477805
Si Si3 0.684062 0.243148 0.994475
Si Si4 0.404388 0.273598 0.962607
Si Si5 0.740281 0.200847 0.501790
Si Si6 0.272860 0.766155 0.686403
Si Si7 0.319594 0.881319 0.431889
O O1 0.417721 0.921562 0.146704
O O2 0.361768 0.003970 0.007257
O O3 0.527740 0.206120 0.286664
O O4 0.000000 0.500000 0.000000
O O5 0.405223 0.436273 0.649085
O O6 0.500000 0.000000 0.500000
O O7 0.277505 0.157812 0.488026
O O8 0.929014 0.569154 0.268231
O O9 0.500000 0.500000 0.000000
O O10 0.650651 0.431328 0.982333
O O11 0.040289 0.973959 0.202210
O O12 0.504191 0.215497 0.099094
O O13 0.630109 0.526467 0.528596
O O14 0.701816 0.157156 0.525955
O O15 0.077602 0.901614 0.643216
O O16 0.000000 0.000000 0.500000
#
# Coordination Sequence:
#
# PCOD9023045 Si02
#       7
#     2   2   2   2   2   2   2
#     4  11  20  37  64 105 141 176 221 278 347 406
#     4  11  25  49  70 100 136 183 235 280 343 412
#     4   9  18  35  57  90 132 169 210 272 335 395
#     4  10  24  45  67  99 138 177 230 285 336 410
#     4  11  22  39  65 103 137 178 225 282 343 401
#     4  12  27  47  70  97 136 185 232 285 347 408
#     4  10  22  39  65  98 138 173 224 284 335 410
#
# _framework density 24.519998999999999
#
# number of rings (size 3 to 8) (size 9 to 14) (size 15 to 20)
#    0.000    1.429    2.857    2.571    4.000    1.714 
#    0.000    0.000    0.000    0.000    0.000    0.000 
#    0.000    0.000    0.000    0.000    0.000    0.000 
#
# Total GULP energy -78125.209470 kJ/mol
# GULP energy per Si atom -5580.372105 kJ/mol
# Density = 2.446419 g / cm^3
# Si number density = 24.519999 Si / 1000 Ang^3
#
#
#
# Elastic Constant Matrix: (Units=GPa)
#
#
# Indices 1 2 3 4 5 6 
#
# 1 49.6103 14.2708 17.6195 4.9902 -13.0818 -5.5174
# 2 14.2708 133.4729 47.2503 3.8835 -9.7978 -9.6983
# 3 17.6195 47.2503 110.2075 12.5691 -24.7154 0.0695
# 4 4.9902 3.8835 12.5691 29.5195 -2.7245 12.6322
# 5 -13.0818 -9.7978 -24.7154 -2.7245 37.2314 0.6180
# 6 -5.5174 -9.6983 0.0695 12.6322 0.6180 42.5758
#
#
#
# Elastic Compliance Matrix: (Units=1/GPa)
#
#
# Indices 1 2 3 4 5 6 
#
# 1 0.023610 -0.001163 -0.001261 -0.004389 0.006765 0.004001
# 2 -0.001163 0.009076 -0.003808 -0.000296 -0.000603 0.002019
# 3 -0.001261 -0.003808 0.012916 -0.004196 0.006820 0.000094
# 4 -0.004389 -0.000296 -0.004196 0.041925 -0.001121 -0.013052
# 5 0.006765 -0.000603 0.006820 -0.001121 0.033513 0.000574
# 6 0.004001 0.002019 0.000094 -0.013052 0.000574 0.028330
#
#
# Mechanical properties :
#
#
# Convention : Reuss Voigt Hill
#
# Bulk Modulus (GPa) = 30.17699 50.17464 40.17582
# Shear Modulus (GPa) = 28.92183 36.14200 32.53192
#
# Velocity S-wave (km/s) = 3.43814 3.84341 3.64641
# Velocity P-wave (km/s) = 5.30046 6.34058 5.84371
#
# Compressibility (1/GPa) = 0.03313783
#
# Stress axis : x y z
#
# Youngs Moduli (GPa) = 42.35541 110.18553 77.42292
#
# Poissons Ratio (x) = 0.12814 0.09762
# Poissons Ratio (y) = 0.04926 0.29483
# Poissons Ratio (z) = 0.05340 0.41958
#
# Static dielectric constant tensor:
#      x y z
#    x 2.046340 0.033320 -0.059370 
#    y 0.033320 1.968230 0.034630 
#    z -0.059370 0.034630 2.105960 
# 
# From -- ./inp_files/601452.got.cif
#   From: 2010.05.17/outbox.cif.g08.bks.cpg/sg2_301_cif.got.tgz:601452.got - 2010.06.03 11:33:40.
