data_PCOD9023436
_publ_section_title
;
Structure prediction by ZEFSAII (Michael W. Deem and Ramdas Pophale) SiO2 
 PCOD9023436
Probable space group: P -1
;
_chemical_formula_sum "Si O2"
_cell_formula_units_Z 11
_cell_length_a 9.524358
_cell_length_b 20.585961
_cell_length_c 5.175345
_cell_angle_alpha 97.492284
_cell_angle_beta 95.699351
_cell_angle_gamma 29.042349
_cell_volume 488.168680
_symmetry_space_group_name_H-M "P -1"
_symmetry_group_IT_number 2
_symmetry_cell_setting 'triclinic'
loop_
_space_group_symop_operation_xyz
x,y,z
-x,-y,-z
loop_
_atom_site_type_symbol
_atom_site_label
_atom_site_fract_x
_atom_site_fract_y
_atom_site_fract_z
Si Si1 0.771165 0.774202 0.419283
Si Si2 0.076072 0.512142 0.270826
Si Si3 0.822598 0.837142 0.965865
Si Si4 0.134407 0.017975 0.595609
Si Si5 0.745731 0.234410 0.234452
Si Si6 0.000000 0.000000 0.000000
O O1 0.843193 0.774483 0.712749
O O2 0.900296 0.650884 0.325535
O O3 0.422966 0.910745 0.434033
O O4 0.868154 0.785373 0.223356
O O5 0.417352 0.389202 0.273091
O O6 0.000000 0.500000 0.500000
O O7 0.000000 0.500000 0.000000
O O8 0.060743 0.794294 0.909654
O O9 0.500000 0.000000 0.000000
O O10 0.901287 0.161248 0.505337
O O11 0.198529 0.977440 0.882769
O O12 0.000000 0.000000 0.500000
O O13 0.753926 0.157277 0.077211
#
# Coordination Sequence:
#
# PCOD9023436 Si02
#       6
#     2   2   2   2   2   1
#     4  12  27  47  71 107 152 187 243 308 356 443
#     4  12  29  49  73 107 147 193 244 305 374 430
#     4  12  26  47  75 109 146 193 245 297 368 440
#     4  10  22  39  69 101 138 186 239 305 356 413
#     4  11  26  42  75 102 144 195 241 303 366 433
#     4  10  22  40  70 106 134 180 254 300 354 416
#
# _framework density 22.533194999999999
#
# number of rings (size 3 to 8) (size 9 to 14) (size 15 to 20)
#    0.000    0.727    1.818    4.909   12.727    1.455 
#    0.000    0.000    0.000    0.000    0.000    0.000 
#    0.000    0.000    0.000    0.000    0.000    0.000 
#
# Total GULP energy -61251.816944 kJ/mol
# GULP energy per Si atom -5568.346995 kJ/mol
# Density = 2.248191 g / cm^3
# Si number density = 22.533195 Si / 1000 Ang^3
#
#
#
# Elastic Constant Matrix: (Units=GPa)
#
#
# Indices 1 2 3 4 5 6 
#
# 1 120.4936 32.3531 49.1847 -1.4238 -22.1033 -5.2660
# 2 32.3531 94.9080 26.1283 2.2464 -1.3838 -9.0139
# 3 49.1847 26.1283 122.5402 -7.6757 -17.2829 0.7248
# 4 -1.4238 2.2464 -7.6757 28.1796 19.9882 -4.9339
# 5 -22.1033 -1.3838 -17.2829 19.9882 58.9892 11.4769
# 6 -5.2660 -9.0139 0.7248 -4.9339 11.4769 40.2704
#
#
#
# Elastic Compliance Matrix: (Units=1/GPa)
#
#
# Indices 1 2 3 4 5 6 
#
# 1 0.011211 -0.002789 -0.003491 -0.003441 0.004430 -0.000779
# 2 -0.002789 0.012221 -0.001762 0.000329 -0.001970 0.003004
# 3 -0.003491 -0.001762 0.010234 0.001577 0.001354 -0.001228
# 4 -0.003441 0.000329 0.001577 0.052750 -0.021039 0.012054
# 5 0.004430 -0.001970 0.001354 -0.021039 0.028131 -0.010481
# 6 -0.000779 0.003004 -0.001228 0.012054 -0.010481 0.029889
#
#
# Mechanical properties :
#
#
# Convention : Reuss Voigt Hill
#
# Bulk Modulus (GPa) = 56.87169 61.47488 59.17329
# Shear Modulus (GPa) = 30.05173 40.83956 35.44565
#
# Velocity S-wave (km/s) = 3.65590 4.26187 3.97046
# Velocity P-wave (km/s) = 6.56618 7.18047 6.88018
#
# Compressibility (1/GPa) = 0.01758344
#
# Stress axis : x y z
#
# Youngs Moduli (GPa) = 89.19807 81.82710 97.70893
#
# Poissons Ratio (x) = 0.22818 0.34114
# Poissons Ratio (y) = 0.24873 0.17212
# Poissons Ratio (z) = 0.31142 0.14414
#
# Static dielectric constant tensor:
#      x y z
#    x 1.878950 -0.017660 0.159440 
#    y -0.017660 1.806910 0.043720 
#    z 0.159440 0.043720 2.189380 
# 
# From -- ./inp_files/44561.got.cif
#   From: 2010.05.17/outbox.cif.g08.bks.cpg/sg2_23_cif.got.tgz:44561.got - 2010.06.03 11:33:40.
