data_PCOD9023589
_publ_section_title
;
Structure prediction by ZEFSAII (Michael W. Deem and Ramdas Pophale) SiO2 
 PCOD9023589
Probable space group: P -1
;
_chemical_formula_sum "Si O2"
_cell_formula_units_Z 14
_cell_length_a 12.571663
_cell_length_b 16.031800
_cell_length_c 11.896366
_cell_angle_alpha 44.262613
_cell_angle_beta 112.850426
_cell_angle_gamma 148.569537
_cell_volume 690.129218
_symmetry_space_group_name_H-M "P -1"
_symmetry_group_IT_number 2
_symmetry_cell_setting 'triclinic'
loop_
_space_group_symop_operation_xyz
x,y,z
-x,-y,-z
loop_
_atom_site_type_symbol
_atom_site_label
_atom_site_fract_x
_atom_site_fract_y
_atom_site_fract_z
Si Si1 0.499635 0.446202 0.176646
Si Si2 0.354087 0.003661 0.016665
Si Si3 0.006951 0.364743 0.144785
Si Si4 0.446552 0.245619 0.029273
Si Si5 0.493236 0.871649 0.277212
Si Si6 0.259997 0.003895 0.424700
Si Si7 0.780716 0.473937 0.291981
O O1 0.266808 0.134392 0.374599
O O2 0.738203 0.577779 0.169078
O O3 0.500000 0.500000 0.000000
O O4 0.509560 0.571483 0.136301
O O5 0.471728 0.994004 0.130598
O O6 0.063943 0.702161 0.150267
O O7 0.339470 0.090699 0.020891
O O8 0.507768 0.182148 0.796155
O O9 0.762520 0.091957 0.236443
O O10 0.955350 0.277795 0.336887
O O11 0.000000 0.500000 0.000000
O O12 0.273090 0.554551 0.030467
O O13 0.271006 0.047264 0.256473
O O14 0.273601 0.623687 0.510810
O O15 0.541472 0.207254 0.374834
#
# Coordination Sequence:
#
# PCOD9023589 Si02
#       7
#     2   2   2   2   2   2   2
#     4   8  18  38  60  85 110 145 195 234 279 335
#     4  11  22  36  58  82 118 155 179 233 284 340
#     4  11  21  38  59  85 113 147 192 244 274 333
#     4  11  21  36  58  89 112 147 192 233 283 328
#     4  10  22  40  54  84 117 152 190 222 288 343
#     4   8  20  39  58  82 113 145 191 234 281 330
#     4   9  19  40  60  79 111 155 186 227 286 338
#
# _framework density 20.286055000000001
#
# number of rings (size 3 to 8) (size 9 to 14) (size 15 to 20)
#    0.857    1.429    1.429    1.286    0.000    2.857 
#    2.571    0.714    0.000    0.000    0.000    0.000 
#    0.000    0.000    0.000    0.000    0.000    0.000 
#
# Total GULP energy -77979.036455 kJ/mol
# GULP energy per Si atom -5569.931175 kJ/mol
# Density = 2.023988 g / cm^3
# Si number density = 20.286055 Si / 1000 Ang^3
#
#
#
# Elastic Constant Matrix: (Units=GPa)
#
#
# Indices 1 2 3 4 5 6 
#
# 1 40.2878 4.7162 15.1443 7.5639 5.5360 -1.9752
# 2 4.7162 18.1460 -40.9890 -16.0991 -5.0878 -5.5220
# 3 15.1443 -40.9890 1.7883 -43.7727 -4.3150 2.3320
# 4 7.5639 -16.0991 -43.7727 -22.1293 -5.3474 2.4421
# 5 5.5360 -5.0878 -4.3150 -5.3474 23.0454 3.5409
# 6 -1.9752 -5.5220 2.3320 2.4421 3.5409 33.7981
#
#
#
# Elastic Compliance Matrix: (Units=1/GPa)
#
#
# Indices 1 2 3 4 5 6 
#
# 1 0.023706 0.000908 0.000354 0.007814 -0.003821 0.001345
# 2 0.000908 0.036757 0.004061 -0.033464 -0.000373 0.008235
# 3 0.000354 0.004061 0.012019 -0.025611 -0.003194 0.002040
# 4 0.007814 -0.033464 -0.025611 0.033272 -0.005562 -0.005065
# 5 -0.003821 -0.000373 -0.003194 -0.005562 0.042979 -0.004165
# 6 0.001345 0.008235 0.002040 -0.005065 -0.004165 0.031673
#
#
# Mechanical properties :
#
#
# Convention : Reuss Voigt Hill
#
# Bulk Modulus (GPa) = 12.02950 1.99612 7.01281
# Shear Modulus (GPa) = 25.32026 12.36623 18.84325
#
# Velocity S-wave (km/s) = 3.53676 2.47167 3.05105
# Velocity P-wave (km/s) = 4.75616 3.02187 3.98452
#
# Compressibility (1/GPa) = 0.08312899
#
# Stress axis : x y z
#
# Youngs Moduli (GPa) = 42.18327 27.20538 83.20015
#
# Poissons Ratio (x) = -0.02471 -0.02944
# Poissons Ratio (y) = -0.03832 -0.33786
# Poissons Ratio (z) = -0.01493 -0.11048
#
# Static dielectric constant tensor:
#      x y z
#    x 1.775400 -0.038740 0.005330 
#    y -0.038740 1.775850 -0.000270 
#    z 0.005330 -0.000270 1.728990 
# 
# From -- ./inp_files/255579.got.cif
#   From: 2010.05.17/outbox.cif.g08.bks.cpg/sg2_128_cif.got.tgz:255579.got - 2010.06.03 11:33:40.
