data_PCOD9023404
_publ_section_title
;
Structure prediction by ZEFSAII (Michael W. Deem and Ramdas Pophale) SiO2 
 PCOD9023404
Probable space group: P -1
;
_chemical_formula_sum "Si O2"
_cell_formula_units_Z 13
_cell_length_a 7.126342
_cell_length_b 8.999749
_cell_length_c 9.813980
_cell_angle_alpha 106.321375
_cell_angle_beta 127.699313
_cell_angle_gamma 88.702830
_cell_volume 468.630110
_symmetry_space_group_name_H-M "P -1"
_symmetry_group_IT_number 2
_symmetry_cell_setting 'triclinic'
loop_
_space_group_symop_operation_xyz
x,y,z
-x,-y,-z
loop_
_atom_site_type_symbol
_atom_site_label
_atom_site_fract_x
_atom_site_fract_y
_atom_site_fract_z
Si Si1 0.497815 0.156193 0.452428
Si Si2 0.938128 0.319460 0.221157
Si Si3 0.868491 0.685138 0.968461
Si Si4 0.866860 0.130362 0.404960
Si Si5 0.500000 0.500000 0.000000
Si Si6 0.326057 0.022770 0.069982
Si Si7 0.408129 0.636986 0.216381
O O1 0.747434 0.210042 0.496115
O O2 0.307805 0.084760 0.234178
O O3 0.465842 0.294134 0.574283
O O4 0.500000 0.000000 0.500000
O O5 0.980075 0.261040 0.377615
O O6 0.756344 0.439602 0.162422
O O7 0.149290 0.370215 0.213696
O O8 0.808738 0.152954 0.052029
O O9 0.799659 0.847212 0.022093
O O10 0.663915 0.549448 0.912934
O O11 0.141567 0.675854 0.122901
O O12 0.616119 0.046067 0.193018
O O13 0.000000 0.000000 0.500000
O O14 0.567221 0.676670 0.164117
#
# Coordination Sequence:
#
# PCOD9023404 Si02
#       7
#     2   2   2   2   1   2   2
#     4  10  23  42  64  96 131 182 218 276 341 396
#     4  11  22  44  67 104 132 179 229 279 332 411
#     4  10  22  39  68  98 131 179 224 273 342 403
#     4  10  25  40  64 103 137 172 226 280 341 388
#     4  10  22  42  68  92 134 170 226 276 334 388
#     4  10  23  39  70  95 130 180 224 283 331 399
#     4  10  22  43  66  97 136 177 225 279 339 408
#
# _framework density 27.740431000000001
#
# number of rings (size 3 to 8) (size 9 to 14) (size 15 to 20)
#    0.923    0.923    0.000    3.692    4.308    0.615 
#    5.538    0.769    0.000    0.000    0.000    0.000 
#    0.000    0.000    0.000    0.000    0.000    0.000 
#
# Total GULP energy -72369.294186 kJ/mol
# GULP energy per Si atom -5566.868784 kJ/mol
# Density = 2.767729 g / cm^3
# Si number density = 27.740431 Si / 1000 Ang^3
#
#
#
# Elastic Constant Matrix: (Units=GPa)
#
#
# Indices 1 2 3 4 5 6 
#
# 1 177.4237 71.5505 57.3730 -15.6297 -16.0810 -16.0758
# 2 71.5505 146.3482 19.4339 -10.0635 5.0701 -15.9207
# 3 57.3730 19.4339 90.0191 4.5742 -36.9339 -8.9942
# 4 -15.6297 -10.0635 4.5742 48.9866 -4.2412 -9.8370
# 5 -16.0810 5.0701 -36.9339 -4.2412 49.8775 -6.0145
# 6 -16.0758 -15.9207 -8.9942 -9.8370 -6.0145 57.3888
#
#
#
# Elastic Compliance Matrix: (Units=1/GPa)
#
#
# Indices 1 2 3 4 5 6 
#
# 1 0.009002 -0.003387 -0.005071 0.002896 -0.000109 0.001273
# 2 -0.003387 0.008842 -0.000547 0.000869 -0.002160 0.001341
# 3 -0.005071 -0.000547 0.020472 -0.001899 0.013750 0.002752
# 4 0.002896 0.000869 -0.001899 0.022844 0.001970 0.004877
# 5 -0.000109 -0.002160 0.013750 0.001970 0.031202 0.005133
# 6 0.001273 0.001341 0.002752 0.004877 0.005133 0.019959
#
#
# Mechanical properties :
#
#
# Convention : Reuss Voigt Hill
#
# Bulk Modulus (GPa) = 49.24379 78.94508 64.09443
# Shear Modulus (GPa) = 36.47023 48.94615 42.70819
#
# Velocity S-wave (km/s) = 3.62981 4.20507 3.92799
# Velocity P-wave (km/s) = 5.94622 7.21783 6.61266
#
# Compressibility (1/GPa) = 0.02030713
#
# Stress axis : x y z
#
# Youngs Moduli (GPa) = 111.08221 113.09872 48.84776
#
# Poissons Ratio (x) = 0.38301 0.24771
# Poissons Ratio (y) = 0.37618 0.02671
# Poissons Ratio (z) = 0.56331 0.06184
#
# Static dielectric constant tensor:
#      x y z
#    x 2.509260 0.118690 -0.133180 
#    y 0.118690 2.298520 -0.228050 
#    z -0.133180 -0.228050 2.428570 
# 
# From -- ./inp_files/374857.got.cif
#   From: 2010.05.17/outbox.cif.g08.bks.cpg/sg2_188_cif.got.tgz:374857.got - 2010.06.03 11:33:40.
