data_PCOD9023452
_publ_section_title
;
Structure prediction by ZEFSAII (Michael W. Deem and Ramdas Pophale) SiO2 
 PCOD9023452
Probable space group: P -1
;
_chemical_formula_sum "Si O2"
_cell_formula_units_Z 16
_cell_length_a 12.825411
_cell_length_b 10.188876
_cell_length_c 6.464113
_cell_angle_alpha 117.554502
_cell_angle_beta 111.181059
_cell_angle_gamma 91.553906
_cell_volume 678.747139
_symmetry_space_group_name_H-M "P -1"
_symmetry_group_IT_number 2
_symmetry_cell_setting 'triclinic'
loop_
_space_group_symop_operation_xyz
x,y,z
-x,-y,-z
loop_
_atom_site_type_symbol
_atom_site_label
_atom_site_fract_x
_atom_site_fract_y
_atom_site_fract_z
Si Si1 0.883312 0.378722 0.871053
Si Si2 0.324323 0.529332 0.442858
Si Si3 0.718849 0.343781 0.098369
Si Si4 0.447936 0.792376 0.478752
Si Si5 0.331342 0.058317 0.496534
Si Si6 0.812688 0.071827 0.061052
Si Si7 0.251416 0.229043 0.919523
Si Si8 0.000795 0.169861 0.562763
O O1 0.784289 0.415336 0.685708
O O2 0.914981 0.227782 0.697811
O O3 0.834131 0.379194 0.067079
O O4 0.000000 0.500000 0.000000
O O5 0.303390 0.528144 0.671129
O O6 0.430883 0.667643 0.555993
O O7 0.316175 0.370823 0.206645
O O8 0.731287 0.190968 0.115866
O O9 0.614025 0.299772 0.832068
O O10 0.575667 0.874118 0.564302
O O11 0.377624 0.924730 0.546966
O O12 0.319937 0.185656 0.743301
O O13 0.214270 0.988510 0.235941
O O14 0.941326 0.160282 0.287046
O O15 0.780101 0.923306 0.074076
O O16 0.131988 0.259647 0.763433
O O17 0.000000 0.000000 0.500000
#
# Coordination Sequence:
#
# PCOD9023452 Si02
#       8
#     2   2   2   2   2   2   2   2
#     4  11  22  42  61  91 131 166 207 256 309 373
#     4  11  22  41  63  94 129 167 209 257 312 378
#     4  10  22  39  69  90 120 169 212 254 311 376
#     4   9  22  42  69  92 123 162 214 270 312 370
#     4  10  22  43  67  94 121 169 212 263 321 363
#     4  10  22  40  63  92 123 164 215 254 301 383
#     4  11  24  40  61  93 137 163 206 263 311 371
#     4  10  22  40  60  92 132 166 199 261 309 364
#
# _framework density 23.572845000000001
#
# number of rings (size 3 to 8) (size 9 to 14) (size 15 to 20)
#    0.000    1.750    2.500    0.750    8.750    4.500 
#    2.250    5.000    0.000    0.000    0.000    0.000 
#    0.000    0.000    0.000    0.000    0.000    0.000 
#
# Total GULP energy -89411.222542 kJ/mol
# GULP energy per Si atom -5588.201409 kJ/mol
# Density = 2.351919 g / cm^3
# Si number density = 23.572845 Si / 1000 Ang^3
#
#
#
# Elastic Constant Matrix: (Units=GPa)
#
#
# Indices 1 2 3 4 5 6 
#
# 1 88.6581 29.4611 60.2029 -0.8270 0.0544 4.6272
# 2 29.4611 68.3788 33.2516 7.7125 -4.5465 11.6173
# 3 60.2029 33.2516 131.6006 21.4870 -32.1056 -9.4160
# 4 -0.8270 7.7125 21.4870 26.4041 -9.7788 4.2063
# 5 0.0544 -4.5465 -32.1056 -9.7788 32.6488 2.9379
# 6 4.6272 11.6173 -9.4160 4.2063 2.9379 30.8642
#
#
#
# Elastic Compliance Matrix: (Units=1/GPa)
#
#
# Indices 1 2 3 4 5 6 
#
# 1 0.022618 -0.003537 -0.014290 0.010440 -0.010843 -0.006810
# 2 -0.003537 0.019402 -0.003727 -0.001844 -0.000828 -0.007579
# 3 -0.014290 -0.003727 0.021877 -0.012805 0.016245 0.010418
# 4 0.010440 -0.001844 -0.012805 0.052604 0.003998 -0.012327
# 5 -0.010843 -0.000828 0.016245 0.003998 0.047540 0.001823
# 6 -0.006810 -0.007579 0.010418 -0.012327 0.001823 0.040959
#
#
# Mechanical properties :
#
#
# Convention : Reuss Voigt Hill
#
# Bulk Modulus (GPa) = 48.10657 59.38542 53.74599
# Shear Modulus (GPa) = 19.60489 29.03155 24.31822
#
# Velocity S-wave (km/s) = 2.88700 3.51318 3.21537
# Velocity P-wave (km/s) = 5.61827 6.45783 6.05262
#
# Compressibility (1/GPa) = 0.02078718
#
# Stress axis : x y z
#
# Youngs Moduli (GPa) = 44.21262 51.54205 45.70946
#
# Poissons Ratio (x) = 0.18232 0.65320
# Poissons Ratio (y) = 0.15640 0.17037
# Poissons Ratio (z) = 0.63181 0.19211
#
# Static dielectric constant tensor:
#      x y z
#    x 1.910640 0.027390 0.011580 
#    y 0.027390 1.939780 0.010220 
#    z 0.011580 0.010220 1.923150 
# 
# From -- ./inp_files/95540.got.cif
#   From: 2010.05.17/outbox.cif.g08.bks.cpg/sg2_48_cif.got.tgz:95540.got - 2010.06.03 11:33:40.
