data_PCOD9023712
_publ_section_title
;
Structure prediction by ZEFSAII (Michael W. Deem and Ramdas Pophale) SiO2 
 PCOD9023712
Probable space group: P -1
;
_chemical_formula_sum "Si O2"
_cell_formula_units_Z 16
_cell_length_a 7.606908
_cell_length_b 9.437300
_cell_length_c 20.880982
_cell_angle_alpha 29.655801
_cell_angle_beta 62.025548
_cell_angle_gamma 67.409475
_cell_volume 654.087288
_symmetry_space_group_name_H-M "P -1"
_symmetry_group_IT_number 2
_symmetry_cell_setting 'triclinic'
loop_
_space_group_symop_operation_xyz
x,y,z
-x,-y,-z
loop_
_atom_site_type_symbol
_atom_site_label
_atom_site_fract_x
_atom_site_fract_y
_atom_site_fract_z
Si Si1 0.511489 0.388707 0.805722
Si Si2 0.917216 0.106556 0.592349
Si Si3 0.604051 0.026883 0.572079
Si Si4 0.424436 0.045502 0.206898
Si Si5 0.831761 0.079127 0.265311
Si Si6 0.066097 0.700182 0.274504
Si Si7 0.622144 0.556272 0.056304
Si Si8 0.742788 0.644075 0.251540
O O1 0.492617 0.328042 0.908113
O O2 0.310203 0.315119 0.829568
O O3 0.700181 0.251553 0.795721
O O4 0.558762 0.733437 0.657047
O O5 0.793702 0.970701 0.607364
O O6 0.028925 0.390888 0.435735
O O7 0.062072 0.925971 0.681605
O O8 0.740484 0.167079 0.648794
O O9 0.392932 0.063156 0.630237
O O10 0.666197 0.320127 0.410475
O O11 0.493812 0.296471 0.145837
O O12 0.607325 0.867892 0.223208
O O13 0.336454 0.220195 0.094588
O O14 0.950612 0.908056 0.259377
O O15 0.804340 0.398753 0.118839
O O16 0.959531 0.691972 0.226454
#
# Coordination Sequence:
#
# PCOD9023712 Si02
#       8
#     2   2   2   2   2   2   2   2
#     4  11  23  42  59  97 133 165 197 265 313 373
#     4  11  21  35  66  95 124 160 207 254 313 372
#     4  10  22  40  60  96 134 164 203 253 313 384
#     4  11  21  45  66  90 119 175 214 265 299 364
#     4  11  20  39  64  95 124 168 209 258 306 375
#     4  11  23  37  63 101 132 156 202 261 319 382
#     4  10  24  43  68  84 128 166 220 261 305 356
#     4  11  22  38  69  88 131 170 205 247 325 375
#
# _framework density 24.461565
#
# number of rings (size 3 to 8) (size 9 to 14) (size 15 to 20)
#    0.000    1.250    3.750    3.000    0.000    8.000 
#    0.000    0.625    0.000    0.000    0.000    0.000 
#    0.000    0.000    0.000    0.000    0.000    0.000 
#
# Total GULP energy -89512.794123 kJ/mol
# GULP energy per Si atom -5594.549633 kJ/mol
# Density = 2.440589 g / cm^3
# Si number density = 24.461565 Si / 1000 Ang^3
#
#
#
# Elastic Constant Matrix: (Units=GPa)
#
#
# Indices 1 2 3 4 5 6 
#
# 1 127.1601 42.4761 46.3290 8.7053 38.3492 21.3787
# 2 42.4761 96.0875 17.9096 15.1410 1.7786 5.2710
# 3 46.3290 17.9096 66.6929 2.6685 21.8289 10.9957
# 4 8.7053 15.1410 2.6685 22.6874 7.6237 7.6654
# 5 38.3492 1.7786 21.8289 7.6237 46.0370 6.7357
# 6 21.3787 5.2710 10.9957 7.6654 6.7357 39.2111
#
#
#
# Elastic Compliance Matrix: (Units=1/GPa)
#
#
# Indices 1 2 3 4 5 6 
#
# 1 0.015329 -0.005961 -0.005074 0.003798 -0.010007 -0.005157
# 2 -0.005961 0.014813 -0.002066 -0.010540 0.006717 0.002745
# 3 -0.005074 -0.002066 0.021336 0.003736 -0.006044 -0.002631
# 4 0.003798 -0.010540 0.003736 0.057002 -0.012400 -0.010715
# 5 -0.010007 0.006717 -0.006044 -0.012400 0.034311 0.002778
# 6 -0.005157 0.002745 -0.002631 -0.010715 0.002778 0.030301
#
#
# Mechanical properties :
#
#
# Convention : Reuss Voigt Hill
#
# Bulk Modulus (GPa) = 39.56322 55.92999 47.74660
# Shear Modulus (GPa) = 24.07081 33.80215 28.93648
#
# Velocity S-wave (km/s) = 3.14032 3.72135 3.44312
# Velocity P-wave (km/s) = 5.41826 6.43263 5.94711
#
# Compressibility (1/GPa) = 0.02527600
#
# Stress axis : x y z
#
# Youngs Moduli (GPa) = 65.23616 67.50665 46.86864
#
# Poissons Ratio (x) = 0.40240 0.23781
# Poissons Ratio (y) = 0.38887 0.09685
# Poissons Ratio (z) = 0.33100 0.13950
#
# Static dielectric constant tensor:
#      x y z
#    x 1.958410 0.025950 0.020490 
#    y 0.025950 1.969750 0.018900 
#    z 0.020490 0.018900 1.920900 
# 
# From -- ./inp_files/556762.got.cif
#   From: 2010.05.17/outbox.cif.g08.bks.cpg/sg2_279_cif.got.tgz:556762.got - 2010.06.03 11:33:40.
