data_PCOD9023859
_publ_section_title
;
Structure prediction by ZEFSAII (Michael W. Deem and Ramdas Pophale) SiO2 
 PCOD9023859
Probable space group: P -1
;
_chemical_formula_sum "Si O2"
_cell_formula_units_Z 10
_cell_length_a 10.132780
_cell_length_b 10.901878
_cell_length_c 9.142058
_cell_angle_alpha 74.507721
_cell_angle_beta 92.136361
_cell_angle_gamma 153.149543
_cell_volume 389.862793
_symmetry_space_group_name_H-M "P -1"
_symmetry_group_IT_number 2
_symmetry_cell_setting 'triclinic'
loop_
_space_group_symop_operation_xyz
x,y,z
-x,-y,-z
loop_
_atom_site_type_symbol
_atom_site_label
_atom_site_fract_x
_atom_site_fract_y
_atom_site_fract_z
Si Si1 0.195308 0.945484 0.164067
Si Si2 0.852088 0.754421 0.974293
Si Si3 0.129945 0.130993 0.623502
Si Si4 0.472465 0.991031 0.676157
Si Si5 0.690821 0.297926 0.860134
O O1 0.301849 0.920965 0.273740
O O2 0.511652 0.244680 0.972564
O O3 0.072239 0.938503 0.278390
O O4 0.903979 0.682908 0.111515
O O5 0.500000 0.500000 0.000000
O O6 0.066617 0.948488 0.774603
O O7 0.000000 0.000000 0.000000
O O8 0.500000 0.500000 0.500000
O O9 0.000000 0.000000 0.500000
O O10 0.078352 0.633967 0.800420
O O11 0.500000 0.000000 0.500000
O O12 0.614205 0.233808 0.703169
O O13 0.500000 0.000000 0.000000
#
# Coordination Sequence:
#
# PCOD9023859 Si02
#       5
#     2   2   2   2   2
#     4  10  23  42  66  88 130 174 203 256 319 368
#     4  10  22  40  62  87 119 164 211 247 303 382
#     4  11  24  40  61  93 124 158 213 264 305 361
#     4  11  24  41  65 100 128 157 212 265 310 373
#     4  10  22  41  65  92 124 167 212 248 309 392
#
# _framework density 25.650048999999999
#
# number of rings (size 3 to 8) (size 9 to 14) (size 15 to 20)
#    0.000    1.600    0.000    5.400    0.000   17.600 
#    0.000    0.000    0.000    0.000    0.000    0.000 
#    0.000    0.000    0.000    0.000    0.000    0.000 
#
# Total GULP energy -55818.250851 kJ/mol
# GULP energy per Si atom -5581.825085 kJ/mol
# Density = 2.559167 g / cm^3
# Si number density = 25.650049 Si / 1000 Ang^3
#
#
#
# Elastic Constant Matrix: (Units=GPa)
#
#
# Indices 1 2 3 4 5 6 
#
# 1 105.6741 48.2581 55.0439 0.5051 -30.3898 39.5764
# 2 48.2581 238.6424 84.2153 17.2459 -5.2272 30.4309
# 3 55.0439 84.2153 196.5384 36.6052 -27.3915 19.8368
# 4 0.5051 17.2459 36.6052 78.4614 4.6384 3.6203
# 5 -30.3898 -5.2272 -27.3915 4.6384 48.1055 1.6098
# 6 39.5764 30.4309 19.8368 3.6203 1.6098 46.0411
#
#
#
# Elastic Compliance Matrix: (Units=1/GPa)
#
#
# Indices 1 2 3 4 5 6 
#
# 1 0.020978 -0.001135 -0.002189 0.001185 0.012333 -0.016864
# 2 -0.001135 0.005291 -0.001926 -0.000112 -0.001173 -0.001642
# 3 -0.002189 -0.001926 0.007550 -0.003266 0.003020 0.000053
# 4 0.001185 -0.000112 -0.003266 0.014461 -0.002498 -0.000587
# 5 0.012333 -0.001173 0.003020 -0.002498 0.030814 -0.012008
# 6 -0.016864 -0.001642 0.000053 -0.000587 -0.012008 0.037744
#
#
# Mechanical properties :
#
#
# Convention : Reuss Voigt Hill
#
# Bulk Modulus (GPa) = 42.88125 101.76549 72.32337
# Shear Modulus (GPa) = 37.00619 58.07745 47.54182
#
# Velocity S-wave (km/s) = 3.80245 4.76355 4.30988
# Velocity P-wave (km/s) = 6.00269 8.36755 7.28177
#
# Compressibility (1/GPa) = 0.02332022
#
# Stress axis : x y z
#
# Youngs Moduli (GPa) = 47.66838 188.98339 132.44274
#
# Poissons Ratio (x) = 0.21447 0.28987
# Poissons Ratio (y) = 0.05410 0.25514
# Poissons Ratio (z) = 0.10433 0.36407
#
# Static dielectric constant tensor:
#      x y z
#    x 2.353500 -0.114280 0.072330 
#    y -0.114280 2.099310 -0.009750 
#    z 0.072330 -0.009750 2.058010 
# 
# From -- ./inp_files/114968.got.cif
#   From: 2010.05.17/outbox.cif.g08.bks.cpg/sg2_58_cif.got.tgz:114968.got - 2010.06.03 11:33:40.
