data_PCOD9023210
_publ_section_title
;
Structure prediction by ZEFSAII (Michael W. Deem and Ramdas Pophale) SiO2 
 PCOD9023210
Probable space group: P -1
;
_chemical_formula_sum "Si O2"
_cell_formula_units_Z 14
_cell_length_a 13.165624
_cell_length_b 9.104174
_cell_length_c 9.181994
_cell_angle_alpha 131.132173
_cell_angle_beta 127.130831
_cell_angle_gamma 57.208171
_cell_volume 641.459900
_symmetry_space_group_name_H-M "P -1"
_symmetry_group_IT_number 2
_symmetry_cell_setting 'triclinic'
loop_
_space_group_symop_operation_xyz
x,y,z
-x,-y,-z
loop_
_atom_site_type_symbol
_atom_site_label
_atom_site_fract_x
_atom_site_fract_y
_atom_site_fract_z
Si Si1 0.428482 0.069541 0.329489
Si Si2 0.442853 0.713426 0.664678
Si Si3 0.489140 0.312121 0.962585
Si Si4 0.147616 0.927185 0.515909
Si Si5 0.799619 0.669192 0.298784
Si Si6 0.119828 0.756441 0.071094
Si Si7 0.156384 0.178630 0.266328
O O1 0.512371 0.145096 0.326065
O O2 0.288221 0.216602 0.335458
O O3 0.500000 0.000000 0.500000
O O4 0.394816 0.872609 0.103695
O O5 0.500000 0.500000 0.500000
O O6 0.512458 0.684618 0.863271
O O7 0.287041 0.799244 0.619521
O O8 0.500000 0.500000 0.000000
O O9 0.354347 0.268946 0.762805
O O10 0.138500 0.785077 0.276536
O O11 0.172662 0.145683 0.645655
O O12 0.000000 0.000000 0.500000
O O13 0.871845 0.680788 0.522836
O O14 0.821021 0.458039 0.094205
O O15 0.172169 0.945629 0.177798
O O16 0.966169 0.787230 0.923945
#
# Coordination Sequence:
#
# PCOD9023210 Si02
#       7
#     2   2   2   2   2   2   2
#     4  12  22  43  69 100 141 180 236 295 362 424
#     4  12  27  46  70 105 146 187 242 305 363 432
#     4  12  25  43  73 102 137 187 239 299 366 428
#     4  11  26  46  68 100 146 192 239 297 358 439
#     4  11  22  44  69  99 142 181 239 297 362 430
#     4  10  22  42  65 101 142 188 240 290 352 442
#     4  10  22  39  67 102 138 186 236 293 358 429
#
# _framework density 21.825216000000001
#
# number of rings (size 3 to 8) (size 9 to 14) (size 15 to 20)
#    0.000    0.857    2.857    4.286    2.000    1.714 
#    2.571    0.000    0.000    0.000    0.000    0.000 
#    0.000    0.000    0.000    0.000    0.000    0.000 
#
# Total GULP energy -77974.045631 kJ/mol
# GULP energy per Si atom -5569.574688 kJ/mol
# Density = 2.177554 g / cm^3
# Si number density = 21.825216 Si / 1000 Ang^3
#
#
#
# Elastic Constant Matrix: (Units=GPa)
#
#
# Indices 1 2 3 4 5 6 
#
# 1 114.6022 33.2772 15.6566 1.3482 14.3581 -3.0157
# 2 33.2772 80.6727 35.8979 13.7691 -5.3588 4.4962
# 3 15.6566 35.8979 130.0036 7.2837 -16.2229 6.5359
# 4 1.3482 13.7691 7.2837 48.8383 -14.0121 -6.7054
# 5 14.3581 -5.3588 -16.2229 -14.0121 35.6015 1.7934
# 6 -3.0157 4.4962 6.5359 -6.7054 1.7934 32.6998
#
#
#
# Elastic Compliance Matrix: (Units=1/GPa)
#
#
# Indices 1 2 3 4 5 6 
#
# 1 0.010945 -0.004590 -0.000852 -0.000228 -0.005687 0.002076
# 2 -0.004590 0.016823 -0.003553 -0.004120 0.001291 -0.002942
# 3 -0.000852 -0.003553 0.009368 0.000683 0.004425 -0.001565
# 4 -0.000228 -0.004120 0.000683 0.024907 0.009334 0.005004
# 5 -0.005687 0.001291 0.004425 0.009334 0.036351 -0.001666
# 6 0.002076 -0.002942 -0.001565 0.005004 -0.001666 0.032608
#
#
# Mechanical properties :
#
#
# Convention : Reuss Voigt Hill
#
# Bulk Modulus (GPa) = 52.22869 54.99356 53.61113
# Shear Modulus (GPa) = 32.18047 39.45769 35.81908
#
# Velocity S-wave (km/s) = 3.84404 4.25655 4.05554
# Velocity P-wave (km/s) = 6.60943 7.02919 6.82254
#
# Compressibility (1/GPa) = 0.01914656
#
# Stress axis : x y z
#
# Youngs Moduli (GPa) = 91.36602 59.44227 106.74211
#
# Poissons Ratio (x) = 0.27286 0.09094
# Poissons Ratio (y) = 0.41940 0.37922
# Poissons Ratio (z) = 0.07784 0.21118
#
# Static dielectric constant tensor:
#      x y z
#    x -18.835410 -22.120300 -3.643500 
#    y -22.120300 -21.809030 -3.863830 
#    z -3.643500 -3.863830 1.117950 
# 
# From -- ./inp_files/246142.got.cif
#   From: 2010.05.17/outbox.cif.g08.bks.cpg/sg2_124_cif.got.tgz:246142.got - 2010.06.03 11:33:40.
