data_PCOD9023386
_publ_section_title
;
Structure prediction by ZEFSAII (Michael W. Deem and Ramdas Pophale) SiO2 
 PCOD9023386
Probable space group: P -1
;
_chemical_formula_sum "Si O2"
_cell_formula_units_Z 14
_cell_length_a 14.358865
_cell_length_b 14.104055
_cell_length_c 8.896163
_cell_angle_alpha 126.713370
_cell_angle_beta 73.951580
_cell_angle_gamma 148.673113
_cell_volume 621.124195
_symmetry_space_group_name_H-M "P -1"
_symmetry_group_IT_number 2
_symmetry_cell_setting 'triclinic'
loop_
_space_group_symop_operation_xyz
x,y,z
-x,-y,-z
loop_
_atom_site_type_symbol
_atom_site_label
_atom_site_fract_x
_atom_site_fract_y
_atom_site_fract_z
Si Si1 0.963616 0.074397 0.695319
Si Si2 0.189205 0.155034 0.858768
Si Si3 0.541697 0.629378 0.340333
Si Si4 0.962284 0.341909 0.271923
Si Si5 0.108621 0.498859 0.018734
Si Si6 0.783114 0.565012 0.556589
Si Si7 0.472456 0.852272 0.972107
O O1 0.137976 0.232579 0.896188
O O2 0.003034 0.253387 0.797326
O O3 0.703890 0.781485 0.549799
O O4 0.000000 0.000000 0.500000
O O5 0.310505 0.213930 0.728422
O O6 0.348457 0.329921 0.095715
O O7 0.950018 0.849258 0.707495
O O8 0.418293 0.613186 0.422639
O O9 0.000000 0.500000 0.500000
O O10 0.066867 0.356194 0.339566
O O11 0.081660 0.480460 0.190984
O O12 0.706058 0.049718 0.080166
O O13 0.349606 0.752488 0.085062
O O14 0.000000 0.500000 0.000000
O O15 0.685959 0.402524 0.295965
O O16 0.500000 0.000000 0.000000
#
# Coordination Sequence:
#
# PCOD9023386 Si02
#       7
#     2   2   2   2   2   2   2
#     4  10  22  42  69 103 141 187 238 288 359 433
#     4  10  23  43  65 102 142 178 235 292 351 430
#     4  10  22  39  68  95 140 181 232 285 359 412
#     4  12  27  46  68 106 143 186 248 296 355 437
#     4  12  25  46  77 104 145 193 239 301 362 425
#     4  12  25  43  71 103 142 184 239 298 353 431
#     4  12  25  47  71 101 145 186 241 298 364 422
#
# _framework density 22.539776
#
# number of rings (size 3 to 8) (size 9 to 14) (size 15 to 20)
#    0.000    0.857    2.857    3.857    0.000    6.857 
#    0.000    0.000    0.000    0.000    0.000    0.000 
#    0.000    0.000    0.000    0.000    0.000    0.000 
#
# Total GULP energy -78127.471821 kJ/mol
# GULP energy per Si atom -5580.533702 kJ/mol
# Density = 2.248847 g / cm^3
# Si number density = 22.539776 Si / 1000 Ang^3
#
#
#
# Elastic Constant Matrix: (Units=GPa)
#
#
# Indices 1 2 3 4 5 6 
#
# 1 137.6750 44.0846 29.7092 3.8007 8.4026 23.3467
# 2 44.0846 124.4448 44.4485 -10.0851 13.0969 25.2952
# 3 29.7092 44.4485 95.4573 -1.2476 5.3199 4.7076
# 4 3.8007 -10.0851 -1.2476 37.8182 8.2626 -0.8113
# 5 8.4026 13.0969 5.3199 8.2626 43.9987 12.5454
# 6 23.3467 25.2952 4.7076 -0.8113 12.5454 31.5390
#
#
#
# Elastic Compliance Matrix: (Units=1/GPa)
#
#
# Indices 1 2 3 4 5 6 
#
# 1 0.009136 -0.001682 -0.001859 -0.001740 0.000885 -0.005533
# 2 -0.001682 0.012182 -0.004675 0.003397 -0.001320 -0.007215
# 3 -0.001859 -0.004675 0.013098 -0.000390 -0.000750 0.003460
# 4 -0.001740 0.003397 -0.000390 0.029007 -0.006653 0.002014
# 5 0.000885 -0.001320 -0.000750 -0.006653 0.027289 -0.010510
# 6 -0.005533 -0.007215 0.003460 0.002014 -0.010510 0.045306
#
#
# Mechanical properties :
#
#
# Convention : Reuss Voigt Hill
#
# Bulk Modulus (GPa) = 55.60892 66.00685 60.80788
# Shear Modulus (GPa) = 31.55695 38.62684 35.09190
#
# Velocity S-wave (km/s) = 3.74579 4.14420 3.95002
# Velocity P-wave (km/s) = 6.59037 7.22823 6.91666
#
# Compressibility (1/GPa) = 0.01798273
#
# Stress axis : x y z
#
# Youngs Moduli (GPa) = 109.46306 82.08733 76.34934
#
# Poissons Ratio (x) = 0.13804 0.14197
# Poissons Ratio (y) = 0.18407 0.35696
# Poissons Ratio (z) = 0.20354 0.38378
#
# Static dielectric constant tensor:
#      x y z
#    x 1.936290 -0.085560 -0.019030 
#    y -0.085560 1.894100 -0.019070 
#    z -0.019030 -0.019070 1.897010 
# 
# From -- ./inp_files/315861.got.cif
#   From: 2010.05.17/outbox.cif.g08.bks.cpg/sg2_158_cif.got.tgz:315861.got - 2010.06.03 11:33:40.
