data_PCOD9023488
_publ_section_title
;
Structure prediction by ZEFSAII (Michael W. Deem and Ramdas Pophale) SiO2 
 PCOD9023488
Probable space group: P -1
;
_chemical_formula_sum "Si O2"
_cell_formula_units_Z 12
_cell_length_a 9.474047
_cell_length_b 12.526774
_cell_length_c 8.589006
_cell_angle_alpha 85.117320
_cell_angle_beta 72.676482
_cell_angle_gamma 35.715116
_cell_volume 545.146789
_symmetry_space_group_name_H-M "P -1"
_symmetry_group_IT_number 2
_symmetry_cell_setting 'triclinic'
loop_
_space_group_symop_operation_xyz
x,y,z
-x,-y,-z
loop_
_atom_site_type_symbol
_atom_site_label
_atom_site_fract_x
_atom_site_fract_y
_atom_site_fract_z
Si Si1 0.367216 0.008959 0.177380
Si Si2 0.522607 0.598616 0.569701
Si Si3 0.957178 0.002327 0.828560
Si Si4 0.936011 0.661966 0.131816
Si Si5 0.250230 0.647007 0.177828
Si Si6 0.967851 0.423357 0.253099
O O1 0.221635 0.993763 0.153949
O O2 0.156444 0.219085 0.289396
O O3 0.623580 0.827185 0.215862
O O4 0.500000 0.000000 0.000000
O O5 0.500000 0.500000 0.500000
O O6 0.239307 0.812714 0.682573
O O7 0.673378 0.474445 0.691035
O O8 0.693840 0.574449 0.410956
O O9 0.823260 0.188061 0.777708
O O10 0.000000 0.000000 0.000000
O O11 0.065057 0.487791 0.209707
O O12 0.007498 0.735122 0.161735
O O13 0.044305 0.593164 0.927119
O O14 0.500000 0.500000 0.000000
#
# Coordination Sequence:
#
# PCOD9023488 Si02
#       6
#     2   2   2   2   2   2
#     4  10  22  39  70 100 137 181 234 279 348 411
#     4  12  26  45  70 105 146 179 238 293 347 413
#     4  12  25  44  74 105 141 186 238 290 345 419
#     4  10  24  44  72 100 137 188 234 281 351 428
#     4  12  27  44  71 102 140 186 237 285 353 416
#     4  10  22  43  71  99 139 187 226 285 351 409
#
# _framework density 22.012418
#
# number of rings (size 3 to 8) (size 9 to 14) (size 15 to 20)
#    0.000    1.000    3.333    3.000    9.333    4.000 
#    0.000    1.667    0.000    0.000    0.000    0.000 
#    0.000    0.000    0.000    0.000    0.000    0.000 
#
# Total GULP energy -67070.203545 kJ/mol
# GULP energy per Si atom -5589.183629 kJ/mol
# Density = 2.196232 g / cm^3
# Si number density = 22.012418 Si / 1000 Ang^3
#
#
#
# Elastic Constant Matrix: (Units=GPa)
#
#
# Indices 1 2 3 4 5 6 
#
# 1 122.4600 58.2378 43.3980 7.7642 -17.8474 6.0484
# 2 58.2378 127.1771 46.2916 18.9110 -11.0010 17.0378
# 3 43.3980 46.2916 112.6234 22.9215 -27.4628 -1.9262
# 4 7.7642 18.9110 22.9215 42.6120 3.1187 -3.0305
# 5 -17.8474 -11.0010 -27.4628 3.1187 24.9314 -0.1496
# 6 6.0484 17.0378 -1.9262 -3.0305 -0.1496 37.7329
#
#
#
# Elastic Compliance Matrix: (Units=1/GPa)
#
#
# Indices 1 2 3 4 5 6 
#
# 1 0.011412 -0.004324 -0.001618 0.000392 0.004431 0.000090
# 2 -0.004324 0.012007 -0.002787 -0.003373 -0.000476 -0.005143
# 3 -0.001618 -0.002787 0.016515 -0.008462 0.016872 0.001748
# 4 0.000392 -0.003373 -0.008462 0.030740 -0.014354 0.003440
# 5 0.004431 -0.000476 0.016872 -0.014354 0.063450 -0.000535
# 6 0.000090 -0.005143 0.001748 0.003440 -0.000535 0.029174
#
#
# Mechanical properties :
#
#
# Convention : Reuss Voigt Hill
#
# Bulk Modulus (GPa) = 44.49143 73.12392 58.80768
# Shear Modulus (GPa) = 26.56094 35.34414 30.95254
#
# Velocity S-wave (km/s) = 3.47743 4.01140 3.75392
# Velocity P-wave (km/s) = 6.03152 7.39909 6.75003
#
# Compressibility (1/GPa) = 0.02247624
#
# Stress axis : x y z
#
# Youngs Moduli (GPa) = 87.62597 83.28592 60.55280
#
# Poissons Ratio (x) = 0.36013 0.09798
# Poissons Ratio (y) = 0.37889 0.16873
# Poissons Ratio (z) = 0.14179 0.23208
#
# Static dielectric constant tensor:
#      x y z
#    x 1.950620 0.007190 0.012120 
#    y 0.007190 1.895880 0.041820 
#    z 0.012120 0.041820 1.690780 
# 
# From -- ./inp_files/151892.got.cif
#   From: 2010.05.17/outbox.cif.g08.bks.cpg/sg2_76_cif.got.tgz:151892.got - 2010.06.03 11:33:40.
