data_PCOD9023862
_publ_section_title
;
Structure prediction by ZEFSAII (Michael W. Deem and Ramdas Pophale) SiO2 
 PCOD9023862
Probable space group: P -1
;
_chemical_formula_sum "Si O2"
_cell_formula_units_Z 11
_cell_length_a 5.724315
_cell_length_b 4.936823
_cell_length_c 16.758606
_cell_angle_alpha 86.271050
_cell_angle_beta 111.644719
_cell_angle_gamma 95.250119
_cell_volume 438.105932
_symmetry_space_group_name_H-M "P -1"
_symmetry_group_IT_number 2
_symmetry_cell_setting 'triclinic'
loop_
_space_group_symop_operation_xyz
x,y,z
-x,-y,-z
loop_
_atom_site_type_symbol
_atom_site_label
_atom_site_fract_x
_atom_site_fract_y
_atom_site_fract_z
Si Si1 0.595522 0.849289 0.313244
Si Si2 0.886275 0.120067 0.563743
Si Si3 0.787358 0.048295 0.867569
Si Si4 0.080276 0.562241 0.918206
Si Si5 0.500000 0.000000 0.000000
Si Si6 0.495106 0.330373 0.402509
O O1 0.445847 0.852702 0.212722
O O2 0.455252 0.626248 0.358275
O O3 0.883869 0.772299 0.353639
O O4 0.593178 0.149616 0.345096
O O5 0.702920 0.333534 0.499333
O O6 0.735118 0.866904 0.591446
O O7 0.000000 0.000000 0.500000
O O8 0.033669 0.262127 0.880867
O O9 0.697145 0.029125 0.948020
O O10 0.877338 0.761042 0.855828
O O11 0.349282 0.725520 0.944551
O O12 0.000000 0.500000 0.000000
#
# Coordination Sequence:
#
# PCOD9023862 Si02
#       6
#     2   2   2   2   1   2
#     4  11  23  39  59  91 126 159 200 250 302 353
#     4   9  21  40  64  90 120 163 207 242 295 360
#     4  11  24  39  61  92 123 155 203 253 298 359
#     4  10  22  41  61  86 115 152 201 247 299 364
#     4  10  22  42  66  84 116 162 198 246 306 354
#     4  10  22  40  62  87 124 164 201 248 295 351
#
# _framework density 25.108080999999999
#
# number of rings (size 3 to 8) (size 9 to 14) (size 15 to 20)
#    0.000    1.818    0.000    3.818    0.000   18.909 
#    0.000    0.000    0.000    0.000    0.000    0.000 
#    0.000    0.000    0.000    0.000    0.000    0.000 
#
# Total GULP energy -61300.813008 kJ/mol
# GULP energy per Si atom -5572.801183 kJ/mol
# Density = 2.505093 g / cm^3
# Si number density = 25.108081 Si / 1000 Ang^3
#
#
#
# Elastic Constant Matrix: (Units=GPa)
#
#
# Indices 1 2 3 4 5 6 
#
# 1 60.0635 30.4015 17.5876 -7.2942 6.9536 27.4631
# 2 30.4015 149.5599 38.3430 -7.7987 15.4465 18.0822
# 3 17.5876 38.3430 92.8007 -13.4199 32.5775 4.3524
# 4 -7.2942 -7.7987 -13.4199 31.4600 -2.1827 11.0740
# 5 6.9536 15.4465 32.5775 -2.1827 20.6432 8.6676
# 6 27.4631 18.0822 4.3524 11.0740 8.6676 51.9453
#
#
#
# Elastic Compliance Matrix: (Units=1/GPa)
#
#
# Indices 1 2 3 4 5 6 
#
# 1 0.027237 -0.002643 -0.004783 0.010053 0.008394 -0.016623
# 2 -0.002643 0.008113 -0.002416 0.000758 -0.000758 -0.001259
# 3 -0.004783 -0.002416 0.028554 0.004827 -0.044208 0.007325
# 4 0.010053 0.000758 0.004827 0.041448 -0.001039 -0.014646
# 5 0.008394 -0.000758 -0.044208 -0.001039 0.124677 -0.021052
# 6 -0.016623 -0.001259 0.007325 -0.014646 -0.021052 0.034499
#
#
# Mechanical properties :
#
#
# Convention : Reuss Voigt Hill
#
# Bulk Modulus (GPa) = 22.61461 52.78760 37.70110
# Shear Modulus (GPa) = 16.72499 35.21583 25.97041
#
# Velocity S-wave (km/s) = 2.58373 3.74915 3.21961
# Velocity P-wave (km/s) = 4.23407 6.30962 5.37302
#
# Compressibility (1/GPa) = 0.04421920
#
# Stress axis : x y z
#
# Youngs Moduli (GPa) = 36.71442 123.25617 35.02105
#
# Poissons Ratio (x) = 0.32580 0.16751
# Poissons Ratio (y) = 0.09705 0.08462
# Poissons Ratio (z) = 0.17561 0.29783
#
# Static dielectric constant tensor:
#      x y z
#    x 2.070520 -0.067440 0.087540 
#    y -0.067440 1.977470 0.012480 
#    z 0.087540 0.012480 2.028170 
# 
# From -- ./inp_files/3396.got.cif
#   From: 2010.05.17/outbox.cif.g08.bks.cpg/sg2_2_cif.got.tgz:3396.got - 2010.06.03 11:33:40.
