data_PCOD9023565
_publ_section_title
;
Structure prediction by ZEFSAII (Michael W. Deem and Ramdas Pophale) SiO2 
 PCOD9023565
Probable space group: P -1
;
_chemical_formula_sum "Si O2"
_cell_formula_units_Z 15
_cell_length_a 9.560273
_cell_length_b 8.804820
_cell_length_c 8.703351
_cell_angle_alpha 91.115024
_cell_angle_beta 122.022772
_cell_angle_gamma 95.148918
_cell_volume 616.680919
_symmetry_space_group_name_H-M "P -1"
_symmetry_group_IT_number 2
_symmetry_cell_setting 'triclinic'
loop_
_space_group_symop_operation_xyz
x,y,z
-x,-y,-z
loop_
_atom_site_type_symbol
_atom_site_label
_atom_site_fract_x
_atom_site_fract_y
_atom_site_fract_z
Si Si1 0.313184 0.207151 0.308956
Si Si2 0.800266 0.326172 0.292044
Si Si3 0.906587 0.085662 0.816950
Si Si4 0.969375 0.340210 0.060515
Si Si5 0.521954 0.062362 0.186444
Si Si6 0.500000 0.500000 0.000000
Si Si7 0.434782 0.259171 0.695283
Si Si8 0.061170 0.173226 0.600376
O O1 0.152841 0.289709 0.183805
O O2 0.402655 0.172349 0.201195
O O3 0.421909 0.296178 0.507675
O O4 0.237552 0.039791 0.328440
O O5 0.696057 0.166281 0.279096
O O6 0.888715 0.326798 0.179344
O O7 0.955485 0.313622 0.497837
O O8 0.661237 0.441862 0.192254
O O9 0.038351 0.147737 0.767364
O O10 0.854071 0.230249 0.876856
O O11 0.000000 0.000000 0.000000
O O12 0.000000 0.500000 0.000000
O O13 0.502098 0.906822 0.266114
O O14 0.500000 0.000000 0.000000
O O15 0.526576 0.378213 0.872283
O O16 0.246647 0.221925 0.652172
O O17 0.000000 0.000000 0.500000
#
# Coordination Sequence:
#
# PCOD9023565 Si02
#       8
#     2   2   2   2   2   1   2   2
#     4  11  24  47  73 115 151 202 258 328 377 462
#     4  12  26  50  72 113 153 205 263 314 398 465
#     4  10  22  39  72 113 150 189 257 315 382 458
#     4  11  26  44  73 110 157 201 252 315 400 474
#     4  12  25  43  81 111 152 204 254 324 390 462
#     4  12  32  46  74 108 164 216 250 326 402 480
#     4  12  26  49  76 111 158 203 266 319 401 463
#     4  12  22  44  80 113 144 197 261 330 377 458
#
# _framework density 24.323761999999999
#
# number of rings (size 3 to 8) (size 9 to 14) (size 15 to 20)
#    0.000    0.533    5.333    2.000    7.467    1.600 
#    0.000    0.667    0.000    0.000    0.000    0.000 
#    0.000    0.000    0.000    0.000    0.000    0.000 
#
# Total GULP energy -83517.022302 kJ/mol
# GULP energy per Si atom -5567.801487 kJ/mol
# Density = 2.426840 g / cm^3
# Si number density = 24.323762 Si / 1000 Ang^3
#
#
#
# Elastic Constant Matrix: (Units=GPa)
#
#
# Indices 1 2 3 4 5 6 
#
# 1 126.8258 25.6898 29.0082 -17.3299 -19.2856 -18.6063
# 2 25.6898 115.8389 31.6133 -12.3834 -0.2406 -16.4660
# 3 29.0082 31.6133 104.1466 -2.6292 -15.3003 -10.4489
# 4 -17.3299 -12.3834 -2.6292 32.6036 -5.6981 15.0808
# 5 -19.2856 -0.2406 -15.3003 -5.6981 40.9740 -2.6268
# 6 -18.6063 -16.4660 -10.4489 15.0808 -2.6268 23.6986
#
#
#
# Elastic Compliance Matrix: (Units=1/GPa)
#
#
# Indices 1 2 3 4 5 6 
#
# 1 0.010412 -0.000812 -0.001250 0.003558 0.005269 0.005379
# 2 -0.000812 0.010266 -0.002518 0.000951 -0.000829 0.004688
# 3 -0.001250 -0.002518 0.011616 -0.001884 0.003729 0.004003
# 4 0.003558 0.000951 -0.001884 0.045716 0.005678 -0.025839
# 5 0.005269 -0.000829 0.003729 0.005678 0.029374 0.004847
# 6 0.005379 0.004688 0.004003 -0.025839 0.004847 0.068423
#
#
# Mechanical properties :
#
#
# Convention : Reuss Voigt Hill
#
# Bulk Modulus (GPa) = 43.22453 57.71487 50.46970
# Shear Modulus (GPa) = 25.95018 36.82190 31.38604
#
# Velocity S-wave (km/s) = 3.26983 3.89501 3.59603
# Velocity P-wave (km/s) = 5.66258 6.63381 6.16734
#
# Compressibility (1/GPa) = 0.02313501
#
# Stress axis : x y z
#
# Youngs Moduli (GPa) = 96.04602 97.40705 86.08719
#
# Poissons Ratio (x) = 0.07909 0.10761
# Poissons Ratio (y) = 0.07799 0.21673
# Poissons Ratio (z) = 0.12006 0.24522
#
# Static dielectric constant tensor:
#      x y z
#    x 1.952070 -0.040280 0.021610 
#    y -0.040280 2.007880 0.029080 
#    z 0.021610 0.029080 2.005720 
# 
# From -- ./inp_files/159399.got.cif
#   From: 2010.05.17/outbox.cif.g08.bks.cpg/sg2_80_cif.got.tgz:159399.got - 2010.06.03 11:33:40.
