data_PCOD9023180
_publ_section_title
;
Structure prediction by ZEFSAII (Michael W. Deem and Ramdas Pophale) SiO2 
 PCOD9023180
Probable space group: P -1
;
_chemical_formula_sum "Si O2"
_cell_formula_units_Z 16
_cell_length_a 11.589689
_cell_length_b 5.282215
_cell_length_c 22.224800
_cell_angle_alpha 111.658238
_cell_angle_beta 145.484228
_cell_angle_gamma 58.465621
_cell_volume 651.688055
_symmetry_space_group_name_H-M "P -1"
_symmetry_group_IT_number 2
_symmetry_cell_setting 'triclinic'
loop_
_space_group_symop_operation_xyz
x,y,z
-x,-y,-z
loop_
_atom_site_type_symbol
_atom_site_label
_atom_site_fract_x
_atom_site_fract_y
_atom_site_fract_z
Si Si1 0.706376 0.739237 0.597546
Si Si2 0.389124 0.292992 0.319843
Si Si3 0.721778 0.082717 0.172178
Si Si4 0.942417 0.088284 0.800754
Si Si5 0.136886 0.180575 0.099378
Si Si6 0.746854 0.840110 0.981758
Si Si7 0.149412 0.175344 0.562463
Si Si8 0.154214 0.368104 0.707685
O O1 0.639664 0.591212 0.612906
O O2 0.883576 0.546815 0.607219
O O3 0.500000 0.000000 0.500000
O O4 0.851791 0.867840 0.712073
O O5 0.281823 0.602930 0.263148
O O6 0.262892 0.119259 0.212286
O O7 0.644254 0.055791 0.406778
O O8 0.809400 0.902514 0.255640
O O9 0.890032 0.879526 0.175617
O O10 0.467499 0.119232 0.067648
O O11 0.737303 0.403337 0.205762
O O12 0.123113 0.963258 0.921411
O O13 0.299516 0.141945 0.107996
O O14 0.946203 0.516102 0.049125
O O15 0.000000 0.000000 0.000000
O O16 0.243789 0.248060 0.670725
O O17 0.000000 0.500000 0.500000
O O18 0.000000 0.000000 0.500000
#
# Coordination Sequence:
#
# PCOD9023180 Si02
#       8
#     2   2   2   2   2   2   2   2
#     4  11  24  43  70  94 134 182 233 292 344 408
#     4  11  24  43  70  97 136 180 227 292 341 416
#     4  11  23  44  70 101 141 181 228 283 345 416
#     4  10  23  44  64 103 134 178 235 280 348 413
#     4  10  22  40  64  99 135 178 228 273 349 415
#     4  10  22  39  66  97 137 183 221 283 343 417
#     4  12  28  47  69 102 137 181 235 293 352 409
#     4  11  25  46  67 104 136 181 235 283 345 421
#
# _framework density 24.551624
#
# number of rings (size 3 to 8) (size 9 to 14) (size 15 to 20)
#    0.000    1.250    1.250    3.375    7.000    1.500 
#    0.000    1.875    0.000    0.000    0.000    0.000 
#    0.000    0.000    0.000    0.000    0.000    0.000 
#
# Total GULP energy -89244.848734 kJ/mol
# GULP energy per Si atom -5577.803046 kJ/mol
# Density = 2.449574 g / cm^3
# Si number density = 24.551624 Si / 1000 Ang^3
#
#
#
# Elastic Constant Matrix: (Units=GPa)
#
#
# Indices 1 2 3 4 5 6 
#
# 1 70.1069 0.5564 14.5972 -10.5272 -12.2388 -11.3378
# 2 0.5564 48.4820 4.7607 0.5088 3.3513 -6.6875
# 3 14.5972 4.7607 95.9887 -7.8849 -9.7467 -4.7320
# 4 -10.5272 0.5088 -7.8849 36.0582 -3.6771 1.0513
# 5 -12.2388 3.3513 -9.7467 -3.6771 38.7464 -9.7361
# 6 -11.3378 -6.6875 -4.7320 1.0513 -9.7361 27.1897
#
#
#
# Elastic Compliance Matrix: (Units=1/GPa)
#
#
# Indices 1 2 3 4 5 6 
#
# 1 0.018595 0.000685 -0.000965 0.005795 0.008806 0.010684
# 2 0.000685 0.021484 -0.001025 -0.000544 -0.000650 0.005180
# 3 -0.000965 -0.001025 0.011294 0.002486 0.003479 0.002461
# 4 0.005795 -0.000544 0.002486 0.030513 0.006356 0.003811
# 5 0.008806 -0.000650 0.003479 0.006356 0.034173 0.016109
# 6 0.010684 0.005180 0.002461 0.003811 0.016109 0.048557
#
#
# Mechanical properties :
#
#
# Convention : Reuss Voigt Hill
#
# Bulk Modulus (GPa) = 20.50699 28.26737 24.38718
# Shear Modulus (GPa) = 27.25109 33.37642 30.31376
#
# Velocity S-wave (km/s) = 3.33521 3.69106 3.51763
# Velocity P-wave (km/s) = 4.81687 5.45010 5.14324
#
# Compressibility (1/GPa) = 0.04876385
#
# Stress axis : x y z
#
# Youngs Moduli (GPa) = 53.77917 46.54601 88.54077
#
# Poissons Ratio (x) = -0.03191 0.08543
# Poissons Ratio (y) = -0.03686 0.09076
# Poissons Ratio (z) = 0.05189 0.04771
#
# Static dielectric constant tensor:
#      x y z
#    x 2.198210 -0.041010 0.007520 
#    y -0.041010 2.055860 0.173630 
#    z 0.007520 0.173630 2.117840 
# 
# From -- ./inp_files/72274.got.cif
#   From: 2010.05.17/outbox.cif.g08.bks.cpg/sg2_37_cif.got.tgz:72274.got - 2010.06.03 11:33:40.
