data_PCOD9023913
_publ_section_title
;
Structure prediction by ZEFSAII (Michael W. Deem and Ramdas Pophale) SiO2 
 PCOD9023913
Probable space group: P -1
;
_chemical_formula_sum "Si O2"
_cell_formula_units_Z 16
_cell_length_a 6.691302
_cell_length_b 8.773336
_cell_length_c 19.492200
_cell_angle_alpha 114.354583
_cell_angle_beta 130.688314
_cell_angle_gamma 59.708528
_cell_volume 743.090551
_symmetry_space_group_name_H-M "P -1"
_symmetry_group_IT_number 2
_symmetry_cell_setting 'triclinic'
loop_
_space_group_symop_operation_xyz
x,y,z
-x,-y,-z
loop_
_atom_site_type_symbol
_atom_site_label
_atom_site_fract_x
_atom_site_fract_y
_atom_site_fract_z
Si Si1 0.184465 0.865764 0.071072
Si Si2 0.285520 0.590542 0.796595
Si Si3 0.708890 0.615909 0.372851
Si Si4 0.723879 0.860552 0.770043
Si Si5 0.304854 0.397299 0.904361
Si Si6 0.321960 0.978780 0.582349
Si Si7 0.188213 0.339422 0.098439
Si Si8 0.634171 0.618626 0.508393
O O1 0.491275 0.801496 0.092694
O O2 0.209351 0.961022 0.164126
O O3 0.020063 0.726005 0.007701
O O4 0.000000 0.000000 0.000000
O O5 0.379982 0.476876 0.728072
O O6 0.270498 0.461309 0.830178
O O7 0.528332 0.673698 0.878664
O O8 0.977883 0.737791 0.757115
O O9 0.559116 0.612502 0.410606
O O10 0.033547 0.487049 0.430287
O O11 0.670155 0.822254 0.388960
O O12 0.438836 0.909510 0.671918
O O13 0.738585 0.765183 0.830463
O O14 0.009952 0.462491 0.887482
O O15 0.500000 0.500000 0.000000
O O16 0.517206 0.822288 0.547015
O O17 0.000000 0.000000 0.500000
O O18 0.500000 0.500000 0.500000
#
# Coordination Sequence:
#
# PCOD9023913 Si02
#       8
#     2   2   2   2   2   2   2   2
#     4   9  18  38  60  89 126 166 209 265 324 374
#     4  11  22  39  63  93 128 170 218 267 329 384
#     4  11  25  42  67  95 134 170 218 284 328 392
#     4  10  22  40  62  90 134 166 217 276 323 391
#     4   9  19  37  60  85 123 163 211 261 316 381
#     4  12  24  44  70  98 132 178 223 272 344 402
#     4   9  21  38  64  91 124 176 217 262 327 396
#     4  11  24  45  69  94 128 175 221 274 339 398
#
# _framework density 21.531694999999999
#
# number of rings (size 3 to 8) (size 9 to 14) (size 15 to 20)
#    0.000    1.750    2.500    1.875    1.750    2.500 
#    4.500    3.750    0.000    0.000    0.000    0.000 
#    0.000    0.000    0.000    0.000    0.000    0.000 
#
# Total GULP energy -89191.628083 kJ/mol
# GULP energy per Si atom -5574.476755 kJ/mol
# Density = 2.148269 g / cm^3
# Si number density = 21.531695 Si / 1000 Ang^3
#
#
#
# Elastic Constant Matrix: (Units=GPa)
#
#
# Indices 1 2 3 4 5 6 
#
# 1 60.9246 25.5465 13.2727 -9.0880 3.9104 -5.4186
# 2 25.5465 116.1485 29.0139 0.1506 -1.9527 -29.0592
# 3 13.2727 29.0139 105.6448 -0.3797 -8.3176 -14.1125
# 4 -9.0880 0.1506 -0.3797 36.5955 -9.4073 3.7678
# 5 3.9104 -1.9527 -8.3176 -9.4073 32.6094 -3.2019
# 6 -5.4186 -29.0592 -14.1125 3.7678 -3.2019 23.8218
#
#
#
# Elastic Compliance Matrix: (Units=1/GPa)
#
#
# Indices 1 2 3 4 5 6 
#
# 1 0.019276 -0.004690 -0.001726 0.004612 -0.002032 -0.003361
# 2 -0.004690 0.013917 -0.000943 -0.002352 0.002047 0.015999
# 3 -0.001726 -0.000943 0.010937 0.000027 0.003478 0.005399
# 4 0.004612 -0.002352 0.000027 0.031048 0.007712 -0.005679
# 5 -0.002032 0.002047 0.003478 0.007712 0.034887 0.007565
# 6 -0.003361 0.015999 0.005399 -0.005679 0.007565 0.065844
#
#
# Mechanical properties :
#
#
# Convention : Reuss Voigt Hill
#
# Bulk Modulus (GPa) = 34.00010 46.48713 40.24362
# Shear Modulus (GPa) = 24.94644 32.93099 28.93871
#
# Velocity S-wave (km/s) = 3.40750 3.91502 3.67005
# Velocity P-wave (km/s) = 5.59521 6.48641 6.05722
#
# Compressibility (1/GPa) = 0.02941168
#
# Stress axis : x y z
#
# Youngs Moduli (GPa) = 51.87910 71.85549 91.43496
#
# Poissons Ratio (x) = 0.33697 0.15784
# Poissons Ratio (y) = 0.24329 0.08622
# Poissons Ratio (z) = 0.08955 0.06776
#
# Static dielectric constant tensor:
#      x y z
#    x 1.748760 0.004670 0.028220 
#    y 0.004670 1.915000 -0.002030 
#    z 0.028220 -0.002030 1.829530 
# 
# From -- ./inp_files/52994.got.cif
#   From: 2010.05.17/outbox.cif.g08.bks.cpg/sg2_27_cif.got.tgz:52994.got - 2010.06.03 11:33:40.
