data_PCOD9023223
_publ_section_title
;
Structure prediction by ZEFSAII (Michael W. Deem and Ramdas Pophale) SiO2 
 PCOD9023223
Probable space group: P -1
;
_chemical_formula_sum "Si O2"
_cell_formula_units_Z 16
_cell_length_a 12.411195
_cell_length_b 12.163636
_cell_length_c 7.491848
_cell_angle_alpha 126.354610
_cell_angle_beta 75.373376
_cell_angle_gamma 123.106322
_cell_volume 758.732808
_symmetry_space_group_name_H-M "P -1"
_symmetry_group_IT_number 2
_symmetry_cell_setting 'triclinic'
loop_
_space_group_symop_operation_xyz
x,y,z
-x,-y,-z
loop_
_atom_site_type_symbol
_atom_site_label
_atom_site_fract_x
_atom_site_fract_y
_atom_site_fract_z
Si Si1 0.462933 0.662375 0.834439
Si Si2 0.231399 0.981016 0.550232
Si Si3 0.795395 0.631344 0.481416
Si Si4 0.156363 0.215442 0.736441
Si Si5 0.483234 0.224268 0.458813
Si Si6 0.560447 0.991127 0.276720
Si Si7 0.983730 0.335291 0.786896
Si Si8 0.351296 0.434833 0.157656
O O1 0.318630 0.526818 0.717536
O O2 0.532701 0.707528 0.655136
O O3 0.539319 0.606024 0.874429
O O4 0.475636 0.819243 0.063114
O O5 0.134127 0.049615 0.660454
O O6 0.349265 0.107083 0.498429
O O7 0.299384 0.983259 0.709783
O O8 0.159595 0.805804 0.331225
O O9 0.812137 0.769994 0.474447
O O10 0.751762 0.630318 0.698856
O O11 0.928915 0.634032 0.397756
O O12 0.046155 0.263596 0.830247
O O13 0.276543 0.348019 0.927594
O O14 0.555610 0.126305 0.296294
O O15 0.576843 0.375007 0.686511
O O16 0.500000 0.000000 0.500000
O O17 0.000000 0.500000 0.000000
#
# Coordination Sequence:
#
# PCOD9023223 Si02
#       8
#     2   2   2   2   2   2   2   2
#     4  11  20  40  61  92 127 156 200 249 316 361
#     4  11  21  41  60  91 121 161 211 246 303 366
#     4   9  23  38  65  89 128 156 205 254 292 370
#     4  10  22  39  67  87 123 163 202 254 302 359
#     4  10  23  35  63  92 129 157 194 258 309 361
#     4  10  23  34  58  91 125 157 200 253 300 372
#     4  10  25  42  64  83 121 171 205 254 305 356
#     4  11  21  40  65  99 120 157 206 248 314 364
#
# _framework density 21.087793000000001
#
# number of rings (size 3 to 8) (size 9 to 14) (size 15 to 20)
#    0.750    1.000    1.250    3.750    8.750    1.000 
#    0.000    2.500    0.000    0.000    0.000    0.000 
#    0.000    0.000    0.000    0.000    0.000    0.000 
#
# Total GULP energy -89260.693048 kJ/mol
# GULP energy per Si atom -5578.793315 kJ/mol
# Density = 2.103980 g / cm^3
# Si number density = 21.087793 Si / 1000 Ang^3
#
#
#
# Elastic Constant Matrix: (Units=GPa)
#
#
# Indices 1 2 3 4 5 6 
#
# 1 58.4508 18.2998 -1.7872 6.6227 -2.8389 -14.2371
# 2 18.2998 41.8152 10.4237 -0.2346 -0.4730 2.5085
# 3 -1.7872 10.4237 65.9971 11.5972 -6.3698 1.5296
# 4 6.6227 -0.2346 11.5972 39.0330 -4.5714 -8.0959
# 5 -2.8389 -0.4730 -6.3698 -4.5714 32.8215 7.5731
# 6 -14.2371 2.5085 1.5296 -8.0959 7.5731 31.6593
#
#
#
# Elastic Compliance Matrix: (Units=1/GPa)
#
#
# Indices 1 2 3 4 5 6 
#
# 1 0.023822 -0.011770 0.002677 -0.002695 -0.000490 0.010944
# 2 -0.011770 0.030850 -0.005421 0.002390 0.000308 -0.006938
# 3 0.002677 -0.005421 0.017389 -0.005577 0.003067 -0.001367
# 4 -0.002695 0.002390 -0.005577 0.029154 0.001398 0.005989
# 5 -0.000490 0.000308 0.003067 0.001398 0.033052 -0.007942
# 6 0.010944 -0.006938 -0.001367 0.005989 -0.007942 0.040555
#
#
# Mechanical properties :
#
#
# Convention : Reuss Voigt Hill
#
# Bulk Modulus (GPa) = 23.23784 24.45953 23.84869
# Shear Modulus (GPa) = 22.91535 29.99121 26.45328
#
# Velocity S-wave (km/s) = 3.30003 3.77531 3.54564
# Velocity P-wave (km/s) = 5.05607 5.53426 5.30056
#
# Compressibility (1/GPa) = 0.04303326
#
# Stress axis : x y z
#
# Youngs Moduli (GPa) = 41.97714 32.41485 57.50905
#
# Poissons Ratio (x) = 0.38152 -0.15394
# Poissons Ratio (y) = 0.49407 0.31174
# Poissons Ratio (z) = -0.11236 0.17571
#
# Static dielectric constant tensor:
#      x y z
#    x 1.839250 -0.007770 -0.034380 
#    y -0.007770 1.797740 -0.004000 
#    z -0.034380 -0.004000 1.750080 
# 
# From -- ./inp_files/260620.got.cif
#   From: 2010.05.17/outbox.cif.g08.bks.cpg/sg2_131_cif.got.tgz:260620.got - 2010.06.03 11:33:40.
