data_PCOD9023652
_publ_section_title
;
Structure prediction by ZEFSAII (Michael W. Deem and Ramdas Pophale) SiO2 
 PCOD9023652
Probable space group: P -1
;
_chemical_formula_sum "Si O2"
_cell_formula_units_Z 15
_cell_length_a 12.574500
_cell_length_b 12.355954
_cell_length_c 9.157772
_cell_angle_alpha 36.451321
_cell_angle_beta 60.205485
_cell_angle_gamma 60.183448
_cell_volume 720.372373
_symmetry_space_group_name_H-M "P -1"
_symmetry_group_IT_number 2
_symmetry_cell_setting 'triclinic'
loop_
_space_group_symop_operation_xyz
x,y,z
-x,-y,-z
loop_
_atom_site_type_symbol
_atom_site_label
_atom_site_fract_x
_atom_site_fract_y
_atom_site_fract_z
Si Si1 0.947688 0.894075 0.448573
Si Si2 0.622349 0.848131 0.109657
Si Si3 0.895632 0.813193 0.894007
Si Si4 0.500000 0.500000 0.500000
Si Si5 0.414432 0.232736 0.457220
Si Si6 0.064486 0.557266 0.539477
Si Si7 0.671738 0.046265 0.383285
Si Si8 0.336788 0.631020 0.190774
O O1 0.954153 0.803018 0.703749
O O2 0.980652 0.735315 0.478462
O O3 0.808216 0.006906 0.399626
O O4 0.042166 0.036939 0.224809
O O5 0.589942 0.652892 0.295679
O O6 0.646637 0.831763 0.284814
O O7 0.746915 0.883186 0.910482
O O8 0.500000 0.000000 0.000000
O O9 0.918305 0.616992 0.173107
O O10 0.427819 0.619149 0.279846
O O11 0.561694 0.146164 0.455570
O O12 0.388579 0.453857 0.243926
O O13 0.362646 0.144710 0.446309
O O14 0.198448 0.608427 0.357153
O O15 0.000000 0.500000 0.500000
O O16 0.667864 0.183576 0.099520
#
# Coordination Sequence:
#
# PCOD9023652 Si02
#       8
#     2   2   2   1   2   2   2   2
#     4  11  27  43  70 101 136 187 226 282 345 402
#     4  11  22  39  69  94 130 176 219 280 334 399
#     4  11  25  48  65 101 140 178 235 280 341 412
#     4  10  22  40  60 100 126 168 220 266 342 388
#     4  10  22  41  63  96 134 168 223 277 335 399
#     4  12  25  45  71  98 138 182 230 280 337 409
#     4  11  23  42  65  99 134 174 223 278 340 402
#     4  11  23  41  66  99 130 174 221 274 340 399
#
# _framework density 20.822564
#
# number of rings (size 3 to 8) (size 9 to 14) (size 15 to 20)
#    0.000    1.067    2.667    4.000    3.733    2.133 
#    2.400    2.667    0.000    0.000    0.000    0.000 
#    0.000    0.000    0.000    0.000    0.000    0.000 
#
# Total GULP energy -83633.710605 kJ/mol
# GULP energy per Si atom -5575.580707 kJ/mol
# Density = 2.077517 g / cm^3
# Si number density = 20.822564 Si / 1000 Ang^3
#
#
#
# Elastic Constant Matrix: (Units=GPa)
#
#
# Indices 1 2 3 4 5 6 
#
# 1 68.6443 22.6658 10.2535 -8.8153 -11.1670 0.3194
# 2 22.6658 80.7075 17.8111 -5.0182 -20.3201 0.0814
# 3 10.2535 17.8111 63.4481 3.0296 -2.8842 -0.6014
# 4 -8.8153 -5.0182 3.0296 21.5230 -2.5674 -0.6224
# 5 -11.1670 -20.3201 -2.8842 -2.5674 38.9669 4.1834
# 6 0.3194 0.0814 -0.6014 -0.6224 4.1834 27.6937
#
#
#
# Elastic Compliance Matrix: (Units=1/GPa)
#
#
# Indices 1 2 3 4 5 6 
#
# 1 0.017427 -0.003016 -0.002145 0.007171 0.003805 -0.000652
# 2 -0.003016 0.016306 -0.003941 0.004010 0.007738 -0.001177
# 3 -0.002145 -0.003941 0.017352 -0.004431 -0.001739 0.000576
# 4 0.007171 0.004010 -0.004431 0.051819 0.007245 -0.000121
# 5 0.003805 0.007738 -0.001739 0.007245 0.031644 -0.004722
# 6 -0.000652 -0.001177 0.000576 -0.000121 -0.004722 0.036843
#
#
# Mechanical properties :
#
#
# Convention : Reuss Voigt Hill
#
# Bulk Modulus (GPa) = 30.41339 34.91786 32.66563
# Shear Modulus (GPa) = 24.93079 28.44136 26.68607
#
# Velocity S-wave (km/s) = 3.46395 3.69981 3.58382
# Velocity P-wave (km/s) = 5.53501 5.92090 5.73120
#
# Compressibility (1/GPa) = 0.03288026
#
# Stress axis : x y z
#
# Youngs Moduli (GPa) = 57.38143 61.32782 57.63084
#
# Poissons Ratio (x) = 0.18498 0.12363
# Poissons Ratio (y) = 0.17308 0.22711
# Poissons Ratio (z) = 0.12310 0.24168
#
# Static dielectric constant tensor:
#      x y z
#    x 1.716620 -0.011550 0.018900 
#    y -0.011550 1.752220 0.005890 
#    z 0.018900 0.005890 1.741630 
# 
# From -- ./inp_files/255678.got.cif
#   From: 2010.05.17/outbox.cif.g08.bks.cpg/sg2_128_cif.got.tgz:255678.got - 2010.06.03 11:33:40.
