data_PCOD9023408
_publ_section_title
;
Structure prediction by ZEFSAII (Michael W. Deem and Ramdas Pophale) SiO2 
 PCOD9023408
Probable space group: P -1
;
_chemical_formula_sum "Si O2"
_cell_formula_units_Z 15
_cell_length_a 5.217259
_cell_length_b 17.733814
_cell_length_c 9.623088
_cell_angle_alpha 129.598570
_cell_angle_beta 91.242259
_cell_angle_gamma 61.092339
_cell_volume 543.716804
_symmetry_space_group_name_H-M "P -1"
_symmetry_group_IT_number 2
_symmetry_cell_setting 'triclinic'
loop_
_space_group_symop_operation_xyz
x,y,z
-x,-y,-z
loop_
_atom_site_type_symbol
_atom_site_label
_atom_site_fract_x
_atom_site_fract_y
_atom_site_fract_z
Si Si1 0.718776 0.268125 0.064959
Si Si2 0.277304 0.552917 0.922037
Si Si3 0.708963 0.715375 0.269098
Si Si4 0.500000 0.500000 0.500000
Si Si5 0.665572 0.082797 0.684505
Si Si6 0.861108 0.339022 0.522814
Si Si7 0.889064 0.137216 0.408879
Si Si8 0.217628 0.021840 0.932455
O O1 0.773779 0.330731 0.013247
O O2 0.505563 0.383601 0.301283
O O3 0.604555 0.193446 0.906112
O O4 0.035773 0.152501 0.008136
O O5 0.476025 0.450072 0.683005
O O6 0.500000 0.500000 0.000000
O O7 0.926075 0.603150 0.031885
O O8 0.623051 0.838333 0.335842
O O9 0.356652 0.757547 0.357899
O O10 0.919108 0.674241 0.363892
O O11 0.870603 0.393056 0.442820
O O12 0.000000 0.000000 0.500000
O O13 0.758918 0.977016 0.669384
O O14 0.907223 0.212941 0.378424
O O15 0.703226 0.080966 0.300236
O O16 0.500000 0.000000 0.000000
O O17 0.000000 0.000000 0.000000
#
# Coordination Sequence:
#
# PCOD9023408 Si02
#       8
#     2   2   2   1   2   2   2   2
#     4  10  22  43  70 101 146 185 246 304 376 438
#     4   9  21  40  62  98 137 185 230 303 356 444
#     4  10  22  39  68  98 137 179 234 292 373 443
#     4  10  22  44  68  92 138 190 242 314 350 450
#     4   9  21  40  60 101 136 173 225 292 365 446
#     4  10  22  43  67  95 140 183 241 296 373 434
#     4  10  23  41  67 103 134 184 230 305 370 446
#     4  11  26  47  75 104 148 195 249 309 374 453
#
# _framework density 27.587893000000001
#
# number of rings (size 3 to 8) (size 9 to 14) (size 15 to 20)
#    0.000    2.133    0.000    0.800   11.200    3.200 
#    7.200    0.667    0.000    0.000    0.000    0.000 
#    0.000    0.000    0.000    0.000    0.000    0.000 
#
# Total GULP energy -83535.757849 kJ/mol
# GULP energy per Si atom -5569.050523 kJ/mol
# Density = 2.752510 g / cm^3
# Si number density = 27.587893 Si / 1000 Ang^3
#
#
#
# Elastic Constant Matrix: (Units=GPa)
#
#
# Indices 1 2 3 4 5 6 
#
# 1 73.7396 42.0433 44.9569 11.7888 2.6970 -1.0503
# 2 42.0433 211.4601 5.3426 42.3622 30.7304 -5.9092
# 3 44.9569 5.3426 160.1922 19.2863 19.7088 -0.8119
# 4 11.7888 42.3622 19.2863 59.1468 2.2260 11.7839
# 5 2.6970 30.7304 19.7088 2.2260 53.9865 3.9941
# 6 -1.0503 -5.9092 -0.8119 11.7839 3.9941 27.3283
#
#
#
# Elastic Compliance Matrix: (Units=1/GPa)
#
#
# Indices 1 2 3 4 5 6 
#
# 1 0.019438 -0.004651 -0.005983 0.001599 0.003921 -0.001699
# 2 -0.004651 0.007728 0.002458 -0.006211 -0.005178 0.005000
# 3 -0.005983 0.002458 0.008859 -0.003863 -0.004387 0.002872
# 4 0.001599 -0.006211 -0.003863 0.024652 0.004791 -0.012726
# 5 0.003921 -0.005178 -0.004387 0.004791 0.023163 -0.006551
# 6 -0.001699 0.005000 0.002872 -0.012726 -0.006551 0.044138
#
#
# Mechanical properties :
#
#
# Convention : Reuss Voigt Hill
#
# Bulk Modulus (GPa) = 50.83536 70.00859 60.42198
# Shear Modulus (GPa) = 33.13692 51.62892 42.38292
#
# Velocity S-wave (km/s) = 3.46951 4.33070 3.92380
# Velocity P-wave (km/s) = 5.87509 7.10199 6.51747
#
# Compressibility (1/GPa) = 0.01967135
#
# Stress axis : x y z
#
# Youngs Moduli (GPa) = 51.44614 129.39884 112.87642
#
# Poissons Ratio (x) = 0.60184 0.67539
# Poissons Ratio (y) = 0.23928 -0.27741
# Poissons Ratio (z) = 0.30783 -0.31802
#
# Static dielectric constant tensor:
#      x y z
#    x 1.669970 -0.782880 0.090590 
#    y -0.782880 0.965470 0.115400 
#    z 0.090590 0.115400 2.308990 
# 
# From -- ./inp_files/370131.got.cif
#   From: 2010.05.17/outbox.cif.g08.bks.cpg/sg2_186_cif.got.tgz:370131.got - 2010.06.03 11:33:40.
