data_PCOD9023118
_publ_section_title
;
Structure prediction by ZEFSAII (Michael W. Deem and Ramdas Pophale) SiO2 
 PCOD9023118
Probable space group: P -1
;
_chemical_formula_sum "Si O2"
_cell_formula_units_Z 12
_cell_length_a 9.611341
_cell_length_b 11.803536
_cell_length_c 6.863528
_cell_angle_alpha 55.997630
_cell_angle_beta 83.287994
_cell_angle_gamma 102.451881
_cell_volume 602.601299
_symmetry_space_group_name_H-M "P -1"
_symmetry_group_IT_number 2
_symmetry_cell_setting 'triclinic'
loop_
_space_group_symop_operation_xyz
x,y,z
-x,-y,-z
loop_
_atom_site_type_symbol
_atom_site_label
_atom_site_fract_x
_atom_site_fract_y
_atom_site_fract_z
Si Si1 0.820674 0.318470 0.327416
Si Si2 0.783170 0.846303 0.151229
Si Si3 0.544439 0.169372 0.787662
Si Si4 0.978448 0.089450 0.606645
Si Si5 0.897294 0.603624 0.302671
Si Si6 0.214643 0.641568 0.155901
O O1 0.665703 0.224664 0.544488
O O2 0.932594 0.227019 0.415870
O O3 0.877238 0.474508 0.276072
O O4 0.791223 0.346711 0.083045
O O5 0.608967 0.804755 0.255546
O O6 0.818394 0.717170 0.157618
O O7 0.877471 0.870469 0.313490
O O8 0.847535 0.986527 0.866870
O O9 0.631471 0.258029 0.874885
O O10 0.500000 0.000000 0.000000
O O11 0.000000 0.000000 0.500000
O O12 0.825254 0.519017 0.592717
O O13 0.074420 0.685321 0.215910
#
# Coordination Sequence:
#
# PCOD9023118 Si02
#       6
#     2   2   2   2   2   2
#     4  11  23  42  67  94 125 166 212 253 311 373
#     4  11  24  42  61  92 130 159 211 258 308 371
#     4  11  24  41  62  91 131 171 197 255 322 368
#     4  11  24  39  65  94 121 165 212 261 303 361
#     4  10  22  42  67  91 125 168 207 260 308 362
#     4  10  22  39  66  93 124 164 210 251 310 370
#
# _framework density 19.913665000000002
#
# number of rings (size 3 to 8) (size 9 to 14) (size 15 to 20)
#    0.000    1.333    1.667    4.500    4.667    6.000 
#    0.000    1.667    0.000    0.000    0.000    0.000 
#    0.000    0.000    0.000    0.000    0.000    0.000 
#
# Total GULP energy -67054.965742 kJ/mol
# GULP energy per Si atom -5587.913812 kJ/mol
# Density = 1.986834 g / cm^3
# Si number density = 19.913665 Si / 1000 Ang^3
#
#
#
# Elastic Constant Matrix: (Units=GPa)
#
#
# Indices 1 2 3 4 5 6 
#
# 1 132.9511 53.1517 15.2920 0.5617 -0.7664 16.9803
# 2 53.1517 117.5765 50.7521 9.9389 6.2898 3.7152
# 3 15.2920 50.7521 96.2299 23.8520 14.3170 18.5618
# 4 0.5617 9.9389 23.8520 33.8982 2.3360 5.7941
# 5 -0.7664 6.2898 14.3170 2.3360 26.3889 -6.5044
# 6 16.9803 3.7152 18.5618 5.7941 -6.5044 35.1001
#
#
#
# Elastic Compliance Matrix: (Units=1/GPa)
#
#
# Indices 1 2 3 4 5 6 
#
# 1 0.010178 -0.005445 0.002380 0.000861 -0.001248 -0.005979
# 2 -0.005445 0.014152 -0.008199 0.000559 0.002299 0.005806
# 3 0.002380 -0.008199 0.020575 -0.009342 -0.011196 -0.011697
# 4 0.000861 0.000559 -0.009342 0.035999 0.001477 -0.001204
# 5 -0.001248 0.002299 -0.011196 0.001477 0.046883 0.014725
# 6 -0.005979 0.005806 -0.011697 -0.001204 0.014725 0.039881
#
#
# Mechanical properties :
#
#
# Convention : Reuss Voigt Hill
#
# Bulk Modulus (GPa) = 44.68998 65.01657 54.85328
# Shear Modulus (GPa) = 25.29638 34.24822 29.77230
#
# Velocity S-wave (km/s) = 3.56800 4.15159 3.87081
# Velocity P-wave (km/s) = 6.28210 7.46331 6.89803
#
# Compressibility (1/GPa) = 0.02237638
#
# Stress axis : x y z
#
# Youngs Moduli (GPa) = 98.25482 70.66030 48.60201
#
# Poissons Ratio (x) = 0.38477 -0.11568
# Poissons Ratio (y) = 0.53504 0.39849
# Poissons Ratio (z) = -0.23386 0.57935
#
# Static dielectric constant tensor:
#      x y z
#    x 1.693420 -0.000730 0.003180 
#    y -0.000730 1.731380 0.006750 
#    z 0.003180 0.006750 1.705250 
# 
# From -- ./inp_files/26244.got.cif
#   From: 2010.05.17/outbox.cif.g08.bks.cpg/sg2_14_cif.got.tgz:26244.got - 2010.06.03 11:33:40.
