data_PCOD9023815
_publ_section_title
;
Structure prediction by ZEFSAII (Michael W. Deem and Ramdas Pophale) SiO2 
 PCOD9023815
Probable space group: P -1
;
_chemical_formula_sum "Si O2"
_cell_formula_units_Z 16
_cell_length_a 13.052977
_cell_length_b 12.801441
_cell_length_c 11.423158
_cell_angle_alpha 42.587901
_cell_angle_beta 98.592815
_cell_angle_gamma 64.323985
_cell_volume 745.570044
_symmetry_space_group_name_H-M "P -1"
_symmetry_group_IT_number 2
_symmetry_cell_setting 'triclinic'
loop_
_space_group_symop_operation_xyz
x,y,z
-x,-y,-z
loop_
_atom_site_type_symbol
_atom_site_label
_atom_site_fract_x
_atom_site_fract_y
_atom_site_fract_z
Si Si1 0.925823 0.717710 0.217835
Si Si2 0.548817 0.036804 0.862993
Si Si3 0.054975 0.805292 0.337040
Si Si4 0.526027 0.572986 0.558736
Si Si5 0.270291 0.870316 0.853895
Si Si6 0.607248 0.659855 0.086823
Si Si7 0.813452 0.158423 0.380858
Si Si8 0.128777 0.060567 0.192156
O O1 0.984467 0.810158 0.205155
O O2 0.000000 0.500000 0.500000
O O3 0.717848 0.934506 0.011529
O O4 0.958428 0.696844 0.100493
O O5 0.415952 0.325760 0.553107
O O6 0.599346 0.854383 0.919830
O O7 0.500000 0.000000 0.000000
O O8 0.262138 0.523654 0.628674
O O9 0.039603 0.006336 0.183737
O O10 0.936708 0.861665 0.370098
O O11 0.500000 0.500000 0.500000
O O12 0.660722 0.334908 0.869127
O O13 0.335567 0.807711 0.397473
O O14 0.405266 0.848243 0.910823
O O15 0.283997 0.791520 0.789985
O O16 0.699735 0.434367 0.194076
O O17 0.859297 0.971348 0.639453
O O18 0.000000 0.000000 0.500000
#
# Coordination Sequence:
#
# PCOD9023815 Si02
#       8
#     2   2   2   2   2   2   2   2
#     4  11  22  37  64  90 132 178 206 265 350 397
#     4  11  24  41  61  94 141 172 215 271 341 403
#     4  11  21  39  65  99 131 167 224 270 338 397
#     4  11  23  40  67 100 132 174 224 272 337 410
#     4  12  22  41  71  96 126 179 225 274 336 389
#     4  11  22  41  65  95 134 171 218 284 329 384
#     4  11  22  43  70  98 128 176 236 280 319 396
#     4  10  22  40  61  95 132 165 222 278 322 383
#
# _framework density 21.460090000000001
#
# number of rings (size 3 to 8) (size 9 to 14) (size 15 to 20)
#    0.000    1.000    6.250    3.750    0.000    1.000 
#    0.000    0.625    0.000    3.750    0.000    0.000 
#    0.000    0.000    0.000    0.000    0.000    0.000 
#
# Total GULP energy -89209.218664 kJ/mol
# GULP energy per Si atom -5575.576167 kJ/mol
# Density = 2.141125 g / cm^3
# Si number density = 21.460090 Si / 1000 Ang^3
#
#
#
# Elastic Constant Matrix: (Units=GPa)
#
#
# Indices 1 2 3 4 5 6 
#
# 1 82.9865 17.5291 33.0737 13.3567 10.2137 1.7371
# 2 17.5291 89.6847 28.0900 30.2448 -6.7968 -2.9244
# 3 33.0737 28.0900 83.4961 33.7668 -13.2026 6.0055
# 4 13.3567 30.2448 33.7668 37.9452 -5.0946 2.1522
# 5 10.2137 -6.7968 -13.2026 -5.0946 45.8745 1.7151
# 6 1.7371 -2.9244 6.0055 2.1522 1.7151 38.8213
#
#
#
# Elastic Compliance Matrix: (Units=1/GPa)
#
#
# Indices 1 2 3 4 5 6 
#
# 1 0.015726 -0.001728 -0.007150 0.001418 -0.005674 0.000444
# 2 -0.001728 0.015609 0.000432 -0.012131 0.001407 0.001797
# 3 -0.007150 0.000432 0.022765 -0.017084 0.006404 -0.002505
# 4 0.001418 -0.012131 -0.017084 0.050604 -0.001370 -0.001079
# 5 -0.005674 0.001407 0.006404 -0.001370 0.025024 -0.001660
# 6 0.000444 0.001797 -0.002505 -0.001079 -0.001660 0.026395
#
#
# Mechanical properties :
#
#
# Convention : Reuss Voigt Hill
#
# Bulk Modulus (GPa) = 26.87581 45.95033 36.41307
# Shear Modulus (GPa) = 26.96631 36.35983 31.66307
#
# Velocity S-wave (km/s) = 3.54867 4.12065 3.84531
# Velocity P-wave (km/s) = 5.41679 6.64065 6.05969
#
# Compressibility (1/GPa) = 0.03720819
#
# Stress axis : x y z
#
# Youngs Moduli (GPa) = 63.59009 64.06765 43.92628
#
# Poissons Ratio (x) = 0.11069 0.31409
# Poissons Ratio (y) = 0.10986 -0.01899
# Poissons Ratio (z) = 0.45469 -0.02770
#
# Static dielectric constant tensor:
#      x y z
#    x 1.807970 -0.018620 -0.026490 
#    y -0.018620 1.844240 -0.037180 
#    z -0.026490 -0.037180 1.903850 
# 
# From -- ./inp_files/433724.got.cif
#   From: 2010.05.17/outbox.cif.g08.bks.cpg/sg2_217_cif.got.tgz:433724.got - 2010.06.03 11:33:40.
