data_PCOD9023144
_publ_section_title
;
Structure prediction by ZEFSAII (Michael W. Deem and Ramdas Pophale) SiO2 
 PCOD9023144
Probable space group: P -1
;
_chemical_formula_sum "Si O2"
_cell_formula_units_Z 16
_cell_length_a 5.370019
_cell_length_b 17.657975
_cell_length_c 18.506192
_cell_angle_alpha 28.501154
_cell_angle_beta 129.832586
_cell_angle_gamma 134.008896
_cell_volume 599.955025
_symmetry_space_group_name_H-M "P -1"
_symmetry_group_IT_number 2
_symmetry_cell_setting 'triclinic'
loop_
_space_group_symop_operation_xyz
x,y,z
-x,-y,-z
loop_
_atom_site_type_symbol
_atom_site_label
_atom_site_fract_x
_atom_site_fract_y
_atom_site_fract_z
Si Si1 0.270544 0.545582 0.234667
Si Si2 0.192859 0.172194 0.973600
Si Si3 0.634323 0.322372 0.699838
Si Si4 0.754041 0.343295 0.480474
Si Si5 0.519099 0.206587 0.402710
Si Si6 0.571808 0.937424 0.233565
Si Si7 0.234767 0.802240 0.705117
Si Si8 0.825256 0.755624 0.933900
O O1 0.436855 0.641586 0.260866
O O2 0.412049 0.391397 0.390058
O O3 0.493878 0.648300 0.122069
O O4 0.931333 0.595968 0.111656
O O5 0.118428 0.134057 0.075152
O O6 0.342995 0.043913 0.071807
O O7 0.883545 0.215181 0.846607
O O8 0.372992 0.201264 0.694629
O O9 0.884051 0.504572 0.560966
O O10 0.768151 0.315153 0.420873
O O11 0.661261 0.176748 0.650485
O O12 0.705497 0.234176 0.336987
O O13 0.163546 0.244826 0.306582
O O14 0.408166 0.007965 0.570348
O O15 0.907063 0.095575 0.191829
O O16 0.446906 0.714449 0.865976
#
# Coordination Sequence:
#
# PCOD9023144 Si02
#       8
#     2   2   2   2   2   2   2   2
#     4   9  22  40  62  86 135 171 216 263 335 389
#     4   9  20  39  63  88 127 167 222 271 327 379
#     4  10  22  41  60  89 132 176 214 268 327 397
#     4  11  24  40  63  92 134 173 215 271 332 396
#     4  10  24  41  69  99 133 172 217 276 341 390
#     4  11  23  36  64  97 124 170 224 269 326 392
#     4  10  23  42  69 100 132 168 221 279 334 395
#     4  10  22  39  66  95 127 168 218 276 324 393
#
# _framework density 26.668666999999999
#
# number of rings (size 3 to 8) (size 9 to 14) (size 15 to 20)
#    0.000    2.000    0.000    1.500   10.500    8.000 
#    0.000    1.250    0.000    0.000    0.000    0.000 
#    0.000    0.000    0.000    0.000    0.000    0.000 
#
# Total GULP energy -89375.150831 kJ/mol
# GULP energy per Si atom -5585.946927 kJ/mol
# Density = 2.660797 g / cm^3
# Si number density = 26.668667 Si / 1000 Ang^3
#
#
#
# Elastic Constant Matrix: (Units=GPa)
#
#
# Indices 1 2 3 4 5 6 
#
# 1 128.4483 65.7476 43.9195 41.6618 7.5915 -35.2282
# 2 65.7476 166.5392 69.2742 66.4570 0.1551 -70.5187
# 3 43.9195 69.2742 134.7664 41.4010 -0.2355 -20.2689
# 4 41.6618 66.4570 41.4010 83.4197 -8.3221 -43.3931
# 5 7.5915 0.1551 -0.2355 -8.3221 41.8126 5.7015
# 6 -35.2282 -70.5187 -20.2689 -43.3931 5.7015 78.5513
#
#
#
# Elastic Compliance Matrix: (Units=1/GPa)
#
#
# Indices 1 2 3 4 5 6 
#
# 1 0.010673 -0.001988 -0.001466 -0.002551 -0.002638 0.001406
# 2 -0.001988 0.013283 -0.003854 -0.003578 -0.001537 0.008173
# 3 -0.001466 -0.003854 0.010306 -0.002890 0.000182 -0.003068
# 4 -0.002551 -0.003578 -0.002890 0.021230 0.003820 0.006349
# 5 -0.002638 -0.001537 0.000182 0.003820 0.025470 -0.002254
# 6 0.001406 0.008173 -0.003068 0.006349 -0.002254 0.023578
#
#
# Mechanical properties :
#
#
# Convention : Reuss Voigt Hill
#
# Bulk Modulus (GPa) = 50.90287 87.51514 69.20900
# Shear Modulus (GPa) = 39.77631 57.47757 48.62694
#
# Velocity S-wave (km/s) = 3.86618 4.64750 4.27473
# Velocity P-wave (km/s) = 6.24967 7.85404 7.09734
#
# Compressibility (1/GPa) = 0.01964526
#
# Stress axis : x y z
#
# Youngs Moduli (GPa) = 93.69505 75.28593 97.03275
#
# Poissons Ratio (x) = 0.14968 0.14223
# Poissons Ratio (y) = 0.18629 0.37397
# Poissons Ratio (z) = 0.13734 0.29016
#
# Static dielectric constant tensor:
#      x y z
#    x 2.081120 0.061120 0.019390 
#    y 0.061120 2.218770 -0.072500 
#    z 0.019390 -0.072500 2.093900 
# 
# From -- ./inp_files/550547.got.cif
#   From: 2010.05.17/outbox.cif.g08.bks.cpg/sg2_276_cif.got.tgz:550547.got - 2010.06.03 11:33:40.
