data_PCOD9023563
_publ_section_title
;
Structure prediction by ZEFSAII (Michael W. Deem and Ramdas Pophale) SiO2 
 PCOD9023563
Probable space group: P -1
;
_chemical_formula_sum "Si O2"
_cell_formula_units_Z 16
_cell_length_a 15.111548
_cell_length_b 25.548523
_cell_length_c 9.311003
_cell_angle_alpha 132.725870
_cell_angle_beta 37.645019
_cell_angle_gamma 158.954445
_cell_volume 757.861739
_symmetry_space_group_name_H-M "P -1"
_symmetry_group_IT_number 2
_symmetry_cell_setting 'triclinic'
loop_
_space_group_symop_operation_xyz
x,y,z
-x,-y,-z
loop_
_atom_site_type_symbol
_atom_site_label
_atom_site_fract_x
_atom_site_fract_y
_atom_site_fract_z
Si Si1 0.019007 0.115451 0.995345
Si Si2 0.320036 0.678111 0.898943
Si Si3 0.064066 0.840961 0.552650
Si Si4 0.787663 0.769279 0.496677
Si Si5 0.303044 0.360732 0.893910
Si Si6 0.672382 0.885154 0.549941
Si Si7 0.292423 0.810053 0.679473
Si Si8 0.708086 0.194716 0.655432
O O1 0.202732 0.254781 0.932954
O O2 0.121982 0.084183 0.742176
O O3 0.062859 0.147957 0.169277
O O4 0.658540 0.978305 0.184682
O O5 0.563966 0.734544 0.773175
O O6 0.493059 0.769006 0.694376
O O7 0.249907 0.723649 0.139037
O O8 0.000000 0.500000 0.000000
O O9 0.083304 0.780469 0.516299
O O10 0.881451 0.758628 0.486401
O O11 0.418276 0.010959 0.373618
O O12 0.609472 0.647667 0.375569
O O13 0.099512 0.950206 0.387844
O O14 0.500000 0.500000 0.000000
O O15 0.012950 0.279996 0.056619
O O16 0.416340 0.805784 0.623225
O O17 0.232478 0.757504 0.496221
#
# Coordination Sequence:
#
# PCOD9023563 Si02
#       8
#     2   2   2   2   2   2   2   2
#     4  11  20  43  69  97 133 176 227 267 331 394
#     4  12  27  43  63  97 140 177 216 280 340 393
#     4  10  22  39  72 104 129 167 225 285 323 384
#     4  11  25  44  71 101 131 178 227 272 333 391
#     4  12  25  43  64  92 137 183 221 270 332 404
#     4  11  24  44  73 100 129 176 230 278 322 398
#     4  10  23  40  68 102 127 172 222 277 330 386
#     4  11  21  41  69  98 137 172 221 278 331 388
#
# _framework density 21.112030000000001
#
# number of rings (size 3 to 8) (size 9 to 14) (size 15 to 20)
#    0.000    1.000    5.000    1.875    5.250    2.500 
#    2.250    2.500    0.000    0.000    0.000    0.000 
#    0.000    0.000    0.000    0.000    0.000    0.000 
#
# Total GULP energy -89223.813406 kJ/mol
# GULP energy per Si atom -5576.488338 kJ/mol
# Density = 2.106398 g / cm^3
# Si number density = 21.112030 Si / 1000 Ang^3
#
#
#
# Elastic Constant Matrix: (Units=GPa)
#
#
# Indices 1 2 3 4 5 6 
#
# 1 98.1708 23.3167 11.4092 2.4411 -12.1630 17.9652
# 2 23.3167 75.0385 16.5153 18.6587 10.7588 4.5032
# 3 11.4092 16.5153 63.7779 17.2635 -11.5921 4.6618
# 4 2.4411 18.6587 17.2635 31.8725 0.7595 -3.7066
# 5 -12.1630 10.7588 -11.5921 0.7595 28.7087 2.5227
# 6 17.9652 4.5032 4.6618 -3.7066 2.5227 13.2642
#
#
#
# Elastic Compliance Matrix: (Units=1/GPa)
#
#
# Indices 1 2 3 4 5 6 
#
# 1 0.017911 -0.005878 0.003740 -0.003443 0.013779 -0.027161
# 2 -0.005878 0.019585 -0.004072 -0.008230 -0.011487 0.002628
# 3 0.003740 -0.004072 0.023650 -0.013209 0.014632 -0.018469
# 4 -0.003443 -0.008230 -0.013209 0.046876 -0.007284 0.026585
# 5 0.013779 -0.011487 0.014632 -0.007284 0.053905 -0.032193
# 6 -0.027161 0.002628 -0.018469 0.026585 -0.032193 0.131328
#
#
# Mechanical properties :
#
#
# Convention : Reuss Voigt Hill
#
# Bulk Modulus (GPa) = 20.52353 37.71883 29.12118
# Shear Modulus (GPa) = 15.53191 27.15215 21.34203
#
# Velocity S-wave (km/s) = 2.71530 3.59011 3.18291
# Velocity P-wave (km/s) = 4.42412 5.92368 5.22795
#
# Compressibility (1/GPa) = 0.04872457
#
# Stress axis : x y z
#
# Youngs Moduli (GPa) = 55.83184 51.05952 42.28380
#
# Poissons Ratio (x) = 0.30013 -0.15813
# Poissons Ratio (y) = 0.32818 0.17220
# Poissons Ratio (z) = -0.20880 0.20793
#
# Static dielectric constant tensor:
#      x y z
#    x 1.753270 0.003830 0.033140 
#    y 0.003830 1.971100 -0.017310 
#    z 0.033140 -0.017310 1.793980 
# 
# From -- ./inp_files/320706.got.cif
#   From: 2010.05.17/outbox.cif.g08.bks.cpg/sg2_161_cif.got.tgz:320706.got - 2010.06.03 11:33:40.
