data_PCOD9023071
_publ_section_title
;
Structure prediction by ZEFSAII (Michael W. Deem and Ramdas Pophale) SiO2 
 PCOD9023071
Probable space group: P -1
;
_chemical_formula_sum "Si O2"
_cell_formula_units_Z 14
_cell_length_a 8.684982
_cell_length_b 11.272506
_cell_length_c 11.790518
_cell_angle_alpha 128.364186
_cell_angle_beta 117.562630
_cell_angle_gamma 41.695916
_cell_volume 602.033179
_symmetry_space_group_name_H-M "P -1"
_symmetry_group_IT_number 2
_symmetry_cell_setting 'triclinic'
loop_
_space_group_symop_operation_xyz
x,y,z
-x,-y,-z
loop_
_atom_site_type_symbol
_atom_site_label
_atom_site_fract_x
_atom_site_fract_y
_atom_site_fract_z
Si Si1 0.860696 0.628691 0.252332
Si Si2 0.850088 0.146737 0.708448
Si Si3 0.689947 0.043060 0.377900
Si Si4 0.913679 0.411025 0.342994
Si Si5 0.691000 0.513508 0.546276
Si Si6 0.373836 0.458197 0.022405
Si Si7 0.810155 0.027478 0.875611
O O1 0.770209 0.577162 0.295331
O O2 0.099058 0.569234 0.344066
O O3 0.697823 0.862184 0.303964
O O4 0.848528 0.508404 0.079266
O O5 0.755537 0.095506 0.546081
O O6 0.708803 0.385216 0.812973
O O7 0.826766 0.078550 0.781836
O O8 0.111353 0.036594 0.694448
O O9 0.449877 0.250704 0.379383
O O10 0.783181 0.397393 0.388077
O O11 0.000000 0.500000 0.500000
O O12 0.109856 0.192179 0.228644
O O13 0.500000 0.500000 0.500000
O O14 0.500000 0.500000 0.000000
O O15 0.569107 0.218487 0.962183
O O16 0.000000 0.000000 0.000000
#
# Coordination Sequence:
#
# PCOD9023071 Si02
#       7
#     2   2   2   2   2   2   2
#     4  11  25  45  67 110 140 185 246 293 354 430
#     4  10  22  46  68 105 140 191 241 291 364 430
#     4  11  24  43  75 102 147 185 239 298 358 425
#     4  10  22  39  66 101 138 173 241 292 339 422
#     4  11  24  43  71 106 146 189 235 296 360 422
#     4  10  24  44  69  96 148 186 235 297 357 421
#     4  11  23  41  71 103 136 189 241 291 358 425
#
# _framework density 23.254532000000001
#
# number of rings (size 3 to 8) (size 9 to 14) (size 15 to 20)
#    0.000    1.429    0.000    6.000   10.000    1.143 
#    2.571    0.714    0.000    0.000    0.000    0.000 
#    0.000    0.000    0.000    0.000    0.000    0.000 
#
# Total GULP energy -78168.141094 kJ/mol
# GULP energy per Si atom -5583.438650 kJ/mol
# Density = 2.320160 g / cm^3
# Si number density = 23.254532 Si / 1000 Ang^3
#
#
#
# Elastic Constant Matrix: (Units=GPa)
#
#
# Indices 1 2 3 4 5 6 
#
# 1 66.5904 19.3927 31.4317 1.1249 13.7936 -4.8416
# 2 19.3927 120.4064 25.2205 24.9399 18.2694 0.3695
# 3 31.4317 25.2205 111.3654 21.0828 28.9902 -2.9523
# 4 1.1249 24.9399 21.0828 48.0441 -2.5727 4.5049
# 5 13.7936 18.2694 28.9902 -2.5727 40.6994 3.5251
# 6 -4.8416 0.3695 -2.9523 4.5049 3.5251 35.2247
#
#
#
# Elastic Compliance Matrix: (Units=1/GPa)
#
#
# Indices 1 2 3 4 5 6 
#
# 1 0.018332 -0.002200 -0.004556 0.002412 -0.002006 0.002053
# 2 -0.002200 0.010515 0.000695 -0.006062 -0.004932 0.000914
# 3 -0.004556 0.000695 0.013952 -0.007101 -0.009361 0.002381
# 4 0.002412 -0.006062 -0.007101 0.027949 0.009135 -0.004689
# 5 -0.002006 -0.004932 -0.009361 0.009135 0.035203 -0.005700
# 6 0.002053 0.000914 0.002381 -0.004689 -0.005700 0.030031
#
#
# Mechanical properties :
#
#
# Convention : Reuss Voigt Hill
#
# Bulk Modulus (GPa) = 32.59606 50.05024 41.32315
# Shear Modulus (GPa) = 31.57940 39.61481 35.59710
#
# Velocity S-wave (km/s) = 3.68909 4.13186 3.91674
# Velocity P-wave (km/s) = 5.67392 6.65827 6.18571
#
# Compressibility (1/GPa) = 0.03067855
#
# Stress axis : x y z
#
# Youngs Moduli (GPa) = 54.54838 95.10204 71.67296
#
# Poissons Ratio (x) = 0.20921 0.32654
# Poissons Ratio (y) = 0.12000 -0.04984
# Poissons Ratio (z) = 0.24852 -0.06613
#
# Static dielectric constant tensor:
#      x y z
#    x 2.282310 -0.106070 -0.060420 
#    y -0.106070 1.991180 -0.000070 
#    z -0.060420 -0.000070 1.886520 
# 
# From -- ./inp_files/393160.got.cif
#   From: 2010.05.17/outbox.cif.g08.bks.cpg/sg2_197_cif.got.tgz:393160.got - 2010.06.03 11:33:40.
