data_PCOD9023249
_publ_section_title
;
Structure prediction by ZEFSAII (Michael W. Deem and Ramdas Pophale) SiO2 
 PCOD9023249
Probable space group: P -1
;
_chemical_formula_sum "Si O2"
_cell_formula_units_Z 14
_cell_length_a 9.105533
_cell_length_b 11.536340
_cell_length_c 11.351487
_cell_angle_alpha 125.795130
_cell_angle_beta 82.388685
_cell_angle_gamma 131.808738
_cell_volume 652.276745
_symmetry_space_group_name_H-M "P -1"
_symmetry_group_IT_number 2
_symmetry_cell_setting 'triclinic'
loop_
_space_group_symop_operation_xyz
x,y,z
-x,-y,-z
loop_
_atom_site_type_symbol
_atom_site_label
_atom_site_fract_x
_atom_site_fract_y
_atom_site_fract_z
Si Si1 0.392368 0.606554 0.757875
Si Si2 0.837228 0.756029 0.840652
Si Si3 0.339456 0.775899 0.066732
Si Si4 0.893928 0.635425 0.003233
Si Si5 0.184272 0.511142 0.471724
Si Si6 0.014872 0.160371 0.657739
Si Si7 0.471061 0.063385 0.420669
O O1 0.604574 0.658264 0.772832
O O2 0.321270 0.591304 0.624438
O O3 0.184496 0.379293 0.700640
O O4 0.432479 0.771391 0.936002
O O5 0.908509 0.704045 0.694490
O O6 0.822793 0.647431 0.893967
O O7 0.000000 0.000000 0.000000
O O8 0.128150 0.721351 0.021673
O O9 0.494633 0.981544 0.253226
O O10 0.258558 0.590980 0.052649
O O11 0.910747 0.779346 0.178598
O O12 0.355902 0.689115 0.463060
O O13 0.000000 0.500000 0.500000
O O14 0.000000 0.000000 0.500000
O O15 0.775300 0.056924 0.623338
O O16 0.500000 0.000000 0.500000
#
# Coordination Sequence:
#
# PCOD9023249 Si02
#       7
#     2   2   2   2   2   2   2
#     4  11  25  43  67 101 137 175 224 282 344 401
#     4  12  28  42  67  99 146 182 221 278 346 410
#     4   9  20  40  70  94 129 174 231 281 330 395
#     4   9  20  41  63  96 131 174 224 277 329 398
#     4  12  27  46  70  99 139 179 230 283 333 414
#     4  10  22  39  67  93 129 173 219 274 331 400
#     4  11  23  40  70  97 130 173 226 281 335 395
#
# _framework density 21.463283000000001
#
# number of rings (size 3 to 8) (size 9 to 14) (size 15 to 20)
#    0.000    1.429    0.000    4.714    8.000    4.000 
#    0.000    0.000    0.000    0.000    0.000    0.000 
#    0.000    0.000    0.000    0.000    0.000    0.000 
#
# Total GULP energy -78291.424655 kJ/mol
# GULP energy per Si atom -5592.244618 kJ/mol
# Density = 2.141443 g / cm^3
# Si number density = 21.463283 Si / 1000 Ang^3
#
#
#
# Elastic Constant Matrix: (Units=GPa)
#
#
# Indices 1 2 3 4 5 6 
#
# 1 122.0741 39.6889 62.7214 -17.1091 4.6472 -6.0014
# 2 39.6889 69.0657 32.5485 -6.1569 13.7694 -5.8554
# 3 62.7214 32.5485 166.5798 -13.7506 -20.7912 -17.4455
# 4 -17.1091 -6.1569 -13.7506 41.1552 -2.4380 11.9580
# 5 4.6472 13.7694 -20.7912 -2.4380 44.0776 -9.0031
# 6 -6.0014 -5.8554 -17.4455 11.9580 -9.0031 32.8656
#
#
#
# Elastic Compliance Matrix: (Units=1/GPa)
#
#
# Indices 1 2 3 4 5 6 
#
# 1 0.012166 -0.004656 -0.003880 0.003689 -0.001975 -0.002551
# 2 -0.004656 0.020072 -0.003223 -0.000170 -0.007509 -0.000980
# 3 -0.003880 -0.003223 0.009576 -0.000162 0.007110 0.005807
# 4 0.003689 -0.000170 -0.000162 0.028636 -0.000893 -0.010106
# 5 -0.001975 -0.007509 0.007110 -0.000893 0.030757 0.010826
# 6 -0.002551 -0.000980 0.005807 -0.010106 0.010826 0.039512
#
#
# Mechanical properties :
#
#
# Convention : Reuss Voigt Hill
#
# Bulk Modulus (GPa) = 54.65654 69.73747 62.19700
# Shear Modulus (GPa) = 29.35383 38.47042 33.91212
#
# Velocity S-wave (km/s) = 3.70216 4.23825 3.97924
# Velocity P-wave (km/s) = 6.61778 7.51747 7.08193
#
# Compressibility (1/GPa) = 0.01829607
#
# Stress axis : x y z
#
# Youngs Moduli (GPa) = 82.19614 49.81996 104.42755
#
# Poissons Ratio (x) = 0.23197 0.40520
# Poissons Ratio (y) = 0.38272 0.33654
# Poissons Ratio (z) = 0.31894 0.16055
#
# Static dielectric constant tensor:
#      x y z
#    x 1.748180 -0.016150 -0.024160 
#    y -0.016150 1.754660 -0.008890 
#    z -0.024160 -0.008890 1.824150 
# 
# From -- ./inp_files/237629.got.cif
#   From: 2010.05.17/outbox.cif.g08.bks.cpg/sg2_119_cif.got.tgz:237629.got - 2010.06.03 11:33:40.
