data_PCOD9023999
_publ_section_title
;
Structure prediction by ZEFSAII (Michael W. Deem and Ramdas Pophale) SiO2 
 PCOD9023999
Probable space group: P -1
;
_chemical_formula_sum "Si O2"
_cell_formula_units_Z 16
_cell_length_a 16.887894
_cell_length_b 14.007028
_cell_length_c 14.385671
_cell_angle_alpha 139.513320
_cell_angle_beta 155.474272
_cell_angle_gamma 27.163088
_cell_volume 623.047083
_symmetry_space_group_name_H-M "P -1"
_symmetry_group_IT_number 2
_symmetry_cell_setting 'triclinic'
loop_
_space_group_symop_operation_xyz
x,y,z
-x,-y,-z
loop_
_atom_site_type_symbol
_atom_site_label
_atom_site_fract_x
_atom_site_fract_y
_atom_site_fract_z
Si Si1 0.268543 0.027045 0.224786
Si Si2 0.824076 0.445988 0.969879
Si Si3 0.132089 0.792891 0.899627
Si Si4 0.059965 0.900444 0.634906
Si Si5 0.358627 0.362876 0.872981
Si Si6 0.290491 0.196792 0.999932
Si Si7 0.740431 0.313482 0.508149
Si Si8 0.738995 0.905400 0.418495
O O1 0.004503 0.146229 0.099480
O O2 0.500000 0.000000 0.500000
O O3 0.126519 0.198831 0.117337
O O4 0.337596 0.816364 0.126598
O O5 0.585420 0.467568 0.693478
O O6 0.756276 0.548391 0.077485
O O7 0.789614 0.601133 0.978421
O O8 0.275483 0.552686 0.866269
O O9 0.862618 0.948194 0.657962
O O10 0.192070 0.802371 0.603402
O O11 0.972044 0.794562 0.504506
O O12 0.306699 0.829930 0.904698
O O13 0.798659 0.155993 0.530877
O O14 0.264347 0.255082 0.661302
O O15 0.992764 0.285170 0.764284
O O16 0.500000 0.000000 0.000000
O O17 0.458037 0.097272 0.202688
#
# Coordination Sequence:
#
# PCOD9023999 Si02
#       8
#     2   2   2   2   2   2   2   2
#     4  10  24  49  69  79 106 156 217 265 300 344
#     4  10  20  35  62  89 111 157 206 244 294 350
#     4  10  25  42  61  88 117 155 209 255 296 349
#     4  10  18  29  54  84 127 163 189 223 282 359
#     4  10  20  35  56  90 128 161 190 234 296 363
#     4  12  18  32  57  93 132 161 191 225 297 366
#     4  10  17  31  52  87 127 158 193 230 278 355
#     4  12  21  34  57  93 133 159 186 240 298 366
#
# _framework density 25.680242
#
# number of rings (size 3 to 8) (size 9 to 14) (size 15 to 20)
#    0.000    1.500    5.000    1.125    0.000    7.500 
#    0.000    0.625    0.000    1.500    0.000    0.000 
#    0.000    0.000    0.000    0.000    0.000    0.000 
#
# Total GULP energy -89366.445909 kJ/mol
# GULP energy per Si atom -5585.402869 kJ/mol
# Density = 2.562179 g / cm^3
# Si number density = 25.680242 Si / 1000 Ang^3
#
#
#
# Elastic Constant Matrix: (Units=GPa)
#
#
# Indices 1 2 3 4 5 6 
#
# 1 52.1257 43.5990 7.7939 13.8726 -0.3838 18.0822
# 2 43.5990 121.4482 67.3361 3.3021 6.9111 32.1275
# 3 7.7939 67.3361 166.1330 17.6692 15.3881 38.7418
# 4 13.8726 3.3021 17.6692 31.9945 14.4078 -2.8901
# 5 -0.3838 6.9111 15.3881 14.4078 38.4470 7.6786
# 6 18.0822 32.1275 38.7418 -2.8901 7.6786 42.9597
#
#
#
# Elastic Compliance Matrix: (Units=1/GPa)
#
#
# Indices 1 2 3 4 5 6 
#
# 1 0.054236 -0.020421 0.014506 -0.040324 0.018854 -0.026721
# 2 -0.020421 0.019296 -0.008881 0.015172 -0.006680 0.004389
# 3 0.014506 -0.008881 0.013345 -0.016314 0.005215 -0.013529
# 4 -0.040324 0.015172 -0.016314 0.072370 -0.029819 0.030537
# 5 0.018854 -0.006680 0.005215 -0.029819 0.039835 -0.016770
# 6 -0.026721 0.004389 -0.013529 0.030537 -0.016770 0.048495
#
#
# Mechanical properties :
#
#
# Convention : Reuss Voigt Hill
#
# Bulk Modulus (GPa) = 17.45662 64.12944 40.79303
# Shear Modulus (GPa) = 16.87689 37.41209 27.14449
#
# Velocity S-wave (km/s) = 2.56636 3.82100 3.25471
# Velocity P-wave (km/s) = 3.94893 6.67033 5.48121
#
# Compressibility (1/GPa) = 0.05728484
#
# Stress axis : x y z
#
# Youngs Moduli (GPa) = 18.43797 51.82527 74.93304
#
# Poissons Ratio (x) = 1.05832 -1.08699
# Poissons Ratio (y) = 0.37652 0.66549
# Poissons Ratio (z) = -0.26746 0.46027
#
# Static dielectric constant tensor:
#      x y z
#    x 2.120270 -0.044790 0.009560 
#    y -0.044790 2.107270 0.021220 
#    z 0.009560 0.021220 2.049720 
# 
# From -- ./inp_files/578219.got.cif
#   From: 2010.05.17/outbox.cif.g08.bks.cpg/sg2_290_cif.got.tgz:578219.got - 2010.06.03 11:33:40.
