data_PCOD9023083
_publ_section_title
;
Structure prediction by ZEFSAII (Michael W. Deem and Ramdas Pophale) SiO2 
 PCOD9023083
Probable space group: P -1
;
_chemical_formula_sum "Si O2"
_cell_formula_units_Z 12
_cell_length_a 13.140870
_cell_length_b 8.806045
_cell_length_c 9.433232
_cell_angle_alpha 35.640194
_cell_angle_beta 55.756074
_cell_angle_gamma 45.453753
_cell_volume 453.246362
_symmetry_space_group_name_H-M "P -1"
_symmetry_group_IT_number 2
_symmetry_cell_setting 'triclinic'
loop_
_space_group_symop_operation_xyz
x,y,z
-x,-y,-z
loop_
_atom_site_type_symbol
_atom_site_label
_atom_site_fract_x
_atom_site_fract_y
_atom_site_fract_z
Si Si1 0.022094 0.786328 0.862997
Si Si2 0.016559 0.576332 0.586942
Si Si3 0.254110 0.666603 0.297092
Si Si4 0.305853 0.512242 0.753957
Si Si5 0.518862 0.200992 0.592507
Si Si6 0.374013 0.446762 0.085587
O O1 0.142981 0.589367 0.803041
O O2 0.056003 0.060251 0.637742
O O3 0.037370 0.572656 0.143840
O O4 0.851923 0.000397 0.812573
O O5 0.000000 0.500000 0.500000
O O6 0.183486 0.471162 0.552584
O O7 0.412912 0.495182 0.359628
O O8 0.251870 0.654103 0.137474
O O9 0.419131 0.234096 0.779656
O O10 0.348906 0.763589 0.489070
O O11 0.328567 0.493627 0.920741
O O12 0.571120 0.908853 0.676881
O O13 0.500000 0.500000 0.000000
#
# Coordination Sequence:
#
# PCOD9023083 Si02
#       6
#     2   2   2   2   2   2
#     4  10  25  41  70 104 139 190 236 298 363 422
#     4  10  22  39  66 104 143 178 235 300 361 420
#     4  10  25  41  72 102 141 180 249 299 354 425
#     4  11  26  45  70  99 148 190 239 293 366 439
#     4  11  26  47  66 104 144 193 237 293 365 436
#     4  12  25  41  73 106 138 186 241 303 356 428
#
# _framework density 26.475667999999999
#
# number of rings (size 3 to 8) (size 9 to 14) (size 15 to 20)
#    1.000    0.333    1.667    2.500    9.333    0.667 
#    0.000    0.833    0.000    0.000    0.000    0.000 
#    0.000    0.000    0.000    0.000    0.000    0.000 
#
# Total GULP energy -66934.653344 kJ/mol
# GULP energy per Si atom -5577.887779 kJ/mol
# Density = 2.641541 g / cm^3
# Si number density = 26.475668 Si / 1000 Ang^3
#
#
#
# Elastic Constant Matrix: (Units=GPa)
#
#
# Indices 1 2 3 4 5 6 
#
# 1 63.4495 43.6518 32.5404 7.4845 4.3485 0.3936
# 2 43.6518 102.8764 41.1191 14.0325 -5.1953 -8.8593
# 3 32.5404 41.1191 126.6856 13.5202 8.2576 -12.4471
# 4 7.4845 14.0325 13.5202 62.1147 7.0335 -8.1721
# 5 4.3485 -5.1953 8.2576 7.0335 40.6211 17.9997
# 6 0.3936 -8.8593 -12.4471 -8.1721 17.9997 37.9294
#
#
#
# Elastic Compliance Matrix: (Units=1/GPa)
#
#
# Indices 1 2 3 4 5 6 
#
# 1 0.023885 -0.009105 -0.003292 -0.000242 -0.001844 -0.002632
# 2 -0.009105 0.015100 -0.002496 -0.002067 0.003453 0.000718
# 3 -0.003292 -0.002496 0.010306 -0.000189 -0.004137 0.004756
# 4 -0.000242 -0.002067 -0.000189 0.018156 -0.006125 0.006276
# 5 -0.001844 0.003453 -0.004137 -0.006125 0.035429 -0.018664
# 6 -0.002632 0.000718 0.004756 0.006276 -0.018664 0.038330
#
#
# Mechanical properties :
#
#
# Convention : Reuss Voigt Hill
#
# Bulk Modulus (GPa) = 51.27330 58.62600 54.94965
# Shear Modulus (GPa) = 28.17000 39.84638 34.00819
#
# Velocity S-wave (km/s) = 3.26543 3.88367 3.58789
# Velocity P-wave (km/s) = 5.79876 6.50399 6.16148
#
# Compressibility (1/GPa) = 0.01950333
#
# Stress axis : x y z
#
# Youngs Moduli (GPa) = 41.86805 66.22579 97.02739
#
# Poissons Ratio (x) = 0.60302 0.31943
# Poissons Ratio (y) = 0.38123 0.24219
# Poissons Ratio (z) = 0.13784 0.16531
#
# Static dielectric constant tensor:
#      x y z
#    x 2.183630 -0.107320 0.026350 
#    y -0.107320 2.149440 0.029490 
#    z 0.026350 0.029490 2.122660 
# 
# From -- ./inp_files/182098.got.cif
#   From: 2010.05.17/outbox.cif.g08.bks.cpg/sg2_92_cif.got.tgz:182098.got - 2010.06.03 11:33:40.
