data_PCOD9023358
_publ_section_title
;
Structure prediction by ZEFSAII (Michael W. Deem and Ramdas Pophale) SiO2 
 PCOD9023358
Probable space group: P -1
;
_chemical_formula_sum "Si O2"
_cell_formula_units_Z 16
_cell_length_a 10.818562
_cell_length_b 11.304836
_cell_length_c 14.338041
_cell_angle_alpha 67.645871
_cell_angle_beta 130.755956
_cell_angle_gamma 143.379570
_cell_volume 751.258864
_symmetry_space_group_name_H-M "P -1"
_symmetry_group_IT_number 2
_symmetry_cell_setting 'triclinic'
loop_
_space_group_symop_operation_xyz
x,y,z
-x,-y,-z
loop_
_atom_site_type_symbol
_atom_site_label
_atom_site_fract_x
_atom_site_fract_y
_atom_site_fract_z
Si Si1 0.443595 0.034308 0.563002
Si Si2 0.322178 0.383500 0.355996
Si Si3 0.983181 0.286476 0.938422
Si Si4 0.289355 0.462407 0.858769
Si Si5 0.987189 0.963417 0.394533
Si Si6 0.405150 0.833547 0.785059
Si Si7 0.479732 0.471556 0.770718
Si Si8 0.107892 0.513234 0.247841
O O1 0.684669 0.279107 0.645246
O O2 0.500000 0.000000 0.500000
O O3 0.187758 0.971327 0.463762
O O4 0.397406 0.894564 0.660608
O O5 0.500000 0.500000 0.500000
O O6 0.473319 0.418258 0.332053
O O7 0.241947 0.479337 0.271241
O O8 0.077660 0.143352 0.330065
O O9 0.035293 0.287270 0.853138
O O10 0.993549 0.446046 0.889223
O O11 0.233512 0.382666 0.087365
O O12 0.694665 0.059516 0.896789
O O13 0.391824 0.671278 0.838303
O O14 0.284011 0.414220 0.765397
O O15 0.500000 0.500000 0.000000
O O16 0.687130 0.750771 0.280931
O O17 0.000000 0.000000 0.500000
O O18 0.135167 0.698404 0.749043
#
# Coordination Sequence:
#
# PCOD9023358 Si02
#       8
#     2   2   2   2   2   2   2   2
#     4  11  25  39  65 100 135 174 230 278 334 408
#     4  12  24  42  65  93 129 178 227 270 325 404
#     4   9  22  44  65 100 132 167 221 278 338 403
#     4   9  21  40  65  96 133 165 219 271 331 401
#     4  12  25  44  66  92 140 180 224 275 336 397
#     4  10  22  39  68  90 136 176 207 277 349 380
#     4  11  25  40  67  95 129 175 221 275 334 400
#     4  10  22  44  66  92 134 171 222 277 332 402
#
# _framework density 21.297584000000001
#
# number of rings (size 3 to 8) (size 9 to 14) (size 15 to 20)
#    0.000    1.500    2.500    0.750    7.000    7.000 
#    0.000    1.250    0.000    0.000    0.000    0.000 
#    0.000    0.000    0.000    0.000    0.000    0.000 
#
# Total GULP energy -89145.097006 kJ/mol
# GULP energy per Si atom -5571.568563 kJ/mol
# Density = 2.124911 g / cm^3
# Si number density = 21.297584 Si / 1000 Ang^3
#
#
#
# Elastic Constant Matrix: (Units=GPa)
#
#
# Indices 1 2 3 4 5 6 
#
# 1 109.9825 31.1690 29.5464 -2.6582 -5.4020 12.3378
# 2 31.1690 131.0550 15.1378 10.9974 -12.9410 27.1645
# 3 29.5464 15.1378 47.0234 8.0403 -2.1827 6.8580
# 4 -2.6582 10.9974 8.0403 34.7441 1.6910 9.1275
# 5 -5.4020 -12.9410 -2.1827 1.6910 37.0708 -6.6436
# 6 12.3378 27.1645 6.8580 9.1275 -6.6436 33.0439
#
#
#
# Elastic Compliance Matrix: (Units=1/GPa)
#
#
# Indices 1 2 3 4 5 6 
#
# 1 0.011908 -0.001793 -0.007185 0.003800 0.000062 -0.002518
# 2 -0.001793 0.009797 -0.000745 -0.001480 0.002033 -0.006412
# 3 -0.007185 -0.000745 0.027225 -0.006520 0.000513 -0.000451
# 4 0.003800 -0.001480 -0.006520 0.033531 -0.003455 -0.008805
# 5 0.000062 0.002033 0.000513 -0.003455 0.028767 0.004937
# 6 -0.002518 -0.006412 -0.000451 -0.008805 0.004937 0.039993
#
#
# Mechanical properties :
#
#
# Convention : Reuss Voigt Hill
#
# Bulk Modulus (GPa) = 33.91539 48.86301 41.38920
# Shear Modulus (GPa) = 27.70193 35.11895 31.41044
#
# Velocity S-wave (km/s) = 3.61044 4.06515 3.84453
# Velocity P-wave (km/s) = 5.77404 6.71019 6.25964
#
# Compressibility (1/GPa) = 0.02948514
#
# Stress axis : x y z
#
# Youngs Moduli (GPa) = 83.97747 102.07336 36.73159
#
# Poissons Ratio (x) = 0.18302 0.26390
# Poissons Ratio (y) = 0.15057 0.02735
# Poissons Ratio (z) = 0.60334 0.07600
#
# Static dielectric constant tensor:
#      x y z
#    x 1.826430 -0.046000 -0.006860 
#    y -0.046000 1.627330 0.034230 
#    z -0.006860 0.034230 1.808580 
# 
# From -- ./inp_files/518866.got.cif
#   From: 2010.05.17/outbox.cif.g08.bks.cpg/sg2_260_cif.got.tgz:518866.got - 2010.06.03 11:33:40.
