data_PCOD9023021
_publ_section_title
;
Structure prediction by ZEFSAII (Michael W. Deem and Ramdas Pophale) SiO2 
 PCOD9023021
Probable space group: P -1
;
_chemical_formula_sum "Si O2"
_cell_formula_units_Z 14
_cell_length_a 11.726488
_cell_length_b 10.207662
_cell_length_c 11.033586
_cell_angle_alpha 137.379419
_cell_angle_beta 144.287101
_cell_angle_gamma 59.252615
_cell_volume 509.459750
_symmetry_space_group_name_H-M "P -1"
_symmetry_group_IT_number 2
_symmetry_cell_setting 'triclinic'
loop_
_space_group_symop_operation_xyz
x,y,z
-x,-y,-z
loop_
_atom_site_type_symbol
_atom_site_label
_atom_site_fract_x
_atom_site_fract_y
_atom_site_fract_z
Si Si1 0.866951 0.780844 0.136003
Si Si2 0.725825 0.428540 0.947933
Si Si3 0.703574 0.479552 0.596774
Si Si4 0.699260 0.531581 0.343998
Si Si5 0.098130 0.776488 0.825593
Si Si6 0.288555 0.975185 0.666206
Si Si7 0.475769 0.055038 0.375035
O O1 0.061030 0.956156 0.410978
O O2 0.691691 0.890767 0.104137
O O3 0.851503 0.622110 0.124210
O O4 0.856536 0.646137 0.917021
O O5 0.534197 0.473366 0.886161
O O6 0.617199 0.272982 0.647788
O O7 0.856854 0.324342 0.077301
O O8 0.500000 0.500000 0.500000
O O9 0.704089 0.530525 0.492096
O O10 0.717363 0.252537 0.464348
O O11 0.799141 0.352870 0.265941
O O12 0.859856 0.727191 0.568576
O O13 0.237670 0.996795 0.101600
O O14 0.432818 0.046804 0.726957
O O15 0.500000 0.000000 0.500000
#
# Coordination Sequence:
#
# PCOD9023021 Si02
#       7
#     2   2   2   2   2   2   2
#     4  11  24  42  70 102 128 179 220 277 344 390
#     4  11  21  44  67  95 133 174 223 279 335 392
#     4  12  24  43  66  98 138 172 218 280 340 396
#     4  11  23  42  66  97 128 177 222 270 341 396
#     4  10  24  42  67  94 131 177 224 277 330 396
#     4  11  24  43  69  99 133 174 230 274 335 404
#     4  10  22  39  65  97 130 178 221 276 329 394
#
# _framework density 27.480090000000001
#
# number of rings (size 3 to 8) (size 9 to 14) (size 15 to 20)
#    0.000    1.143    2.857    2.571    4.000    2.286 
#    2.571    2.857    0.000    0.000    0.000    0.000 
#    0.000    0.000    0.000    0.000    0.000    0.000 
#
# Total GULP energy -78318.214478 kJ/mol
# GULP energy per Si atom -5594.158177 kJ/mol
# Density = 2.741754 g / cm^3
# Si number density = 27.480090 Si / 1000 Ang^3
#
#
#
# Elastic Constant Matrix: (Units=GPa)
#
#
# Indices 1 2 3 4 5 6 
#
# 1 108.4506 15.9813 14.8859 5.6951 19.0750 -0.0632
# 2 15.9813 65.4705 1.4916 17.2036 -5.9245 -6.0265
# 3 14.8859 1.4916 112.0633 24.0550 21.2741 8.0781
# 4 5.6951 17.2036 24.0550 36.8314 -13.8126 -4.9188
# 5 19.0750 -5.9245 21.2741 -13.8126 60.3742 5.2610
# 6 -0.0632 -6.0265 8.0781 -4.9188 5.2610 32.1357
#
#
#
# Elastic Compliance Matrix: (Units=1/GPa)
#
#
# Indices 1 2 3 4 5 6 
#
# 1 0.010376 -0.002413 -0.000240 -0.001759 -0.003832 -0.000014
# 2 -0.002413 0.018435 0.002125 -0.009613 -0.000510 0.001530
# 3 -0.000240 0.002125 0.013251 -0.012723 -0.006970 -0.003739
# 4 -0.001759 -0.009613 -0.012723 0.046358 0.014164 0.006169
# 5 -0.003832 -0.000510 -0.006970 0.014164 0.023422 -0.000018
# 6 -0.000014 0.001530 -0.003739 0.006169 -0.000018 0.033292
#
#
# Mechanical properties :
#
#
# Convention : Reuss Voigt Hill
#
# Bulk Modulus (GPa) = 24.38686 38.96689 31.67688
# Shear Modulus (GPa) = 31.27771 42.77664 37.02717
#
# Velocity S-wave (km/s) = 3.37737 3.94971 3.67470
# Velocity P-wave (km/s) = 4.90943 5.91702 5.43662
#
# Compressibility (1/GPa) = 0.04100569
#
# Stress axis : x y z
#
# Youngs Moduli (GPa) = 96.37979 54.24395 75.46666
#
# Poissons Ratio (x) = 0.13089 0.01812
# Poissons Ratio (y) = 0.23256 -0.16037
# Poissons Ratio (z) = 0.02314 -0.11527
#
# Static dielectric constant tensor:
#      x y z
#    x 2.162800 -0.066440 -0.041440 
#    y -0.066440 2.175860 -0.035210 
#    z -0.041440 -0.035210 2.311160 
# 
# From -- ./inp_files/276474.got.cif
#   From: 2010.05.17/outbox.cif.g08.bks.cpg/sg2_139_cif.got.tgz:276474.got - 2010.06.03 11:33:40.
