data_PCOD9023429
_publ_section_title
;
Structure prediction by ZEFSAII (Michael W. Deem and Ramdas Pophale) SiO2 
 PCOD9023429
Probable space group: P -1
;
_chemical_formula_sum "Si O2"
_cell_formula_units_Z 13
_cell_length_a 11.422758
_cell_length_b 9.558866
_cell_length_c 11.030502
_cell_angle_alpha 30.140159
_cell_angle_beta 125.518417
_cell_angle_gamma 129.083576
_cell_volume 467.446457
_symmetry_space_group_name_H-M "P -1"
_symmetry_group_IT_number 2
_symmetry_cell_setting 'triclinic'
loop_
_space_group_symop_operation_xyz
x,y,z
-x,-y,-z
loop_
_atom_site_type_symbol
_atom_site_label
_atom_site_fract_x
_atom_site_fract_y
_atom_site_fract_z
Si Si1 0.346222 0.021387 0.455284
Si Si2 0.095843 0.657150 0.744306
Si Si3 0.342722 0.612607 0.082996
Si Si4 0.600390 0.951399 0.830422
Si Si5 0.196859 0.394861 0.501071
Si Si6 0.500000 0.500000 0.500000
Si Si7 0.822659 0.585687 0.257774
O O1 0.225368 0.934780 0.559638
O O2 0.496364 0.960529 0.643915
O O3 0.248305 0.764885 0.501969
O O4 0.369396 0.360720 0.198670
O O5 0.088056 0.405766 0.821660
O O6 0.933934 0.699124 0.605998
O O7 0.172822 0.604743 0.954133
O O8 0.384081 0.531975 0.299898
O O9 0.472408 0.899888 0.896366
O O10 0.725894 0.253503 0.712956
O O11 0.686474 0.714409 0.053379
O O12 0.349580 0.314892 0.634621
O O13 0.119926 0.297164 0.661633
#
# Coordination Sequence:
#
# PCOD9023429 Si02
#       7
#     2   2   2   2   2   1   2
#     4   9  21  40  66  96 133 170 211 277 313 395
#     4   9  25  42  68  98 138 165 217 267 343 383
#     4  11  23  47  64 100 127 181 219 266 332 378
#     4  11  21  38  67  99 131 174 214 262 331 382
#     4  12  25  44  65 104 130 177 216 271 323 387
#     4  12  26  46  72  86 136 172 234 270 308 398
#     4  10  22  39  69 100 136 168 214 267 334 390
#
# _framework density 27.810669999999998
#
# number of rings (size 3 to 8) (size 9 to 14) (size 15 to 20)
#    0.923    0.615    3.077    0.923    2.154    4.308 
#    0.000    0.769    0.000    0.000    0.000    0.000 
#    0.000    0.000    0.000    0.000    0.000    0.000 
#
# Total GULP energy -72376.722734 kJ/mol
# GULP energy per Si atom -5567.440210 kJ/mol
# Density = 2.774737 g / cm^3
# Si number density = 27.810670 Si / 1000 Ang^3
#
#
#
# Elastic Constant Matrix: (Units=GPa)
#
#
# Indices 1 2 3 4 5 6 
#
# 1 64.4002 23.6492 10.3694 16.7014 25.8029 3.7749
# 2 23.6492 105.3780 62.8127 47.8843 20.5707 3.8645
# 3 10.3694 62.8127 49.4830 51.4586 -17.0257 23.8223
# 4 16.7014 47.8843 51.4586 65.5817 -7.6931 15.0152
# 5 25.8029 20.5707 -17.0257 -7.6931 33.6659 33.6573
# 6 3.7749 3.8645 23.8223 15.0152 33.6573 34.5778
#
#
#
# Elastic Compliance Matrix: (Units=1/GPa)
#
#
# Indices 1 2 3 4 5 6 
#
# 1 0.022157 -0.007091 0.017366 -0.014967 -0.007347 0.000060
# 2 -0.007091 0.009341 0.001431 -0.002104 0.011629 -0.011662
# 3 0.017366 0.001431 0.032219 -0.041194 -0.034991 0.027694
# 4 -0.014967 -0.002104 -0.041194 0.058638 0.020036 -0.014716
# 5 -0.007347 0.011629 -0.034991 0.020036 0.007684 0.007430
# 6 0.000060 -0.011662 0.027694 -0.014716 0.007430 0.010296
#
#
# Mechanical properties :
#
#
# Convention : Reuss Voigt Hill
#
# Bulk Modulus (GPa) = 11.47706 45.88045 28.67875
# Shear Modulus (GPa) = 34.25442 34.92707 34.59075
#
# Velocity S-wave (km/s) = 3.51337 3.54769 3.53057
# Velocity P-wave (km/s) = 4.53808 5.77189 5.19177
#
# Compressibility (1/GPa) = 0.08713031
#
# Stress axis : x y z
#
# Youngs Moduli (GPa) = 45.13212 107.05019 31.03727
#
# Poissons Ratio (x) = 0.75910 -0.53899
# Poissons Ratio (y) = 0.32003 -0.04442
# Poissons Ratio (z) = -0.78376 -0.15321
#
# Static dielectric constant tensor:
#      x y z
#    x 2.390690 -0.183870 0.110590 
#    y -0.183870 2.134190 -0.139610 
#    z 0.110590 -0.139610 2.076780 
# 
# From -- ./inp_files/420285.got.cif
#   From: 2010.05.17/outbox.cif.g08.bks.cpg/sg2_211_cif.got.tgz:420285.got - 2010.06.03 11:33:40.
