data_PCOD9023149
_publ_section_title
;
Structure prediction by ZEFSAII (Michael W. Deem and Ramdas Pophale) SiO2 
 PCOD9023149
Probable space group: P -1
;
_chemical_formula_sum "Si O2"
_cell_formula_units_Z 14
_cell_length_a 9.463497
_cell_length_b 17.584454
_cell_length_c 9.182768
_cell_angle_alpha 64.436250
_cell_angle_beta 74.817139
_cell_angle_gamma 130.078688
_cell_volume 657.527890
_symmetry_space_group_name_H-M "P -1"
_symmetry_group_IT_number 2
_symmetry_cell_setting 'triclinic'
loop_
_space_group_symop_operation_xyz
x,y,z
-x,-y,-z
loop_
_atom_site_type_symbol
_atom_site_label
_atom_site_fract_x
_atom_site_fract_y
_atom_site_fract_z
Si Si1 0.374584 0.512956 0.424074
Si Si2 0.348872 0.178811 0.790957
Si Si3 0.093380 0.363587 0.122712
Si Si4 0.172186 0.718119 0.043909
Si Si5 0.107470 0.578264 0.745296
Si Si6 0.266401 0.340193 0.341678
Si Si7 0.359372 0.013901 0.095882
O O1 0.500000 0.500000 0.500000
O O2 0.562680 0.691754 0.253504
O O3 0.362465 0.471615 0.298495
O O4 0.048202 0.364840 0.699095
O O5 0.564541 0.283664 0.505436
O O6 0.437090 0.138016 0.886703
O O7 0.000000 0.000000 0.000000
O O8 0.145776 0.303525 0.244922
O O9 0.932084 0.341920 0.302497
O O10 0.432587 0.561835 0.835066
O O11 0.926476 0.287096 0.076767
O O12 0.113073 0.588395 0.154054
O O13 0.497755 0.905014 0.850128
O O14 0.000000 0.500000 0.000000
O O15 0.995183 0.167360 0.648056
O O16 0.500000 0.000000 0.000000
#
# Coordination Sequence:
#
# PCOD9023149 Si02
#       7
#     2   2   2   2   2   2   2
#     4  11  21  41  70  97 133 180 230 282 341 404
#     4  11  26  41  70 107 137 174 234 291 343 395
#     4  10  22  42  66  92 133 189 228 262 353 417
#     4  10  22  39  66  95 130 180 225 281 340 409
#     4   9  21  41  66  91 132 182 217 270 336 420
#     4  11  23  40  68  97 133 181 228 283 335 416
#     4  12  25  41  66 105 140 168 228 298 340 387
#
# _framework density 21.291874
#
# number of rings (size 3 to 8) (size 9 to 14) (size 15 to 20)
#    0.000    1.429    2.857    1.714    6.000    1.714 
#    0.000    6.429    0.000    0.000    0.000    0.000 
#    0.000    0.000    0.000    0.000    0.000    0.000 
#
# Total GULP energy -78095.541551 kJ/mol
# GULP energy per Si atom -5578.252968 kJ/mol
# Density = 2.124341 g / cm^3
# Si number density = 21.291874 Si / 1000 Ang^3
#
#
#
# Elastic Constant Matrix: (Units=GPa)
#
#
# Indices 1 2 3 4 5 6 
#
# 1 82.7349 33.3133 20.2855 -3.7982 10.2453 3.1421
# 2 33.3133 98.6597 38.0721 -9.8813 -9.1473 3.2081
# 3 20.2855 38.0721 97.1933 -6.6296 -8.3089 -7.6604
# 4 -3.7982 -9.8813 -6.6296 32.9449 2.7347 0.0930
# 5 10.2453 -9.1473 -8.3089 2.7347 42.6812 7.2780
# 6 3.1421 3.2081 -7.6604 0.0930 7.2780 34.8271
#
#
#
# Elastic Compliance Matrix: (Units=1/GPa)
#
#
# Indices 1 2 3 4 5 6 
#
# 1 0.015098 -0.004874 -0.001662 0.000358 -0.004974 -0.000240
# 2 -0.004874 0.014082 -0.004217 0.002518 0.003641 -0.002552
# 3 -0.001662 -0.004217 0.012713 0.000978 0.001389 0.003042
# 4 0.000358 0.002518 0.000978 0.031463 -0.001399 0.000159
# 5 -0.004974 0.003641 0.001389 -0.001399 0.026641 -0.005145
# 6 -0.000240 -0.002552 0.003042 0.000159 -0.005145 0.030714
#
#
# Mechanical properties :
#
#
# Convention : Reuss Voigt Hill
#
# Bulk Modulus (GPa) = 49.05102 51.32551 50.18826
# Shear Modulus (GPa) = 31.44418 34.55178 32.99798
#
# Velocity S-wave (km/s) = 3.84711 4.03273 3.94101
# Velocity P-wave (km/s) = 6.54378 6.77066 6.65819
#
# Compressibility (1/GPa) = 0.02038694
#
# Stress axis : x y z
#
# Youngs Moduli (GPa) = 66.23190 71.01370 78.66268
#
# Poissons Ratio (x) = 0.34616 0.13071
# Poissons Ratio (y) = 0.32285 0.33171
# Poissons Ratio (z) = 0.11005 0.29945
#
# Static dielectric constant tensor:
#      x y z
#    x 1.885650 -0.023880 0.028530 
#    y -0.023880 1.783990 0.011580 
#    z 0.028530 0.011580 1.791990 
# 
# From -- ./inp_files/217045.got.cif
#   From: 2010.05.17/outbox.cif.g08.bks.cpg/sg2_109_cif.got.tgz:217045.got - 2010.06.03 11:33:40.
