data_PCOD9023447
_publ_section_title
;
Structure prediction by ZEFSAII (Michael W. Deem and Ramdas Pophale) SiO2 
 PCOD9023447
Probable space group: P -1
;
_chemical_formula_sum "Si O2"
_cell_formula_units_Z 16
_cell_length_a 15.496738
_cell_length_b 5.263394
_cell_length_c 9.458112
_cell_angle_alpha 80.578777
_cell_angle_beta 86.370304
_cell_angle_gamma 79.863326
_cell_volume 748.697043
_symmetry_space_group_name_H-M "P -1"
_symmetry_group_IT_number 2
_symmetry_cell_setting 'triclinic'
loop_
_space_group_symop_operation_xyz
x,y,z
-x,-y,-z
loop_
_atom_site_type_symbol
_atom_site_label
_atom_site_fract_x
_atom_site_fract_y
_atom_site_fract_z
Si Si1 0.629554 0.149408 0.815975
Si Si2 0.124460 0.523673 0.201996
Si Si3 0.828429 0.131262 0.308223
Si Si4 0.520596 0.669817 0.845014
Si Si5 0.666237 0.033489 0.140204
Si Si6 0.950182 0.818823 0.116135
Si Si7 0.793556 0.593742 0.080557
Si Si8 0.811843 0.055909 0.647417
O O1 0.568354 0.429721 0.766208
O O2 0.711568 0.105531 0.707375
O O3 0.580206 0.895634 0.842083
O O4 0.664373 0.160289 0.972727
O O5 0.137301 0.751521 0.287592
O O6 0.024043 0.567816 0.155872
O O7 0.150413 0.243902 0.295920
O O8 0.189118 0.540529 0.059976
O O9 0.741932 0.077443 0.236795
O O10 0.833544 0.417053 0.222554
O O11 0.817425 0.111024 0.476290
O O12 0.913401 0.943702 0.256393
O O13 0.427447 0.844484 0.797017
O O14 0.500000 0.500000 0.000000
O O15 0.696033 0.727988 0.120965
O O16 0.860859 0.797698 0.044543
O O17 0.000000 0.000000 0.000000
#
# Coordination Sequence:
#
# PCOD9023447 Si02
#       8
#     2   2   2   2   2   2   2   2
#     4  11  22  42  68 100 138 171 225 278 339 399
#     4  12  25  45  73  95 137 183 231 274 340 400
#     4  11  27  43  68  98 141 178 226 279 337 406
#     4  10  22  39  69 106 131 167 226 291 326 393
#     4  10  22  40  69 100 128 175 226 276 335 391
#     4  11  24  44  70 104 131 172 235 290 332 392
#     4  11  23  42  72  98 132 177 229 282 334 404
#     4  12  28  46  66 101 141 187 221 273 344 411
#
# _framework density 21.370456999999998
#
# number of rings (size 3 to 8) (size 9 to 14) (size 15 to 20)
#    0.000    1.000    2.500    4.125   10.500    1.000 
#    0.000    1.250    0.000    0.000    0.000    0.000 
#    0.000    0.000    0.000    0.000    0.000    0.000 
#
# Total GULP energy -89289.317470 kJ/mol
# GULP energy per Si atom -5580.582342 kJ/mol
# Density = 2.132182 g / cm^3
# Si number density = 21.370457 Si / 1000 Ang^3
#
#
#
# Elastic Constant Matrix: (Units=GPa)
#
#
# Indices 1 2 3 4 5 6 
#
# 1 -33.8882 -8.1449 57.4474 13.5600 114.6730 44.8793
# 2 -8.1449 101.3409 45.2689 1.4993 52.1077 0.0574
# 3 57.4474 45.2689 114.5454 -2.9111 -33.4773 -14.5917
# 4 13.5600 1.4993 -2.9111 22.9265 -9.7721 -3.0535
# 5 114.6730 52.1077 -33.4773 -9.7721 -92.4516 -42.1936
# 6 44.8793 0.0574 -14.5917 -3.0535 -42.1936 29.1572
#
#
#
# Elastic Compliance Matrix: (Units=1/GPa)
#
#
# Indices 1 2 3 4 5 6 
#
# 1 0.012017 -0.005286 -0.000398 -0.001555 0.012549 -0.000689
# 2 -0.005286 0.011179 -0.001700 0.001960 -0.001960 0.004631
# 3 -0.000398 -0.001700 0.008307 -0.000419 -0.003959 -0.001000
# 4 -0.001555 0.001960 -0.000419 0.042199 -0.004905 -0.000499
# 5 0.012549 -0.001960 -0.003959 -0.004905 0.009364 -0.008256
# 6 -0.000689 0.004631 -0.001000 -0.000499 -0.008256 0.022847
#
#
# Mechanical properties :
#
#
# Convention : Reuss Voigt Hill
#
# Bulk Modulus (GPa) = 59.75366 41.23788 50.49577
# Shear Modulus (GPa) = 39.60170 -2.24513 18.67829
#
# Velocity S-wave (km/s) = 4.30944 -1.02609 2.95960
# Velocity P-wave (km/s) = 7.26521 4.23495 5.94634
#
# Compressibility (1/GPa) = 0.01673538
#
# Stress axis : x y z
#
# Youngs Moduli (GPa) = 83.21581 89.45515 120.38722
#
# Poissons Ratio (x) = 0.47282 0.04787
# Poissons Ratio (y) = 0.43984 0.20469
# Poissons Ratio (z) = 0.03309 0.15210
#
# Static dielectric constant tensor:
#      x y z
#    x 1.831840 -0.001380 0.017930 
#    y -0.001380 1.992290 -0.003450 
#    z 0.017930 -0.003450 1.742140 
# 
# From -- ./inp_files/288627.got.cif
#   From: 2010.05.17/outbox.cif.g08.bks.cpg/sg2_145_cif.got.tgz:288627.got - 2010.06.03 11:33:40.
