data_PCOD9023260
_publ_section_title
;
Structure prediction by ZEFSAII (Michael W. Deem and Ramdas Pophale) SiO2 
 PCOD9023260
Probable space group: P -1
;
_chemical_formula_sum "Si O2"
_cell_formula_units_Z 16
_cell_length_a 20.807157
_cell_length_b 8.905202
_cell_length_c 11.713932
_cell_angle_alpha 50.585571
_cell_angle_beta 131.368575
_cell_angle_gamma 150.790333
_cell_volume 784.860655
_symmetry_space_group_name_H-M "P -1"
_symmetry_group_IT_number 2
_symmetry_cell_setting 'triclinic'
loop_
_space_group_symop_operation_xyz
x,y,z
-x,-y,-z
loop_
_atom_site_type_symbol
_atom_site_label
_atom_site_fract_x
_atom_site_fract_y
_atom_site_fract_z
Si Si1 0.148523 0.232649 0.684403
Si Si2 0.979938 0.546423 0.828291
Si Si3 0.135343 0.601345 0.610236
Si Si4 0.773927 0.195670 0.129968
Si Si5 0.604871 0.547018 0.163519
Si Si6 0.719431 0.288228 0.595657
Si Si7 0.607395 0.146274 0.768661
Si Si8 0.422760 0.161810 0.551178
O O1 0.094672 0.319133 0.649403
O O2 0.282429 0.357972 0.830435
O O3 0.209997 0.431789 0.543265
O O4 0.038570 0.868106 0.724204
O O5 0.073132 0.577789 0.843917
O O6 0.822208 0.291175 0.738411
O O7 0.000000 0.500000 0.000000
O O8 0.202985 0.692464 0.769674
O O9 0.000000 0.500000 0.500000
O O10 0.267682 0.900100 0.545234
O O11 0.691462 0.842918 0.203907
O O12 0.696435 0.194469 0.947334
O O13 0.505167 0.199396 0.252253
O O14 0.500000 0.500000 0.000000
O O15 0.694764 0.345863 0.661196
O O16 0.598177 0.964639 0.539774
O O17 0.522732 0.171330 0.713913
O O18 0.500000 0.500000 0.500000
#
# Coordination Sequence:
#
# PCOD9023260 Si02
#       8
#     2   2   2   2   2   2   2   2
#     4  10  22  41  65  98 126 174 216 268 330 391
#     4  11  22  43  65 101 127 164 230 275 325 387
#     4  11  24  46  66  93 137 180 221 265 333 406
#     4  10  22  39  67  94 129 170 215 269 332 394
#     4   9  19  37  62  93 125 160 215 264 325 378
#     4  11  22  40  70  91 136 168 219 276 322 391
#     4  11  21  41  61  97 129 166 219 269 328 383
#     4  11  26  42  61  98 133 173 221 268 330 392
#
# _framework density 20.385784000000001
#
# number of rings (size 3 to 8) (size 9 to 14) (size 15 to 20)
#    0.000    1.500    3.750    2.250    1.750    3.500 
#    2.250    0.625    0.000    0.000    0.000    0.000 
#    0.000    0.000    0.000    0.000    0.000    0.000 
#
# Total GULP energy -89097.136667 kJ/mol
# GULP energy per Si atom -5568.571042 kJ/mol
# Density = 2.033939 g / cm^3
# Si number density = 20.385784 Si / 1000 Ang^3
#
#
#
# Elastic Constant Matrix: (Units=GPa)
#
#
# Indices 1 2 3 4 5 6 
#
# 1 101.9154 17.0470 47.9715 5.3591 18.4923 8.5931
# 2 17.0470 40.2357 32.1989 1.7815 6.8853 0.0796
# 3 47.9715 32.1989 90.3604 11.8377 12.6485 -7.2195
# 4 5.3591 1.7815 11.8377 32.3323 6.2147 13.1154
# 5 18.4923 6.8853 12.6485 6.2147 47.5001 8.5222
# 6 8.5931 0.0796 -7.2195 13.1154 8.5222 25.7173
#
#
#
# Elastic Compliance Matrix: (Units=1/GPa)
#
#
# Indices 1 2 3 4 5 6 
#
# 1 0.015106 0.001580 -0.009714 0.005377 -0.002487 -0.009698
# 2 0.001580 0.036169 -0.015044 0.006685 -0.001321 -0.007835
# 3 -0.009714 -0.015044 0.025118 -0.013651 -0.002174 0.018026
# 4 0.005377 0.006685 -0.013651 0.046618 -0.000263 -0.029337
# 5 -0.002487 -0.001321 -0.002174 -0.000263 0.024200 -0.007660
# 6 -0.009698 -0.007835 0.018026 -0.029337 -0.007660 0.064709
#
#
# Mechanical properties :
#
#
# Convention : Reuss Voigt Hill
#
# Bulk Modulus (GPa) = 33.29258 47.43849 40.36554
# Shear Modulus (GPa) = 18.63668 30.12955 24.38312
#
# Velocity S-wave (km/s) = 3.02685 3.84861 3.46220
# Velocity P-wave (km/s) = 5.34626 6.56277 5.98550
#
# Compressibility (1/GPa) = 0.03003672
#
# Stress axis : x y z
#
# Youngs Moduli (GPa) = 66.19762 27.64818 39.81276
#
# Poissons Ratio (x) = -0.04369 0.38674
# Poissons Ratio (y) = -0.10460 0.59895
# Poissons Ratio (z) = 0.64304 0.41594
#
# Static dielectric constant tensor:
#      x y z
#    x 1.820570 0.070050 0.007350 
#    y 0.070050 1.791630 0.012610 
#    z 0.007350 0.012610 1.800430 
# 
# From -- ./inp_files/469852.got.cif
#   From: 2010.05.17/outbox.cif.g08.bks.cpg/sg2_235_cif.got.tgz:469852.got - 2010.06.03 11:33:40.
