data_PCOD9023075
_publ_section_title
;
Structure prediction by ZEFSAII (Michael W. Deem and Ramdas Pophale) SiO2 
 PCOD9023075
Probable space group: P -1
;
_chemical_formula_sum "Si O2"
_cell_formula_units_Z 16
_cell_length_a 9.662971
_cell_length_b 12.054932
_cell_length_c 9.329769
_cell_angle_alpha 132.972380
_cell_angle_beta 93.004782
_cell_angle_gamma 98.098544
_cell_volume 770.548269
_symmetry_space_group_name_H-M "P -1"
_symmetry_group_IT_number 2
_symmetry_cell_setting 'triclinic'
loop_
_space_group_symop_operation_xyz
x,y,z
-x,-y,-z
loop_
_atom_site_type_symbol
_atom_site_label
_atom_site_fract_x
_atom_site_fract_y
_atom_site_fract_z
Si Si1 0.061289 0.907233 0.540818
Si Si2 0.739292 0.283898 0.557035
Si Si3 0.737968 0.316545 0.022476
Si Si4 0.075224 0.379877 0.078948
Si Si5 0.663205 0.088807 0.087838
Si Si6 0.874479 0.900330 0.000890
Si Si7 0.507733 0.326653 0.793396
Si Si8 0.791202 0.666050 0.267530
O O1 0.193464 0.833823 0.447179
O O2 0.923532 0.770396 0.451534
O O3 0.109179 0.022588 0.774421
O O4 0.000000 0.000000 0.500000
O O5 0.862607 0.443564 0.709718
O O6 0.707232 0.198042 0.327253
O O7 0.599637 0.324006 0.652948
O O8 0.603730 0.262103 0.858017
O O9 0.707112 0.204241 0.057887
O O10 0.740819 0.500752 0.200361
O O11 0.904184 0.329503 0.000082
O O12 0.116245 0.273150 0.113347
O O13 0.150824 0.364519 0.915869
O O14 0.738317 0.944139 0.964472
O O15 0.500000 0.000000 0.000000
O O16 0.000000 0.000000 0.000000
O O17 0.340527 0.252915 0.691632
O O18 0.500000 0.500000 0.000000
#
# Coordination Sequence:
#
# PCOD9023075 Si02
#       8
#     2   2   2   2   2   2   2   2
#     4  11  23  39  66  99 136 178 227 278 343 397
#     4  11  24  44  69 102 133 180 230 278 344 402
#     4  11  22  41  71  98 130 180 228 272 338 408
#     4  12  21  41  75  95 135 174 232 287 331 391
#     4  11  28  47  66  97 145 182 218 278 355 413
#     4  11  25  42  64  99 136 176 228 280 334 402
#     4  10  22  39  66 102 135 167 229 278 337 392
#     4  11  22  39  69 104 133 172 229 287 330 396
#
# _framework density 20.764437999999998
#
# number of rings (size 3 to 8) (size 9 to 14) (size 15 to 20)
#    0.000    1.000    6.250    1.125    1.750    2.500 
#    0.000    5.625    0.000    0.000    0.000    0.000 
#    0.000    0.000    0.000    0.000    0.000    0.000 
#
# Total GULP energy -89215.278887 kJ/mol
# GULP energy per Si atom -5575.954930 kJ/mol
# Density = 2.071718 g / cm^3
# Si number density = 20.764438 Si / 1000 Ang^3
#
#
#
# Elastic Constant Matrix: (Units=GPa)
#
#
# Indices 1 2 3 4 5 6 
#
# 1 165.5385 34.3029 9.8779 -4.3284 -1.7147 -22.0670
# 2 34.3029 124.5476 12.7246 -1.3112 -8.6788 -21.8625
# 3 9.8779 12.7246 21.5258 6.5153 -2.2122 -3.6419
# 4 -4.3284 -1.3112 6.5153 24.1285 -0.9177 2.8838
# 5 -1.7147 -8.6788 -2.2122 -0.9177 28.0363 2.1109
# 6 -22.0670 -21.8625 -3.6419 2.8838 2.1109 31.8023
#
#
#
# Elastic Compliance Matrix: (Units=1/GPa)
#
#
# Indices 1 2 3 4 5 6 
#
# 1 0.006924 -0.001015 -0.002395 0.001376 -0.000315 0.003728
# 2 -0.001015 0.009877 -0.004552 0.001034 0.002269 0.005319
# 3 -0.002395 -0.004552 0.055801 -0.016013 0.002104 0.002911
# 4 0.001376 0.001034 -0.016013 0.046643 0.001004 -0.004464
# 5 -0.000315 0.002269 0.002104 0.001004 0.036621 -0.000940
# 6 0.003728 0.005319 0.002911 -0.004464 -0.000940 0.038489
#
#
# Mechanical properties :
#
#
# Convention : Reuss Voigt Hill
#
# Bulk Modulus (GPa) = 17.64412 47.26921 32.45666
# Shear Modulus (GPa) = 21.81762 33.77385 27.79573
#
# Velocity S-wave (km/s) = 3.24500 4.03739 3.66269
# Velocity P-wave (km/s) = 4.74929 6.67443 5.79240
#
# Compressibility (1/GPa) = 0.05667611
#
# Stress axis : x y z
#
# Youngs Moduli (GPa) = 144.42690 101.24979 17.92068
#
# Poissons Ratio (x) = 0.10280 0.04292
# Poissons Ratio (y) = 0.14664 0.08158
# Poissons Ratio (z) = 0.34594 0.46092
#
# Static dielectric constant tensor:
#      x y z
#    x 1.788260 -0.019120 0.000900 
#    y -0.019120 1.758340 0.021850 
#    z 0.000900 0.021850 1.754570 
# 
# From -- ./inp_files/184351.got.cif
#   From: 2010.05.17/outbox.cif.g08.bks.cpg/sg2_93_cif.got.tgz:184351.got - 2010.06.03 11:33:40.
