data_PCOD9023513
_publ_section_title
;
Structure prediction by ZEFSAII (Michael W. Deem and Ramdas Pophale) SiO2 
 PCOD9023513
Probable space group: P -1
;
_chemical_formula_sum "Si O2"
_cell_formula_units_Z 16
_cell_length_a 17.482837
_cell_length_b 15.733253
_cell_length_c 11.826402
_cell_angle_alpha 121.688424
_cell_angle_beta 145.174429
_cell_angle_gamma 32.070405
_cell_volume 816.061052
_symmetry_space_group_name_H-M "P -1"
_symmetry_group_IT_number 2
_symmetry_cell_setting 'triclinic'
loop_
_space_group_symop_operation_xyz
x,y,z
-x,-y,-z
loop_
_atom_site_type_symbol
_atom_site_label
_atom_site_fract_x
_atom_site_fract_y
_atom_site_fract_z
Si Si1 0.288661 0.352276 0.760828
Si Si2 0.851050 0.632388 0.021171
Si Si3 0.724800 0.228542 0.799761
Si Si4 0.722351 0.556220 0.420769
Si Si5 0.540521 0.566224 0.845722
Si Si6 0.933842 0.209749 0.430938
Si Si7 0.627815 0.971832 0.026003
Si Si8 0.628538 0.209801 0.421466
O O1 0.385933 0.314219 0.726044
O O2 0.000000 0.500000 0.500000
O O3 0.440123 0.166733 0.873995
O O4 0.305427 0.439460 0.919469
O O5 0.718839 0.821082 0.957573
O O6 0.623176 0.701791 0.826708
O O7 0.000000 0.500000 0.000000
O O8 0.049668 0.532685 0.294852
O O9 0.503619 0.327432 0.684644
O O10 0.709776 0.358238 0.887545
O O11 0.644581 0.252839 0.591574
O O12 0.000000 0.000000 0.000000
O O13 0.839256 0.377535 0.386748
O O14 0.313917 0.685861 0.744306
O O15 0.406244 0.690202 0.653595
O O16 0.112856 0.023525 0.443036
O O17 0.125150 0.121858 0.701944
O O18 0.500000 0.000000 0.000000
#
# Coordination Sequence:
#
# PCOD9023513 Si02
#       8
#     2   2   2   2   2   2   2   2
#     4  12  25  41  69  99 132 164 222 280 324 383
#     4  11  22  43  67  93 131 174 220 261 326 387
#     4  11  27  43  63  94 138 177 209 261 337 403
#     4  10  24  43  63  99 131 170 217 270 328 381
#     4  11  25  44  65  99 128 172 222 277 323 379
#     4  10  22  39  70  94 128 166 226 271 319 382
#     4  11  21  41  67  98 124 171 220 265 319 382
#     4  12  22  42  71  95 126 175 221 268 322 394
#
# _framework density 19.606376999999998
#
# number of rings (size 3 to 8) (size 9 to 14) (size 15 to 20)
#    0.000    1.000    3.750    3.000    3.500    1.000 
#    2.250    0.625    0.000    0.000    0.000    0.000 
#    0.000    0.000    0.000    0.000    0.000    0.000 
#
# Total GULP energy -89414.579705 kJ/mol
# GULP energy per Si atom -5588.411232 kJ/mol
# Density = 1.956175 g / cm^3
# Si number density = 19.606377 Si / 1000 Ang^3
#
#
#
# Elastic Constant Matrix: (Units=GPa)
#
#
# Indices 1 2 3 4 5 6 
#
# 1 92.7924 62.6035 34.9983 7.3937 -15.2485 6.8822
# 2 62.6035 176.6948 55.9204 5.4696 -1.2412 1.3774
# 3 34.9983 55.9204 96.7255 5.1196 1.4279 16.6479
# 4 7.3937 5.4696 5.1196 33.2477 -1.1365 -4.5167
# 5 -15.2485 -1.2412 1.4279 -1.1365 29.1849 -5.8306
# 6 6.8822 1.3774 16.6479 -4.5167 -5.8306 31.7869
#
#
#
# Elastic Compliance Matrix: (Units=1/GPa)
#
#
# Indices 1 2 3 4 5 6 
#
# 1 0.016878 -0.004819 -0.003245 -0.002233 0.008587 -0.000488
# 2 -0.004819 0.008444 -0.003543 0.000493 -0.001501 0.002328
# 3 -0.003245 -0.003543 0.015157 -0.002291 -0.004315 -0.008199
# 4 -0.002233 0.000493 -0.002291 0.031773 0.001492 0.006450
# 5 0.008587 -0.001501 -0.004315 0.001492 0.040579 0.008121
# 6 -0.000488 0.002328 -0.008199 0.006450 0.008121 0.038165
#
#
# Mechanical properties :
#
#
# Convention : Reuss Voigt Hill
#
# Bulk Modulus (GPa) = 57.92277 74.80636 66.36456
# Shear Modulus (GPa) = 27.78332 33.02327 30.40330
#
# Velocity S-wave (km/s) = 3.76846 4.10849 3.94214
# Velocity P-wave (km/s) = 6.96721 7.79379 7.39206
#
# Compressibility (1/GPa) = 0.01726437
#
# Stress axis : x y z
#
# Youngs Moduli (GPa) = 59.25043 118.42372 65.97632
#
# Poissons Ratio (x) = 0.57074 0.21410
# Poissons Ratio (y) = 0.28556 0.23373
# Poissons Ratio (z) = 0.19227 0.41953
#
# Static dielectric constant tensor:
#      x y z
#    x 1.710750 0.016460 -0.000360 
#    y 0.016460 1.987910 -0.138810 
#    z -0.000360 -0.138810 1.744700 
# 
# From -- ./inp_files/226671.got.cif
#   From: 2010.05.17/outbox.cif.g08.bks.cpg/sg2_114_cif.got.tgz:226671.got - 2010.06.03 11:33:40.
