data_PCOD9023823
_publ_section_title
;
Structure prediction by ZEFSAII (Michael W. Deem and Ramdas Pophale) SiO2 
 PCOD9023823
Probable space group: P -1
;
_chemical_formula_sum "Si O2"
_cell_formula_units_Z 13
_cell_length_a 12.023869
_cell_length_b 8.482168
_cell_length_c 9.509110
_cell_angle_alpha 85.493225
_cell_angle_beta 60.395913
_cell_angle_gamma 128.580841
_cell_volume 542.121138
_symmetry_space_group_name_H-M "P -1"
_symmetry_group_IT_number 2
_symmetry_cell_setting 'triclinic'
loop_
_space_group_symop_operation_xyz
x,y,z
-x,-y,-z
loop_
_atom_site_type_symbol
_atom_site_label
_atom_site_fract_x
_atom_site_fract_y
_atom_site_fract_z
Si Si1 0.024705 0.270237 0.978356
Si Si2 0.803016 0.337747 0.546245
Si Si3 0.303869 0.513197 0.037288
Si Si4 0.062115 0.198627 0.655048
Si Si5 0.726537 0.791744 0.698835
Si Si6 0.500000 0.000000 0.000000
Si Si7 0.730105 0.188356 0.310057
O O1 0.028716 0.166075 0.844835
O O2 0.160489 0.551630 0.834393
O O3 0.130563 0.313663 0.050725
O O4 0.803069 0.119740 0.165092
O O5 0.807107 0.522443 0.476987
O O6 0.817878 0.241912 0.406554
O O7 0.000000 0.500000 0.500000
O O8 0.608477 0.117880 0.771224
O O9 0.288315 0.386216 0.192183
O O10 0.331468 0.717425 0.057831
O O11 0.510707 0.658366 0.825129
O O12 0.165874 0.148971 0.517340
O O13 0.855941 0.022162 0.708536
O O14 0.500000 0.000000 0.500000
#
# Coordination Sequence:
#
# PCOD9023823 Si02
#       7
#     2   2   2   2   2   1   2
#     4  10  23  43  65  97 136 177 223 276 338 405
#     4  11  22  37  65  99 127 170 222 277 329 393
#     4  11  23  42  68 101 133 179 228 276 337 403
#     4  10  22  44  64  95 137 182 223 279 336 403
#     4  10  23  43  68  96 138 178 227 279 332 401
#     4  12  22  38  68 100 128 170 222 278 328 396
#     4  10  22  40  61  96 140 170 212 280 343 395
#
# _framework density 23.979883000000001
#
# number of rings (size 3 to 8) (size 9 to 14) (size 15 to 20)
#    0.000    1.538    1.538    2.769    0.000    7.385 
#    5.538    0.000    0.000    0.000    0.000    0.000 
#    0.000    0.000    0.000    0.000    0.000    0.000 
#
# Total GULP energy -72472.514064 kJ/mol
# GULP energy per Si atom -5574.808774 kJ/mol
# Density = 2.392530 g / cm^3
# Si number density = 23.979883 Si / 1000 Ang^3
#
#
#
# Elastic Constant Matrix: (Units=GPa)
#
#
# Indices 1 2 3 4 5 6 
#
# 1 57.4603 27.3283 36.9593 13.6492 -10.9102 18.6041
# 2 27.3283 119.6134 53.3414 18.3084 0.3992 -2.7748
# 3 36.9593 53.3414 140.9955 12.7874 -11.2917 9.9833
# 4 13.6492 18.3084 12.7874 59.3547 6.3599 11.4854
# 5 -10.9102 0.3992 -11.2917 6.3599 29.0763 -12.1508
# 6 18.6041 -2.7748 9.9833 11.4854 -12.1508 19.5565
#
#
#
# Elastic Compliance Matrix: (Units=1/GPa)
#
#
# Indices 1 2 3 4 5 6 
#
# 1 0.033109 -0.006844 -0.004205 0.002446 -0.003947 -0.034210
# 2 -0.006844 0.012438 -0.003268 -0.004743 0.003173 0.014701
# 3 -0.004205 -0.003268 0.009641 -0.000451 0.002487 0.000426
# 4 0.002446 -0.004743 -0.000451 0.024857 -0.016056 -0.027344
# 5 -0.003947 0.003173 0.002487 -0.016056 0.057422 0.048042
# 6 -0.034210 0.014701 0.000426 -0.027344 0.048042 0.131455
#
#
# Mechanical properties :
#
#
# Convention : Reuss Voigt Hill
#
# Bulk Modulus (GPa) = 37.66022 61.48080 49.57051
# Shear Modulus (GPa) = 16.31812 34.96019 25.63915
#
# Velocity S-wave (km/s) = 2.61145 3.82238 3.27340
# Velocity P-wave (km/s) = 4.98317 6.72123 5.91637
#
# Compressibility (1/GPa) = 0.02655322
#
# Stress axis : x y z
#
# Youngs Moduli (GPa) = 30.20316 80.40032 103.72235
#
# Poissons Ratio (x) = 0.55025 0.43619
# Poissons Ratio (y) = 0.20671 0.33897
# Poissons Ratio (z) = 0.12702 0.26275
#
# Static dielectric constant tensor:
#      x y z
#    x 1.979540 -0.036890 0.030770 
#    y -0.036890 1.922320 -0.006950 
#    z 0.030770 -0.006950 1.908120 
# 
# From -- ./inp_files/238934.got.cif
#   From: 2010.05.17/outbox.cif.g08.bks.cpg/sg2_120_cif.got.tgz:238934.got - 2010.06.03 11:33:40.
