data_PCOD9023440
_publ_section_title
;
Structure prediction by ZEFSAII (Michael W. Deem and Ramdas Pophale) SiO2 
 PCOD9023440
Probable space group: P -1
;
_chemical_formula_sum "Si O2"
_cell_formula_units_Z 14
_cell_length_a 14.997552
_cell_length_b 9.762637
_cell_length_c 16.496398
_cell_angle_alpha 145.032660
_cell_angle_beta 37.320365
_cell_angle_gamma 149.958094
_cell_volume 661.237814
_symmetry_space_group_name_H-M "P -1"
_symmetry_group_IT_number 2
_symmetry_cell_setting 'triclinic'
loop_
_space_group_symop_operation_xyz
x,y,z
-x,-y,-z
loop_
_atom_site_type_symbol
_atom_site_label
_atom_site_fract_x
_atom_site_fract_y
_atom_site_fract_z
Si Si1 0.172538 0.709919 0.091573
Si Si2 0.248730 0.810689 0.904967
Si Si3 0.205792 0.268453 0.083191
Si Si4 0.626878 0.046620 0.666964
Si Si5 0.214625 0.145564 0.404797
Si Si6 0.531878 0.810776 0.445627
Si Si7 0.225344 0.235539 0.876271
O O1 0.951800 0.493889 0.124820
O O2 0.229326 0.986465 0.239523
O O3 0.277457 0.797114 0.972638
O O4 0.208646 0.503469 0.013397
O O5 0.411903 0.857063 0.757834
O O6 0.239818 0.088047 0.033482
O O7 0.287089 0.605283 0.210460
O O8 0.287339 0.248277 0.929418
O O9 0.983498 0.073238 0.135861
O O10 0.717108 0.935238 0.605308
O O11 0.641060 0.996022 0.537703
O O12 0.342590 0.500972 0.464916
O O13 0.000000 0.000000 0.500000
O O14 0.644393 0.733354 0.272754
O O15 0.500000 0.000000 0.500000
#
# Coordination Sequence:
#
# PCOD9023440 Si02
#       7
#     2   2   2   2   2   2   2
#     4  10  22  43  69  98 131 180 229 288 333 413
#     4  10  22  39  69 102 136 170 233 283 345 405
#     4  10  22  39  72 100 136 176 224 287 344 414
#     4  12  25  44  69 100 141 186 226 285 348 413
#     4  12  28  46  71  98 143 188 232 281 353 408
#     4  12  29  45  70 103 145 181 233 290 341 413
#     4  10  22  44  68 100 136 178 228 280 345 404
#
# _framework density 21.172415000000001
#
# number of rings (size 3 to 8) (size 9 to 14) (size 15 to 20)
#    0.000    1.143    1.429    3.429    6.000    5.143 
#    0.000    0.000    0.000    0.000    0.000    0.000 
#    0.000    0.000    0.000    0.000    0.000    0.000 
#
# Total GULP energy -78356.976238 kJ/mol
# GULP energy per Si atom -5596.926874 kJ/mol
# Density = 2.112423 g / cm^3
# Si number density = 21.172415 Si / 1000 Ang^3
#
#
#
# Elastic Constant Matrix: (Units=GPa)
#
#
# Indices 1 2 3 4 5 6 
#
# 1 82.9420 34.8403 13.9548 13.5685 6.6462 -15.9448
# 2 34.8403 95.6297 36.0129 5.4176 11.4354 -4.6963
# 3 13.9548 36.0129 73.4133 4.1258 10.6982 11.3762
# 4 13.5685 5.4176 4.1258 26.7071 0.1139 -2.7267
# 5 6.6462 11.4354 10.6982 0.1139 21.6122 -8.8281
# 6 -15.9448 -4.6963 11.3762 -2.7267 -8.8281 25.2080
#
#
#
# Elastic Compliance Matrix: (Units=1/GPa)
#
#
# Indices 1 2 3 4 5 6 
#
# 1 0.017677 -0.004742 -0.003126 -0.006294 0.003686 0.012318
# 2 -0.004742 0.014949 -0.006375 0.000559 -0.002551 0.001829
# 3 -0.003126 -0.006375 0.022452 -0.002424 -0.014360 -0.018589
# 4 -0.006294 0.000559 -0.002424 0.041194 0.003857 0.003024
# 5 0.003686 -0.002551 -0.014360 0.003857 0.066691 0.032110
# 6 0.012318 0.001829 -0.018589 0.003024 0.032110 0.067764
#
#
# Mechanical properties :
#
#
# Convention : Reuss Voigt Hill
#
# Bulk Modulus (GPa) = 37.60548 46.84455 42.22501
# Shear Modulus (GPa) = 18.65142 25.85061 22.25102
#
# Velocity S-wave (km/s) = 2.97127 3.49801 3.24534
# Velocity P-wave (km/s) = 5.43795 6.20388 5.83350
#
# Compressibility (1/GPa) = 0.02659187
#
# Stress axis : x y z
#
# Youngs Moduli (GPa) = 56.57092 66.89624 44.53900
#
# Poissons Ratio (x) = 0.31723 0.13924
# Poissons Ratio (y) = 0.26826 0.28392
# Poissons Ratio (z) = 0.17685 0.42644
#
# Static dielectric constant tensor:
#      x y z
#    x 1.744770 0.020320 0.002590 
#    y 0.020320 1.766080 0.001130 
#    z 0.002590 0.001130 1.729310 
# 
# From -- ./inp_files/202566.got.cif
#   From: 2010.05.17/outbox.cif.g08.bks.cpg/sg2_102_cif.got.tgz:202566.got - 2010.06.03 11:33:40.
