data_PCOD9023813
_publ_section_title
;
Structure prediction by ZEFSAII (Michael W. Deem and Ramdas Pophale) SiO2 
 PCOD9023813
Probable space group: P -1
;
_chemical_formula_sum "Si O2"
_cell_formula_units_Z 14
_cell_length_a 13.300032
_cell_length_b 21.955440
_cell_length_c 5.120966
_cell_angle_alpha 109.167543
_cell_angle_beta 114.824515
_cell_angle_gamma 25.966914
_cell_volume 589.689945
_symmetry_space_group_name_H-M "P -1"
_symmetry_group_IT_number 2
_symmetry_cell_setting 'triclinic'
loop_
_space_group_symop_operation_xyz
x,y,z
-x,-y,-z
loop_
_atom_site_type_symbol
_atom_site_label
_atom_site_fract_x
_atom_site_fract_y
_atom_site_fract_z
Si Si1 0.702416 0.540364 0.354579
Si Si2 0.331321 0.890848 0.887254
Si Si3 0.158021 0.750423 0.523383
Si Si4 0.209152 0.431309 0.989938
Si Si5 0.165228 0.672822 0.925399
Si Si6 0.688841 0.955425 0.054756
Si Si7 0.199535 0.845977 0.323439
O O1 0.734298 0.542881 0.695522
O O2 0.762349 0.435818 0.222519
O O3 0.428682 0.701907 0.216391
O O4 0.856707 0.503059 0.265852
O O5 0.558377 0.734937 0.025097
O O6 0.264048 0.884539 0.542611
O O7 0.404798 0.927239 0.983947
O O8 0.062884 0.027182 0.915650
O O9 0.236566 0.685454 0.795720
O O10 0.191157 0.804086 0.514324
O O11 0.871893 0.882963 0.381052
O O12 0.265979 0.647403 0.272840
O O13 0.000000 0.500000 0.000000
O O14 0.877045 0.826887 0.874907
O O15 0.500000 0.000000 0.000000
#
# Coordination Sequence:
#
# PCOD9023813 Si02
#       7
#     2   2   2   2   2   2   2
#     4  11  24  42  67  96 132 176 215 275 326 385
#     4   9  20  43  65  98 129 175 214 277 322 386
#     4   9  21  39  60  96 125 171 213 264 328 374
#     4  11  25  44  66  98 128 177 226 267 327 385
#     4  10  22  40  61  95 129 167 215 260 334 378
#     4   9  21  40  63  94 127 173 218 263 327 387
#     4   9  20  42  67  96 134 170 224 268 327 389
#
# _framework density 23.741289999999999
#
# number of rings (size 3 to 8) (size 9 to 14) (size 15 to 20)
#    0.857    1.429    0.000    1.286    2.000    4.571 
#   12.857    0.000    0.000    0.000    0.000    0.000 
#    0.000    0.000    0.000    0.000    0.000    0.000 
#
# Total GULP energy -78157.674397 kJ/mol
# GULP energy per Si atom -5582.691028 kJ/mol
# Density = 2.368725 g / cm^3
# Si number density = 23.741290 Si / 1000 Ang^3
#
#
#
# Elastic Constant Matrix: (Units=GPa)
#
#
# Indices 1 2 3 4 5 6 
#
# 1 154.1275 54.4319 32.4689 18.0990 3.7750 0.4307
# 2 54.4319 96.7823 21.8966 32.4911 10.2826 18.4347
# 3 32.4689 21.8966 53.0162 16.1824 -5.2800 4.8662
# 4 18.0990 32.4911 16.1824 31.3364 6.9680 11.8672
# 5 3.7750 10.2826 -5.2800 6.9680 43.2561 10.6563
# 6 0.4307 18.4347 4.8662 11.8672 10.6563 33.3051
#
#
#
# Elastic Compliance Matrix: (Units=1/GPa)
#
#
# Indices 1 2 3 4 5 6 
#
# 1 0.009027 -0.005018 -0.004225 0.001203 -0.001093 0.003199
# 2 -0.005018 0.019186 0.000172 -0.015067 -0.000424 -0.005075
# 3 -0.004225 0.000172 0.025652 -0.011706 0.005700 -0.001441
# 4 0.001203 -0.015067 -0.011706 0.057328 -0.005023 -0.008786
# 5 -0.001093 -0.000424 0.005700 -0.005023 0.026620 -0.007312
# 6 0.003199 -0.005075 -0.001441 -0.008786 -0.007312 0.038474
#
#
# Mechanical properties :
#
#
# Convention : Reuss Voigt Hill
#
# Bulk Modulus (GPa) = 27.99460 57.94674 42.97067
# Shear Modulus (GPa) = 24.23206 34.58808 29.41007
#
# Velocity S-wave (km/s) = 3.19826 3.82104 3.52344
# Velocity P-wave (km/s) = 5.04536 6.62780 5.88996
#
# Compressibility (1/GPa) = 0.03572118
#
# Stress axis : x y z
#
# Youngs Moduli (GPa) = 110.77826 52.12196 38.98312
#
# Poissons Ratio (x) = 0.26155 0.16472
# Poissons Ratio (y) = 0.55588 -0.00669
# Poissons Ratio (z) = 0.46809 -0.00894
#
# Static dielectric constant tensor:
#      x y z
#    x 1.888610 -0.024720 0.000850 
#    y -0.024720 1.964210 -0.011630 
#    z 0.000850 -0.011630 1.961670 
# 
# From -- ./inp_files/82806.got.cif
#   From: 2010.05.17/outbox.cif.g08.bks.cpg/sg2_42_cif.got.tgz:82806.got - 2010.06.03 11:33:40.
