data_PCOD9023125
_publ_section_title
;
Structure prediction by ZEFSAII (Michael W. Deem and Ramdas Pophale) SiO2 
 PCOD9023125
Probable space group: P -1
;
_chemical_formula_sum "Si O2"
_cell_formula_units_Z 14
_cell_length_a 21.216323
_cell_length_b 9.211316
_cell_length_c 9.538336
_cell_angle_alpha 126.188235
_cell_angle_beta 149.810528
_cell_angle_gamma 43.984935
_cell_volume 648.324529
_symmetry_space_group_name_H-M "P -1"
_symmetry_group_IT_number 2
_symmetry_cell_setting 'triclinic'
loop_
_space_group_symop_operation_xyz
x,y,z
-x,-y,-z
loop_
_atom_site_type_symbol
_atom_site_label
_atom_site_fract_x
_atom_site_fract_y
_atom_site_fract_z
Si Si1 0.397460 0.628019 0.247074
Si Si2 0.220895 0.452069 0.906985
Si Si3 0.595396 0.749975 0.572929
Si Si4 0.920669 0.120161 0.557343
Si Si5 0.096338 0.160736 0.428988
Si Si6 0.176471 0.049350 0.217046
Si Si7 0.167676 0.434724 0.321300
O O1 0.500000 0.500000 0.500000
O O2 0.488467 0.653911 0.313059
O O3 0.297677 0.856352 0.252610
O O4 0.301502 0.519380 0.987562
O O5 0.162458 0.310348 0.651792
O O6 0.079307 0.672549 0.812592
O O7 0.326821 0.319910 0.164598
O O8 0.727598 0.642367 0.655870
O O9 0.500000 0.000000 0.500000
O O10 0.829282 0.367921 0.497153
O O11 0.854622 0.992287 0.429647
O O12 0.000000 0.000000 0.500000
O O13 0.031827 0.106033 0.883906
O O14 0.150273 0.023831 0.313875
O O15 0.214395 0.232284 0.389878
O O16 0.000000 0.500000 0.000000
#
# Coordination Sequence:
#
# PCOD9023125 Si02
#       7
#     2   2   2   2   2   2   2
#     4  10  22  39  66  93 133 180 224 270 338 421
#     4  10  23  41  65 100 133 182 228 278 338 412
#     4  11  22  42  71 101 138 185 222 279 353 412
#     4  11  25  39  67 101 137 172 225 293 342 393
#     4  11  24  40  70  99 137 177 230 287 337 402
#     4  11  22  41  65  98 132 178 224 274 346 405
#     4  10  23  39  66  98 135 171 229 279 336 404
#
# _framework density 21.594124000000001
#
# number of rings (size 3 to 8) (size 9 to 14) (size 15 to 20)
#    0.000    1.429    2.857    2.143   12.000    0.000 
#    0.000    2.857    3.143    2.571    0.000    0.000 
#    0.000    0.000    0.000    0.000    0.000    0.000 
#
# Total GULP energy -78098.337803 kJ/mol
# GULP energy per Si atom -5578.452700 kJ/mol
# Density = 2.154497 g / cm^3
# Si number density = 21.594124 Si / 1000 Ang^3
#
#
#
# Elastic Constant Matrix: (Units=GPa)
#
#
# Indices 1 2 3 4 5 6 
#
# 1 149.9661 24.6838 38.8889 19.5907 21.0768 15.4958
# 2 24.6838 108.5770 24.4052 20.1550 15.8634 25.4550
# 3 38.8889 24.4052 59.3848 5.7541 20.0428 9.2655
# 4 19.5907 20.1550 5.7541 29.8100 5.7742 4.0990
# 5 21.0768 15.8634 20.0428 5.7742 42.3642 5.5660
# 6 15.4958 25.4550 9.2655 4.0990 5.5660 36.2992
#
#
#
# Elastic Compliance Matrix: (Units=1/GPa)
#
#
# Indices 1 2 3 4 5 6 
#
# 1 0.008856 0.000694 -0.004774 -0.004772 -0.001457 -0.002287
# 2 0.000694 0.013214 -0.003421 -0.007361 -0.001673 -0.007602
# 3 -0.004774 -0.003421 0.023913 0.002466 -0.007896 -0.000734
# 4 -0.004772 -0.007361 0.002466 0.041256 -0.001950 0.002210
# 5 -0.001457 -0.001673 -0.007896 -0.001950 0.029012 -0.000418
# 6 -0.002287 -0.007602 -0.000734 0.002210 -0.000418 0.033858
#
#
# Mechanical properties :
#
#
# Convention : Reuss Voigt Hill
#
# Bulk Modulus (GPa) = 32.27833 54.87598 43.57716
# Shear Modulus (GPa) = 28.49988 37.02468 32.76228
#
# Velocity S-wave (km/s) = 3.63684 4.14523 3.89933
# Velocity P-wave (km/s) = 5.71102 6.95544 6.36372
#
# Compressibility (1/GPa) = 0.03098053
#
# Stress axis : x y z
#
# Youngs Moduli (GPa) = 112.91442 75.67575 41.81891
#
# Poissons Ratio (x) = -0.05255 0.19965
# Poissons Ratio (y) = -0.07841 0.14308
# Poissons Ratio (z) = 0.53908 0.25892
#
# Static dielectric constant tensor:
#      x y z
#    x 1.792400 0.052580 0.030750 
#    y 0.052580 1.835130 -0.014970 
#    z 0.030750 -0.014970 1.846990 
# 
# From -- ./inp_files/474316.got.cif
#   From: 2010.05.17/outbox.cif.g08.bks.cpg/sg2_238_cif.got.tgz:474316.got - 2010.06.03 11:33:40.
