data_PCOD9023067
_publ_section_title
;
Structure prediction by ZEFSAII (Michael W. Deem and Ramdas Pophale) SiO2 
 PCOD9023067
Probable space group: P -1
;
_chemical_formula_sum "Si O2"
_cell_formula_units_Z 14
_cell_length_a 25.282495
_cell_length_b 6.009776
_cell_length_c 16.339694
_cell_angle_alpha 112.342995
_cell_angle_beta 160.802255
_cell_angle_gamma 78.051381
_cell_volume 654.065169
_symmetry_space_group_name_H-M "P -1"
_symmetry_group_IT_number 2
_symmetry_cell_setting 'triclinic'
loop_
_space_group_symop_operation_xyz
x,y,z
-x,-y,-z
loop_
_atom_site_type_symbol
_atom_site_label
_atom_site_fract_x
_atom_site_fract_y
_atom_site_fract_z
Si Si1 0.975260 0.766919 0.301936
Si Si2 0.444008 0.672608 0.377586
Si Si3 0.430086 0.959950 0.756897
Si Si4 0.273060 0.630695 0.648128
Si Si5 0.522760 0.533781 0.776724
Si Si6 0.817028 0.867444 0.658610
Si Si7 0.949326 0.736596 0.451346
O O1 0.018733 0.819948 0.469814
O O2 0.131487 0.736649 0.479962
O O3 0.779300 0.496867 0.966609
O O4 0.964369 0.047963 0.315904
O O5 0.500000 0.500000 0.500000
O O6 0.505266 0.604417 0.371393
O O7 0.500000 0.000000 0.500000
O O8 0.244504 0.926693 0.441729
O O9 0.377837 0.791043 0.741473
O O10 0.516334 0.819521 0.805965
O O11 0.579796 0.272013 0.048385
O O12 0.174603 0.313581 0.430360
O O13 0.358629 0.326614 0.567367
O O14 0.727412 0.608056 0.114226
O O15 0.000000 0.000000 0.000000
O O16 0.000000 0.500000 0.500000
#
# Coordination Sequence:
#
# PCOD9023067 Si02
#       7
#     2   2   2   2   2   2   2
#     4  10  23  40  66  96 131 176 231 287 348 423
#     4  11  28  46  68 102 143 190 235 287 360 432
#     4  10  22  43  67  94 138 173 230 293 352 417
#     4  10  22  42  65 100 127 178 233 286 355 413
#     4  10  24  43  68  95 135 179 230 291 356 414
#     4  11  26  40  67  99 134 185 231 284 361 427
#     4  10  22  39  66 101 129 170 231 287 357 409
#
# _framework density 21.404595
#
# number of rings (size 3 to 8) (size 9 to 14) (size 15 to 20)
#    0.000    1.714    1.429    0.429   10.000    4.571 
#    0.000    0.000    0.000    0.000    0.000    0.000 
#    0.000    0.000    0.000    0.000    0.000    0.000 
#
# Total GULP energy -77975.261045 kJ/mol
# GULP energy per Si atom -5569.661503 kJ/mol
# Density = 2.135588 g / cm^3
# Si number density = 21.404595 Si / 1000 Ang^3
#
#
#
# Elastic Constant Matrix: (Units=GPa)
#
#
# Indices 1 2 3 4 5 6 
#
# 1 78.5638 26.5021 31.1406 8.2886 -5.0210 -32.0956
# 2 26.5021 96.9226 53.4928 -0.6581 -17.4073 -43.3541
# 3 31.1406 53.4928 102.0175 7.0303 -2.9013 -20.4093
# 4 8.2886 -0.6581 7.0303 27.4716 1.2797 0.7560
# 5 -5.0210 -17.4073 -2.9013 1.2797 29.6368 -1.4022
# 6 -32.0956 -43.3541 -20.4093 0.7560 -1.4022 44.3317
#
#
#
# Elastic Compliance Matrix: (Units=1/GPa)
#
#
# Indices 1 2 3 4 5 6 
#
# 1 0.023038 0.009782 -0.006727 -0.006127 0.010370 0.023581
# 2 0.009782 0.035509 -0.013653 -0.000672 0.022922 0.036259
# 3 -0.006727 -0.013653 0.016778 -0.001926 -0.007940 -0.010716
# 4 -0.006127 -0.000672 -0.001926 0.039082 -0.003629 -0.006762
# 5 0.010370 0.022922 -0.007940 -0.003629 0.049661 0.027901
# 6 0.023581 0.036259 -0.010716 -0.006762 0.027901 0.071153
#
#
# Mechanical properties :
#
#
# Convention : Reuss Voigt Hill
#
# Bulk Modulus (GPa) = 18.47439 55.53055 37.00247
# Shear Modulus (GPa) = 18.21766 31.37924 24.79845
#
# Velocity S-wave (km/s) = 2.92054 3.83300 3.40745
# Velocity P-wave (km/s) = 4.47466 6.75195 5.72762
#
# Compressibility (1/GPa) = 0.05412899
#
# Stress axis : x y z
#
# Youngs Moduli (GPa) = 43.40708 28.16187 59.60346
#
# Poissons Ratio (x) = -0.27548 0.40094
# Poissons Ratio (y) = -0.42461 0.81376
# Poissons Ratio (z) = 0.29199 0.38449
#
# Static dielectric constant tensor:
#      x y z
#    x 1.717770 -0.427790 -0.023080 
#    y -0.427790 -11.866870 0.514490 
#    z -0.023080 0.514490 1.737420 
# 
# From -- ./inp_files/49471.got.cif
#   From: 2010.05.17/outbox.cif.g08.bks.cpg/sg2_25_cif.got.tgz:49471.got - 2010.06.03 11:33:40.
