data_PCOD9023755
_publ_section_title
;
Structure prediction by ZEFSAII (Michael W. Deem and Ramdas Pophale) SiO2 
 PCOD9023755
Probable space group: P -1
;
_chemical_formula_sum "Si O2"
_cell_formula_units_Z 12
_cell_length_a 27.200494
_cell_length_b 17.594663
_cell_length_c 5.283701
_cell_angle_alpha 68.128472
_cell_angle_beta 105.544410
_cell_angle_gamma 163.289637
_cell_volume 636.281804
_symmetry_space_group_name_H-M "P -1"
_symmetry_group_IT_number 2
_symmetry_cell_setting 'triclinic'
loop_
_space_group_symop_operation_xyz
x,y,z
-x,-y,-z
loop_
_atom_site_type_symbol
_atom_site_label
_atom_site_fract_x
_atom_site_fract_y
_atom_site_fract_z
Si Si1 0.120152 0.673934 0.701720
Si Si2 0.260958 0.156764 0.840348
Si Si3 0.108183 0.331909 0.927284
Si Si4 0.670365 0.839257 0.559518
Si Si5 0.275097 0.580311 0.349062
Si Si6 0.304527 0.782291 0.828114
O O1 0.208584 0.720895 0.774706
O O2 0.000000 0.500000 0.500000
O O3 0.268197 0.973646 0.549681
O O4 0.000000 0.500000 0.000000
O O5 0.454116 0.498479 0.647195
O O6 0.237338 0.062069 0.679769
O O7 0.276926 0.128281 0.153588
O O8 0.093877 0.960495 0.896225
O O9 0.139379 0.345766 0.674802
O O10 0.209940 0.577155 0.749099
O O11 0.214135 0.450223 0.154658
O O12 0.481095 0.877407 0.335603
O O13 0.275582 0.679019 0.161756
#
# Coordination Sequence:
#
# PCOD9023755 Si02
#       6
#     2   2   2   2   2   2
#     4  12  25  35  55  82 116 143 170 217 281 332
#     4  10  20  35  58  71 111 137 191 223 245 325
#     4  10  17  31  52  79  95 134 183 224 254 302
#     4  10  21  37  50  81 103 151 175 216 274 306
#     4   9  20  31  53  77 102 139 180 216 267 296
#     4   9  21  33  52  75 111 137 173 221 266 317
#
# _framework density 18.859567999999999
#
# number of rings (size 3 to 8) (size 9 to 14) (size 15 to 20)
#    1.000    1.000    0.000    4.500    4.667    0.000 
#    0.000    0.000    0.000    2.000    0.000    0.000 
#    0.000    0.000    0.000    0.000    0.000    0.000 
#
# Total GULP energy -66858.406079 kJ/mol
# GULP energy per Si atom -5571.533840 kJ/mol
# Density = 1.881664 g / cm^3
# Si number density = 18.859568 Si / 1000 Ang^3
#
#
#
# Elastic Constant Matrix: (Units=GPa)
#
#
# Indices 1 2 3 4 5 6 
#
# 1 28.3558 10.8600 9.3926 31.0668 10.4665 24.1497
# 2 10.8600 48.0944 25.2364 12.0698 2.8345 13.2208
# 3 9.3926 25.2364 93.7639 26.0497 -23.6459 5.7613
# 4 31.0668 12.0698 26.0497 10.0771 -9.9017 -15.7613
# 5 10.4665 2.8345 -23.6459 -9.9017 14.8612 -6.2158
# 6 24.1497 13.2208 5.7613 -15.7613 -6.2158 25.1606
#
#
#
# Elastic Compliance Matrix: (Units=1/GPa)
#
#
# Indices 1 2 3 4 5 6 
#
# 1 0.007644 -0.008924 -0.001125 0.016882 0.010260 0.010720
# 2 -0.008924 0.028837 -0.012842 0.008490 -0.014825 -0.001991
# 3 -0.001125 -0.012842 0.028132 -0.016085 0.037529 0.000582
# 4 0.016882 0.008490 -0.016085 0.013243 -0.037819 -0.018029
# 5 0.010260 -0.014825 0.037529 -0.037819 0.092611 -0.011463
# 6 0.010720 -0.001991 0.000582 -0.018029 -0.011463 0.016242
#
#
# Mechanical properties :
#
#
# Convention : Reuss Voigt Hill
#
# Bulk Modulus (GPa) = 53.10939 29.02135 41.06537
# Shear Modulus (GPa) = 20.94090 18.33477 19.63783
#
# Velocity S-wave (km/s) = 3.33582 3.12135 3.23037
# Velocity P-wave (km/s) = 6.56190 5.33029 5.97790
#
# Compressibility (1/GPa) = 0.01882906
#
# Stress axis : x y z
#
# Youngs Moduli (GPa) = 130.82843 34.67801 35.54725
#
# Poissons Ratio (x) = 0.30946 0.04000
# Poissons Ratio (y) = 1.16749 0.45651
# Poissons Ratio (z) = 0.14720 0.44535
#
# Static dielectric constant tensor:
#      x y z
#    x 1.651420 -0.030350 -0.043340 
#    y -0.030350 1.691510 0.027100 
#    z -0.043340 0.027100 1.689480 
# 
# From -- ./inp_files/68780.got.cif
#   From: 2010.05.17/outbox.cif.g08.bks.cpg/sg2_35_cif.got.tgz:68780.got - 2010.06.03 11:33:40.
