data_PCOD9023370
_publ_section_title
;
Structure prediction by ZEFSAII (Michael W. Deem and Ramdas Pophale) SiO2 
 PCOD9023370
Probable space group: P -1
;
_chemical_formula_sum "Si O2"
_cell_formula_units_Z 14
_cell_length_a 11.672505
_cell_length_b 14.680027
_cell_length_c 9.345135
_cell_angle_alpha 100.586102
_cell_angle_beta 121.458312
_cell_angle_gamma 130.808899
_cell_volume 602.281024
_symmetry_space_group_name_H-M "P -1"
_symmetry_group_IT_number 2
_symmetry_cell_setting 'triclinic'
loop_
_space_group_symop_operation_xyz
x,y,z
-x,-y,-z
loop_
_atom_site_type_symbol
_atom_site_label
_atom_site_fract_x
_atom_site_fract_y
_atom_site_fract_z
Si Si1 0.377557 0.754508 0.658119
Si Si2 0.219473 0.158777 0.529647
Si Si3 0.122535 0.295087 0.660486
Si Si4 0.694009 0.335541 0.082295
Si Si5 0.531104 0.038983 0.862993
Si Si6 0.342741 0.242708 0.315344
Si Si7 0.643834 0.672092 0.939965
O O1 0.409028 0.741551 0.840956
O O2 0.589685 0.973051 0.822231
O O3 0.456758 0.718680 0.598212
O O4 0.036988 0.579692 0.371386
O O5 0.120075 0.194160 0.547995
O O6 0.371037 0.276108 0.510791
O O7 0.454706 0.244852 0.804772
O O8 0.919061 0.911734 0.228516
O O9 0.274967 0.370986 0.934508
O O10 0.794364 0.124005 0.433497
O O11 0.316866 0.485761 0.745918
O O12 0.731271 0.251350 0.027371
O O13 0.500000 0.000000 0.000000
O O14 0.391055 0.351307 0.258933
O O15 0.000000 0.000000 0.000000
#
# Coordination Sequence:
#
# PCOD9023370 Si02
#       7
#     2   2   2   2   2   2   2
#     4  10  23  41  63  91 126 162 206 260 311 361
#     4  11  23  40  64  92 126 168 206 251 310 376
#     4  11  23  37  68  95 121 160 212 268 301 359
#     4  10  22  39  68  93 120 162 209 265 304 358
#     4  10  23  36  61  97 121 153 206 263 312 357
#     4  10  24  42  64  87 130 173 201 249 314 376
#     4  10  23  39  63  92 125 160 213 257 306 355
#
# _framework density 23.244962999999998
#
# number of rings (size 3 to 8) (size 9 to 14) (size 15 to 20)
#    0.000    1.714    1.429    1.286   18.000    1.143 
#    0.000    3.571    0.000    0.000    0.000    0.000 
#    0.000    0.000    0.000    0.000    0.000    0.000 
#
# Total GULP energy -78149.728797 kJ/mol
# GULP energy per Si atom -5582.123485 kJ/mol
# Density = 2.319206 g / cm^3
# Si number density = 23.244963 Si / 1000 Ang^3
#
#
#
# Elastic Constant Matrix: (Units=GPa)
#
#
# Indices 1 2 3 4 5 6 
#
# 1 81.0496 38.0893 22.5443 -19.3060 -6.6714 0.5145
# 2 38.0893 127.2422 22.6246 -17.1156 -23.4614 -2.0255
# 3 22.5443 22.6246 76.0269 -11.4538 -4.3096 1.8808
# 4 -19.3060 -17.1156 -11.4538 41.7295 3.6576 -10.2848
# 5 -6.6714 -23.4614 -4.3096 3.6576 32.6936 2.8697
# 6 0.5145 -2.0255 1.8808 -10.2848 2.8697 41.1030
#
#
#
# Elastic Compliance Matrix: (Units=1/GPa)
#
#
# Indices 1 2 3 4 5 6 
#
# 1 0.016122 -0.003625 -0.002927 0.005490 -0.000413 0.001156
# 2 -0.003625 0.010658 -0.001463 0.001891 0.006446 0.000661
# 3 -0.002927 -0.001463 0.014774 0.002042 0.000090 -0.000207
# 4 0.005490 0.001891 0.002042 0.029790 -0.001242 0.007472
# 5 -0.000413 0.006446 0.000090 -0.001242 0.035496 -0.002470
# 6 0.001156 0.000661 -0.000207 0.007472 -0.002470 0.026399
#
#
# Mechanical properties :
#
#
# Convention : Reuss Voigt Hill
#
# Bulk Modulus (GPa) = 39.17755 50.09279 44.63517
# Shear Modulus (GPa) = 31.69035 36.50925 34.09980
#
# Velocity S-wave (km/s) = 3.69632 3.96742 3.83427
# Velocity P-wave (km/s) = 5.92519 6.52564 6.23265
#
# Compressibility (1/GPa) = 0.02552482
#
# Stress axis : x y z
#
# Youngs Moduli (GPa) = 62.02651 93.82986 67.68473
#
# Poissons Ratio (x) = 0.34013 0.19811
# Poissons Ratio (y) = 0.22484 0.09901
# Poissons Ratio (z) = 0.18155 0.13725
#
# Static dielectric constant tensor:
#      x y z
#    x 1.889670 -0.120020 -0.222710 
#    y -0.120020 1.896040 -0.097170 
#    z -0.222710 -0.097170 1.326700 
# 
# From -- ./inp_files/270512.got.cif
#   From: 2010.05.17/outbox.cif.g08.bks.cpg/sg2_136_cif.got.tgz:270512.got - 2010.06.03 11:33:40.
