data_PCOD9023994
_publ_section_title
;
Structure prediction by ZEFSAII (Michael W. Deem and Ramdas Pophale) SiO2 
 PCOD9023994
Probable space group: P -1
;
_chemical_formula_sum "Si O2"
_cell_formula_units_Z 14
_cell_length_a 9.802467
_cell_length_b 11.382114
_cell_length_c 10.703836
_cell_angle_alpha 119.582702
_cell_angle_beta 86.938394
_cell_angle_gamma 47.044189
_cell_volume 600.867418
_symmetry_space_group_name_H-M "P -1"
_symmetry_group_IT_number 2
_symmetry_cell_setting 'triclinic'
loop_
_space_group_symop_operation_xyz
x,y,z
-x,-y,-z
loop_
_atom_site_type_symbol
_atom_site_label
_atom_site_fract_x
_atom_site_fract_y
_atom_site_fract_z
Si Si1 0.764893 0.761046 0.399350
Si Si2 0.590139 0.402047 0.735288
Si Si3 0.106585 0.200256 0.837817
Si Si4 0.556549 0.641748 0.064362
Si Si5 0.324766 0.215530 0.029528
Si Si6 0.408585 0.358715 0.522993
Si Si7 0.122770 0.621017 0.421729
O O1 0.883825 0.705014 0.231205
O O2 0.749189 0.624321 0.386241
O O3 0.853196 0.793619 0.518901
O O4 0.500000 0.000000 0.500000
O O5 0.480057 0.609969 0.934491
O O6 0.442753 0.464026 0.659830
O O7 0.821916 0.286523 0.607354
O O8 0.599993 0.270891 0.763403
O O9 0.166517 0.230799 0.977628
O O10 0.831146 0.378796 0.944870
O O11 0.325625 0.918060 0.658879
O O12 0.564475 0.786526 0.089568
O O13 0.213710 0.417760 0.231750
O O14 0.500000 0.000000 0.000000
O O15 0.267098 0.505088 0.480917
#
# Coordination Sequence:
#
# PCOD9023994 Si02
#       7
#     2   2   2   2   2   2   2
#     4  10  22  40  62  95 123 165 221 262 312 377
#     4  10  22  41  69  91 128 174 214 253 326 387
#     4  11  21  39  63  93 127 166 215 264 317 371
#     4  10  22  41  66  92 127 171 215 262 312 387
#     4  11  21  37  67  92 127 164 213 268 321 364
#     4  11  23  38  65  95 132 167 213 262 322 383
#     4  11  22  43  64  94 135 169 208 269 320 377
#
# _framework density 23.29965
#
# number of rings (size 3 to 8) (size 9 to 14) (size 15 to 20)
#    0.000    1.429    4.286    2.143    2.000    0.571 
#    0.000    0.714    0.000    0.000    0.000    0.000 
#    0.000    0.000    0.000    0.000    0.000    0.000 
#
# Total GULP energy -78103.566567 kJ/mol
# GULP energy per Si atom -5578.826183 kJ/mol
# Density = 2.324662 g / cm^3
# Si number density = 23.299650 Si / 1000 Ang^3
#
#
#
# Elastic Constant Matrix: (Units=GPa)
#
#
# Indices 1 2 3 4 5 6 
#
# 1 148.7605 52.8523 36.9018 -13.5643 0.5360 -26.9235
# 2 52.8523 136.2464 44.6391 -12.5769 8.9729 -24.8291
# 3 36.9018 44.6391 84.0512 -10.2460 2.1050 -22.1516
# 4 -13.5643 -12.5769 -10.2460 25.6494 -13.4516 14.1697
# 5 0.5360 8.9729 2.1050 -13.4516 35.5359 -20.8191
# 6 -26.9235 -24.8291 -22.1516 14.1697 -20.8191 40.4986
#
#
#
# Elastic Compliance Matrix: (Units=1/GPa)
#
#
# Indices 1 2 3 4 5 6 
#
# 1 0.009004 -0.002180 -0.001132 0.002667 0.004731 0.005529
# 2 -0.002180 0.009855 -0.003669 0.000718 -0.000856 0.001895
# 3 -0.001132 -0.003669 0.016676 0.002813 0.005766 0.008099
# 4 0.002667 0.000718 0.002813 0.054115 0.016030 -0.006941
# 5 0.004731 -0.000856 0.005766 0.016030 0.048808 0.025256
# 6 0.005529 0.001895 0.008099 -0.006941 0.025256 0.049372
#
#
# Mechanical properties :
#
#
# Convention : Reuss Voigt Hill
#
# Bulk Modulus (GPa) = 46.34962 70.87161 58.61062
# Shear Modulus (GPa) = 23.92551 35.98110 29.95330
#
# Velocity S-wave (km/s) = 3.20794 3.93399 3.58937
# Velocity P-wave (km/s) = 5.80149 7.14972 6.51060
#
# Compressibility (1/GPa) = 0.02157515
#
# Stress axis : x y z
#
# Youngs Moduli (GPa) = 111.05810 101.46908 59.96704
#
# Poissons Ratio (x) = 0.22119 0.06786
# Poissons Ratio (y) = 0.24209 0.22000
# Poissons Ratio (z) = 0.12567 0.37225
#
# Static dielectric constant tensor:
#      x y z
#    x 2.010600 -0.080980 -0.150180 
#    y -0.080980 1.949170 0.141830 
#    z -0.150180 0.141830 2.089950 
# 
# From -- ./inp_files/243547.got.cif
#   From: 2010.05.17/outbox.cif.g08.bks.cpg/sg2_122_cif.got.tgz:243547.got - 2010.06.03 11:33:40.
