data_PCOD9023225
_publ_section_title
;
Structure prediction by ZEFSAII (Michael W. Deem and Ramdas Pophale) SiO2 
 PCOD9023225
Probable space group: P -1
;
_chemical_formula_sum "Si O2"
_cell_formula_units_Z 16
_cell_length_a 7.079993
_cell_length_b 7.829323
_cell_length_c 15.629172
_cell_angle_alpha 97.356136
_cell_angle_beta 46.948945
_cell_angle_gamma 114.230164
_cell_volume 562.064376
_symmetry_space_group_name_H-M "P -1"
_symmetry_group_IT_number 2
_symmetry_cell_setting 'triclinic'
loop_
_space_group_symop_operation_xyz
x,y,z
-x,-y,-z
loop_
_atom_site_type_symbol
_atom_site_label
_atom_site_fract_x
_atom_site_fract_y
_atom_site_fract_z
Si Si1 0.499957 0.742611 0.254505
Si Si2 0.757406 0.587909 0.282571
Si Si3 0.109208 0.557995 0.601761
Si Si4 0.386671 0.775484 0.041155
Si Si5 0.993850 0.159078 0.574694
Si Si6 0.949374 0.084413 0.328273
Si Si7 0.015458 0.888250 0.885897
Si Si8 0.633764 0.306646 0.146164
O O1 0.562078 0.694895 0.328203
O O2 0.243889 0.551428 0.280172
O O3 0.335210 0.876795 0.315296
O O4 0.818876 0.882449 0.129290
O O5 0.693905 0.474172 0.205090
O O6 0.724794 0.453635 0.364823
O O7 0.103238 0.718502 0.180955
O O8 0.127731 0.388395 0.526650
O O9 0.169247 0.776561 0.581126
O O10 0.670120 0.775120 0.993921
O O11 0.306565 0.654506 0.970543
O O12 0.500000 0.000000 0.000000
O O13 0.144259 0.121337 0.609651
O O14 0.000000 0.000000 0.500000
O O15 0.927134 0.107498 0.234805
O O16 0.291867 0.173211 0.245433
O O17 0.174084 0.790706 0.883858
#
# Coordination Sequence:
#
# PCOD9023225 Si02
#       8
#     2   2   2   2   2   2   2   2
#     4  10  22  39  67  89 125 172 208 258 333 379
#     4  12  22  43  61  91 133 168 225 262 311 380
#     4  10  23  40  68  96 125 176 213 265 321 388
#     4  11  26  36  59  95 127 169 224 274 304 367
#     4  10  23  43  70 100 131 159 208 274 328 391
#     4  11  21  42  68  96 129 171 220 259 322 393
#     4  11  22  40  63  90 127 177 216 264 317 376
#     4  11  22  40  62  88 129 175 216 260 322 369
#
# _framework density 28.466487999999998
#
# number of rings (size 3 to 8) (size 9 to 14) (size 15 to 20)
#    0.750    0.500    5.000    1.125    3.500    2.500 
#    0.000    2.500    0.000    2.250    0.000    0.000 
#    0.000    0.000    0.000    0.000    0.000    0.000 
#
# Total GULP energy -89455.258089 kJ/mol
# GULP energy per Si atom -5590.953631 kJ/mol
# Density = 2.840170 g / cm^3
# Si number density = 28.466488 Si / 1000 Ang^3
#
#
#
# Elastic Constant Matrix: (Units=GPa)
#
#
# Indices 1 2 3 4 5 6 
#
# 1 234.7652 39.2041 37.9975 9.3273 -5.7027 -15.2131
# 2 39.2041 105.5146 22.4926 10.4862 -0.6852 -26.7132
# 3 37.9975 22.4926 73.6260 10.5826 -9.3560 -2.6342
# 4 9.3273 10.4862 10.5826 50.1064 12.7191 -0.1610
# 5 -5.7027 -0.6852 -9.3560 12.7191 45.5642 11.8355
# 6 -15.2131 -26.7132 -2.6342 -0.1610 11.8355 59.2366
#
#
#
# Elastic Compliance Matrix: (Units=1/GPa)
#
#
# Indices 1 2 3 4 5 6 
#
# 1 0.004843 -0.001180 -0.002075 -0.000232 0.000070 0.000604
# 2 -0.001180 0.011983 -0.002882 -0.001261 -0.001580 0.005285
# 3 -0.002075 -0.002882 0.016586 -0.003705 0.004666 -0.002037
# 4 -0.000232 -0.001261 -0.003705 0.022929 -0.007404 0.000748
# 5 0.000070 -0.001580 0.004666 -0.007404 0.026462 -0.005794
# 6 0.000604 0.005285 -0.002037 0.000748 -0.005794 0.020489
#
#
# Mechanical properties :
#
#
# Convention : Reuss Voigt Hill
#
# Bulk Modulus (GPa) = 47.30942 68.14380 57.72661
# Shear Modulus (GPa) = 40.77899 51.92887 46.35393
#
# Velocity S-wave (km/s) = 3.78898 4.27571 4.03968
# Velocity P-wave (km/s) = 5.98308 6.95455 6.48703
#
# Compressibility (1/GPa) = 0.02113744
#
# Stress axis : x y z
#
# Youngs Moduli (GPa) = 206.50114 83.44852 60.29234
#
# Poissons Ratio (x) = 0.09851 0.12509
# Poissons Ratio (y) = 0.24377 0.17377
# Poissons Ratio (z) = 0.42842 0.24050
#
# Static dielectric constant tensor:
#      x y z
#    x 2.208230 0.010850 -0.023650 
#    y 0.010850 2.324450 0.039630 
#    z -0.023650 0.039630 2.446000 
# 
# From -- ./inp_files/547212.got.cif
#   From: 2010.05.17/outbox.cif.g08.bks.cpg/sg2_274_cif.got.tgz:547212.got - 2010.06.03 11:33:40.
