data_PCOD9023701
_publ_section_title
;
Structure prediction by ZEFSAII (Michael W. Deem and Ramdas Pophale) SiO2 
 PCOD9023701
Probable space group: P -1
;
_chemical_formula_sum "Si O2"
_cell_formula_units_Z 14
_cell_length_a 8.123554
_cell_length_b 15.015717
_cell_length_c 6.624250
_cell_angle_alpha 103.787034
_cell_angle_beta 74.942852
_cell_angle_gamma 60.085592
_cell_volume 607.510933
_symmetry_space_group_name_H-M "P -1"
_symmetry_group_IT_number 2
_symmetry_cell_setting 'triclinic'
loop_
_space_group_symop_operation_xyz
x,y,z
-x,-y,-z
loop_
_atom_site_type_symbol
_atom_site_label
_atom_site_fract_x
_atom_site_fract_y
_atom_site_fract_z
Si Si1 0.251139 0.724069 0.864821
Si Si2 0.391440 0.947756 0.114077
Si Si3 0.223637 0.904642 0.777189
Si Si4 0.311635 0.347522 0.414807
Si Si5 0.111070 0.097959 0.617425
Si Si6 0.019164 0.608669 0.781097
Si Si7 0.686098 0.774237 0.278543
O O1 0.211424 0.799089 0.718430
O O2 0.504586 0.657064 0.771543
O O3 0.163008 0.652971 0.794589
O O4 0.114096 0.807964 0.146496
O O5 0.372584 0.882130 0.906469
O O6 0.229023 0.980410 0.645916
O O7 0.536927 0.855429 0.188272
O O8 0.500000 0.000000 0.000000
O O9 0.599452 0.740693 0.470353
O O10 0.000000 0.000000 0.000000
O O11 0.150307 0.339146 0.323522
O O12 0.167124 0.474121 0.625758
O O13 0.228065 0.157638 0.624714
O O14 0.165593 0.044967 0.345975
O O15 0.873434 0.655937 0.051823
#
# Coordination Sequence:
#
# PCOD9023701 Si02
#       7
#     2   2   2   2   2   2   2
#     4  10  22  42  69  97 138 174 220 275 336 394
#     4  12  24  38  69  95 133 179 225 266 328 398
#     4  10  22  40  60  93 138 174 217 267 324 398
#     4  11  23  44  74  98 134 172 228 280 339 394
#     4  10  23  40  62  98 136 176 219 271 325 402
#     4  10  24  45  69 102 132 175 225 282 334 398
#     4  11  23  39  69 101 133 175 225 276 333 394
#
# _framework density 23.044851999999999
#
# number of rings (size 3 to 8) (size 9 to 14) (size 15 to 20)
#    0.000    1.429    1.429    3.000    4.000    2.286 
#    0.000   11.429    0.000   12.857    0.000    0.000 
#    0.000    0.000    0.000    0.000    0.000    0.000 
#
# Total GULP energy -78029.026986 kJ/mol
# GULP energy per Si atom -5573.501928 kJ/mol
# Density = 2.299240 g / cm^3
# Si number density = 23.044852 Si / 1000 Ang^3
#
#
#
# Elastic Constant Matrix: (Units=GPa)
#
#
# Indices 1 2 3 4 5 6 
#
# 1 90.7271 31.3334 43.9050 -20.1852 -12.7206 13.5658
# 2 31.3334 81.9714 38.4182 -17.5609 -8.5976 5.1961
# 3 43.9050 38.4182 168.0695 -9.0446 -10.7955 19.1042
# 4 -20.1852 -17.5609 -9.0446 27.4030 7.6816 -4.3978
# 5 -12.7206 -8.5976 -10.7955 7.6816 35.6272 -1.8191
# 6 13.5658 5.1961 19.1042 -4.3978 -1.8191 31.8367
#
#
#
# Elastic Compliance Matrix: (Units=1/GPa)
#
#
# Indices 1 2 3 4 5 6 
#
# 1 0.015780 -0.002697 -0.002530 0.007833 0.002347 -0.003550
# 2 -0.002697 0.016061 -0.002665 0.007461 0.000558 0.001189
# 3 -0.002530 -0.002665 0.007548 -0.001871 0.000980 -0.003219
# 4 0.007833 0.007461 -0.001871 0.048666 -0.006313 0.002929
# 5 0.002347 0.000558 0.000980 -0.006313 0.030658 -0.000799
# 6 -0.003550 0.001189 -0.003219 0.002929 -0.000799 0.035019
#
#
# Mechanical properties :
#
#
# Convention : Reuss Voigt Hill
#
# Bulk Modulus (GPa) = 42.36268 63.12014 52.74141
# Shear Modulus (GPa) = 28.18752 34.11415 31.15084
#
# Velocity S-wave (km/s) = 3.50116 3.85169 3.68060
# Velocity P-wave (km/s) = 5.89634 6.87243 6.40301
#
# Compressibility (1/GPa) = 0.02360568
#
# Stress axis : x y z
#
# Youngs Moduli (GPa) = 63.37000 62.26449 132.48439
#
# Poissons Ratio (x) = 0.16793 0.33520
# Poissons Ratio (y) = 0.17091 0.35301
# Poissons Ratio (z) = 0.16033 0.16591
#
# Static dielectric constant tensor:
#      x y z
#    x 1.971870 -0.051860 -0.080930 
#    y -0.051860 1.911850 0.043980 
#    z -0.080930 0.043980 1.899250 
# 
# From -- ./inp_files/219862.got.cif
#   From: 2010.05.17/outbox.cif.g08.bks.cpg/sg2_110_cif.got.tgz:219862.got - 2010.06.03 11:33:40.
