data_PCOD9023221
_publ_section_title
;
Structure prediction by ZEFSAII (Michael W. Deem and Ramdas Pophale) SiO2 
 PCOD9023221
Probable space group: P -1
;
_chemical_formula_sum "Si O2"
_cell_formula_units_Z 16
_cell_length_a 15.586882
_cell_length_b 10.749620
_cell_length_c 7.323760
_cell_angle_alpha 88.088956
_cell_angle_beta 97.026799
_cell_angle_gamma 31.199542
_cell_volume 607.749836
_symmetry_space_group_name_H-M "P -1"
_symmetry_group_IT_number 2
_symmetry_cell_setting 'triclinic'
loop_
_space_group_symop_operation_xyz
x,y,z
-x,-y,-z
loop_
_atom_site_type_symbol
_atom_site_label
_atom_site_fract_x
_atom_site_fract_y
_atom_site_fract_z
Si Si1 0.748122 0.830436 0.903804
Si Si2 0.996033 0.894018 0.734727
Si Si3 0.710229 0.301857 0.079137
Si Si4 0.629850 0.441616 0.464301
Si Si5 0.206144 0.231163 0.513061
Si Si6 0.772785 0.514795 0.503427
Si Si7 0.407440 0.821035 0.879976
Si Si8 0.043460 0.646864 0.073126
O O1 0.786079 0.637552 0.945178
O O2 0.818514 0.160454 0.590914
O O3 0.903259 0.711862 0.051163
O O4 0.586434 0.083893 0.962039
O O5 0.101407 0.878173 0.843525
O O6 0.111489 0.682826 0.621479
O O7 0.767403 0.832408 0.692168
O O8 0.974256 0.826545 0.896734
O O9 0.623313 0.438961 0.245098
O O10 0.692821 0.176222 0.069621
O O11 0.596461 0.526884 0.900103
O O12 0.500000 0.500000 0.500000
O O13 0.626742 0.592988 0.498660
O O14 0.284127 0.272752 0.561249
O O15 0.000000 0.500000 0.500000
O O16 0.304759 0.008052 0.674626
O O17 0.895694 0.374694 0.718901
#
# Coordination Sequence:
#
# PCOD9023221 Si02
#       8
#     2   2   2   2   2   2   2   2
#     4  10  22  39  67 112 143 184 240 301 350 441
#     4  11  24  45  74  98 144 196 245 303 368 438
#     4  10  26  46  70 107 148 200 244 298 368 438
#     4  11  27  46  72 106 145 192 253 313 367 430
#     4  11  23  40  75 113 147 194 242 297 374 435
#     4  10  22  44  71 108 145 185 245 298 366 444
#     4  11  24  44  72 103 154 189 243 296 367 434
#     4  10  22  39  71 109 139 183 245 290 367 430
#
# _framework density 26.326619999999998
#
# number of rings (size 3 to 8) (size 9 to 14) (size 15 to 20)
#    0.000    1.500    0.000    5.250   10.500    2.500 
#    0.000    8.750    0.000    8.250    0.000    0.000 
#    0.000    0.000    0.000    0.000    0.000    0.000 
#
# Total GULP energy -89679.720648 kJ/mol
# GULP energy per Si atom -5604.982540 kJ/mol
# Density = 2.626670 g / cm^3
# Si number density = 26.326620 Si / 1000 Ang^3
#
#
#
# Elastic Constant Matrix: (Units=GPa)
#
#
# Indices 1 2 3 4 5 6 
#
# 1 125.6847 21.4204 26.4454 0.2945 4.7992 16.1707
# 2 21.4204 100.7989 43.1790 -4.7721 9.8591 26.6320
# 3 26.4454 43.1790 155.4243 -20.9674 -3.2344 12.8711
# 4 0.2945 -4.7721 -20.9674 60.4052 3.6643 -1.8854
# 5 4.7992 9.8591 -3.2344 3.6643 36.4557 -3.5622
# 6 16.1707 26.6320 12.8711 -1.8854 -3.5622 38.0382
#
#
#
# Elastic Compliance Matrix: (Units=1/GPa)
#
#
# Indices 1 2 3 4 5 6 
#
# 1 0.008744 -0.000377 -0.001216 -0.000508 -0.001419 -0.003200
# 2 -0.000377 0.014327 -0.003253 0.000021 -0.005018 -0.009239
# 3 -0.001216 -0.003253 0.007867 0.002399 0.001535 0.000395
# 4 -0.000508 0.000021 0.002399 0.017485 -0.001472 0.000119
# 5 -0.001419 -0.005018 0.001535 -0.001472 0.029876 0.006322
# 6 -0.003200 -0.009239 0.000395 0.000119 0.006322 0.034582
#
#
# Mechanical properties :
#
#
# Convention : Reuss Voigt Hill
#
# Bulk Modulus (GPa) = 47.06677 62.66640 54.86659
# Shear Modulus (GPa) = 38.56385 46.37071 42.46728
#
# Velocity S-wave (km/s) = 3.83145 4.20141 4.02069
# Velocity P-wave (km/s) = 6.12292 6.88411 6.51464
#
# Compressibility (1/GPa) = 0.02124641
#
# Stress axis : x y z
#
# Youngs Moduli (GPa) = 114.36962 69.79823 127.10625
#
# Poissons Ratio (x) = 0.02632 0.15457
# Poissons Ratio (y) = 0.04313 0.41343
# Poissons Ratio (z) = 0.13908 0.22703
#
# Static dielectric constant tensor:
#      x y z
#    x 2.066500 -0.069390 -0.000570 
#    y -0.069390 2.197680 -0.019420 
#    z -0.000570 -0.019420 2.028510 
# 
# From -- ./inp_files/297903.got.cif
#   From: 2010.05.17/outbox.cif.g08.bks.cpg/sg2_149_cif.got.tgz:297903.got - 2010.06.03 11:33:40.
