data_PCOD9023673
_publ_section_title
;
Structure prediction by ZEFSAII (Michael W. Deem and Ramdas Pophale) SiO2 
 PCOD9023673
Probable space group: P -1
;
_chemical_formula_sum "Si O2"
_cell_formula_units_Z 12
_cell_length_a 6.623792
_cell_length_b 12.970941
_cell_length_c 9.186618
_cell_angle_alpha 101.907911
_cell_angle_beta 84.715400
_cell_angle_gamma 54.368060
_cell_volume 604.925567
_symmetry_space_group_name_H-M "P -1"
_symmetry_group_IT_number 2
_symmetry_cell_setting 'triclinic'
loop_
_space_group_symop_operation_xyz
x,y,z
-x,-y,-z
loop_
_atom_site_type_symbol
_atom_site_label
_atom_site_fract_x
_atom_site_fract_y
_atom_site_fract_z
Si Si1 0.234169 0.799781 0.217257
Si Si2 0.749881 0.538591 0.613268
Si Si3 0.201339 0.052966 0.207477
Si Si4 0.210149 0.138223 0.922455
Si Si5 0.758474 0.623446 0.963786
Si Si6 0.248505 0.711092 0.507340
O O1 0.265037 0.774482 0.379140
O O2 0.995220 0.809860 0.175635
O O3 0.180815 0.938019 0.220334
O O4 0.494858 0.682051 0.083469
O O5 0.751775 0.580827 0.789237
O O6 0.491535 0.655267 0.579163
O O7 0.748084 0.412284 0.574653
O O8 0.000000 0.500000 0.500000
O O9 0.011671 0.180665 0.356865
O O10 0.502619 0.986629 0.181285
O O11 0.132979 0.094226 0.055076
O O12 0.221926 0.255970 0.005032
O O13 0.000000 0.500000 0.000000
#
# Coordination Sequence:
#
# PCOD9023673 Si02
#       6
#     2   2   2   2   2   2
#     4  11  23  39  62  90 120 155 198 246 295 350
#     4  11  24  41  62  88 121 158 197 243 296 353
#     4  10  22  40  60  88 121 156 199 243 294 351
#     4  10  22  40  63  89 117 157 201 243 295 349
#     4  11  23  40  63  90 120 155 199 246 293 351
#     4  11  24  40  61  90 121 157 197 242 298 353
#
# _framework density 19.837150999999999
#
# number of rings (size 3 to 8) (size 9 to 14) (size 15 to 20)
#    0.000    1.333    0.000    5.000    0.000   11.333 
#    0.000    0.000    0.000    0.000    0.000    0.000 
#    0.000    0.000    0.000    0.000    0.000    0.000 
#
# Total GULP energy -67135.077500 kJ/mol
# GULP energy per Si atom -5594.589792 kJ/mol
# Density = 1.979200 g / cm^3
# Si number density = 19.837151 Si / 1000 Ang^3
#
#
#
# Elastic Constant Matrix: (Units=GPa)
#
#
# Indices 1 2 3 4 5 6 
#
# 1 70.4041 40.5827 58.9454 -7.3077 13.3991 -16.0720
# 2 40.5827 108.8048 73.0891 -3.7035 3.0008 -23.9807
# 3 58.9454 73.0891 164.4310 -5.7066 1.4648 -23.7911
# 4 -7.3077 -3.7035 -5.7066 31.3100 -4.8568 -5.1110
# 5 13.3991 3.0008 1.4648 -4.8568 31.2358 -7.6691
# 6 -16.0720 -23.9807 -23.7911 -5.1110 -7.6691 29.9227
#
#
#
# Elastic Compliance Matrix: (Units=1/GPa)
#
#
# Indices 1 2 3 4 5 6 
#
# 1 0.024474 -0.003690 -0.006439 0.003355 -0.008468 0.003471
# 2 -0.003690 0.015102 -0.004235 0.001798 0.002501 0.007702
# 3 -0.006439 -0.004235 0.010659 0.000912 0.003465 0.002666
# 4 0.003355 0.001798 0.000912 0.036111 0.006882 0.011900
# 5 -0.008468 0.002501 0.003465 0.006882 0.039116 0.011412
# 6 0.003471 0.007702 0.002666 0.011900 0.011412 0.048533
#
#
# Mechanical properties :
#
#
# Convention : Reuss Voigt Hill
#
# Bulk Modulus (GPa) = 46.49968 76.54158 61.52063
# Shear Modulus (GPa) = 23.82157 29.89521 26.85839
#
# Velocity S-wave (km/s) = 3.46910 3.88626 3.68359
# Velocity P-wave (km/s) = 6.28791 7.66851 7.01227
#
# Compressibility (1/GPa) = 0.02150552
#
# Stress axis : x y z
#
# Youngs Moduli (GPa) = 40.85914 66.21635 93.81757
#
# Poissons Ratio (x) = 0.24436 0.60410
# Poissons Ratio (y) = 0.15078 0.39736
# Poissons Ratio (z) = 0.26310 0.28045
#
# Static dielectric constant tensor:
#      x y z
#    x 1.683200 0.005550 -0.005200 
#    y 0.005550 1.688830 -0.000550 
#    z -0.005200 -0.000550 1.652600 
# 
# From -- ./inp_files/19012.got.cif
#   From: 2010.05.17/outbox.cif.g08.bks.cpg/sg2_10_cif.got.tgz:19012.got - 2010.06.03 11:33:40.
