data_PCOD9023135
_publ_section_title
;
Structure prediction by ZEFSAII (Michael W. Deem and Ramdas Pophale) SiO2 
 PCOD9023135
Probable space group: P -1
;
_chemical_formula_sum "Si O2"
_cell_formula_units_Z 16
_cell_length_a 9.609888
_cell_length_b 13.845883
_cell_length_c 8.667838
_cell_angle_alpha 71.149581
_cell_angle_beta 114.161181
_cell_angle_gamma 64.318481
_cell_volume 752.443943
_symmetry_space_group_name_H-M "P -1"
_symmetry_group_IT_number 2
_symmetry_cell_setting 'triclinic'
loop_
_space_group_symop_operation_xyz
x,y,z
-x,-y,-z
loop_
_atom_site_type_symbol
_atom_site_label
_atom_site_fract_x
_atom_site_fract_y
_atom_site_fract_z
Si Si1 0.803089 0.386085 0.827568
Si Si2 0.190011 0.842392 0.141234
Si Si3 0.251775 0.898357 0.828414
Si Si4 0.410899 0.645769 0.629193
Si Si5 0.955237 0.185653 0.428552
Si Si6 0.865064 0.713030 0.723588
Si Si7 0.389261 0.258271 0.149071
Si Si8 0.028707 0.517464 0.328179
O O1 0.876862 0.239673 0.907443
O O2 0.570108 0.495064 0.714356
O O3 0.840604 0.438578 0.667245
O O4 0.938644 0.375798 0.029558
O O5 0.318673 0.756787 0.394053
O O6 0.313723 0.839347 0.058505
O O7 0.000000 0.000000 0.000000
O O8 0.147415 0.846230 0.724858
O O9 0.432566 0.855297 0.823426
O O10 0.082292 0.059810 0.667393
O O11 0.226859 0.682677 0.627778
O O12 0.534597 0.669145 0.781111
O O13 0.102259 0.199207 0.403874
O O14 0.676601 0.785328 0.716517
O O15 0.871701 0.615668 0.659895
O O16 0.190963 0.364414 0.903904
O O17 0.000000 0.500000 0.500000
#
# Coordination Sequence:
#
# PCOD9023135 Si02
#       8
#     2   2   2   2   2   2   2   2
#     4  11  23  43  65  99 132 177 223 267 334 394
#     4  12  25  42  66  96 140 176 219 280 329 385
#     4  10  22  41  61  96 130 177 224 266 324 396
#     4  11  22  41  67  98 134 169 219 279 325 392
#     4  10  22  39  66  94 130 173 223 264 330 392
#     4  11  21  43  68  93 134 175 214 276 331 394
#     4  10  22  41  67  93 132 173 221 266 333 397
#     4  11  24  40  67  96 135 170 216 277 335 393
#
# _framework density 21.264042
#
# number of rings (size 3 to 8) (size 9 to 14) (size 15 to 20)
#    0.000    1.250    5.000    1.125    3.500    2.000 
#    0.000    1.250    0.000    4.500    0.000    0.000 
#    0.000    0.000    0.000    0.000    0.000    0.000 
#
# Total GULP energy -89404.923789 kJ/mol
# GULP energy per Si atom -5587.807737 kJ/mol
# Density = 2.121564 g / cm^3
# Si number density = 21.264042 Si / 1000 Ang^3
#
#
#
# Elastic Constant Matrix: (Units=GPa)
#
#
# Indices 1 2 3 4 5 6 
#
# 1 114.2499 46.3345 8.4633 3.1471 -28.2345 -19.1725
# 2 46.3345 93.9146 24.1090 -9.8490 -9.7495 -19.8339
# 3 8.4633 24.1090 48.9856 9.0360 -16.8857 -1.4474
# 4 3.1471 -9.8490 9.0360 25.4823 -3.6358 -4.5681
# 5 -28.2345 -9.7495 -16.8857 -3.6358 37.7512 3.0513
# 6 -19.1725 -19.8339 -1.4474 -4.5681 3.0513 22.2265
#
#
#
# Elastic Compliance Matrix: (Units=1/GPa)
#
#
# Indices 1 2 3 4 5 6 
#
# 1 0.014792 -0.007122 0.005646 -0.004226 0.010987 0.004395
# 2 -0.007122 0.022867 -0.014667 0.017262 -0.005745 0.017643
# 3 0.005646 -0.014667 0.035021 -0.018738 0.015255 -0.011882
# 4 -0.004226 0.017262 -0.018738 0.056649 -0.003459 0.022655
# 5 0.010987 -0.005745 0.015255 -0.003459 0.039780 -0.000828
# 6 0.004395 0.017643 -0.011882 0.022655 -0.000828 0.068523
#
#
# Mechanical properties :
#
#
# Convention : Reuss Voigt Hill
#
# Bulk Modulus (GPa) = 24.75556 46.10708 35.43132
# Shear Modulus (GPa) = 17.64412 28.97490 23.30951
#
# Velocity S-wave (km/s) = 2.88369 3.69538 3.31447
# Velocity P-wave (km/s) = 4.77020 6.31965 5.59878
#
# Compressibility (1/GPa) = 0.04039497
#
# Stress axis : x y z
#
# Youngs Moduli (GPa) = 67.60467 43.73183 28.55424
#
# Poissons Ratio (x) = 0.31144 -0.16122
# Poissons Ratio (y) = 0.48145 0.41880
# Poissons Ratio (z) = -0.38170 0.64140
#
# Static dielectric constant tensor:
#      x y z
#    x 1.775700 -0.014230 -0.009990 
#    y -0.014230 1.774850 0.017250 
#    z -0.009990 0.017250 1.760980 
# 
# From -- ./inp_files/205985.got.cif
#   From: 2010.05.17/outbox.cif.g08.bks.cpg/sg2_103_cif.got.tgz:205985.got - 2010.06.03 11:33:40.
