data_PCOD9023578
_publ_section_title
;
Structure prediction by ZEFSAII (Michael W. Deem and Ramdas Pophale) SiO2 
 PCOD9023578
Probable space group: P -1
;
_chemical_formula_sum "Si O2"
_cell_formula_units_Z 12
_cell_length_a 5.133404
_cell_length_b 8.673477
_cell_length_c 10.042265
_cell_angle_alpha 102.039324
_cell_angle_beta 82.076464
_cell_angle_gamma 95.673581
_cell_volume 431.981033
_symmetry_space_group_name_H-M "P -1"
_symmetry_group_IT_number 2
_symmetry_cell_setting 'triclinic'
loop_
_space_group_symop_operation_xyz
x,y,z
-x,-y,-z
loop_
_atom_site_type_symbol
_atom_site_label
_atom_site_fract_x
_atom_site_fract_y
_atom_site_fract_z
Si Si1 0.368710 0.355250 0.111596
Si Si2 0.191095 0.110741 0.910954
Si Si3 0.023693 0.831103 0.719492
Si Si4 0.296653 0.551959 0.633462
Si Si5 0.117859 0.663870 0.210766
Si Si6 0.721637 0.026441 0.598511
O O1 0.551770 0.388173 0.231961
O O2 0.087984 0.275478 0.169404
O O3 0.286855 0.529696 0.107555
O O4 0.432472 0.206400 0.986964
O O5 0.049623 0.249815 0.871783
O O6 0.224090 0.978573 0.772010
O O7 0.000000 0.000000 0.000000
O O8 0.160407 0.699405 0.604304
O O9 0.765660 0.899868 0.688550
O O10 0.500000 0.500000 0.500000
O O11 0.082493 0.419136 0.680541
O O12 0.284156 0.802321 0.302492
O O13 0.500000 0.000000 0.500000
O O14 0.000000 0.000000 0.500000
#
# Coordination Sequence:
#
# PCOD9023578 Si02
#       6
#     2   2   2   2   2   2
#     4  10  22  39  73  96 139 191 236 307 364 434
#     4   9  19  45  71  98 136 185 247 312 365 434
#     4   9  23  44  65 102 139 188 245 304 362 436
#     4  11  26  42  68 104 152 194 243 298 371 439
#     4  10  24  44  66 106 140 185 248 304 366 440
#     4  11  27  43  71 102 148 196 243 304 369 447
#
# _framework density 27.778998999999999
#
# number of rings (size 3 to 8) (size 9 to 14) (size 15 to 20)
#    0.000    2.000    0.000    0.500    9.333    2.667 
#    0.000    5.000    0.000    0.000    0.000    0.000 
#    0.000    0.000    0.000    0.000    0.000    0.000 
#
# Total GULP energy -67177.523240 kJ/mol
# GULP energy per Si atom -5598.126937 kJ/mol
# Density = 2.771577 g / cm^3
# Si number density = 27.778999 Si / 1000 Ang^3
#
#
#
# Elastic Constant Matrix: (Units=GPa)
#
#
# Indices 1 2 3 4 5 6 
#
# 1 116.2294 62.9539 51.7762 26.0821 15.5125 -11.8720
# 2 62.9539 213.2170 62.4918 20.8623 11.0807 0.4350
# 3 51.7762 62.4918 143.7989 21.9708 28.2127 -1.1986
# 4 26.0821 20.8623 21.9708 40.0178 5.1208 -1.1168
# 5 15.5125 11.0807 28.2127 5.1208 60.5349 7.6719
# 6 -11.8720 0.4350 -1.1986 -1.1168 7.6719 48.8865
#
#
#
# Elastic Compliance Matrix: (Units=1/GPa)
#
#
# Indices 1 2 3 4 5 6 
#
# 1 0.012750 -0.002468 -0.002332 -0.005440 -0.001674 0.003200
# 2 -0.002468 0.005958 -0.001704 -0.000646 0.000491 -0.000786
# 3 -0.002332 -0.001704 0.009564 -0.002407 -0.003364 0.000156
# 4 -0.005440 -0.000646 -0.002407 0.030151 0.000174 -0.000713
# 5 -0.001674 0.000491 -0.003364 0.000174 0.018848 -0.003447
# 6 0.003200 -0.000786 0.000156 -0.000713 -0.003447 0.021768
#
#
# Mechanical properties :
#
#
# Convention : Reuss Voigt Hill
#
# Bulk Modulus (GPa) = 65.52204 91.96544 78.74374
# Shear Modulus (GPa) = 42.68550 49.62274 46.15412
#
# Velocity S-wave (km/s) = 3.92422 4.23110 4.08054
# Velocity P-wave (km/s) = 6.64611 7.55298 7.11401
#
# Compressibility (1/GPa) = 0.01526204
#
# Stress axis : x y z
#
# Youngs Moduli (GPa) = 78.42915 167.84845 104.56346
#
# Poissons Ratio (x) = 0.41433 0.24384
# Poissons Ratio (y) = 0.19360 0.17822
# Poissons Ratio (z) = 0.18289 0.28608
#
# Static dielectric constant tensor:
#      x y z
#    x 2.253820 0.008630 -0.130250 
#    y 0.008630 2.252410 -0.067860 
#    z -0.130250 -0.067860 2.458650 
# 
# From -- ./inp_files/360437.got.cif
#   From: 2010.05.17/outbox.cif.g08.bks.cpg/sg2_181_cif.got.tgz:360437.got - 2010.06.03 11:33:40.
