data_PCOD9023454
_publ_section_title
;
Structure prediction by ZEFSAII (Michael W. Deem and Ramdas Pophale) SiO2 
 PCOD9023454
Probable space group: P -1
;
_chemical_formula_sum "Si O2"
_cell_formula_units_Z 14
_cell_length_a 12.386976
_cell_length_b 8.469966
_cell_length_c 9.085403
_cell_angle_alpha 71.109556
_cell_angle_beta 129.185642
_cell_angle_gamma 126.679595
_cell_volume 590.329414
_symmetry_space_group_name_H-M "P -1"
_symmetry_group_IT_number 2
_symmetry_cell_setting 'triclinic'
loop_
_space_group_symop_operation_xyz
x,y,z
-x,-y,-z
loop_
_atom_site_type_symbol
_atom_site_label
_atom_site_fract_x
_atom_site_fract_y
_atom_site_fract_z
Si Si1 0.895826 0.582302 0.095269
Si Si2 0.272631 0.853454 0.385056
Si Si3 0.344508 0.637758 0.299314
Si Si4 0.598785 0.588022 0.349901
Si Si5 0.305881 0.762908 0.774547
Si Si6 0.728140 0.820606 0.874734
Si Si7 0.313448 0.081792 0.880206
O O1 0.812752 0.462552 0.209848
O O2 0.087940 0.676009 0.237695
O O3 0.797876 0.432853 0.922132
O O4 0.855229 0.751627 0.989770
O O5 0.381402 0.828352 0.363506
O O6 0.302414 0.809940 0.587700
O O7 0.273552 0.051269 0.299008
O O8 0.500036 0.664603 0.335732
O O9 0.306322 0.471088 0.438184
O O10 0.452646 0.383098 0.213684
O O11 0.702430 0.754151 0.269826
O O12 0.253383 0.889853 0.787935
O O13 0.491068 0.827933 0.956888
O O14 0.760394 0.943579 0.014254
#
# Coordination Sequence:
#
# PCOD9023454 Si02
#       7
#     2   2   2   2   2   2   2
#     4  11  24  47  62  90 132 172 211 254 306 380
#     4  12  26  41  65  95 129 169 216 252 303 384
#     4  10  22  39  69  91 124 166 211 254 323 357
#     4  10  22  40  67  98 130 154 210 269 317 376
#     4  11  25  41  67  93 128 166 210 261 318 371
#     4  11  24  40  68  94 126 168 209 260 321 361
#     4  11  23  42  67  94 131 157 208 270 324 368
#
# _framework density 23.715572000000002
#
# number of rings (size 3 to 8) (size 9 to 14) (size 15 to 20)
#    0.000    1.143    2.857    3.429   10.000    1.143 
#    0.000    0.714    0.000    0.000    0.000    0.000 
#    0.000    0.000    0.000    0.000    0.000    0.000 
#
# Total GULP energy -78444.928106 kJ/mol
# GULP energy per Si atom -5603.209150 kJ/mol
# Density = 2.366159 g / cm^3
# Si number density = 23.715572 Si / 1000 Ang^3
#
#
#
# Elastic Constant Matrix: (Units=GPa)
#
#
# Indices 1 2 3 4 5 6 
#
# 1 50.9457 16.8926 21.5015 2.4464 -16.8545 -20.4611
# 2 16.8926 79.8624 42.5225 -22.2034 -7.9277 -14.2676
# 3 21.5015 42.5225 114.5658 -31.3864 -22.4516 -1.1682
# 4 2.4464 -22.2034 -31.3864 46.7092 -2.6375 -9.8869
# 5 -16.8545 -7.9277 -22.4516 -2.6375 29.9819 10.9962
# 6 -20.4611 -14.2676 -1.1682 -9.8869 10.9962 31.3696
#
#
#
# Elastic Compliance Matrix: (Units=1/GPa)
#
#
# Indices 1 2 3 4 5 6 
#
# 1 0.030943 -0.000895 -0.003918 -0.000715 0.008084 0.016571
# 2 -0.000895 0.019607 -0.005342 0.008091 -0.002898 0.011701
# 3 -0.003918 -0.005342 0.015568 0.007503 0.010846 -0.005842
# 4 -0.000715 0.008091 0.007503 0.033182 0.005919 0.011877
# 5 0.008084 -0.002898 0.010846 0.005919 0.049907 -0.011270
# 6 0.016571 0.011701 -0.005842 0.011877 -0.011270 0.055485
#
#
# Mechanical properties :
#
#
# Convention : Reuss Voigt Hill
#
# Bulk Modulus (GPa) = 21.82950 45.24526 33.53738
# Shear Modulus (GPa) = 20.80989 32.57596 26.69293
#
# Velocity S-wave (km/s) = 2.96544 3.71025 3.35855
# Velocity P-wave (km/s) = 4.57709 6.12162 5.40482
#
# Compressibility (1/GPa) = 0.04580958
#
# Stress axis : x y z
#
# Youngs Moduli (GPa) = 32.31750 51.00185 64.23530
#
# Poissons Ratio (x) = 0.04564 0.25166
# Poissons Ratio (y) = 0.02892 0.34312
# Poissons Ratio (z) = 0.12661 0.27243
#
# Static dielectric constant tensor:
#      x y z
#    x 1.894730 -0.006910 0.002940 
#    y -0.006910 1.918070 0.022490 
#    z 0.002940 0.022490 1.874970 
# 
# From -- ./inp_files/206855.got.cif
#   From: 2010.05.17/outbox.cif.g08.bks.cpg/sg2_104_cif.got.tgz:206855.got - 2010.06.03 11:33:40.
