data_PCOD9023665
_publ_section_title
;
Structure prediction by ZEFSAII (Michael W. Deem and Ramdas Pophale) SiO2 
 PCOD9023665
Probable space group: P -1
;
_chemical_formula_sum "Si O2"
_cell_formula_units_Z 14
_cell_length_a 5.168835
_cell_length_b 5.249262
_cell_length_c 22.342094
_cell_angle_alpha 87.185355
_cell_angle_beta 92.815539
_cell_angle_gamma 117.613635
_cell_volume 536.262321
_symmetry_space_group_name_H-M "P -1"
_symmetry_group_IT_number 2
_symmetry_cell_setting 'triclinic'
loop_
_space_group_symop_operation_xyz
x,y,z
-x,-y,-z
loop_
_atom_site_type_symbol
_atom_site_label
_atom_site_fract_x
_atom_site_fract_y
_atom_site_fract_z
Si Si1 0.222347 0.792256 0.431033
Si Si2 0.557768 0.208381 0.254420
Si Si3 0.459417 0.651583 0.110837
Si Si4 0.887285 0.000012 0.931938
Si Si5 0.455494 0.655944 0.323025
Si Si6 0.383017 0.616041 0.550862
Si Si7 0.109688 0.651122 0.218636
O O1 0.401203 0.679800 0.392170
O O2 0.234487 0.771135 0.504035
O O3 0.886559 0.615414 0.413606
O O4 0.359813 0.126513 0.415274
O O5 0.542332 0.428057 0.299186
O O6 0.786129 0.406580 0.204443
O O7 0.631575 0.974154 0.291893
O O8 0.240324 0.995812 0.223529
O O9 0.809943 0.828955 0.104523
O O10 0.303413 0.828171 0.076485
O O11 0.344191 0.630161 0.177685
O O12 0.314746 0.329653 0.086337
O O13 0.000000 0.000000 0.000000
O O14 0.146819 0.565855 0.287662
O O15 0.500000 0.500000 0.500000
#
# Coordination Sequence:
#
# PCOD9023665 Si02
#       7
#     2   2   2   2   2   2   2
#     4  10  23  38  60  89 117 159 206 261 315 390
#     4  10  25  40  65  90 134 163 221 262 324 401
#     4  12  26  43  76 100 148 184 235 294 351 412
#     4  12  26  47  72 107 141 189 238 291 349 414
#     4  10  26  41  66  93 131 165 218 264 330 392
#     4  10  22  40  60  86 118 156 208 255 324 380
#     4  10  26  41  66  98 130 176 219 271 335 403
#
# _framework density 26.106625999999999
#
# number of rings (size 3 to 8) (size 9 to 14) (size 15 to 20)
#    0.857    0.571    0.000    3.429   10.000    0.000 
#    0.000    0.000    0.000    0.000    0.000    0.000 
#    0.000    0.000    0.000    0.000    0.000    0.000 
#
# Total GULP energy -78178.905026 kJ/mol
# GULP energy per Si atom -5584.207502 kJ/mol
# Density = 2.604721 g / cm^3
# Si number density = 26.106626 Si / 1000 Ang^3
#
#
#
# Elastic Constant Matrix: (Units=GPa)
#
#
# Indices 1 2 3 4 5 6 
#
# 1 65.4360 55.4900 -11.5813 -20.0651 -20.3471 14.8602
# 2 55.4900 253.6419 25.7263 -5.7533 -33.9670 11.4073
# 3 -11.5813 25.7263 98.0285 -3.3594 -2.9192 1.6906
# 4 -20.0651 -5.7533 -3.3594 35.1021 2.1718 -12.2263
# 5 -20.3471 -33.9670 -2.9192 2.1718 46.5541 -10.4276
# 6 14.8602 11.4073 1.6906 -12.2263 -10.4276 50.3149
#
#
#
# Elastic Compliance Matrix: (Units=1/GPa)
#
#
# Indices 1 2 3 4 5 6 
#
# 1 0.027943 -0.005224 0.005429 0.014409 0.007582 -0.002178
# 2 -0.005224 0.005467 -0.002084 -0.002340 0.001720 0.000161
# 3 0.005429 -0.002084 0.011561 0.003663 0.001327 -0.000354
# 4 0.014409 -0.002340 0.003663 0.038670 0.004466 0.006474
# 5 0.007582 0.001720 0.001327 0.004466 0.026813 0.003968
# 6 -0.002178 0.000161 -0.000354 0.006474 0.003968 0.022889
#
#
# Mechanical properties :
#
#
# Convention : Reuss Voigt Hill
#
# Bulk Modulus (GPa) = 24.26330 61.81961 43.04146
# Shear Modulus (GPa) = 33.14834 49.55900 41.35367
#
# Velocity S-wave (km/s) = 3.56719 4.36171 3.98430
# Velocity P-wave (km/s) = 5.12646 7.00693 6.13912
#
# Compressibility (1/GPa) = 0.04121450
#
# Stress axis : x y z
#
# Youngs Moduli (GPa) = 35.78681 182.92388 86.50136
#
# Poissons Ratio (x) = 0.95555 -0.46964
# Poissons Ratio (y) = 0.18694 0.18023
# Poissons Ratio (z) = -0.19430 0.38113
#
# Static dielectric constant tensor:
#      x y z
#    x 2.253380 0.012700 0.135310 
#    y 0.012700 2.101460 -0.090770 
#    z 0.135310 -0.090770 2.110720 
# 
# From -- ./inp_files/614714.got.cif
#   From: 2010.05.17/outbox.cif.g08.bks.cpg/sg2_308_cif.got.tgz:614714.got - 2010.06.03 11:33:40.
