data_PCOD9023501
_publ_section_title
;
Structure prediction by ZEFSAII (Michael W. Deem and Ramdas Pophale) SiO2 
 PCOD9023501
Probable space group: P -1
;
_chemical_formula_sum "Si O2"
_cell_formula_units_Z 16
_cell_length_a 12.107090
_cell_length_b 5.111168
_cell_length_c 16.585362
_cell_angle_alpha 94.580699
_cell_angle_beta 39.546314
_cell_angle_gamma 78.939479
_cell_volume 597.191666
_symmetry_space_group_name_H-M "P -1"
_symmetry_group_IT_number 2
_symmetry_cell_setting 'triclinic'
loop_
_space_group_symop_operation_xyz
x,y,z
-x,-y,-z
loop_
_atom_site_type_symbol
_atom_site_label
_atom_site_fract_x
_atom_site_fract_y
_atom_site_fract_z
Si Si1 0.961434 0.157449 0.858288
Si Si2 0.458268 0.338960 0.718427
Si Si3 0.072916 0.501801 0.594424
Si Si4 0.819769 0.130820 0.717639
Si Si5 0.949876 0.369371 0.105159
Si Si6 0.683120 0.990537 0.445210
Si Si7 0.456021 0.608552 0.904428
Si Si8 0.656821 0.843934 0.692124
O O1 0.974275 0.463649 0.869689
O O2 0.157273 0.976368 0.699405
O O3 0.754225 0.236772 0.940801
O O4 0.966915 0.964048 0.928712
O O5 0.275194 0.506684 0.772792
O O6 0.441797 0.508233 0.815955
O O7 0.624945 0.224674 0.555618
O O8 0.487597 0.028876 0.731925
O O9 0.937282 0.327957 0.658053
O O10 0.216259 0.321904 0.578469
O O11 0.202489 0.435999 0.439342
O O12 0.941317 0.833669 0.686378
O O13 0.602361 0.341403 0.863772
O O14 0.784727 0.018339 0.646473
O O15 0.000000 0.500000 0.000000
O O16 0.500000 0.000000 0.500000
O O17 0.566086 0.807206 0.825755
#
# Coordination Sequence:
#
# PCOD9023501 Si02
#       8
#     2   2   2   2   2   2   2   2
#     4  12  28  46  72 103 151 193 240 295 363 429
#     4  10  23  40  70 104 145 185 241 294 359 419
#     4  11  25  41  71 103 144 185 240 291 364 417
#     4  11  23  43  69 107 140 185 233 306 356 430
#     4  12  24  44  71 105 144 189 242 298 357 423
#     4  11  26  52  71 107 148 197 244 296 356 435
#     4  11  24  42  74 109 146 182 242 299 367 424
#     4  10  22  39  70 106 145 178 238 299 369 416
#
# _framework density 26.792069000000001
#
# number of rings (size 3 to 8) (size 9 to 14) (size 15 to 20)
#    0.000    1.000    3.750    1.875    8.750    1.500 
#    2.250    1.250    0.000    0.000    0.000    0.000 
#    0.000    0.000    0.000    0.000    0.000    0.000 
#
# Total GULP energy -89423.607959 kJ/mol
# GULP energy per Si atom -5588.975497 kJ/mol
# Density = 2.673109 g / cm^3
# Si number density = 26.792069 Si / 1000 Ang^3
#
#
#
# Elastic Constant Matrix: (Units=GPa)
#
#
# Indices 1 2 3 4 5 6 
#
# 1 120.6650 50.9158 43.4822 7.6771 -30.9609 -19.0570
# 2 50.9158 146.7397 43.2005 12.1576 -33.6749 -16.1698
# 3 43.4822 43.2005 147.0084 20.6098 -18.0584 -4.8780
# 4 7.6771 12.1576 20.6098 35.7832 -10.5215 -13.2386
# 5 -30.9609 -33.6749 -18.0584 -10.5215 45.9874 16.9583
# 6 -19.0570 -16.1698 -4.8780 -13.2386 16.9583 53.4865
#
#
#
# Elastic Compliance Matrix: (Units=1/GPa)
#
#
# Indices 1 2 3 4 5 6 
#
# 1 0.011506 -0.002080 -0.002375 0.001849 0.004920 0.002152
# 2 -0.002080 0.009049 -0.001435 -0.000359 0.004446 0.000365
# 3 -0.002375 -0.001435 0.008533 -0.004457 0.000309 -0.001703
# 4 0.001849 -0.000359 -0.004457 0.034200 0.004396 0.007215
# 5 0.004920 0.004446 0.000309 0.004396 0.031578 -0.005799
# 6 0.002152 0.000365 -0.001703 0.007215 -0.005799 0.023042
#
#
# Mechanical properties :
#
#
# Convention : Reuss Voigt Hill
#
# Bulk Modulus (GPa) = 57.78261 76.62334 67.20297
# Shear Modulus (GPa) = 36.91156 45.50573 41.20864
#
# Velocity S-wave (km/s) = 3.71577 4.12573 3.92611
# Velocity P-wave (km/s) = 6.32639 7.16637 6.75944
#
# Compressibility (1/GPa) = 0.01730625
#
# Stress axis : x y z
#
# Youngs Moduli (GPa) = 86.91434 110.50552 117.19248
#
# Poissons Ratio (x) = 0.22985 0.27838
# Poissons Ratio (y) = 0.18078 0.16823
# Poissons Ratio (z) = 0.20645 0.15863
#
# Static dielectric constant tensor:
#      x y z
#    x 2.206710 0.067960 0.033890 
#    y 0.067960 2.119730 -0.068000 
#    z 0.033890 -0.068000 2.167580 
# 
# From -- ./inp_files/596713.got.cif
#   From: 2010.05.17/outbox.cif.g08.bks.cpg/sg2_299_cif.got.tgz:596713.got - 2010.06.03 11:33:40.
