data_PCOD9023376
_publ_section_title
;
Structure prediction by ZEFSAII (Michael W. Deem and Ramdas Pophale) SiO2 
 PCOD9023376
Probable space group: P -1
;
_chemical_formula_sum "Si O2"
_cell_formula_units_Z 16
_cell_length_a 11.367163
_cell_length_b 13.805088
_cell_length_c 14.285693
_cell_angle_alpha 150.484881
_cell_angle_beta 48.657427
_cell_angle_gamma 141.056740
_cell_volume 693.223712
_symmetry_space_group_name_H-M "P -1"
_symmetry_group_IT_number 2
_symmetry_cell_setting 'triclinic'
loop_
_space_group_symop_operation_xyz
x,y,z
-x,-y,-z
loop_
_atom_site_type_symbol
_atom_site_label
_atom_site_fract_x
_atom_site_fract_y
_atom_site_fract_z
Si Si1 0.685191 0.486468 0.013457
Si Si2 0.361520 0.169190 0.557890
Si Si3 0.587822 0.850691 0.772611
Si Si4 0.963441 0.377996 0.711752
Si Si5 0.283157 0.680505 0.939970
Si Si6 0.618477 0.486325 0.546707
Si Si7 0.008982 0.335519 0.433595
Si Si8 0.589674 0.979647 0.338395
O O1 0.865319 0.524511 0.897342
O O2 0.514837 0.277394 0.867805
O O3 0.661027 0.698042 0.230758
O O4 0.704951 0.387924 0.019742
O O5 0.421058 0.352929 0.595447
O O6 0.536214 0.136245 0.437436
O O7 0.184718 0.900682 0.423178
O O8 0.485194 0.817651 0.897795
O O9 0.660528 0.682906 0.613227
O O10 0.425672 0.731234 0.678889
O O11 0.748679 0.105694 0.868058
O O12 0.015741 0.401186 0.594713
O O13 0.127746 0.478390 0.785678
O O14 0.787843 0.624310 0.646863
O O15 0.809666 0.092416 0.323554
O O16 0.000000 0.500000 0.500000
O O17 0.500000 0.000000 0.500000
#
# Coordination Sequence:
#
# PCOD9023376 Si02
#       8
#     2   2   2   2   2   2   2   2
#     4  11  24  42  71 101 135 179 234 274 350 407
#     4  11  23  43  71  98 136 182 230 276 347 411
#     4  10  22  39  68  93 145 180 223 283 347 404
#     4  11  25  45  66 102 139 180 227 288 344 396
#     4  11  22  42  66 102 137 180 226 286 340 414
#     4  11  22  42  65 103 135 184 233 277 345 406
#     4  12  24  42  72  96 134 182 230 285 341 407
#     4  11  23  47  68  94 140 183 223 283 347 402
#
# _framework density 23.080572
#
# number of rings (size 3 to 8) (size 9 to 14) (size 15 to 20)
#    0.000    1.000    6.250    1.875    0.000    2.000 
#    0.000    0.625    0.000    0.000    0.000    0.000 
#    0.000    0.000    0.000    0.000    0.000    0.000 
#
# Total GULP energy -89147.448213 kJ/mol
# GULP energy per Si atom -5571.715513 kJ/mol
# Density = 2.302804 g / cm^3
# Si number density = 23.080572 Si / 1000 Ang^3
#
#
#
# Elastic Constant Matrix: (Units=GPa)
#
#
# Indices 1 2 3 4 5 6 
#
# 1 103.8347 28.1477 18.1032 26.0716 29.3052 6.9176
# 2 28.1477 79.0829 17.5765 15.4519 15.0595 -3.6128
# 3 18.1032 17.5765 113.0555 17.0643 11.0680 13.3801
# 4 26.0716 15.4519 17.0643 32.9913 1.3359 8.6953
# 5 29.3052 15.0595 11.0680 1.3359 35.4392 3.8016
# 6 6.9176 -3.6128 13.3801 8.6953 3.8016 42.7634
#
#
#
# Elastic Compliance Matrix: (Units=1/GPa)
#
#
# Indices 1 2 3 4 5 6 
#
# 1 0.016627 -0.001056 0.000599 -0.012627 -0.013094 0.000765
# 2 -0.001056 0.015843 -0.001168 -0.006741 -0.005642 0.003747
# 3 0.000599 -0.001168 0.010138 -0.004475 -0.002759 -0.002212
# 4 -0.012627 -0.006741 -0.004475 0.047304 0.013775 -0.007970
# 5 -0.013094 -0.005642 -0.002759 0.013775 0.042219 -0.004049
# 6 0.000765 0.003747 -0.002212 -0.007970 -0.004049 0.026250
#
#
# Mechanical properties :
#
#
# Convention : Reuss Voigt Hill
#
# Bulk Modulus (GPa) = 25.40675 47.06975 36.23825
# Shear Modulus (GPa) = 28.61211 37.71517 33.16364
#
# Velocity S-wave (km/s) = 3.52470 4.04674 3.79471
# Velocity P-wave (km/s) = 5.25323 6.50175 5.91055
#
# Compressibility (1/GPa) = 0.03935962
#
# Stress axis : x y z
#
# Youngs Moduli (GPa) = 60.14182 63.11933 98.63571
#
# Poissons Ratio (x) = 0.06664 -0.05906
# Poissons Ratio (y) = 0.06349 0.11517
# Poissons Ratio (z) = -0.03601 0.07370
#
# Static dielectric constant tensor:
#      x y z
#    x 2.045260 -0.002990 -0.154350 
#    y -0.002990 1.933850 -0.023790 
#    z -0.154350 -0.023790 2.081370 
# 
# From -- ./inp_files/522601.got.cif
#   From: 2010.05.17/outbox.cif.g08.bks.cpg/sg2_262_cif.got.tgz:522601.got - 2010.06.03 11:33:40.
