data_PCOD9023119
_publ_section_title
;
Structure prediction by ZEFSAII (Michael W. Deem and Ramdas Pophale) SiO2 
 PCOD9023119
Probable space group: P -1
;
_chemical_formula_sum "Si O2"
_cell_formula_units_Z 14
_cell_length_a 8.521634
_cell_length_b 7.113726
_cell_length_c 14.177590
_cell_angle_alpha 77.851591
_cell_angle_beta 106.115525
_cell_angle_gamma 53.541294
_cell_volume 580.443462
_symmetry_space_group_name_H-M "P -1"
_symmetry_group_IT_number 2
_symmetry_cell_setting 'triclinic'
loop_
_space_group_symop_operation_xyz
x,y,z
-x,-y,-z
loop_
_atom_site_type_symbol
_atom_site_label
_atom_site_fract_x
_atom_site_fract_y
_atom_site_fract_z
Si Si1 0.138069 0.972408 0.630764
Si Si2 0.648589 0.546762 0.472593
Si Si3 0.079348 0.191929 0.795634
Si Si4 0.401099 0.301487 0.355803
Si Si5 0.861947 0.393784 0.222784
Si Si6 0.396140 0.897277 0.043318
Si Si7 0.687986 0.981162 0.766775
O O1 0.191356 0.015941 0.738822
O O2 0.906792 0.269843 0.532940
O O3 0.346919 0.832070 0.610601
O O4 0.096621 0.782228 0.664984
O O5 0.500000 0.500000 0.500000
O O6 0.636135 0.715675 0.537448
O O7 0.514524 0.723244 0.339876
O O8 0.110494 0.400238 0.773893
O O9 0.808509 0.379546 0.729314
O O10 0.191423 0.015391 0.926955
O O11 0.356797 0.176994 0.282701
O O12 0.605544 0.579554 0.122698
O O13 0.057194 0.175132 0.205195
O O14 0.323162 0.014694 0.123664
O O15 0.500000 0.000000 0.000000
#
# Coordination Sequence:
#
# PCOD9023119 Si02
#       7
#     2   2   2   2   2   2   2
#     4  11  23  42  67  97 129 167 217 266 316 383
#     4  11  24  42  64  94 133 163 215 268 315 385
#     4   9  22  43  61  96 133 162 216 268 312 383
#     4  10  23  40  66  94 127 169 215 261 325 374
#     4  10  22  39  66  93 126 174 212 252 327 374
#     4  10  22  40  68  97 126 168 217 263 312 381
#     4  11  23  43  67  92 132 172 210 264 323 376
#
# _framework density 24.119488
#
# number of rings (size 3 to 8) (size 9 to 14) (size 15 to 20)
#    0.000    1.714    1.429    2.143    2.000    9.143 
#    0.000    1.429    0.000    0.000    0.000    0.000 
#    0.000    0.000    0.000    0.000    0.000    0.000 
#
# Total GULP energy -78293.524678 kJ/mol
# GULP energy per Si atom -5592.394620 kJ/mol
# Density = 2.406459 g / cm^3
# Si number density = 24.119488 Si / 1000 Ang^3
#
#
#
# Elastic Constant Matrix: (Units=GPa)
#
#
# Indices 1 2 3 4 5 6 
#
# 1 55.4622 42.3653 14.1371 0.7535 7.2791 -19.5699
# 2 42.3653 147.9909 77.0680 -4.3703 -2.2231 -24.2122
# 3 14.1371 77.0680 136.8779 31.3428 11.1950 -3.7712
# 4 0.7535 -4.3703 31.3428 41.5980 -5.3201 -0.9039
# 5 7.2791 -2.2231 11.1950 -5.3201 34.6268 0.0856
# 6 -19.5699 -24.2122 -3.7712 -0.9039 0.0856 46.1868
#
#
#
# Elastic Compliance Matrix: (Units=1/GPa)
#
#
# Indices 1 2 3 4 5 6 
#
# 1 0.028005 -0.009805 0.005019 -0.006334 -0.009130 0.007029
# 2 -0.009805 0.016894 -0.011891 0.012129 0.008844 0.003952
# 3 0.005019 -0.011891 0.017941 -0.016214 -0.010103 -0.002941
# 4 -0.006334 0.012129 -0.016214 0.039427 0.013402 0.003098
# 5 -0.009130 0.008844 -0.010103 0.013402 0.036691 0.000137
# 6 0.007029 0.003952 -0.002941 0.003098 0.000137 0.026521
#
#
# Mechanical properties :
#
#
# Convention : Reuss Voigt Hill
#
# Bulk Modulus (GPa) = 33.91529 67.49687 50.70608
# Shear Modulus (GPa) = 23.96215 38.26636 31.11425
#
# Velocity S-wave (km/s) = 3.15537 3.98745 3.59556
# Velocity P-wave (km/s) = 5.23135 7.01746 6.18918
#
# Compressibility (1/GPa) = 0.02948523
#
# Stress axis : x y z
#
# Youngs Moduli (GPa) = 35.70795 59.19215 55.73908
#
# Poissons Ratio (x) = 0.58037 -0.27974
# Poissons Ratio (y) = 0.35011 0.66281
# Poissons Ratio (z) = -0.17921 0.70387
#
# Static dielectric constant tensor:
#      x y z
#    x 2.020020 0.074730 0.061000 
#    y 0.074730 1.955600 -0.003220 
#    z 0.061000 -0.003220 1.935390 
# 
# From -- ./inp_files/267013.got.cif
#   From: 2010.05.17/outbox.cif.g08.bks.cpg/sg2_134_cif.got.tgz:267013.got - 2010.06.03 11:33:40.
