data_PCOD9023427
_publ_section_title
;
Structure prediction by ZEFSAII (Michael W. Deem and Ramdas Pophale) SiO2 
 PCOD9023427
Probable space group: P -1
;
_chemical_formula_sum "Si O2"
_cell_formula_units_Z 14
_cell_length_a 12.059021
_cell_length_b 8.046046
_cell_length_c 11.899413
_cell_angle_alpha 50.428628
_cell_angle_beta 37.063952
_cell_angle_gamma 47.071593
_cell_volume 497.934757
_symmetry_space_group_name_H-M "P -1"
_symmetry_group_IT_number 2
_symmetry_cell_setting 'triclinic'
loop_
_space_group_symop_operation_xyz
x,y,z
-x,-y,-z
loop_
_atom_site_type_symbol
_atom_site_label
_atom_site_fract_x
_atom_site_fract_y
_atom_site_fract_z
Si Si1 0.170695 0.993058 0.473590
Si Si2 0.993079 0.289228 0.757378
Si Si3 0.406253 0.017486 0.782491
Si Si4 0.668229 0.084993 0.864599
Si Si5 0.786737 0.445274 0.645484
Si Si6 0.247131 0.766703 0.829759
Si Si7 0.808242 0.469396 0.226336
O O1 0.367297 0.020304 0.355909
O O2 0.189539 0.006986 0.318299
O O3 0.158138 0.749060 0.626078
O O4 0.981601 0.206471 0.577650
O O5 0.167622 0.376929 0.546427
O O6 0.810977 0.456221 0.754271
O O7 0.096497 0.008322 0.790409
O O8 0.892526 0.327289 0.942879
O O9 0.305045 0.289886 0.723656
O O10 0.372072 0.860993 0.776739
O O11 0.302555 0.978818 0.999071
O O12 0.611884 0.362654 0.790526
O O13 0.500000 0.000000 0.000000
O O14 0.320135 0.584913 0.747370
O O15 0.000000 0.500000 0.000000
#
# Coordination Sequence:
#
# PCOD9023427 Si02
#       7
#     2   2   2   2   2   2   2
#     4  11  25  44  67 102 141 186 235 289 347 425
#     4  10  22  39  69 100 135 178 230 299 336 416
#     4  11  25  47  69 101 146 181 236 295 348 415
#     4  10  23  43  67  98 142 181 227 294 344 409
#     4  11  21  42  67 100 136 182 239 276 358 411
#     4  11  23  45  70 102 143 178 235 291 353 411
#     4  12  25  43  73 104 136 188 237 285 359 413
#
# _framework density 28.116135
#
# number of rings (size 3 to 8) (size 9 to 14) (size 15 to 20)
#    0.000    1.143    2.857    3.429    6.000    0.571 
#    0.000    3.571    0.000    0.000    0.000    0.000 
#    0.000    0.000    0.000    0.000    0.000    0.000 
#
# Total GULP energy -78331.896727 kJ/mol
# GULP energy per Si atom -5595.135480 kJ/mol
# Density = 2.805214 g / cm^3
# Si number density = 28.116135 Si / 1000 Ang^3
#
#
#
# Elastic Constant Matrix: (Units=GPa)
#
#
# Indices 1 2 3 4 5 6 
#
# 1 188.9222 35.2623 49.7727 -23.7714 -3.2490 24.4050
# 2 35.2623 124.7189 44.5588 -19.3772 9.7703 10.4898
# 3 49.7727 44.5588 200.6397 -38.6803 18.6541 -3.3258
# 4 -23.7714 -19.3772 -38.6803 46.0879 -3.7774 -4.4490
# 5 -3.2490 9.7703 18.6541 -3.7774 49.3790 -8.4337
# 6 24.4050 10.4898 -3.3258 -4.4490 -8.4337 38.0041
#
#
#
# Elastic Compliance Matrix: (Units=1/GPa)
#
#
# Indices 1 2 3 4 5 6 
#
# 1 0.006469 -0.000874 -0.001206 0.001644 0.000547 -0.003704
# 2 -0.000874 0.009383 -0.001369 0.001992 -0.001634 -0.002278
# 3 -0.001206 -0.001369 0.006621 0.004406 -0.001652 0.001881
# 4 0.001644 0.001992 0.004406 0.027323 0.000497 0.002089
# 5 0.000547 -0.001634 -0.001652 0.000497 0.022113 0.004920
# 6 -0.003704 -0.002278 0.001881 0.002089 0.004920 0.030822
#
#
# Mechanical properties :
#
#
# Convention : Reuss Voigt Hill
#
# Bulk Modulus (GPa) = 64.20274 85.94095 75.07184
# Shear Modulus (GPa) = 43.54612 52.33999 47.94305
#
# Velocity S-wave (km/s) = 3.93974 4.31927 4.13386
# Velocity P-wave (km/s) = 6.60150 7.45034 7.03873
#
# Compressibility (1/GPa) = 0.01557566
#
# Stress axis : x y z
#
# Youngs Moduli (GPa) = 154.58671 106.57322 151.02686
#
# Poissons Ratio (x) = 0.09314 0.18213
# Poissons Ratio (y) = 0.13510 0.20675
# Poissons Ratio (z) = 0.18642 0.14590
#
# Static dielectric constant tensor:
#      x y z
#    x 2.546690 0.032950 -0.080720 
#    y 0.032950 2.191850 0.026130 
#    z -0.080720 0.026130 2.213420 
# 
# From -- ./inp_files/418803.got.cif
#   From: 2010.05.17/outbox.cif.g08.bks.cpg/sg2_210_cif.got.tgz:418803.got - 2010.06.03 11:33:40.
