data_PCOD9023957
_publ_section_title
;
Structure prediction by ZEFSAII (Michael W. Deem and Ramdas Pophale) SiO2 
 PCOD9023957
Probable space group: P -1
;
_chemical_formula_sum "Si O2"
_cell_formula_units_Z 12
_cell_length_a 12.845560
_cell_length_b 12.906218
_cell_length_c 13.216083
_cell_angle_alpha 156.997479
_cell_angle_beta 145.568956
_cell_angle_gamma 33.191874
_cell_volume 453.256138
_symmetry_space_group_name_H-M "P -1"
_symmetry_group_IT_number 2
_symmetry_cell_setting 'triclinic'
loop_
_space_group_symop_operation_xyz
x,y,z
-x,-y,-z
loop_
_atom_site_type_symbol
_atom_site_label
_atom_site_fract_x
_atom_site_fract_y
_atom_site_fract_z
Si Si1 0.376158 0.507311 0.657659
Si Si2 0.309185 0.271985 0.967292
Si Si3 0.639995 0.659937 0.714732
Si Si4 0.584162 0.106814 0.790246
Si Si5 0.874990 0.643281 0.305489
Si Si6 0.091800 0.947154 0.137556
O O1 0.267909 0.512345 0.467129
O O2 0.371262 0.223456 0.450075
O O3 0.595193 0.496366 0.785562
O O4 0.328890 0.753450 0.923973
O O5 0.154689 0.258729 0.747142
O O6 0.497792 0.977003 0.855578
O O7 0.238696 0.319623 0.069875
O O8 0.500000 0.500000 0.500000
O O9 0.352906 0.261286 0.753660
O O10 0.678337 0.144096 0.793252
O O11 0.959084 0.794488 0.594009
O O12 0.952971 0.306936 0.074398
O O13 0.000000 0.000000 0.000000
#
# Coordination Sequence:
#
# PCOD9023957 Si02
#       6
#     2   2   2   2   2   2
#     4  10  17  31  52  83 117 144 180 224 276 339
#     4   9  18  30  51  85 120 148 173 228 290 331
#     4   9  16  28  50  82 129 140 169 223 300 333
#     4  11  21  36  59  84 111 150 193 234 281 328
#     4  11  21  38  61  83 114 145 196 234 277 333
#     4  12  26  41  56  81 115 155 192 237 286 333
#
# _framework density 26.475097000000002
#
# number of rings (size 3 to 8) (size 9 to 14) (size 15 to 20)
#    0.000    1.667    3.333    4.500    2.333    0.000 
#    0.000    0.000    0.000    0.000    0.000    7.000 
#    0.000    0.000    0.000    0.000    0.000    0.000 
#
# Total GULP energy -67147.312901 kJ/mol
# GULP energy per Si atom -5595.609408 kJ/mol
# Density = 2.641484 g / cm^3
# Si number density = 26.475097 Si / 1000 Ang^3
#
#
#
# Elastic Constant Matrix: (Units=GPa)
#
#
# Indices 1 2 3 4 5 6 
#
# 1 100.8540 7.2071 52.2278 5.7332 -40.0550 17.8202
# 2 7.2071 95.3064 64.2780 -20.3082 -8.9948 35.1824
# 3 52.2278 64.2780 201.7364 -5.2115 -30.4524 39.6693
# 4 5.7332 -20.3082 -5.2115 64.3284 17.2800 -4.8473
# 5 -40.0550 -8.9948 -30.4524 17.2800 65.9398 -6.8977
# 6 17.8202 35.1824 39.6693 -4.8473 -6.8977 40.8096
#
#
#
# Elastic Compliance Matrix: (Units=1/GPa)
#
#
# Indices 1 2 3 4 5 6 
#
# 1 0.015931 0.002712 -0.002576 -0.003679 0.009229 -0.005668
# 2 0.002712 0.018685 -0.004035 0.004405 -0.000169 -0.012875
# 3 -0.002576 -0.004035 0.007622 -0.001002 0.001386 -0.002690
# 4 -0.003679 0.004405 -0.001002 0.019082 -0.007113 -0.000153
# 5 0.009229 -0.000169 0.001386 -0.007113 0.023024 -0.002185
# 6 -0.005668 -0.012875 -0.002690 -0.000153 -0.002185 0.040306
#
#
# Mechanical properties :
#
#
# Convention : Reuss Voigt Hill
#
# Bulk Modulus (GPa) = 29.03661 71.70251 50.36956
# Shear Modulus (GPa) = 34.73961 52.49449 43.61705
#
# Velocity S-wave (km/s) = 3.62631 4.45768 4.06331
# Velocity P-wave (km/s) = 5.34086 7.32368 6.40941
#
# Compressibility (1/GPa) = 0.03443928
#
# Stress axis : x y z
#
# Youngs Moduli (GPa) = 62.76896 53.51997 131.20099
#
# Poissons Ratio (x) = -0.14515 0.33798
# Poissons Ratio (y) = -0.17024 0.52945
# Poissons Ratio (z) = 0.16170 0.21597
#
# Static dielectric constant tensor:
#      x y z
#    x 2.105050 -0.124190 0.018660 
#    y -0.124190 2.231470 -0.139350 
#    z 0.018660 -0.139350 2.090230 
# 
# From -- ./inp_files/48161.got.cif
#   From: 2010.05.17/outbox.cif.g08.bks.cpg/sg2_25_cif.got.tgz:48161.got - 2010.06.03 11:33:40.
