data_PCOD9023691
_publ_section_title
;
Structure prediction by ZEFSAII (Michael W. Deem and Ramdas Pophale) SiO2 
 PCOD9023691
Probable space group: P -1
;
_chemical_formula_sum "Si O2"
_cell_formula_units_Z 16
_cell_length_a 13.495278
_cell_length_b 11.587700
_cell_length_c 16.559069
_cell_angle_alpha 159.269455
_cell_angle_beta 62.799502
_cell_angle_gamma 120.672619
_cell_volume 786.672213
_symmetry_space_group_name_H-M "P -1"
_symmetry_group_IT_number 2
_symmetry_cell_setting 'triclinic'
loop_
_space_group_symop_operation_xyz
x,y,z
-x,-y,-z
loop_
_atom_site_type_symbol
_atom_site_label
_atom_site_fract_x
_atom_site_fract_y
_atom_site_fract_z
Si Si1 0.774835 0.637964 0.554241
Si Si2 0.570190 0.661596 0.329792
Si Si3 0.747970 0.816928 0.143094
Si Si4 0.046566 0.764268 0.767761
Si Si5 0.310727 0.756433 0.088382
Si Si6 0.795404 0.523105 0.649354
Si Si7 0.631741 0.440773 0.793014
Si Si8 0.478537 0.725299 0.581111
O O1 0.880220 0.486709 0.390240
O O2 0.790706 0.723755 0.700060
O O3 0.658144 0.330308 0.395439
O O4 0.751582 0.952806 0.720927
O O5 0.479448 0.596668 0.246689
O O6 0.507555 0.599930 0.399921
O O7 0.635261 0.058752 0.563176
O O8 0.651585 0.417896 0.119268
O O9 0.760688 0.539127 0.021096
O O10 0.648660 0.642159 0.002295
O O11 0.865330 0.987763 0.163407
O O12 0.723288 0.135310 0.406754
O O13 0.928333 0.543346 0.628335
O O14 0.000000 0.000000 0.000000
O O15 0.427677 0.928510 0.207465
O O16 0.737314 0.628057 0.818315
O O17 0.500000 0.500000 0.500000
#
# Coordination Sequence:
#
# PCOD9023691 Si02
#       8
#     2   2   2   2   2   2   2   2
#     4  10  23  43  61  91 131 165 208 265 323 373
#     4  11  23  38  62  99 131 168 213 260 314 379
#     4  11  22  40  67  91 128 169 212 265 319 371
#     4  11  24  43  69  94 121 164 223 274 320 372
#     4  11  24  40  64  94 134 170 207 257 324 388
#     4  11  22  44  64  93 122 165 221 270 313 376
#     4  11  22  36  65  96 127 165 220 261 310 377
#     4  10  22  40  60  91 134 169 204 251 318 395
#
# _framework density 20.338839
#
# number of rings (size 3 to 8) (size 9 to 14) (size 15 to 20)
#    0.000    1.250    5.000    1.500    3.500    2.500 
#    4.500    3.125    0.000    0.000    0.000    0.000 
#    0.000    0.000    0.000    0.000    0.000    0.000 
#
# Total GULP energy -89248.400120 kJ/mol
# GULP energy per Si atom -5578.025008 kJ/mol
# Density = 2.029255 g / cm^3
# Si number density = 20.338839 Si / 1000 Ang^3
#
#
#
# Elastic Constant Matrix: (Units=GPa)
#
#
# Indices 1 2 3 4 5 6 
#
# 1 92.8752 6.0472 33.5302 4.3752 -2.2380 -9.8874
# 2 6.0472 73.7459 38.6129 0.3573 -9.6673 -17.7742
# 3 33.5302 38.6129 99.8426 5.5257 -4.1567 -15.8519
# 4 4.3752 0.3573 5.5257 32.7042 -7.8548 -0.4878
# 5 -2.2380 -9.6673 -4.1567 -7.8548 37.3581 -0.3849
# 6 -9.8874 -17.7742 -15.8519 -0.4878 -0.3849 27.5805
#
#
#
# Elastic Compliance Matrix: (Units=1/GPa)
#
#
# Indices 1 2 3 4 5 6 
#
# 1 0.012662 0.002236 -0.004509 -0.000734 0.000716 0.003386
# 2 0.002236 0.019974 -0.006809 0.001997 0.005067 0.009867
# 3 -0.004509 -0.006809 0.014611 -0.001946 -0.000791 0.002348
# 4 -0.000734 0.001997 -0.001946 0.032706 0.007139 0.000583
# 5 0.000716 0.005067 -0.000791 0.007139 0.029572 0.003606
# 6 0.003386 0.009867 0.002348 0.000583 0.003606 0.045240
#
#
# Mechanical properties :
#
#
# Convention : Reuss Voigt Hill
#
# Bulk Modulus (GPa) = 34.38414 46.98269 40.68342
# Shear Modulus (GPa) = 27.37892 32.08011 29.72951
#
# Velocity S-wave (km/s) = 3.67296 3.97581 3.82738
# Velocity P-wave (km/s) = 5.91015 6.65028 6.29111
#
# Compressibility (1/GPa) = 0.02908318
#
# Stress axis : x y z
#
# Youngs Moduli (GPa) = 78.97867 50.06417 68.44284
#
# Poissons Ratio (x) = -0.11194 0.30861
# Poissons Ratio (y) = -0.17660 0.46602
# Poissons Ratio (z) = 0.35611 0.34088
#
# Static dielectric constant tensor:
#      x y z
#    x 1.764290 -0.011370 0.025570 
#    y -0.011370 1.738670 -0.028960 
#    z 0.025570 -0.028960 1.776880 
# 
# From -- ./inp_files/569069.got.cif
#   From: 2010.05.17/outbox.cif.g08.bks.cpg/sg2_285_cif.got.tgz:569069.got - 2010.06.03 11:33:40.
