data_PCOD9023642
_publ_section_title
;
Structure prediction by ZEFSAII (Michael W. Deem and Ramdas Pophale) SiO2 
 PCOD9023642
Probable space group: P -1
;
_chemical_formula_sum "Si O2"
_cell_formula_units_Z 14
_cell_length_a 16.923316
_cell_length_b 6.426437
_cell_length_c 8.117036
_cell_angle_alpha 83.085381
_cell_angle_beta 123.997808
_cell_angle_gamma 64.159628
_cell_volume 574.950083
_symmetry_space_group_name_H-M "P -1"
_symmetry_group_IT_number 2
_symmetry_cell_setting 'triclinic'
loop_
_space_group_symop_operation_xyz
x,y,z
-x,-y,-z
loop_
_atom_site_type_symbol
_atom_site_label
_atom_site_fract_x
_atom_site_fract_y
_atom_site_fract_z
Si Si1 0.057284 0.078794 0.866496
Si Si2 0.676929 0.694282 0.074481
Si Si3 0.337132 0.695773 0.707228
Si Si4 0.677653 0.424826 0.770265
Si Si5 0.151337 0.190449 0.650454
Si Si6 0.478327 0.714285 0.247650
Si Si7 0.097093 0.114581 0.258546
O O1 0.083367 0.162625 0.719153
O O2 0.952698 0.048259 0.733690
O O3 0.180490 0.783794 0.074224
O O4 0.043954 0.228718 0.005901
O O5 0.670068 0.536466 0.227368
O O6 0.802170 0.650067 0.248132
O O7 0.668128 0.587608 0.901577
O O8 0.572923 0.008403 0.920274
O O9 0.468262 0.531024 0.794363
O O10 0.242274 0.900029 0.439116
O O11 0.274728 0.899959 0.768370
O O12 0.591055 0.620138 0.505415
O O13 0.623014 0.268265 0.765404
O O14 0.080011 0.279751 0.385846
#
# Coordination Sequence:
#
# PCOD9023642 Si02
#       7
#     2   2   2   2   2   2   2
#     4  11  18  44  70  87 123 164 209 253 314 358
#     4  12  22  38  60  94 125 166 200 253 315 361
#     4  10  22  40  59  90 126 161 204 253 306 362
#     4  11  22  40  63  90 123 165 206 259 301 370
#     4  10  22  41  63  93 127 158 207 252 307 369
#     4  11  23  40  61  90 126 164 210 250 305 368
#     4   9  22  40  70  92 116 167 207 257 307 368
#
# _framework density 24.349938999999999
#
# number of rings (size 3 to 8) (size 9 to 14) (size 15 to 20)
#    0.857    0.571    4.286    1.286    0.000    3.429 
#    2.571    2.857    0.000    3.429    0.000    0.000 
#    0.000    0.000    0.000    0.000    0.000    0.000 
#
# Total GULP energy -78163.368631 kJ/mol
# GULP energy per Si atom -5583.097759 kJ/mol
# Density = 2.429452 g / cm^3
# Si number density = 24.349939 Si / 1000 Ang^3
#
#
#
# Elastic Constant Matrix: (Units=GPa)
#
#
# Indices 1 2 3 4 5 6 
#
# 1 84.1257 18.7073 7.8678 4.2455 -6.6653 -8.7414
# 2 18.7073 78.2796 33.6409 13.8331 1.6972 -8.2578
# 3 7.8678 33.6409 120.9050 24.1897 -21.8602 6.2564
# 4 4.2455 13.8331 24.1897 47.2880 -5.7916 -2.9908
# 5 -6.6653 1.6972 -21.8602 -5.7916 39.0988 -2.3056
# 6 -8.7414 -8.2578 6.2564 -2.9908 -2.3056 30.0415
#
#
#
# Elastic Compliance Matrix: (Units=1/GPa)
#
#
# Indices 1 2 3 4 5 6 
#
# 1 0.013061 -0.002991 0.000295 0.000083 0.002719 0.003134
# 2 -0.002991 0.016524 -0.004892 -0.002297 -0.004058 0.004150
# 3 0.000295 -0.004892 0.011699 -0.004077 0.005985 -0.003642
# 4 0.000083 -0.002297 -0.004077 0.024268 0.001593 0.002780
# 5 0.002719 -0.004058 0.005985 0.001593 0.029850 0.000879
# 6 0.003134 0.004150 -0.003642 0.002780 0.000879 0.036443
#
#
# Mechanical properties :
#
#
# Convention : Reuss Voigt Hill
#
# Bulk Modulus (GPa) = 38.30152 44.86024 41.58088
# Shear Modulus (GPa) = 32.10829 38.15862 35.13346
#
# Velocity S-wave (km/s) = 3.63522 3.96295 3.80262
# Velocity P-wave (km/s) = 5.77785 6.27719 6.03269
#
# Compressibility (1/GPa) = 0.02610862
#
# Stress axis : x y z
#
# Youngs Moduli (GPa) = 76.56161 60.51974 85.47618
#
# Poissons Ratio (x) = 0.18103 -0.02523
# Poissons Ratio (y) = 0.22901 0.41812
# Poissons Ratio (z) = -0.02260 0.29604
#
# Static dielectric constant tensor:
#      x y z
#    x 1.890650 -0.074230 -0.007980 
#    y -0.074230 1.964410 0.033430 
#    z -0.007980 0.033430 2.014760 
# 
# From -- ./inp_files/322526.got.cif
#   From: 2010.05.17/outbox.cif.g08.bks.cpg/sg2_162_cif.got.tgz:322526.got - 2010.06.03 11:33:40.
