data_PCOD9023549
_publ_section_title
;
Structure prediction by ZEFSAII (Michael W. Deem and Ramdas Pophale) SiO2 
 PCOD9023549
Probable space group: P -1
;
_chemical_formula_sum "Si O2"
_cell_formula_units_Z 14
_cell_length_a 12.123593
_cell_length_b 7.546791
_cell_length_c 14.119641
_cell_angle_alpha 53.142701
_cell_angle_beta 146.574002
_cell_angle_gamma 115.842392
_cell_volume 563.232051
_symmetry_space_group_name_H-M "P -1"
_symmetry_group_IT_number 2
_symmetry_cell_setting 'triclinic'
loop_
_space_group_symop_operation_xyz
x,y,z
-x,-y,-z
loop_
_atom_site_type_symbol
_atom_site_label
_atom_site_fract_x
_atom_site_fract_y
_atom_site_fract_z
Si Si1 0.897792 0.702683 0.101071
Si Si2 0.058503 0.792478 0.980318
Si Si3 0.562224 0.195470 0.242441
Si Si4 0.515343 0.543661 0.363078
Si Si5 0.370282 0.119534 0.784814
Si Si6 0.038891 0.632693 0.579230
Si Si7 0.679487 0.785884 0.581261
O O1 0.986336 0.506765 0.298933
O O2 0.982854 0.715031 0.052544
O O3 0.659866 0.685449 0.931686
O O4 0.928331 0.942933 0.089897
O O5 0.896444 0.749132 0.798831
O O6 0.283112 0.665014 0.164996
O O7 0.730127 0.331663 0.279192
O O8 0.548516 0.020658 0.203395
O O9 0.640874 0.039069 0.436919
O O10 0.592704 0.626539 0.292697
O O11 0.644023 0.634235 0.511932
O O12 0.492534 0.286529 0.448722
O O13 0.128079 0.143712 0.613600
O O14 0.500000 0.000000 0.000000
O O15 0.000000 0.500000 0.500000
#
# Coordination Sequence:
#
# PCOD9023549 Si02
#       7
#     2   2   2   2   2   2   2
#     4  11  25  43  68 102 138 178 230 279 345 409
#     4  11  23  43  68 101 142 177 221 287 341 405
#     4  11  24  47  67  99 141 179 230 287 332 418
#     4  10  23  43  68 102 139 170 234 283 333 418
#     4  11  25  45  72  97 135 184 230 282 342 407
#     4  12  27  44  70 100 137 183 230 284 345 408
#     4  10  22  39  71  95 136 177 225 274 348 385
#
# _framework density 24.856542000000001
#
# number of rings (size 3 to 8) (size 9 to 14) (size 15 to 20)
#    0.000    1.143    2.857    3.000    8.000    2.857 
#    0.000    0.000    0.000    0.000    0.000    0.000 
#    0.000    0.000    0.000    0.000    0.000    0.000 
#
# Total GULP energy -78391.450690 kJ/mol
# GULP energy per Si atom -5599.389335 kJ/mol
# Density = 2.479997 g / cm^3
# Si number density = 24.856542 Si / 1000 Ang^3
#
#
#
# Elastic Constant Matrix: (Units=GPa)
#
#
# Indices 1 2 3 4 5 6 
#
# 1 102.0087 26.8607 59.3620 7.4906 1.0804 25.4079
# 2 26.8607 78.1493 35.6869 15.2396 -15.9770 28.4077
# 3 59.3620 35.6869 192.3520 15.3143 -13.5402 11.3390
# 4 7.4906 15.2396 15.3143 37.0711 8.2324 -3.5750
# 5 1.0804 -15.9770 -13.5402 8.2324 48.6520 -4.9833
# 6 25.4079 28.4077 11.3390 -3.5750 -4.9833 41.4181
#
#
#
# Elastic Compliance Matrix: (Units=1/GPa)
#
#
# Indices 1 2 3 4 5 6 
#
# 1 0.014236 -0.000488 -0.003891 -0.001340 -0.002122 -0.007704
# 2 -0.000488 0.023158 -0.001774 -0.011835 0.007567 -0.015209
# 3 -0.003891 -0.001774 0.006878 -0.001566 0.001869 0.001811
# 4 -0.001340 -0.011835 -0.001566 0.035898 -0.009203 0.011360
# 5 -0.002122 0.007567 0.001869 -0.009203 0.024939 -0.002194
# 6 -0.007704 -0.015209 0.001811 0.011360 -0.002194 0.039522
#
#
# Mechanical properties :
#
#
# Convention : Reuss Voigt Hill
#
# Bulk Modulus (GPa) = 31.28486 68.48103 49.88295
# Shear Modulus (GPa) = 29.83425 42.13494 35.98459
#
# Velocity S-wave (km/s) = 3.46823 4.12166 3.80898
# Velocity P-wave (km/s) = 5.35273 7.08950 6.28143
#
# Compressibility (1/GPa) = 0.03196434
#
# Stress axis : x y z
#
# Youngs Moduli (GPa) = 70.24557 43.18245 145.38337
#
# Poissons Ratio (x) = 0.02108 0.56573
# Poissons Ratio (y) = 0.03429 0.25795
# Poissons Ratio (z) = 0.27335 0.07662
#
# Static dielectric constant tensor:
#      x y z
#    x 1.987950 0.008110 0.019340 
#    y 0.008110 2.080660 -0.058230 
#    z 0.019340 -0.058230 1.964100 
# 
# From -- ./inp_files/515146.got.cif
#   From: 2010.05.17/outbox.cif.g08.bks.cpg/sg2_258_cif.got.tgz:515146.got - 2010.06.03 11:33:40.
