data_PCOD9023602
_publ_section_title
;
Structure prediction by ZEFSAII (Michael W. Deem and Ramdas Pophale) SiO2 
 PCOD9023602
Probable space group: P -1
;
_chemical_formula_sum "Si O2"
_cell_formula_units_Z 16
_cell_length_a 9.837901
_cell_length_b 8.753869
_cell_length_c 14.198690
_cell_angle_alpha 45.386792
_cell_angle_beta 90.367736
_cell_angle_gamma 64.707812
_cell_volume 692.067565
_symmetry_space_group_name_H-M "P -1"
_symmetry_group_IT_number 2
_symmetry_cell_setting 'triclinic'
loop_
_space_group_symop_operation_xyz
x,y,z
-x,-y,-z
loop_
_atom_site_type_symbol
_atom_site_label
_atom_site_fract_x
_atom_site_fract_y
_atom_site_fract_z
Si Si1 0.686947 0.419523 0.609063
Si Si2 0.202471 0.906172 0.618581
Si Si3 0.723312 0.869757 0.148685
Si Si4 0.958483 0.777600 0.341297
Si Si5 0.032287 0.655338 0.726821
Si Si6 0.233794 0.098683 0.232722
Si Si7 0.424496 0.836058 0.167932
Si Si8 0.519472 0.022785 0.379075
O O1 0.620102 0.723109 0.463823
O O2 0.886429 0.268267 0.695972
O O3 0.692397 0.220802 0.617379
O O4 0.581433 0.406175 0.697382
O O5 0.195025 0.659102 0.717444
O O6 0.063593 0.073548 0.627414
O O7 0.370150 0.867095 0.671260
O O8 0.122645 0.094173 0.444318
O O9 0.788561 0.934987 0.210549
O O10 0.896859 0.618747 0.208217
O O11 0.596261 0.799660 0.208588
O O12 0.621322 0.092525 0.971468
O O13 0.000000 0.500000 0.500000
O O14 0.954114 0.707697 0.807840
O O15 0.276392 0.079756 0.130132
O O16 0.341597 0.171509 0.259474
O O17 0.500000 0.000000 0.500000
#
# Coordination Sequence:
#
# PCOD9023602 Si02
#       8
#     2   2   2   2   2   2   2   2
#     4  10  23  39  59  90 123 161 200 245 308 366
#     4  11  22  35  55  93 124 153 195 247 318 360
#     4  11  23  42  67  85 119 165 213 251 294 363
#     4  12  21  37  63  93 120 156 197 258 310 352
#     4  11  22  37  60  89 124 157 200 253 303 364
#     4  10  22  40  57  89 124 161 199 245 308 365
#     4   9  24  43  63  85 117 174 210 236 299 374
#     4  12  22  33  59  91 125 152 198 252 303 354
#
# _framework density 23.119129000000001
#
# number of rings (size 3 to 8) (size 9 to 14) (size 15 to 20)
#    0.750    0.500    5.000    1.125    1.750    1.000 
#    0.000    0.000    2.750    2.250    0.000    0.000 
#    0.000    0.000    0.000    0.000    0.000    0.000 
#
# Total GULP energy -89224.097752 kJ/mol
# GULP energy per Si atom -5576.506109 kJ/mol
# Density = 2.306651 g / cm^3
# Si number density = 23.119129 Si / 1000 Ang^3
#
#
#
# Elastic Constant Matrix: (Units=GPa)
#
#
# Indices 1 2 3 4 5 6 
#
# 1 148.8988 2.4339 19.6490 15.6763 7.7514 8.6593
# 2 2.4339 80.3723 12.4177 5.1224 -3.8466 -5.3977
# 3 19.6490 12.4177 25.4081 16.7297 7.5451 2.7115
# 4 15.6763 5.1224 16.7297 33.5210 2.6062 5.3060
# 5 7.7514 -3.8466 7.5451 2.6062 17.2374 8.3786
# 6 8.6593 -5.3977 2.7115 5.3060 8.3786 40.2010
#
#
#
# Elastic Compliance Matrix: (Units=1/GPa)
#
#
# Indices 1 2 3 4 5 6 
#
# 1 0.007580 0.000582 -0.005489 -0.000709 -0.000265 -0.001035
# 2 0.000582 0.014414 -0.011370 0.002523 0.007188 0.000746
# 3 -0.005489 -0.011370 0.081090 -0.034485 -0.033088 0.005634
# 4 -0.000709 0.002523 -0.034485 0.047001 0.011702 -0.005825
# 5 -0.000265 0.007188 -0.033088 0.011702 0.079693 -0.014900
# 6 -0.001035 0.000746 0.005634 -0.005825 -0.014900 0.028692
#
#
# Mechanical properties :
#
#
# Convention : Reuss Voigt Hill
#
# Bulk Modulus (GPa) = 14.17862 35.96448 25.07155
# Shear Modulus (GPa) = 15.89649 32.87046 24.38347
#
# Velocity S-wave (km/s) = 2.62504 3.77475 3.25112
# Velocity P-wave (km/s) = 3.91586 5.88118 4.99611
#
# Compressibility (1/GPa) = 0.07052875
#
# Stress axis : x y z
#
# Youngs Moduli (GPa) = 131.93371 69.37492 12.33201
#
# Poissons Ratio (x) = -0.04035 0.06770
# Poissons Ratio (y) = -0.07673 0.14021
# Poissons Ratio (z) = 0.72424 0.78877
#
# Static dielectric constant tensor:
#      x y z
#    x 1.934810 0.003050 -0.030540 
#    y 0.003050 1.877150 -0.028150 
#    z -0.030540 -0.028150 1.888420 
# 
# From -- ./inp_files/272815.got.cif
#   From: 2010.05.17/outbox.cif.g08.bks.cpg/sg2_137_cif.got.tgz:272815.got - 2010.06.03 11:33:40.
