data_PCOD9023633
_publ_section_title
;
Structure prediction by ZEFSAII (Michael W. Deem and Ramdas Pophale) SiO2 
 PCOD9023633
Probable space group: P -1
;
_chemical_formula_sum "Si O2"
_cell_formula_units_Z 16
_cell_length_a 19.029814
_cell_length_b 15.860407
_cell_length_c 5.735823
_cell_angle_alpha 103.839577
_cell_angle_beta 96.009972
_cell_angle_gamma 28.921369
_cell_volume 792.460466
_symmetry_space_group_name_H-M "P -1"
_symmetry_group_IT_number 2
_symmetry_cell_setting 'triclinic'
loop_
_space_group_symop_operation_xyz
x,y,z
-x,-y,-z
loop_
_atom_site_type_symbol
_atom_site_label
_atom_site_fract_x
_atom_site_fract_y
_atom_site_fract_z
Si Si1 0.086475 0.816179 0.887398
Si Si2 0.552798 0.192410 0.142206
Si Si3 0.882753 0.442174 0.903850
Si Si4 0.045650 0.370240 0.583744
Si Si5 0.412309 0.180375 0.821558
Si Si6 0.633836 0.957981 0.323476
Si Si7 0.763787 0.390208 0.687867
Si Si8 0.122670 0.125050 0.121614
O O1 0.178222 0.715122 0.605279
O O2 0.963677 0.871622 0.860463
O O3 0.177816 0.704642 0.094448
O O4 0.000000 0.000000 0.000000
O O5 0.416136 0.407248 0.247109
O O6 0.609361 0.084819 0.325188
O O7 0.483498 0.178674 0.002330
O O8 0.699421 0.070193 0.983631
O O9 0.825649 0.421744 0.725886
O O10 0.909359 0.494604 0.784734
O O11 0.754328 0.604208 0.150919
O O12 0.039977 0.248836 0.942890
O O13 0.194580 0.233947 0.678065
O O14 0.084886 0.240191 0.370852
O O15 0.000000 0.500000 0.500000
O O16 0.393599 0.103337 0.862839
O O17 0.520462 0.066499 0.566125
#
# Coordination Sequence:
#
# PCOD9023633 Si02
#       8
#     2   2   2   2   2   2   2   2
#     4  11  24  48  75 103 132 168 215 272 336 407
#     4  11  23  39  62  86 130 171 213 274 330 392
#     4  10  22  40  59  88 127 173 220 274 322 387
#     4  12  24  36  59  90 127 174 227 277 323 380
#     4  10  23  37  56  83 122 174 229 271 324 374
#     4  11  23  37  56  85 124 176 226 274 323 386
#     4  10  24  42  72 101 132 170 215 266 335 401
#     4  11  23  41  62  93 127 173 215 273 332 390
#
# _framework density 20.190280999999999
#
# number of rings (size 3 to 8) (size 9 to 14) (size 15 to 20)
#    0.000    1.250    3.750    1.500    7.000    5.000 
#    0.000    1.250    0.000    0.000    0.000    0.000 
#    0.000    0.000    0.000    0.000    0.000    0.000 
#
# Total GULP energy -89088.280113 kJ/mol
# GULP energy per Si atom -5568.017507 kJ/mol
# Density = 2.014433 g / cm^3
# Si number density = 20.190281 Si / 1000 Ang^3
#
#
#
# Elastic Constant Matrix: (Units=GPa)
#
#
# Indices 1 2 3 4 5 6 
#
# 1 72.5180 58.6493 40.6862 15.3134 1.6504 2.5164
# 2 58.6493 150.7954 68.1006 27.1680 -6.2653 -12.8254
# 3 40.6862 68.1006 108.7618 31.5948 1.3995 -6.8444
# 4 15.3134 27.1680 31.5948 35.4058 -0.6895 -3.5348
# 5 1.6504 -6.2653 1.3995 -0.6895 28.1810 3.9182
# 6 2.5164 -12.8254 -6.8444 -3.5348 3.9182 30.6465
#
#
#
# Elastic Compliance Matrix: (Units=1/GPa)
#
#
# Indices 1 2 3 4 5 6 
#
# 1 0.022315 -0.007331 -0.003701 -0.001324 -0.002003 -0.005623
# 2 -0.007331 0.012146 -0.004028 -0.002083 0.002695 0.004201
# 3 -0.003701 -0.004028 0.015954 -0.009449 -0.001888 0.001333
# 4 -0.001324 -0.002083 -0.009449 0.039015 0.000827 0.001521
# 5 -0.002003 0.002695 -0.001888 0.000827 0.036836 -0.003743
# 6 -0.005623 0.004201 0.001333 0.001521 -0.003743 0.035801
#
#
# Mechanical properties :
#
#
# Convention : Reuss Voigt Hill
#
# Bulk Modulus (GPa) = 49.27157 74.10528 61.68843
# Shear Modulus (GPa) = 25.13150 29.82260 27.47705
#
# Velocity S-wave (km/s) = 3.53190 3.84745 3.69305
# Velocity P-wave (km/s) = 6.41007 7.51799 6.98603
#
# Compressibility (1/GPa) = 0.02029568
#
# Stress axis : x y z
#
# Youngs Moduli (GPa) = 44.81243 82.32908 62.67915
#
# Poissons Ratio (x) = 0.60352 0.23199
# Poissons Ratio (y) = 0.32850 0.25249
# Poissons Ratio (z) = 0.16586 0.33165
#
# Static dielectric constant tensor:
#      x y z
#    x 1.674960 -0.031420 0.019460 
#    y -0.031420 1.738350 -0.010670 
#    z 0.019460 -0.010670 1.657220 
# 
# From -- ./inp_files/37851.got.cif
#   From: 2010.05.17/outbox.cif.g08.bks.cpg/sg2_19_cif.got.tgz:37851.got - 2010.06.03 11:33:40.
