data_PCOD9023876
_publ_section_title
;
Structure prediction by ZEFSAII (Michael W. Deem and Ramdas Pophale) SiO2 
 PCOD9023876
Probable space group: P -1
;
_chemical_formula_sum "Si O2"
_cell_formula_units_Z 8
_cell_length_a 5.641994
_cell_length_b 11.943454
_cell_length_c 11.722391
_cell_angle_alpha 33.433441
_cell_angle_beta 104.475169
_cell_angle_gamma 82.801298
_cell_volume 328.648394
_symmetry_space_group_name_H-M "P -1"
_symmetry_group_IT_number 2
_symmetry_cell_setting 'triclinic'
loop_
_space_group_symop_operation_xyz
x,y,z
-x,-y,-z
loop_
_atom_site_type_symbol
_atom_site_label
_atom_site_fract_x
_atom_site_fract_y
_atom_site_fract_z
Si Si1 0.241263 0.236656 0.682637
Si Si2 0.151903 0.932301 0.200772
Si Si3 0.762696 0.746712 0.908074
Si Si4 0.908832 0.821314 0.607447
O O1 0.470664 0.255701 0.614752
O O2 0.000000 0.500000 0.500000
O O3 0.011799 0.173130 0.666903
O O4 0.500000 0.000000 0.000000
O O5 0.074787 0.179478 0.049600
O O6 0.000000 0.000000 0.000000
O O7 0.831680 0.765299 0.769384
O O8 0.397395 0.987093 0.668224
O O9 0.851456 0.465544 0.174026
O O10 0.000000 0.000000 0.500000
#
# Coordination Sequence:
#
# PCOD9023876 Si02
#       4
#     2   2   2   2
#     4  10  22  40  62  88 131 173 213 259 318 390
#     4  10  23  43  65 101 134 174 217 272 332 403
#     4  10  23  40  65  96 128 170 222 271 332 394
#     4  10  22  43  65  93 127 172 222 276 329 388
#
# _framework density 24.342124999999999
#
# number of rings (size 3 to 8) (size 9 to 14) (size 15 to 20)
#    0.000    2.000    0.000    1.500    3.500    8.000 
#    0.000    0.000    0.000    0.000    0.000    0.000 
#    0.000    0.000    0.000    0.000    0.000    0.000 
#
# Total GULP energy -44631.809162 kJ/mol
# GULP energy per Si atom -5578.976145 kJ/mol
# Density = 2.428672 g / cm^3
# Si number density = 24.342125 Si / 1000 Ang^3
#
#
#
# Elastic Constant Matrix: (Units=GPa)
#
#
# Indices 1 2 3 4 5 6 
#
# 1 180.8041 40.3331 56.6478 -11.2364 10.0264 15.1416
# 2 40.3331 140.8092 77.7368 -26.9694 6.4403 39.7710
# 3 56.6478 77.7368 196.9412 -30.2094 -3.5419 15.1276
# 4 -11.2364 -26.9694 -30.2094 38.8660 -0.1645 -4.7842
# 5 10.0264 6.4403 -3.5419 -0.1645 30.2736 -8.5886
# 6 15.1416 39.7710 15.1276 -4.7842 -8.5886 54.8340
#
#
#
# Elastic Compliance Matrix: (Units=1/GPa)
#
#
# Indices 1 2 3 4 5 6 
#
# 1 0.006395 -0.000396 -0.001598 0.000144 -0.002627 -0.001437
# 2 -0.000396 0.012850 -0.003644 0.004884 -0.005452 -0.008633
# 3 -0.001598 -0.003644 0.007342 0.002941 0.002671 0.001734
# 4 0.000144 0.004884 0.002941 0.031215 -0.001096 -0.001842
# 5 -0.002627 -0.005452 0.002671 -0.001096 0.038155 0.009823
# 6 -0.001437 -0.008633 0.001734 -0.001842 0.009823 0.025795
#
#
# Mechanical properties :
#
#
# Convention : Reuss Voigt Hill
#
# Bulk Modulus (GPa) = 65.31341 96.44332 80.87837
# Shear Modulus (GPa) = 36.19747 47.71718 41.95732
#
# Velocity S-wave (km/s) = 3.86039 4.43230 4.15619
# Velocity P-wave (km/s) = 6.83811 8.11786 7.50531
#
# Compressibility (1/GPa) = 0.01531079
#
# Stress axis : x y z
#
# Youngs Moduli (GPa) = 156.37726 77.81898 136.21060
#
# Poissons Ratio (x) = 0.03082 0.21765
# Poissons Ratio (y) = 0.06193 0.49636
# Poissons Ratio (z) = 0.24987 0.28358
#
# Static dielectric constant tensor:
#      x y z
#    x 1.863470 0.047260 0.125860 
#    y 0.047260 2.078160 0.057110 
#    z 0.125860 0.057110 1.872530 
# 
# From -- ./inp_files/1411.got.cif
#   From: 2010.05.17/outbox.cif.g08.bks.cpg/sg2_1_cif.got.tgz:1411.got - 2010.06.03 11:33:40.
