data_PCOD9023363
_publ_section_title
;
Structure prediction by ZEFSAII (Michael W. Deem and Ramdas Pophale) SiO2 
 PCOD9023363
Probable space group: P -1
;
_chemical_formula_sum "Si O2"
_cell_formula_units_Z 16
_cell_length_a 9.348272
_cell_length_b 20.439028
_cell_length_c 6.434059
_cell_angle_alpha 70.561207
_cell_angle_beta 127.336415
_cell_angle_gamma 133.175079
_cell_volume 705.621007
_symmetry_space_group_name_H-M "P -1"
_symmetry_group_IT_number 2
_symmetry_cell_setting 'triclinic'
loop_
_space_group_symop_operation_xyz
x,y,z
-x,-y,-z
loop_
_atom_site_type_symbol
_atom_site_label
_atom_site_fract_x
_atom_site_fract_y
_atom_site_fract_z
Si Si1 0.118884 0.297844 0.188964
Si Si2 0.248291 0.437750 0.513040
Si Si3 0.089334 0.636039 0.322117
Si Si4 0.516822 0.951972 0.375793
Si Si5 0.565040 0.705328 0.856824
Si Si6 0.188046 0.096155 0.181282
Si Si7 0.891663 0.104337 0.231475
Si Si8 0.315451 0.536682 0.088605
O O1 0.211043 0.369435 0.378108
O O2 0.287734 0.311748 0.138313
O O3 0.028811 0.206010 0.318151
O O4 0.931073 0.300028 0.902949
O O5 0.267069 0.512641 0.315302
O O6 0.496686 0.477585 0.788314
O O7 0.042219 0.385702 0.551252
O O8 0.352696 0.679018 0.552548
O O9 0.923608 0.538403 0.164947
O O10 0.582347 0.892637 0.580123
O O11 0.500000 0.000000 0.500000
O O12 0.736056 0.029014 0.345500
O O13 0.285023 0.907137 0.084365
O O14 0.727337 0.811238 0.949719
O O15 0.440820 0.636864 0.013919
O O16 0.062911 0.092765 0.282937
O O17 0.000000 0.000000 0.000000
#
# Coordination Sequence:
#
# PCOD9023363 Si02
#       8
#     2   2   2   2   2   2   2   2
#     4  10  23  42  61  94 131 166 211 261 319 377
#     4  10  22  39  68  91 130 173 213 255 321 378
#     4  11  22  43  66  92 134 168 211 268 310 380
#     4  11  22  41  69  92 122 167 217 266 331 381
#     4  11  24  41  65  93 130 169 214 264 321 379
#     4  11  23  43  66  95 130 171 213 267 328 382
#     4  10  23  41  65  94 127 167 214 270 319 387
#     4  10  22  41  63  95 129 172 211 263 318 375
#
# _framework density 22.675060999999999
#
# number of rings (size 3 to 8) (size 9 to 14) (size 15 to 20)
#    0.000    1.500    2.500    1.875    3.500    3.500 
#    4.500    0.000    0.000    0.000    0.000    0.000 
#    0.000    0.000    0.000    0.000    0.000    0.000 
#
# Total GULP energy -89452.403849 kJ/mol
# GULP energy per Si atom -5590.775241 kJ/mol
# Density = 2.262345 g / cm^3
# Si number density = 22.675061 Si / 1000 Ang^3
#
#
#
# Elastic Constant Matrix: (Units=GPa)
#
#
# Indices 1 2 3 4 5 6 
#
# 1 68.6343 6.4054 7.5967 2.0410 19.7892 -24.6142
# 2 6.4054 100.1145 14.3398 0.7514 -0.8658 -22.7525
# 3 7.5967 14.3398 65.6984 0.3027 12.7270 -17.0395
# 4 2.0410 0.7514 0.3027 20.7046 1.0624 12.2915
# 5 19.7892 -0.8658 12.7270 1.0624 27.0668 1.3316
# 6 -24.6142 -22.7525 -17.0395 12.2915 1.3316 15.1792
#
#
#
# Elastic Compliance Matrix: (Units=1/GPa)
#
#
# Indices 1 2 3 4 5 6 
#
# 1 0.001399 -0.007229 -0.008884 0.021691 0.003865 -0.036443
# 2 -0.007229 0.008544 -0.005901 0.007286 0.008647 -0.012198
# 3 -0.008884 -0.005901 0.011905 0.013071 0.001209 -0.020580
# 4 0.021691 0.007286 0.013071 0.018507 -0.024858 0.047962
# 5 0.003865 0.008647 0.001209 -0.024858 0.032943 0.037824
# 6 -0.036443 -0.012198 -0.020580 0.047962 0.037824 -0.076757
#
#
# Mechanical properties :
#
#
# Convention : Reuss Voigt Hill
#
# Bulk Modulus (GPa) = -45.08408 32.34790 -6.36809
# Shear Modulus (GPa) = 150.70935 26.33047 88.51991
#
# Velocity S-wave (km/s) = 8.16144 3.41135 6.25485
# Velocity P-wave (km/s) = 8.29978 5.46015 7.02494
#
# Compressibility (1/GPa) = -0.02218078
#
# Stress axis : x y z
#
# Youngs Moduli (GPa) = 714.74717 117.03669 84.00104
#
# Poissons Ratio (x) = 0.84601 0.74631
# Poissons Ratio (y) = 5.16659 0.49572
# Poissons Ratio (z) = 6.35016 0.69068
#
# Static dielectric constant tensor:
#      x y z
#    x 1.808340 0.009460 0.036740 
#    y 0.009460 1.912360 0.008270 
#    z 0.036740 0.008270 1.864810 
# 
# From -- ./inp_files/52806.got.cif
#   From: 2010.05.17/outbox.cif.g08.bks.cpg/sg2_27_cif.got.tgz:52806.got - 2010.06.03 11:33:40.
