data_PCOD9023950
_publ_section_title
;
Structure prediction by ZEFSAII (Michael W. Deem and Ramdas Pophale) SiO2 
 PCOD9023950
Probable space group: P -1
;
_chemical_formula_sum "Si O2"
_cell_formula_units_Z 15
_cell_length_a 19.282286
_cell_length_b 17.064682
_cell_length_c 8.690235
_cell_angle_alpha 54.544063
_cell_angle_beta 53.993465
_cell_angle_gamma 13.714806
_cell_volume 547.831677
_symmetry_space_group_name_H-M "P -1"
_symmetry_group_IT_number 2
_symmetry_cell_setting 'triclinic'
loop_
_space_group_symop_operation_xyz
x,y,z
-x,-y,-z
loop_
_atom_site_type_symbol
_atom_site_label
_atom_site_fract_x
_atom_site_fract_y
_atom_site_fract_z
Si Si1 0.054496 0.735542 0.518323
Si Si2 0.443713 0.697682 0.823042
Si Si3 0.466206 0.280679 0.748149
Si Si4 0.467632 0.120668 0.686026
Si Si5 0.580346 0.040166 0.157482
Si Si6 0.954320 0.690156 0.339230
Si Si7 0.000000 0.000000 0.500000
Si Si8 0.605175 0.416624 0.222417
O O1 0.255453 0.586247 0.322218
O O2 0.162511 0.645814 0.655670
O O3 0.801424 0.956409 0.266579
O O4 0.710809 0.090900 0.582069
O O5 0.329482 0.732024 0.829410
O O6 0.517422 0.598629 0.016752
O O7 0.524234 0.115742 0.776828
O O8 0.491681 0.223260 0.954479
O O9 0.184449 0.490162 0.588288
O O10 0.384588 0.099243 0.814548
O O11 0.760636 0.824724 0.539887
O O12 0.304697 0.318393 0.314644
O O13 0.870606 0.754781 0.198184
O O14 0.851172 0.165304 0.318864
O O15 0.687788 0.300240 0.630950
#
# Coordination Sequence:
#
# PCOD9023950 Si02
#       8
#     2   2   2   2   2   2   1   2
#     4   9  22  38  67  95 130 175 244 281 331 420
#     4  10  24  48  76 102 139 199 235 271 343 448
#     4  10  22  40  62  92 131 184 232 291 352 410
#     4   9  23  39  66  87 132 183 240 283 353 416
#     4  12  24  40  62  96 135 183 229 301 350 399
#     4  11  26  40  63  98 136 175 237 290 340 411
#     4  10  24  48  72 124 140 164 224 296 356 402
#     4  10  24  48  80 107 144 183 225 281 354 424
#
# _framework density 27.380673000000002
#
# number of rings (size 3 to 8) (size 9 to 14) (size 15 to 20)
#    0.800    1.067    0.000    2.000    5.600    6.933 
#    9.600    0.000    0.000    0.000    0.000    0.000 
#    0.000    0.000    0.000    0.133    0.000    0.000 
#
# Total GULP energy -83804.541977 kJ/mol
# GULP energy per Si atom -5586.969465 kJ/mol
# Density = 2.731835 g / cm^3
# Si number density = 27.380673 Si / 1000 Ang^3
#
#
#
# Elastic Constant Matrix: (Units=GPa)
#
#
# Indices 1 2 3 4 5 6 
#
# 1 127.1927 27.9618 29.2202 -5.2505 15.9247 -17.4941
# 2 27.9618 158.3608 7.8070 -22.0662 5.0896 -9.3386
# 3 29.2202 7.8070 104.3007 -32.0474 10.1713 -0.8309
# 4 -5.2505 -22.0662 -32.0474 30.4589 -6.0860 8.9383
# 5 15.9247 5.0896 10.1713 -6.0860 26.2983 -11.0481
# 6 -17.4941 -9.3386 -0.8309 8.9383 -11.0481 39.0377
#
#
#
# Elastic Compliance Matrix: (Units=1/GPa)
#
#
# Indices 1 2 3 4 5 6 
#
# 1 0.010068 -0.002054 -0.004151 -0.006118 -0.003710 0.004283
# 2 -0.002054 0.007618 0.002428 0.008021 0.000358 -0.000782
# 3 -0.004151 0.002428 0.016983 0.020255 -0.002464 -0.006253
# 4 -0.006118 0.008021 0.020255 0.063656 0.003135 -0.014080
# 5 -0.003710 0.000358 -0.002464 0.003135 0.046414 0.010788
# 6 0.004283 -0.000782 -0.006253 -0.014080 0.010788 0.033493
#
#
# Mechanical properties :
#
#
# Convention : Reuss Voigt Hill
#
# Bulk Modulus (GPa) = 36.87789 57.75913 47.31851
# Shear Modulus (GPa) = 25.66452 40.81666 33.24059
#
# Velocity S-wave (km/s) = 3.06489 3.86516 3.48805
# Velocity P-wave (km/s) = 5.10123 6.40780 5.79148
#
# Compressibility (1/GPa) = 0.02711652
#
# Stress axis : x y z
#
# Youngs Moduli (GPa) = 99.32264 131.27486 58.88362
#
# Poissons Ratio (x) = 0.26960 0.24441
# Poissons Ratio (y) = 0.20398 -0.14300
# Poissons Ratio (z) = 0.41225 -0.31879
#
# Static dielectric constant tensor:
#      x y z
#    x 2.206170 0.053970 0.002320 
#    y 0.053970 2.058440 -0.178950 
#    z 0.002320 -0.178950 2.198850 
# 
# From -- ./inp_files/355465.got.cif
#   From: 2010.05.17/outbox.cif.g08.bks.cpg/sg2_178_cif.got.tgz:355465.got - 2010.06.03 11:33:40.
