data_PCOD9023114
_publ_section_title
;
Structure prediction by ZEFSAII (Michael W. Deem and Ramdas Pophale) SiO2 
 PCOD9023114
Probable space group: P -1
;
_chemical_formula_sum "Si O2"
_cell_formula_units_Z 14
_cell_length_a 19.830054
_cell_length_b 9.993422
_cell_length_c 13.371058
_cell_angle_alpha 130.956089
_cell_angle_beta 25.435614
_cell_angle_gamma 141.463506
_cell_volume 696.072364
_symmetry_space_group_name_H-M "P -1"
_symmetry_group_IT_number 2
_symmetry_cell_setting 'triclinic'
loop_
_space_group_symop_operation_xyz
x,y,z
-x,-y,-z
loop_
_atom_site_type_symbol
_atom_site_label
_atom_site_fract_x
_atom_site_fract_y
_atom_site_fract_z
Si Si1 0.549783 0.327556 0.356833
Si Si2 0.327416 0.656576 0.319745
Si Si3 0.669821 0.058370 0.377880
Si Si4 0.367531 0.974022 0.256167
Si Si5 0.065423 0.366602 0.902680
Si Si6 0.745812 0.788205 0.797742
Si Si7 0.142051 0.121119 0.528753
O O1 0.500000 0.500000 0.500000
O O2 0.492896 0.184857 0.263511
O O3 0.777259 0.470653 0.146721
O O4 0.423513 0.151267 0.527478
O O5 0.274685 0.737179 0.526267
O O6 0.223550 0.400855 0.319558
O O7 0.308459 0.769653 0.304369
O O8 0.550190 0.742132 0.079119
O O9 0.500000 0.000000 0.500000
O O10 0.871602 0.144029 0.095498
O O11 0.189953 0.974219 0.452868
O O12 0.500000 0.000000 0.000000
O O13 0.172076 0.305201 0.652586
O O14 0.000000 0.500000 0.000000
O O15 0.731574 0.800091 0.702855
O O16 0.927597 0.998727 0.709997
#
# Coordination Sequence:
#
# PCOD9023114 Si02
#       7
#     2   2   2   2   2   2   2
#     4  11  25  45  67  98 136 176 222 276 332 395
#     4  10  22  41  62  94 129 168 212 272 326 388
#     4  11  23  41  68  98 131 169 225 270 326 400
#     4  11  23  43  65  93 134 174 213 272 335 390
#     4  12  24  42  71  99 129 179 221 272 338 391
#     4  10  22  39  66  92 127 167 221 270 319 393
#     4  11  23  41  65  95 128 169 224 265 328 396
#
# _framework density 20.112850000000002
#
# number of rings (size 3 to 8) (size 9 to 14) (size 15 to 20)
#    0.000    1.143    4.286    1.714    2.000    2.286 
#    2.571    0.000    0.000    0.000    0.000    0.000 
#    0.000    0.000    0.000    0.000    0.000    0.000 
#
# Total GULP energy -78192.193360 kJ/mol
# GULP energy per Si atom -5585.156669 kJ/mol
# Density = 2.006707 g / cm^3
# Si number density = 20.112850 Si / 1000 Ang^3
#
#
#
# Elastic Constant Matrix: (Units=GPa)
#
#
# Indices 1 2 3 4 5 6 
#
# 1 108.5995 28.2201 23.6034 7.3747 4.0085 -8.9607
# 2 28.2201 59.0646 6.6496 6.3301 1.7688 -15.4520
# 3 23.6034 6.6496 32.4179 -3.2831 1.1043 7.5539
# 4 7.3747 6.3301 -3.2831 32.8076 2.8129 -13.0046
# 5 4.0085 1.7688 1.1043 2.8129 30.8599 6.2207
# 6 -8.9607 -15.4520 7.5539 -13.0046 6.2207 31.8241
#
#
#
# Elastic Compliance Matrix: (Units=1/GPa)
#
#
# Indices 1 2 3 4 5 6 
#
# 1 0.012721 -0.003845 -0.009423 -0.001451 -0.001707 0.003693
# 2 -0.003845 0.022327 -0.004323 0.001081 -0.003110 0.011834
# 3 -0.009423 -0.004323 0.042068 0.001016 0.002874 -0.014884
# 4 -0.001451 0.001081 0.001016 0.037884 -0.006724 0.016671
# 5 -0.001707 -0.003110 0.002874 -0.006724 0.035818 -0.012422
# 6 0.003693 0.011834 -0.014884 0.016671 -0.012422 0.050982
#
#
# Mechanical properties :
#
#
# Convention : Reuss Voigt Hill
#
# Bulk Modulus (GPa) = 23.84582 35.22534 29.53558
# Shear Modulus (GPa) = 19.92342 28.53891 24.23117
#
# Velocity S-wave (km/s) = 3.15077 3.77097 3.47473
# Velocity P-wave (km/s) = 5.01180 6.04253 5.55114
#
# Compressibility (1/GPa) = 0.04193607
#
# Stress axis : x y z
#
# Youngs Moduli (GPa) = 78.60746 44.78815 23.77104
#
# Poissons Ratio (x) = 0.17219 0.22400
# Poissons Ratio (y) = 0.30221 0.10276
# Poissons Ratio (z) = 0.74073 0.19361
#
# Static dielectric constant tensor:
#      x y z
#    x 1.746270 0.017170 -0.044340 
#    y 0.017170 1.727380 -0.059410 
#    z -0.044340 -0.059410 1.762860 
# 
# From -- ./inp_files/175883.got.cif
#   From: 2010.05.17/outbox.cif.g08.bks.cpg/sg2_88_cif.got.tgz:175883.got - 2010.06.03 11:33:40.
