data_PCOD9023106
_publ_section_title
;
Structure prediction by ZEFSAII (Michael W. Deem and Ramdas Pophale) SiO2 
 PCOD9023106
Probable space group: P -1
;
_chemical_formula_sum "Si O2"
_cell_formula_units_Z 12
_cell_length_a 14.577944
_cell_length_b 19.696693
_cell_length_c 9.686759
_cell_angle_alpha 148.572477
_cell_angle_beta 155.680260
_cell_angle_gamma 24.029149
_cell_volume 462.762270
_symmetry_space_group_name_H-M "P -1"
_symmetry_group_IT_number 2
_symmetry_cell_setting 'triclinic'
loop_
_space_group_symop_operation_xyz
x,y,z
-x,-y,-z
loop_
_atom_site_type_symbol
_atom_site_label
_atom_site_fract_x
_atom_site_fract_y
_atom_site_fract_z
Si Si1 0.898788 0.831965 0.352795
Si Si2 0.681312 0.477131 0.409286
Si Si3 0.251420 0.422895 0.602319
Si Si4 0.799339 0.015209 0.967013
Si Si5 0.428770 0.077108 0.304497
Si Si6 0.233280 0.807612 0.539574
O O1 0.096589 0.665629 0.426683
O O2 0.029346 0.776008 0.280853
O O3 0.959943 0.965156 0.697256
O O4 0.574373 0.933104 0.136217
O O5 0.832049 0.490887 0.511088
O O6 0.458782 0.659503 0.491195
O O7 0.495109 0.426966 0.005792
O O8 0.372838 0.234256 0.431369
O O9 0.000000 0.500000 0.500000
O O10 0.664220 0.013303 0.638919
O O11 0.833598 0.880198 0.884498
O O12 0.606229 0.179507 0.088282
O O13 0.000000 0.000000 0.500000
#
# Coordination Sequence:
#
# PCOD9023106 Si02
#       6
#     2   2   2   2   2   2
#     4  10  22  39  66  91 123 166 201 255 307 362
#     4  11  24  42  62  92 128 160 210 253 310 367
#     4  11  26  39  64  93 125 164 205 262 304 362
#     4   9  23  36  67  89 127 158 215 246 306 365
#     4  11  21  41  64  94 122 164 210 249 307 365
#     4  10  22  41  63  91 126 167 201 252 311 367
#
# _framework density 25.931239999999999
#
# number of rings (size 3 to 8) (size 9 to 14) (size 15 to 20)
#    1.000    0.667    1.667    2.000    7.000    0.000 
#    3.000    2.500    0.000    0.000    0.000    0.000 
#    0.000    0.000    0.000    0.000    0.000    0.000 
#
# Total GULP energy -67004.961576 kJ/mol
# GULP energy per Si atom -5583.746798 kJ/mol
# Density = 2.587222 g / cm^3
# Si number density = 25.931240 Si / 1000 Ang^3
#
#
#
# Elastic Constant Matrix: (Units=GPa)
#
#
# Indices 1 2 3 4 5 6 
#
# 1 228.0316 78.5925 13.6281 4.3854 17.8937 14.5334
# 2 78.5925 138.3207 10.2692 10.8422 9.0697 2.4966
# 3 13.6281 10.2692 63.9749 17.5507 -5.4645 -1.1869
# 4 4.3854 10.8422 17.5507 26.2530 -2.2807 2.6266
# 5 17.8937 9.0697 -5.4645 -2.2807 40.1141 7.5081
# 6 14.5334 2.4966 -1.1869 2.6266 7.5081 49.2885
#
#
#
# Elastic Compliance Matrix: (Units=1/GPa)
#
#
# Indices 1 2 3 4 5 6 
#
# 1 0.005730 -0.003119 -0.001197 0.001120 -0.001695 -0.001362
# 2 -0.003119 0.009330 0.000064 -0.003547 -0.001061 0.000799
# 3 -0.001197 0.000064 0.019618 -0.012863 0.002242 0.001166
# 4 0.001120 -0.003547 -0.012863 0.048470 0.001930 -0.003338
# 5 -0.001695 -0.001061 0.002242 0.001930 0.027016 -0.003611
# 6 -0.001362 0.000799 0.001166 -0.003338 -0.003611 0.021406
#
#
# Mechanical properties :
#
#
# Convention : Reuss Voigt Hill
#
# Bulk Modulus (GPa) = 38.20636 70.58965 54.39801
# Shear Modulus (GPa) = 33.60232 44.98694 39.29463
#
# Velocity S-wave (km/s) = 3.60366 4.16968 3.89696
# Velocity P-wave (km/s) = 5.66400 7.10370 6.42431
#
# Compressibility (1/GPa) = 0.02617366
#
# Stress axis : x y z
#
# Youngs Moduli (GPa) = 174.51399 107.17896 50.97356
#
# Poissons Ratio (x) = 0.33429 0.06104
# Poissons Ratio (y) = 0.54431 -0.00327
# Poissons Ratio (z) = 0.20897 -0.00687
#
# Static dielectric constant tensor:
#      x y z
#    x 2.061620 -0.004720 0.009540 
#    y -0.004720 2.015270 -0.009150 
#    z 0.009540 -0.009150 2.180040 
# 
# From -- ./inp_files/231318.got.cif
#   From: 2010.05.17/outbox.cif.g08.bks.cpg/sg2_116_cif.got.tgz:231318.got - 2010.06.03 11:33:40.
