data_PCOD9023077
_publ_section_title
;
Structure prediction by ZEFSAII (Michael W. Deem and Ramdas Pophale) SiO2 
 PCOD9023077
Probable space group: P -1
;
_chemical_formula_sum "Si O2"
_cell_formula_units_Z 16
_cell_length_a 9.255186
_cell_length_b 8.748965
_cell_length_c 11.767474
_cell_angle_alpha 129.130405
_cell_angle_beta 87.596734
_cell_angle_gamma 96.564556
_cell_volume 733.727080
_symmetry_space_group_name_H-M "P -1"
_symmetry_group_IT_number 2
_symmetry_cell_setting 'triclinic'
loop_
_space_group_symop_operation_xyz
x,y,z
-x,-y,-z
loop_
_atom_site_type_symbol
_atom_site_label
_atom_site_fract_x
_atom_site_fract_y
_atom_site_fract_z
Si Si1 0.583982 0.085340 0.425386
Si Si2 0.157089 0.274336 0.568375
Si Si3 0.617144 0.689165 0.610336
Si Si4 0.768465 0.819637 0.137781
Si Si5 0.587184 0.809036 0.921523
Si Si6 0.302745 0.559344 0.893127
Si Si7 0.833776 0.189443 0.598886
Si Si8 0.919737 0.277254 0.891039
O O1 0.462103 0.141959 0.370888
O O2 0.700953 0.250077 0.557202
O O3 0.500000 0.000000 0.500000
O O4 0.683148 0.955665 0.286438
O O5 0.233891 0.317985 0.466145
O O6 0.231834 0.433631 0.730123
O O7 0.984789 0.273953 0.576494
O O8 0.178525 0.051815 0.506463
O O9 0.500000 0.500000 0.500000
O O10 0.634428 0.737857 0.764065
O O11 0.711380 0.597038 0.076600
O O12 0.943936 0.851086 0.162881
O O13 0.718003 0.848194 0.024696
O O14 0.465795 0.643218 0.899206
O O15 0.500000 0.000000 0.000000
O O16 0.203857 0.731914 0.013032
O O17 0.844681 0.250248 0.758457
O O18 0.000000 0.500000 0.000000
#
# Coordination Sequence:
#
# PCOD9023077 Si02
#       8
#     2   2   2   2   2   2   2   2
#     4  12  24  41  71 103 131 173 238 282 333 406
#     4  11  21  42  67  98 136 173 221 283 341 391
#     4  12  26  46  65  97 143 181 220 282 342 404
#     4  11  22  45  66 102 132 175 231 279 334 407
#     4  12  27  44  67  94 142 190 221 274 349 402
#     4  11  22  44  69 100 136 174 231 288 330 399
#     4  11  21  40  71 101 131 171 228 286 342 391
#     4  10  22  39  66 102 136 163 219 287 337 393
#
# _framework density 21.806474000000001
#
# number of rings (size 3 to 8) (size 9 to 14) (size 15 to 20)
#    0.000    0.750    7.500    1.125    3.500    2.000 
#    0.000    2.500    0.000    0.000    0.000    0.000 
#    0.000    0.000    0.000    0.000    0.000    0.000 
#
# Total GULP energy -89409.516514 kJ/mol
# GULP energy per Si atom -5588.094782 kJ/mol
# Density = 2.175684 g / cm^3
# Si number density = 21.806474 Si / 1000 Ang^3
#
#
#
# Elastic Constant Matrix: (Units=GPa)
#
#
# Indices 1 2 3 4 5 6 
#
# 1 72.2197 -1.0738 49.4030 -23.0629 2.1483 6.1453
# 2 -1.0738 37.2499 25.8320 -23.5279 -2.4085 -0.2830
# 3 49.4030 25.8320 159.0904 -39.4779 -6.9018 -0.9691
# 4 -23.0629 -23.5279 -39.4779 38.1286 1.4372 2.2790
# 5 2.1483 -2.4085 -6.9018 1.4372 37.4317 -6.9474
# 6 6.1453 -0.2830 -0.9691 2.2790 -6.9474 30.7745
#
#
#
# Elastic Compliance Matrix: (Units=1/GPa)
#
#
# Indices 1 2 3 4 5 6 
#
# 1 0.025493 0.017669 -0.005800 0.020899 -0.003584 -0.007468
# 2 0.017669 0.056430 -0.004487 0.041285 -0.000989 -0.006431
# 3 -0.005800 -0.004487 0.009841 0.003740 0.002013 0.001604
# 4 0.020899 0.041285 0.003740 0.068854 -0.002219 -0.009276
# 5 -0.003584 -0.000989 0.002013 -0.002219 0.028689 0.007411
# 6 -0.007468 -0.006431 0.001604 -0.009276 0.007411 0.036337
#
#
# Mechanical properties :
#
#
# Convention : Reuss Voigt Hill
#
# Bulk Modulus (GPa) = 9.38723 46.32027 27.85375
# Shear Modulus (GPa) = 20.29300 34.22687 27.25993
#
# Velocity S-wave (km/s) = 3.05388 3.96608 3.53949
# Velocity P-wave (km/s) = 4.09256 6.50082 5.43184
#
# Compressibility (1/GPa) = 0.10652771
#
# Stress axis : x y z
#
# Youngs Moduli (GPa) = 39.22596 17.72098 101.61903
#
# Poissons Ratio (x) = -0.31312 0.58944
# Poissons Ratio (y) = -0.69309 0.45597
# Poissons Ratio (z) = 0.22753 0.07951
#
# Static dielectric constant tensor:
#      x y z
#    x 1.847410 -0.036390 -0.030110 
#    y -0.036390 1.833230 0.041860 
#    z -0.030110 0.041860 1.824700 
# 
# From -- ./inp_files/383510.got.cif
#   From: 2010.05.17/outbox.cif.g08.bks.cpg/sg2_192_cif.got.tgz:383510.got - 2010.06.03 11:33:40.
