data_PCOD9023456
_publ_section_title
;
Structure prediction by ZEFSAII (Michael W. Deem and Ramdas Pophale) SiO2 
 PCOD9023456
Probable space group: P -1
;
_chemical_formula_sum "Si O2"
_cell_formula_units_Z 12
_cell_length_a 21.340642
_cell_length_b 5.292458
_cell_length_c 9.334387
_cell_angle_alpha 101.091453
_cell_angle_beta 139.602221
_cell_angle_gamma 61.100109
_cell_volume 568.776701
_symmetry_space_group_name_H-M "P -1"
_symmetry_group_IT_number 2
_symmetry_cell_setting 'triclinic'
loop_
_space_group_symop_operation_xyz
x,y,z
-x,-y,-z
loop_
_atom_site_type_symbol
_atom_site_label
_atom_site_fract_x
_atom_site_fract_y
_atom_site_fract_z
Si Si1 0.090113 0.057930 0.588988
Si Si2 0.755593 0.910206 0.504489
Si Si3 0.273317 0.437601 0.832718
Si Si4 0.129223 0.711317 0.195666
Si Si5 0.863844 0.540157 0.126155
Si Si6 0.494610 0.727063 0.890531
O O1 0.150537 0.139278 0.826476
O O2 0.003439 0.331459 0.365100
O O3 0.182974 0.759339 0.639188
O O4 0.000000 0.000000 0.500000
O O5 0.731499 0.821212 0.294758
O O6 0.840740 0.581810 0.688135
O O7 0.800450 0.134894 0.621798
O O8 0.629838 0.101584 0.378388
O O9 0.216564 0.468537 0.891644
O O10 0.394371 0.411389 0.032601
O O11 0.159907 0.562467 0.074594
O O12 0.000000 0.000000 0.000000
O O13 0.500000 0.500000 0.000000
O O14 0.500000 0.000000 0.000000
#
# Coordination Sequence:
#
# PCOD9023456 Si02
#       6
#     2   2   2   2   2   2
#     4   9  20  36  63  90 127 161 227 261 321 371
#     4  11  25  43  65  97 131 169 218 271 325 390
#     4  10  22  39  69  92 122 170 224 272 316 378
#     4  12  27  43  65  94 140 173 208 263 345 391
#     4  10  23  38  63  94 128 171 219 269 319 391
#     4  10  22  41  68  97 128 167 222 274 323 377
#
# _framework density 21.097909999999999
#
# number of rings (size 3 to 8) (size 9 to 14) (size 15 to 20)
#    0.000    1.667    0.000    3.500   18.667    0.000 
#    0.000    1.667    0.000    0.000    0.000    0.000 
#    0.000    0.000    0.000    0.000    0.000    0.000 
#
# Total GULP energy -66815.789993 kJ/mol
# GULP energy per Si atom -5567.982499 kJ/mol
# Density = 2.104989 g / cm^3
# Si number density = 21.097910 Si / 1000 Ang^3
#
#
#
# Elastic Constant Matrix: (Units=GPa)
#
#
# Indices 1 2 3 4 5 6 
#
# 1 108.3376 40.6028 34.9497 15.4621 6.3984 -8.4127
# 2 40.6028 117.1771 20.1163 20.3415 -3.1196 10.4993
# 3 34.9497 20.1163 49.1870 9.5582 11.3810 -5.7928
# 4 15.4621 20.3415 9.5582 47.1545 -8.6605 4.0475
# 5 6.3984 -3.1196 11.3810 -8.6605 43.7772 2.0303
# 6 -8.4127 10.4993 -5.7928 4.0475 2.0303 42.7138
#
#
#
# Elastic Compliance Matrix: (Units=1/GPa)
#
#
# Indices 1 2 3 4 5 6 
#
# 1 0.013332 -0.003312 -0.007265 -0.001843 -0.000784 0.002667
# 2 -0.003312 0.010883 -0.002366 -0.002549 0.001532 -0.003480
# 3 -0.007265 -0.002366 0.029592 -0.004376 -0.007849 0.003952
# 4 -0.001843 -0.002549 -0.004376 0.025225 0.006356 -0.003022
# 5 -0.000784 0.001532 -0.007849 0.006356 0.026525 -0.003459
# 6 0.002667 -0.003480 0.003952 -0.003022 -0.003459 0.025779
#
#
# Mechanical properties :
#
#
# Convention : Reuss Voigt Hill
#
# Bulk Modulus (GPa) = 35.81582 51.78217 43.79899
# Shear Modulus (GPa) = 30.02484 38.66464 34.34474
#
# Velocity S-wave (km/s) = 3.77652 4.28557 4.03907
# Velocity P-wave (km/s) = 6.00241 7.00608 6.52358
#
# Compressibility (1/GPa) = 0.02792062
#
# Stress axis : x y z
#
# Youngs Moduli (GPa) = 75.00876 91.88536 33.79279
#
# Poissons Ratio (x) = 0.30435 0.24549
# Poissons Ratio (y) = 0.24845 0.07997
# Poissons Ratio (z) = 0.54490 0.21743
#
# Static dielectric constant tensor:
#      x y z
#    x 1.847030 0.004470 -0.024810 
#    y 0.004470 1.815120 -0.080670 
#    z -0.024810 -0.080670 1.812430 
# 
# From -- ./inp_files/24832.got.cif
#   From: 2010.05.17/outbox.cif.g08.bks.cpg/sg2_13_cif.got.tgz:24832.got - 2010.06.03 11:33:40.
