data_PCOD9023275
_publ_section_title
;
Structure prediction by ZEFSAII (Michael W. Deem and Ramdas Pophale) SiO2 
 PCOD9023275
Probable space group: P -1
;
_chemical_formula_sum "Si O2"
_cell_formula_units_Z 14
_cell_length_a 14.960266
_cell_length_b 9.657033
_cell_length_c 21.281314
_cell_angle_alpha 33.154067
_cell_angle_beta 151.497674
_cell_angle_gamma 148.491105
_cell_volume 717.489838
_symmetry_space_group_name_H-M "P -1"
_symmetry_group_IT_number 2
_symmetry_cell_setting 'triclinic'
loop_
_space_group_symop_operation_xyz
x,y,z
-x,-y,-z
loop_
_atom_site_type_symbol
_atom_site_label
_atom_site_fract_x
_atom_site_fract_y
_atom_site_fract_z
Si Si1 0.293829 0.288310 0.030050
Si Si2 0.860368 0.267777 0.785191
Si Si3 0.888815 0.694333 0.836175
Si Si4 0.217517 0.702763 0.588680
Si Si5 0.739386 0.704128 0.142317
Si Si6 0.599014 0.892829 0.657878
Si Si7 0.724992 0.666948 0.608161
O O1 0.263639 0.260647 0.947278
O O2 0.089181 0.296875 0.927263
O O3 0.496997 0.578350 0.060974
O O4 0.292285 0.998902 0.164389
O O5 0.863477 0.561534 0.692623
O O6 0.770473 0.158504 0.701951
O O7 0.726417 0.728086 0.772167
O O8 0.761629 0.597690 0.728919
O O9 0.083340 0.008249 0.829063
O O10 0.000000 0.500000 0.000000
O O11 0.218235 0.556424 0.710671
O O12 0.406947 0.727497 0.650194
O O13 0.000000 0.500000 0.500000
O O14 0.229808 0.009615 0.487165
O O15 0.500000 0.000000 0.500000
O O16 0.500000 0.500000 0.500000
#
# Coordination Sequence:
#
# PCOD9023275 Si02
#       7
#     2   2   2   2   2   2   2
#     4  10  22  39  67  95 133 176 219 276 359 400
#     4  11  22  41  68  97 130 176 227 279 335 417
#     4  12  26  43  71 102 137 178 238 287 337 412
#     4  12  24  43  68  96 133 183 226 279 340 406
#     4  11  21  42  65  94 134 177 222 281 345 403
#     4  12  22  45  71  96 133 188 230 267 348 420
#     4  12  23  42  68 100 136 174 236 282 334 404
#
# _framework density 19.512471999999999
#
# number of rings (size 3 to 8) (size 9 to 14) (size 15 to 20)
#    0.000    0.571    7.143    0.857    2.000    1.143 
#    2.571    2.143    0.000    0.000    0.000    0.000 
#    0.000    0.000    0.000    0.000    0.000    0.000 
#
# Total GULP energy -78073.033300 kJ/mol
# GULP energy per Si atom -5576.645236 kJ/mol
# Density = 1.946806 g / cm^3
# Si number density = 19.512472 Si / 1000 Ang^3
#
#
#
# Elastic Constant Matrix: (Units=GPa)
#
#
# Indices 1 2 3 4 5 6 
#
# 1 65.6067 36.4890 46.8450 -5.8360 6.0503 -9.7882
# 2 36.4890 123.6701 44.3767 7.9555 14.1853 0.5119
# 3 46.8450 44.3767 144.8611 -12.6981 -3.9291 -12.2120
# 4 -5.8360 7.9555 -12.6981 35.0633 -3.3107 2.0068
# 5 6.0503 14.1853 -3.9291 -3.3107 48.0437 3.5456
# 6 -9.7882 0.5119 -12.2120 2.0068 3.5456 36.7904
#
#
#
# Elastic Compliance Matrix: (Units=1/GPa)
#
#
# Indices 1 2 3 4 5 6 
#
# 1 0.022788 -0.004730 -0.005389 0.002467 -0.002069 0.004405
# 2 -0.004730 0.010993 -0.002445 -0.004355 -0.003025 -0.001694
# 3 -0.005389 -0.002445 0.009877 0.003371 0.002332 0.001470
# 4 0.002467 -0.004355 0.003371 0.031476 0.003436 -0.000212
# 5 -0.002069 -0.003025 0.002332 0.003436 0.022550 -0.002095
# 6 0.004405 -0.001694 0.001470 -0.000212 -0.002095 0.029078
#
#
# Mechanical properties :
#
#
# Convention : Reuss Voigt Hill
#
# Bulk Modulus (GPa) = 53.96055 65.50659 59.73357
# Shear Modulus (GPa) = 31.63232 37.74131 34.68681
#
# Velocity S-wave (km/s) = 4.03070 4.40274 4.22082
# Velocity P-wave (km/s) = 7.02684 7.71298 7.37789
#
# Compressibility (1/GPa) = 0.01853206
#
# Stress axis : x y z
#
# Youngs Moduli (GPa) = 43.88266 90.96767 101.24098
#
# Poissons Ratio (x) = 0.43023 0.54558
# Poissons Ratio (y) = 0.20754 0.24751
# Poissons Ratio (z) = 0.23648 0.22239
#
# Static dielectric constant tensor:
#      x y z
#    x 1.701080 0.016890 -0.026570 
#    y 0.016890 1.686980 0.025630 
#    z -0.026570 0.025630 1.711410 
# 
# From -- ./inp_files/199353.got.cif
#   From: 2010.05.17/outbox.cif.g08.bks.cpg/sg2_100_cif.got.tgz:199353.got - 2010.06.03 11:33:40.
