data_PCOD9023179
_publ_section_title
;
Structure prediction by ZEFSAII (Michael W. Deem and Ramdas Pophale) SiO2 
 PCOD9023179
Probable space group: P -1
;
_chemical_formula_sum "Si O2"
_cell_formula_units_Z 16
_cell_length_a 20.922802
_cell_length_b 9.107238
_cell_length_c 12.159223
_cell_angle_alpha 99.704337
_cell_angle_beta 159.333975
_cell_angle_gamma 83.495907
_cell_volume 799.384704
_symmetry_space_group_name_H-M "P -1"
_symmetry_group_IT_number 2
_symmetry_cell_setting 'triclinic'
loop_
_space_group_symop_operation_xyz
x,y,z
-x,-y,-z
loop_
_atom_site_type_symbol
_atom_site_label
_atom_site_fract_x
_atom_site_fract_y
_atom_site_fract_z
Si Si1 0.449994 0.930134 0.143554
Si Si2 0.656394 0.925542 0.678973
Si Si3 0.785436 0.490172 0.675298
Si Si4 0.320747 0.404216 0.249321
Si Si5 0.136509 0.377987 0.719424
Si Si6 0.109802 0.913133 0.751317
Si Si7 0.439289 0.259102 0.062858
Si Si8 0.584616 0.665302 0.201048
O O1 0.632347 0.954034 0.515504
O O2 0.460047 0.785249 0.065093
O O3 0.425755 0.090720 0.069672
O O4 0.288867 0.887143 0.966926
O O5 0.628162 0.750966 0.639934
O O6 0.500000 0.000000 0.500000
O O7 0.838070 0.998572 0.041930
O O8 0.757288 0.514278 0.762848
O O9 0.650817 0.337115 0.408793
O O10 0.714200 0.620915 0.501946
O O11 0.000000 0.500000 0.000000
O O12 0.500000 0.500000 0.500000
O O13 0.179082 0.367463 0.916296
O O14 0.000000 0.500000 0.500000
O O15 0.020477 0.237038 0.457992
O O16 0.334092 0.374753 0.980116
O O17 0.000000 0.000000 0.500000
O O18 0.348660 0.255740 0.795920
O O19 0.500000 0.500000 0.000000
#
# Coordination Sequence:
#
# PCOD9023179 Si02
#       8
#     2   2   2   2   2   2   2   2
#     4  11  22  43  69  97 135 183 224 276 348 406
#     4  10  22  39  66  97 136 177 215 285 348 404
#     4  11  26  46  68  98 137 183 230 281 341 409
#     4  12  24  43  70 100 137 178 231 283 341 404
#     4  12  27  39  68 108 138 177 229 289 338 406
#     4  11  22  41  63 102 142 169 220 283 351 404
#     4  11  24  46  66  98 140 178 231 282 338 406
#     4  10  24  44  69  95 132 182 226 276 342 406
#
# _framework density 20.015393
#
# number of rings (size 3 to 8) (size 9 to 14) (size 15 to 20)
#    0.000    1.000    5.000    1.125    8.750    1.000 
#    0.000    0.625    0.000    0.000    0.000    0.000 
#    0.000    0.000    0.000    0.000    0.000    0.000 
#
# Total GULP energy -89137.542165 kJ/mol
# GULP energy per Si atom -5571.096385 kJ/mol
# Density = 1.996984 g / cm^3
# Si number density = 20.015393 Si / 1000 Ang^3
#
#
#
# Elastic Constant Matrix: (Units=GPa)
#
#
# Indices 1 2 3 4 5 6 
#
# 1 112.7690 14.7308 35.7323 -5.2905 -11.0558 -9.2785
# 2 14.7308 84.6883 24.0467 -9.5376 5.2448 -2.6970
# 3 35.7323 24.0467 81.1060 -0.9545 1.1353 2.2103
# 4 -5.2905 -9.5376 -0.9545 38.5765 4.4792 -2.4102
# 5 -11.0558 5.2448 1.1353 4.4792 38.5487 -2.0705
# 6 -9.2785 -2.6970 2.2103 -2.4102 -2.0705 34.2113
#
#
#
# Elastic Compliance Matrix: (Units=1/GPa)
#
#
# Indices 1 2 3 4 5 6 
#
# 1 0.011180 -0.000530 -0.004902 0.001100 0.003488 0.003596
# 2 -0.000530 0.013538 -0.003742 0.003520 -0.002224 0.001279
# 3 -0.004902 -0.003742 0.015680 -0.001226 -0.001367 -0.002807
# 4 0.001100 0.003520 -0.001226 0.027433 -0.003186 0.002395
# 5 0.003488 -0.002224 -0.001367 -0.003186 0.027779 0.002316
# 6 0.003596 0.001279 -0.002807 0.002395 0.002316 0.030796
#
#
# Mechanical properties :
#
#
# Convention : Reuss Voigt Hill
#
# Bulk Modulus (GPa) = 45.35562 47.50920 46.43241
# Shear Modulus (GPa) = 32.87221 35.87088 34.37154
#
# Velocity S-wave (km/s) = 4.05698 4.23799 4.14847
# Velocity P-wave (km/s) = 6.68244 6.90907 6.79670
#
# Compressibility (1/GPa) = 0.02204799
#
# Stress axis : x y z
#
# Youngs Moduli (GPa) = 89.44834 73.86756 63.77586
#
# Poissons Ratio (x) = 0.03917 0.31263
# Poissons Ratio (y) = 0.04743 0.23867
# Poissons Ratio (z) = 0.43847 0.27644
#
# Static dielectric constant tensor:
#      x y z
#    x 1.730900 -0.016080 -0.001030 
#    y -0.016080 1.721140 0.000960 
#    z -0.001030 0.000960 1.783760 
# 
# From -- ./inp_files/381877.got.cif
#   From: 2010.05.17/outbox.cif.g08.bks.cpg/sg2_191_cif.got.tgz:381877.got - 2010.06.03 11:33:40.
