data_PCOD9023165
_publ_section_title
;
Structure prediction by ZEFSAII (Michael W. Deem and Ramdas Pophale) SiO2 
 PCOD9023165
Probable space group: P -1
;
_chemical_formula_sum "Si O2"
_cell_formula_units_Z 16
_cell_length_a 9.633465
_cell_length_b 9.054016
_cell_length_c 11.914865
_cell_angle_alpha 97.822669
_cell_angle_beta 95.775873
_cell_angle_gamma 44.581619
_cell_volume 722.664629
_symmetry_space_group_name_H-M "P -1"
_symmetry_group_IT_number 2
_symmetry_cell_setting 'triclinic'
loop_
_space_group_symop_operation_xyz
x,y,z
-x,-y,-z
loop_
_atom_site_type_symbol
_atom_site_label
_atom_site_fract_x
_atom_site_fract_y
_atom_site_fract_z
Si Si1 0.894358 0.795997 0.079417
Si Si2 0.720013 0.229178 0.709367
Si Si3 0.694657 0.703507 0.916285
Si Si4 0.942273 0.809983 0.333924
Si Si5 0.557376 0.380112 0.109428
Si Si6 0.993886 0.160086 0.137388
Si Si7 0.671724 0.987727 0.538605
Si Si8 0.113445 0.350493 0.287172
O O1 0.854256 0.886177 0.209155
O O2 0.108396 0.550369 0.085412
O O3 0.735256 0.796832 0.022690
O O4 0.933879 0.877347 0.988207
O O5 0.571425 0.450952 0.783697
O O6 0.876808 0.209955 0.650404
O O7 0.616332 0.179777 0.621802
O O8 0.846282 0.047694 0.796676
O O9 0.507097 0.741959 0.920814
O O10 0.706190 0.762127 0.798011
O O11 0.781806 0.954863 0.431505
O O12 0.021307 0.580410 0.328896
O O13 0.782746 0.245465 0.136636
O O14 0.500000 0.500000 0.000000
O O15 0.975431 0.342375 0.204334
O O16 0.821548 0.784219 0.610538
O O17 0.500000 0.000000 0.500000
#
# Coordination Sequence:
#
# PCOD9023165 Si02
#       8
#     2   2   2   2   2   2   2   2
#     4   9  17  35  63  91 126 171 201 251 317 383
#     4  11  25  45  62  97 133 166 210 267 320 378
#     4   9  17  34  60  94 126 158 210 253 312 385
#     4  11  21  41  67  87 128 172 212 254 321 378
#     4  12  22  36  65  99 130 166 211 257 314 380
#     4  10  22  39  66  96 134 167 206 260 322 377
#     4  11  26  43  64  92 126 162 221 275 311 368
#     4   9  20  42  66  88 120 172 212 253 325 383
#
# _framework density 22.140283
#
# number of rings (size 3 to 8) (size 9 to 14) (size 15 to 20)
#    0.000    1.750    3.750    1.500    1.750    3.000 
#    0.000    0.625    0.000    5.250    0.000    0.000 
#    0.000    0.000    0.000    0.000    0.000    0.000 
#
# Total GULP energy -89545.363840 kJ/mol
# GULP energy per Si atom -5596.585240 kJ/mol
# Density = 2.208989 g / cm^3
# Si number density = 22.140283 Si / 1000 Ang^3
#
#
#
# Elastic Constant Matrix: (Units=GPa)
#
#
# Indices 1 2 3 4 5 6 
#
# 1 184.3641 23.3267 61.9955 12.0629 10.8666 1.9386
# 2 23.3267 51.9821 21.7128 7.4737 7.0243 15.8592
# 3 61.9955 21.7128 124.6489 9.1212 -3.9347 -3.7176
# 4 12.0629 7.4737 9.1212 24.8846 8.2767 1.9595
# 5 10.8666 7.0243 -3.9347 8.2767 37.4643 -0.7544
# 6 1.9386 15.8592 -3.7176 1.9595 -0.7544 30.7522
#
#
#
# Elastic Compliance Matrix: (Units=1/GPa)
#
#
# Indices 1 2 3 4 5 6 
#
# 1 0.006831 -0.001308 -0.003146 -0.001154 -0.001814 -0.000108
# 2 -0.001308 0.027160 -0.004427 -0.003184 -0.004764 -0.014373
# 3 -0.003146 -0.004427 0.010779 -0.002588 0.003527 0.004036
# 4 -0.001154 -0.003184 -0.002588 0.045957 -0.009529 -0.001760
# 5 -0.001814 -0.004764 0.003527 -0.009529 0.030675 0.004357
# 6 -0.000108 -0.014373 0.004036 -0.001760 0.004357 0.040644
#
#
# Mechanical properties :
#
#
# Convention : Reuss Voigt Hill
#
# Bulk Modulus (GPa) = 37.02328 63.89613 50.45971
# Shear Modulus (GPa) = 26.48174 35.55089 31.01632
#
# Velocity S-wave (km/s) = 3.46220 4.01148 3.74692
# Velocity P-wave (km/s) = 5.72197 7.09777 6.44667
#
# Compressibility (1/GPa) = 0.02701003
#
# Stress axis : x y z
#
# Youngs Moduli (GPa) = 146.39594 36.81900 92.77120
#
# Poissons Ratio (x) = 0.04814 0.29182
# Poissons Ratio (y) = 0.19142 0.41067
# Poissons Ratio (z) = 0.46051 0.16299
#
# Static dielectric constant tensor:
#      x y z
#    x 1.813820 0.022150 0.014010 
#    y 0.022150 1.852330 0.018970 
#    z 0.014010 0.018970 1.796930 
# 
# From -- ./inp_files/382675.got.cif
#   From: 2010.05.17/outbox.cif.g08.bks.cpg/sg2_192_cif.got.tgz:382675.got - 2010.06.03 11:33:40.
