data_PCOD9023988
_publ_section_title
;
Structure prediction by ZEFSAII (Michael W. Deem and Ramdas Pophale) SiO2 
 PCOD9023988
Probable space group: P -1
;
_chemical_formula_sum "Si O2"
_cell_formula_units_Z 16
_cell_length_a 6.081179
_cell_length_b 12.148872
_cell_length_c 21.620465
_cell_angle_alpha 152.742835
_cell_angle_beta 118.184168
_cell_angle_gamma 59.721659
_cell_volume 630.577612
_symmetry_space_group_name_H-M "P -1"
_symmetry_group_IT_number 2
_symmetry_cell_setting 'triclinic'
loop_
_space_group_symop_operation_xyz
x,y,z
-x,-y,-z
loop_
_atom_site_type_symbol
_atom_site_label
_atom_site_fract_x
_atom_site_fract_y
_atom_site_fract_z
Si Si1 0.681903 0.687658 0.110121
Si Si2 0.384658 0.494609 0.740342
Si Si3 0.986902 0.049302 0.130430
Si Si4 0.285927 0.077700 0.311365
Si Si5 0.952556 0.881041 0.498293
Si Si6 0.475452 0.527311 0.393103
Si Si7 0.543307 0.954162 0.105260
Si Si8 0.202005 0.692083 0.210644
O O1 0.955575 0.575964 0.116582
O O2 0.562294 0.941084 0.254857
O O3 0.692314 0.762136 0.078129
O O4 0.500000 0.500000 0.000000
O O5 0.148578 0.719663 0.812817
O O6 0.274597 0.253822 0.610834
O O7 0.526407 0.473058 0.682317
O O8 0.554292 0.495169 0.823856
O O9 0.731419 0.946699 0.066167
O O10 0.101992 0.114523 0.245135
O O11 0.243089 0.931248 0.065612
O O12 0.322808 0.320104 0.474978
O O13 0.222555 0.860823 0.238090
O O14 0.198635 0.679665 0.452230
O O15 0.866132 0.098565 0.642409
O O16 0.000000 0.000000 0.500000
O O17 0.527208 0.237779 0.269800
#
# Coordination Sequence:
#
# PCOD9023988 Si02
#       8
#     2   2   2   2   2   2   2   2
#     4  11  26  46  67  93 127 177 233 289 335 388
#     4  11  23  36  59  96 141 176 208 265 343 414
#     4  10  22  40  62  94 133 179 218 272 331 400
#     4  11  23  40  66  96 132 174 225 277 337 402
#     4  12  21  35  57  97 142 177 209 260 341 415
#     4  11  21  36  63  97 136 174 213 272 335 412
#     4  10  22  42  65  96 131 174 221 276 338 402
#     4  12  23  39  62  99 132 175 228 270 337 405
#
# _framework density 25.373560999999999
#
# number of rings (size 3 to 8) (size 9 to 14) (size 15 to 20)
#    0.000    1.000    6.250    1.125    0.000    5.500 
#    0.000    0.000    0.000    6.000    0.000    0.000 
#    0.000    0.000    0.000    0.000    0.000    0.000 
#
# Total GULP energy -89421.771891 kJ/mol
# GULP energy per Si atom -5588.860743 kJ/mol
# Density = 2.531581 g / cm^3
# Si number density = 25.373561 Si / 1000 Ang^3
#
#
#
# Elastic Constant Matrix: (Units=GPa)
#
#
# Indices 1 2 3 4 5 6 
#
# 1 148.9891 42.1566 37.5368 -3.0144 6.5826 -10.8783
# 2 42.1566 156.0980 39.9612 -5.5508 17.7387 -18.9232
# 3 37.5368 39.9612 77.2169 -4.8969 14.2657 4.4116
# 4 -3.0144 -5.5508 -4.8969 36.4839 4.4779 2.5391
# 5 6.5826 17.7387 14.2657 4.4779 45.9917 8.8011
# 6 -10.8783 -18.9232 4.4116 2.5391 8.8011 55.3472
#
#
#
# Elastic Compliance Matrix: (Units=1/GPa)
#
#
# Indices 1 2 3 4 5 6 
#
# 1 0.007988 -0.001121 -0.003404 -0.000078 0.000075 0.001450
# 2 -0.001121 0.008312 -0.003393 0.000820 -0.002701 0.003284
# 3 -0.003404 -0.003393 0.017251 0.002108 -0.003227 -0.002788
# 4 -0.000078 0.000820 0.002108 0.028295 -0.003593 -0.000630
# 5 0.000075 -0.002701 -0.003227 -0.003593 0.024978 -0.004459
# 6 0.001450 0.003284 -0.002788 -0.000630 -0.004459 0.020435
#
#
# Mechanical properties :
#
#
# Convention : Reuss Voigt Hill
#
# Bulk Modulus (GPa) = 56.45696 69.06814 62.76255
# Shear Modulus (GPa) = 38.75944 45.07452 41.91698
#
# Velocity S-wave (km/s) = 3.91263 4.21935 4.06888
# Velocity P-wave (km/s) = 6.53530 7.14261 6.84569
#
# Compressibility (1/GPa) = 0.01771261
#
# Stress axis : x y z
#
# Youngs Moduli (GPa) = 125.19046 120.31004 57.96924
#
# Poissons Ratio (x) = 0.13490 0.19735
# Poissons Ratio (y) = 0.14038 0.19669
# Poissons Ratio (z) = 0.42620 0.40822
#
# Static dielectric constant tensor:
#      x y z
#    x 2.040160 0.011580 -0.024660 
#    y 0.011580 1.990410 -0.013120 
#    z -0.024660 -0.013120 2.047600 
# 
# From -- ./inp_files/127486.got.cif
#   From: 2010.05.17/outbox.cif.g08.bks.cpg/sg2_64_cif.got.tgz:127486.got - 2010.06.03 11:33:40.
