data_PCOD9023108
_publ_section_title
;
Structure prediction by ZEFSAII (Michael W. Deem and Ramdas Pophale) SiO2 
 PCOD9023108
Probable space group: P -1
;
_chemical_formula_sum "Si O2"
_cell_formula_units_Z 14
_cell_length_a 9.330316
_cell_length_b 18.186736
_cell_length_c 12.071382
_cell_angle_alpha 128.863005
_cell_angle_beta 95.345340
_cell_angle_gamma 41.343935
_cell_volume 714.719554
_symmetry_space_group_name_H-M "P -1"
_symmetry_group_IT_number 2
_symmetry_cell_setting 'triclinic'
loop_
_space_group_symop_operation_xyz
x,y,z
-x,-y,-z
loop_
_atom_site_type_symbol
_atom_site_label
_atom_site_fract_x
_atom_site_fract_y
_atom_site_fract_z
Si Si1 0.185711 0.796179 0.787319
Si Si2 0.415403 0.436722 0.815697
Si Si3 0.473974 0.623366 0.978368
Si Si4 0.144835 0.471436 0.649057
Si Si5 0.153868 0.198875 0.215676
Si Si6 0.149947 0.557507 0.377249
Si Si7 0.831771 0.114114 0.361192
O O1 0.534692 0.598120 0.678079
O O2 0.192544 0.795685 0.653915
O O3 0.012156 0.803830 0.823128
O O4 0.000000 0.000000 0.000000
O O5 0.372510 0.573175 0.924480
O O6 0.156799 0.528068 0.814653
O O7 0.744654 0.213522 0.565947
O O8 0.428414 0.408467 0.919517
O O9 0.761850 0.468538 0.766213
O O10 0.168653 0.864777 0.149399
O O11 0.522310 0.227365 0.426164
O O12 0.031224 0.605203 0.668673
O O13 0.926960 0.508297 0.681717
O O14 0.136074 0.224221 0.370810
O O15 0.500000 0.000000 0.000000
#
# Coordination Sequence:
#
# PCOD9023108 Si02
#       7
#     2   2   2   2   2   2   2
#     4  12  23  38  63  93 122 163 208 254 314 377
#     4   9  22  41  64  93 122 162 217 252 317 365
#     4  11  21  40  71  88 123 165 211 266 306 371
#     4  10  24  40  60  90 131 163 210 255 306 379
#     4  12  26  39  62  90 131 166 202 262 312 375
#     4  12  23  39  61  92 124 166 209 250 315 369
#     4  10  22  39  66  91 126 161 207 256 309 375
#
# _framework density 19.588103
#
# number of rings (size 3 to 8) (size 9 to 14) (size 15 to 20)
#    0.857    0.286    2.857    3.857    2.000    0.571 
#    0.000    0.000    0.000    2.571    0.000    0.000 
#    0.000    0.000    0.000    0.000    0.000    0.000 
#
# Total GULP energy -78129.791902 kJ/mol
# GULP energy per Si atom -5580.699422 kJ/mol
# Density = 1.954352 g / cm^3
# Si number density = 19.588103 Si / 1000 Ang^3
#
#
#
# Elastic Constant Matrix: (Units=GPa)
#
#
# Indices 1 2 3 4 5 6 
#
# 1 132.0894 29.6326 13.9718 -20.4890 -10.6423 5.3586
# 2 29.6326 76.0691 30.5889 -34.2555 -10.3447 7.5198
# 3 13.9718 30.5889 103.7147 -32.8995 -9.3494 -3.3130
# 4 -20.4890 -34.2555 -32.8995 34.7340 4.2195 0.2697
# 5 -10.6423 -10.3447 -9.3494 4.2195 27.5784 -4.0516
# 6 5.3586 7.5198 -3.3130 0.2697 -4.0516 19.7522
#
#
#
# Elastic Compliance Matrix: (Units=1/GPa)
#
#
# Indices 1 2 3 4 5 6 
#
# 1 0.008685 -0.001330 0.000727 0.004236 0.002256 -0.001323
# 2 -0.001330 0.026260 0.000514 0.025143 0.004341 -0.009003
# 3 0.000727 0.000514 0.014217 0.013954 0.003529 0.002525
# 4 0.004236 0.025143 0.013954 0.068881 0.004009 -0.008499
# 5 0.002256 0.004341 0.003529 0.004009 0.040303 0.006539
# 6 -0.001323 -0.009003 0.002525 -0.008499 0.006539 0.056295
#
#
# Mechanical properties :
#
#
# Convention : Reuss Voigt Hill
#
# Bulk Modulus (GPa) = 20.41516 51.13998 35.77757
# Shear Modulus (GPa) = 21.63110 32.25825 26.94468
#
# Velocity S-wave (km/s) = 3.32670 4.06252 3.71288
# Velocity P-wave (km/s) = 5.02004 6.94044 6.05684
#
# Compressibility (1/GPa) = 0.04898321
#
# Stress axis : x y z
#
# Youngs Moduli (GPa) = 115.14541 38.08001 70.33590
#
# Poissons Ratio (x) = 0.05067 -0.05115
# Poissons Ratio (y) = 0.15320 -0.03612
# Poissons Ratio (z) = -0.08374 -0.01955
#
# Static dielectric constant tensor:
#      x y z
#    x 1.665290 -0.007760 0.008680 
#    y -0.007760 1.681620 -0.025980 
#    z 0.008680 -0.025980 1.754530 
# 
# From -- ./inp_files/397624.got.cif
#   From: 2010.05.17/outbox.cif.g08.bks.cpg/sg2_199_cif.got.tgz:397624.got - 2010.06.03 11:33:40.
