data_PCOD9023759
_publ_section_title
;
Structure prediction by ZEFSAII (Michael W. Deem and Ramdas Pophale) SiO2 
 PCOD9023759
Probable space group: P -1
;
_chemical_formula_sum "Si O2"
_cell_formula_units_Z 16
_cell_length_a 8.989388
_cell_length_b 20.543349
_cell_length_c 6.038266
_cell_angle_alpha 52.663107
_cell_angle_beta 120.443882
_cell_angle_gamma 134.366269
_cell_volume 627.085401
_symmetry_space_group_name_H-M "P -1"
_symmetry_group_IT_number 2
_symmetry_cell_setting 'triclinic'
loop_
_space_group_symop_operation_xyz
x,y,z
-x,-y,-z
loop_
_atom_site_type_symbol
_atom_site_label
_atom_site_fract_x
_atom_site_fract_y
_atom_site_fract_z
Si Si1 0.703724 0.451239 0.260488
Si Si2 0.279658 0.071124 0.977231
Si Si3 0.729311 0.164320 0.933390
Si Si4 0.108922 0.087360 0.217373
Si Si5 0.034923 0.730337 0.514228
Si Si6 0.909719 0.818958 0.610680
Si Si7 0.624062 0.581457 0.236022
Si Si8 0.152484 0.636995 0.137454
O O1 0.679380 0.532691 0.186129
O O2 0.680257 0.378461 0.589130
O O3 0.943239 0.523236 0.207781
O O4 0.535917 0.399204 0.044481
O O5 0.487943 0.099838 0.953702
O O6 0.209215 0.141006 0.688897
O O7 0.086025 0.958433 0.006538
O O8 0.286832 0.089172 0.208344
O O9 0.824581 0.277243 0.860709
O O10 0.787861 0.177677 0.691530
O O11 0.846906 0.124259 0.240373
O O12 0.180681 0.186949 0.196621
O O13 0.000000 0.000000 0.500000
O O14 0.916347 0.745818 0.594541
O O15 0.843723 0.663092 0.343228
O O16 0.145756 0.680305 0.806509
O O17 0.500000 0.500000 0.500000
#
# Coordination Sequence:
#
# PCOD9023759 Si02
#       8
#     2   2   2   2   2   2   2   2
#     4  10  22  40  63  89 123 172 230 285 341 397
#     4  10  22  43  70  98 136 179 222 275 343 396
#     4  11  24  41  63 100 139 177 225 281 341 412
#     4   9  20  43  71 101 133 174 227 276 325 412
#     4  11  23  41  64  96 140 178 228 283 345 412
#     4  10  23  41  67  96 139 177 224 276 337 404
#     4  11  22  38  63  90 123 173 226 281 343 408
#     4  10  22  40  61  89 129 171 223 286 340 402
#
# _framework density 25.514865
#
# number of rings (size 3 to 8) (size 9 to 14) (size 15 to 20)
#    0.000    1.750    2.500    0.750    0.000    8.000 
#    0.000    7.500    0.000    0.000    0.000    0.000 
#    0.000    0.000    0.000    0.000    0.000    0.000 
#
# Total GULP energy -89130.145071 kJ/mol
# GULP energy per Si atom -5570.634067 kJ/mol
# Density = 2.545679 g / cm^3
# Si number density = 25.514865 Si / 1000 Ang^3
#
#
#
# Elastic Constant Matrix: (Units=GPa)
#
#
# Indices 1 2 3 4 5 6 
#
# 1 75.4993 31.9553 33.8763 7.2778 -9.5822 5.0882
# 2 31.9553 79.7976 21.5992 18.3967 -14.0586 -0.7824
# 3 33.8763 21.5992 158.1194 11.3561 20.8583 8.1692
# 4 7.2778 18.3967 11.3561 34.7638 -8.2284 -6.6355
# 5 -9.5822 -14.0586 20.8583 -8.2284 46.0925 1.6155
# 6 5.0882 -0.7824 8.1692 -6.6355 1.6155 34.4864
#
#
#
# Elastic Compliance Matrix: (Units=1/GPa)
#
#
# Indices 1 2 3 4 5 6 
#
# 1 0.017754 -0.005751 -0.003486 0.000990 0.003758 -0.001909
# 2 -0.005751 0.017285 -0.001086 -0.006788 0.003355 0.000035
# 3 -0.003486 -0.001086 0.008215 -0.002959 -0.005240 -0.001780
# 4 0.000990 -0.006788 -0.002959 0.035787 0.005617 0.007023
# 5 0.003758 0.003355 -0.005240 0.005617 0.026853 0.000586
# 6 -0.001909 0.000035 -0.001780 0.007023 0.000586 0.031025
#
#
# Mechanical properties :
#
#
# Convention : Reuss Voigt Hill
#
# Bulk Modulus (GPa) = 44.23281 54.25310 49.24296
# Shear Modulus (GPa) = 30.28446 38.13426 34.20936
#
# Velocity S-wave (km/s) = 3.44893 3.87019 3.66561
# Velocity P-wave (km/s) = 5.76488 6.42500 6.10387
#
# Compressibility (1/GPa) = 0.02260765
#
# Stress axis : x y z
#
# Youngs Moduli (GPa) = 56.32629 57.85417 121.72472
#
# Poissons Ratio (x) = 0.33271 0.42437
# Poissons Ratio (y) = 0.32392 0.13218
# Poissons Ratio (z) = 0.19637 0.06282
#
# Static dielectric constant tensor:
#      x y z
#    x 2.115690 0.024430 -0.014320 
#    y 0.024430 2.169920 -0.029280 
#    z -0.014320 -0.029280 2.097530 
# 
# From -- ./inp_files/52575.got.cif
#   From: 2010.05.17/outbox.cif.g08.bks.cpg/sg2_27_cif.got.tgz:52575.got - 2010.06.03 11:33:40.
