data_PCOD9023490
_publ_section_title
;
Structure prediction by ZEFSAII (Michael W. Deem and Ramdas Pophale) SiO2 
 PCOD9023490
Probable space group: P -1
;
_chemical_formula_sum "Si O2"
_cell_formula_units_Z 16
_cell_length_a 9.873808
_cell_length_b 15.248552
_cell_length_c 12.081448
_cell_angle_alpha 143.308108
_cell_angle_beta 118.981369
_cell_angle_gamma 42.167025
_cell_volume 701.738859
_symmetry_space_group_name_H-M "P -1"
_symmetry_group_IT_number 2
_symmetry_cell_setting 'triclinic'
loop_
_space_group_symop_operation_xyz
x,y,z
-x,-y,-z
loop_
_atom_site_type_symbol
_atom_site_label
_atom_site_fract_x
_atom_site_fract_y
_atom_site_fract_z
Si Si1 0.827528 0.027088 0.835800
Si Si2 0.229861 0.121393 0.901319
Si Si3 0.154964 0.487247 0.967312
Si Si4 0.298920 0.391630 0.303369
Si Si5 0.729653 0.134934 0.145339
Si Si6 0.577542 0.732317 0.521819
Si Si7 0.183573 0.251922 0.556281
Si Si8 0.481658 0.532476 0.893547
O O1 0.753634 0.956491 0.645576
O O2 0.079084 0.873532 0.787321
O O3 0.745421 0.041678 0.940391
O O4 0.734888 0.245780 0.994174
O O5 0.230008 0.999306 0.872736
O O6 0.378813 0.963616 0.704199
O O7 0.319466 0.213621 0.082124
O O8 0.997738 0.309260 0.957933
O O9 0.255904 0.299740 0.737924
O O10 0.334498 0.472923 0.075668
O O11 0.000000 0.500000 0.000000
O O12 0.498251 0.347360 0.286069
O O13 0.321850 0.369221 0.422006
O O14 0.068994 0.587461 0.375999
O O15 0.739174 0.711050 0.484019
O O16 0.508849 0.627009 0.327319
O O17 0.500000 0.500000 0.000000
#
# Coordination Sequence:
#
# PCOD9023490 Si02
#       8
#     2   2   2   2   2   2   2   2
#     4  11  26  40  71  99 141 175 229 283 341 408
#     4  10  22  45  70 101 138 176 225 286 345 413
#     4  11  27  45  70  99 141 182 234 287 336 402
#     4  10  22  39  70 101 141 166 226 281 349 409
#     4  10  22  42  65 102 139 174 214 289 353 402
#     4  11  23  42  74  99 132 187 227 276 349 410
#     4  11  24  42  69 101 131 184 228 282 341 409
#     4  12  27  48  67  98 142 185 231 285 330 412
#
# _framework density 22.800505000000001
#
# number of rings (size 3 to 8) (size 9 to 14) (size 15 to 20)
#    0.000    1.250    1.250    4.125   10.500    4.500 
#    0.000    0.000    0.000    0.000    0.000    0.000 
#    0.000    0.000    0.000    0.000    0.000    0.000 
#
# Total GULP energy -89547.780577 kJ/mol
# GULP energy per Si atom -5596.736286 kJ/mol
# Density = 2.274861 g / cm^3
# Si number density = 22.800505 Si / 1000 Ang^3
#
#
#
# Elastic Constant Matrix: (Units=GPa)
#
#
# Indices 1 2 3 4 5 6 
#
# 1 107.4485 13.9564 37.8492 0.9350 -23.6459 -15.8515
# 2 13.9564 45.5854 24.1869 -8.0216 -3.1135 -12.5052
# 3 37.8492 24.1869 166.8476 -11.8049 13.8525 -6.7160
# 4 0.9350 -8.0216 -11.8049 19.4829 -2.9283 -0.1824
# 5 -23.6459 -3.1135 13.8525 -2.9283 36.9221 -4.4066
# 6 -15.8515 -12.5052 -6.7160 -0.1824 -4.4066 32.5709
#
#
#
# Elastic Compliance Matrix: (Units=1/GPa)
#
#
# Indices 1 2 3 4 5 6 
#
# 1 0.014427 0.000531 -0.004078 -0.001115 0.011676 0.007958
# 2 0.000531 0.029274 -0.003658 0.010888 0.006438 0.011675
# 3 -0.004078 -0.003658 0.008033 0.002627 -0.006028 -0.002534
# 4 -0.001115 0.010888 0.002627 0.058170 0.004441 0.005106
# 5 0.011676 0.006438 -0.006028 0.004441 0.039179 0.012237
# 6 0.007958 0.011675 -0.002534 0.005106 0.012237 0.040219
#
#
# Mechanical properties :
#
#
# Convention : Reuss Voigt Hill
#
# Bulk Modulus (GPa) = 26.79250 52.42960 39.61105
# Shear Modulus (GPa) = 23.13160 34.05446 28.59303
#
# Velocity S-wave (km/s) = 3.18861 3.86888 3.54510
# Velocity P-wave (km/s) = 5.03316 6.55763 5.84531
#
# Compressibility (1/GPa) = 0.03732388
#
# Stress axis : x y z
#
# Youngs Moduli (GPa) = 69.31275 34.16024 124.48342
#
# Poissons Ratio (x) = -0.01813 0.50761
# Poissons Ratio (y) = -0.03679 0.45539
# Poissons Ratio (z) = 0.28264 0.12497
#
# Static dielectric constant tensor:
#      x y z
#    x 1.861240 -0.015440 -0.003790 
#    y -0.015440 1.847130 0.003070 
#    z -0.003790 0.003070 1.858560 
# 
# From -- ./inp_files/399824.got.cif
#   From: 2010.05.17/outbox.cif.g08.bks.cpg/sg2_200_cif.got.tgz:399824.got - 2010.06.03 11:33:40.
