data_PCOD9023398
_publ_section_title
;
Structure prediction by ZEFSAII (Michael W. Deem and Ramdas Pophale) SiO2 
 PCOD9023398
Probable space group: P -1
;
_chemical_formula_sum "Si O2"
_cell_formula_units_Z 16
_cell_length_a 8.577987
_cell_length_b 20.485344
_cell_length_c 25.614026
_cell_angle_alpha 161.847113
_cell_angle_beta 144.766534
_cell_angle_gamma 34.353390
_cell_volume 777.818061
_symmetry_space_group_name_H-M "P -1"
_symmetry_group_IT_number 2
_symmetry_cell_setting 'triclinic'
loop_
_space_group_symop_operation_xyz
x,y,z
-x,-y,-z
loop_
_atom_site_type_symbol
_atom_site_label
_atom_site_fract_x
_atom_site_fract_y
_atom_site_fract_z
Si Si1 0.117389 0.969174 0.278793
Si Si2 0.002842 0.668864 0.262442
Si Si3 0.532880 0.099490 0.426947
Si Si4 0.846251 0.749008 0.662749
Si Si5 0.213783 0.620215 0.944792
Si Si6 0.775741 0.926534 0.982975
Si Si7 0.856696 0.411992 0.940793
Si Si8 0.481299 0.258338 0.324819
O O1 0.148540 0.836537 0.240752
O O2 0.328470 0.112128 0.430536
O O3 0.191916 0.789259 0.115555
O O4 0.798831 0.107846 0.294007
O O5 0.293879 0.722549 0.391516
O O6 0.869343 0.592380 0.218854
O O7 0.778509 0.873623 0.329892
O O8 0.035180 0.467123 0.079517
O O9 0.346482 0.131735 0.348009
O O10 0.000000 0.500000 0.500000
O O11 0.656134 0.749853 0.662360
O O12 0.079702 0.877448 0.835023
O O13 0.533918 0.548093 0.959867
O O14 0.002536 0.738422 0.932674
O O15 0.692967 0.833123 0.835565
O O16 0.500000 0.000000 0.000000
O O17 0.000000 0.500000 0.000000
O O18 0.500000 0.500000 0.500000
#
# Coordination Sequence:
#
# PCOD9023398 Si02
#       8
#     2   2   2   2   2   2   2   2
#     4  11  21  43  71  92 137 177 223 288 342 415
#     4  10  22  39  68  97 131 175 221 272 342 418
#     4  11  21  42  67  97 129 175 227 275 347 406
#     4  12  27  46  73  98 140 185 234 294 350 412
#     4  11  21  44  71  97 137 179 227 280 349 422
#     4  12  24  46  75 102 136 188 235 285 360 417
#     4  11  23  41  66 103 136 178 228 282 348 418
#     4  12  28  47  66 105 140 182 240 293 341 420
#
# _framework density 20.570364000000001
#
# number of rings (size 3 to 8) (size 9 to 14) (size 15 to 20)
#    0.000    0.750    5.000    2.625    7.000    0.000 
#    4.500    0.625    0.000    0.000    0.000    0.000 
#    0.000    0.000    0.000    0.000    0.000    0.000 
#
# Total GULP energy -89375.029335 kJ/mol
# GULP energy per Si atom -5585.939333 kJ/mol
# Density = 2.052354 g / cm^3
# Si number density = 20.570364 Si / 1000 Ang^3
#
#
#
# Elastic Constant Matrix: (Units=GPa)
#
#
# Indices 1 2 3 4 5 6 
#
# 1 156.6462 42.7505 65.4277 -2.3765 48.6237 -0.0277
# 2 42.7505 96.2122 49.0998 5.1673 14.7366 -4.5164
# 3 65.4277 49.0998 112.2378 -9.4783 35.9165 -8.6877
# 4 -2.3765 5.1673 -9.4783 29.7524 -2.6961 9.6524
# 5 48.6237 14.7366 35.9165 -2.6961 37.3672 -3.9486
# 6 -0.0277 -4.5164 -8.6877 9.6524 -3.9486 29.9139
#
#
#
# Elastic Compliance Matrix: (Units=1/GPa)
#
#
# Indices 1 2 3 4 5 6 
#
# 1 0.011859 -0.002502 -0.001856 0.000522 -0.012916 -0.002779
# 2 -0.002502 0.014575 -0.006255 -0.005232 0.003409 0.002520
# 3 -0.001856 -0.006255 0.016622 0.004988 -0.010643 0.000867
# 4 0.000522 -0.005232 0.004988 0.040040 -0.001842 -0.012504
# 5 -0.012916 0.003409 -0.010643 -0.001842 0.052848 0.004982
# 6 -0.002779 0.002520 0.000867 -0.012504 0.004982 0.038751
#
#
# Mechanical properties :
#
#
# Convention : Reuss Voigt Hill
#
# Bulk Modulus (GPa) = 45.81044 75.51690 60.66367
# Shear Modulus (GPa) = 24.60667 33.26123 28.93395
#
# Velocity S-wave (km/s) = 3.46239 4.02549 3.75451
# Velocity P-wave (km/s) = 6.18892 7.64181 6.95342
#
# Compressibility (1/GPa) = 0.02182909
#
# Stress axis : x y z
#
# Youngs Moduli (GPa) = 84.32738 68.61184 60.16059
#
# Poissons Ratio (x) = 0.17167 0.11166
# Poissons Ratio (y) = 0.21099 0.37630
# Poissons Ratio (z) = 0.15652 0.42917
#
# Static dielectric constant tensor:
#      x y z
#    x 1.788190 0.041940 0.041010 
#    y 0.041940 1.721940 0.026720 
#    z 0.041010 0.026720 1.790310 
# 
# From -- ./inp_files/617529.got.cif
#   From: 2010.05.17/outbox.cif.g08.bks.cpg/sg2_309_cif.got.tgz:617529.got - 2010.06.03 11:33:40.
