data_PCOD9023927
_publ_section_title
;
Structure prediction by ZEFSAII (Michael W. Deem and Ramdas Pophale) SiO2 
 PCOD9023927
Probable space group: P -1
;
_chemical_formula_sum "Si O2"
_cell_formula_units_Z 16
_cell_length_a 10.518701
_cell_length_b 15.999915
_cell_length_c 16.973379
_cell_angle_alpha 150.338624
_cell_angle_beta 148.410836
_cell_angle_gamma 52.541117
_cell_volume 637.285369
_symmetry_space_group_name_H-M "P -1"
_symmetry_group_IT_number 2
_symmetry_cell_setting 'triclinic'
loop_
_space_group_symop_operation_xyz
x,y,z
-x,-y,-z
loop_
_atom_site_type_symbol
_atom_site_label
_atom_site_fract_x
_atom_site_fract_y
_atom_site_fract_z
Si Si1 0.941546 0.855187 0.277840
Si Si2 0.732267 0.014747 0.843973
Si Si3 0.197883 0.669131 0.347373
Si Si4 0.938319 0.665594 0.627600
Si Si5 0.491415 0.202504 0.777747
Si Si6 0.694699 0.202100 0.314886
Si Si7 0.305654 0.384893 0.703717
Si Si8 0.550755 0.591117 0.731309
O O1 0.945865 0.668851 0.167166
O O2 0.196909 0.003917 0.476916
O O3 0.000000 0.000000 0.500000
O O4 0.670038 0.754706 0.997187
O O5 0.715311 0.131799 0.855400
O O6 0.454819 0.809732 0.540628
O O7 0.756437 0.153607 0.043030
O O8 0.000000 0.000000 0.000000
O O9 0.244833 0.781770 0.547089
O O10 0.223868 0.478749 0.219349
O O11 0.772162 0.689296 0.487124
O O12 0.739897 0.588372 0.535890
O O13 0.000000 0.500000 0.500000
O O14 0.477302 0.295983 0.764194
O O15 0.543518 0.380443 0.010400
O O16 0.533831 0.322857 0.315438
O O17 0.002741 0.301765 0.518823
O O18 0.500000 0.000000 0.000000
#
# Coordination Sequence:
#
# PCOD9023927 Si02
#       8
#     2   2   2   2   2   2   2   2
#     4  11  23  41  67  94 126 173 224 268 324 393
#     4  11  22  42  66  92 131 169 214 264 325 393
#     4  11  25  42  65  94 135 173 209 272 338 391
#     4  12  22  40  68  97 125 172 225 267 314 386
#     4  10  22  40  62  91 128 164 211 272 318 376
#     4  12  24  41  67  99 129 168 220 273 325 390
#     4  11  22  39  66  96 127 163 218 271 317 377
#     4  12  24  42  65  95 135 171 217 272 334 391
#
# _framework density 25.106490000000001
#
# number of rings (size 3 to 8) (size 9 to 14) (size 15 to 20)
#    0.000    0.750    3.750    4.500    1.750    1.000 
#    0.000    0.625    0.000    0.000    0.000    0.000 
#    0.000    0.000    0.000    0.000    0.000    0.000 
#
# Total GULP energy -89363.587457 kJ/mol
# GULP energy per Si atom -5585.224216 kJ/mol
# Density = 2.504935 g / cm^3
# Si number density = 25.106490 Si / 1000 Ang^3
#
#
#
# Elastic Constant Matrix: (Units=GPa)
#
#
# Indices 1 2 3 4 5 6 
#
# 1 30.0444 -1.4108 -9.2706 1.9023 -1.2458 1.8491
# 2 -1.4108 183.7979 3.4005 -9.2220 -3.4261 14.8553
# 3 -9.2706 3.4005 80.1709 -0.2753 4.3788 2.0216
# 4 1.9023 -9.2220 -0.2753 39.1341 1.9038 -12.4672
# 5 -1.2458 -3.4261 4.3788 1.9038 26.4312 -5.7160
# 6 1.8491 14.8553 2.0216 -12.4672 -5.7160 35.7169
#
#
#
# Elastic Compliance Matrix: (Units=1/GPa)
#
#
# Indices 1 2 3 4 5 6 
#
# 1 0.034921 0.000315 0.004061 -0.002570 0.000555 -0.002977
# 2 0.000315 0.005652 -0.000163 0.000636 0.000276 -0.002092
# 3 0.004061 -0.000163 0.013108 -0.000485 -0.002273 -0.001417
# 4 -0.002570 0.000636 -0.000485 0.029019 0.000124 0.010045
# 5 0.000555 0.000276 -0.002273 0.000124 0.039642 0.006372
# 6 -0.002977 -0.002092 -0.001417 0.010045 0.006372 0.033628
#
#
# Mechanical properties :
#
#
# Convention : Reuss Voigt Hill
#
# Bulk Modulus (GPa) = 16.10171 31.05017 23.57594
# Shear Modulus (GPa) = 29.71814 40.34273 35.03043
#
# Velocity S-wave (km/s) = 3.44420 4.01292 3.73939
# Velocity P-wave (km/s) = 4.71635 5.81942 5.29668
#
# Compressibility (1/GPa) = 0.06210521
#
# Stress axis : x y z
#
# Youngs Moduli (GPa) = 28.63627 176.91860 76.28902
#
# Poissons Ratio (x) = -0.05572 -0.30978
# Poissons Ratio (y) = -0.00902 0.01247
# Poissons Ratio (z) = -0.11628 0.02893
#
# Static dielectric constant tensor:
#      x y z
#    x 2.104610 -0.170220 -0.190650 
#    y -0.170220 2.229060 0.201720 
#    z -0.190650 0.201720 2.232720 
# 
# From -- ./inp_files/209254.got.cif
#   From: 2010.05.17/outbox.cif.g08.bks.cpg/sg2_105_cif.got.tgz:209254.got - 2010.06.03 11:33:40.
