data_PCOD9023778
_publ_section_title
;
Structure prediction by ZEFSAII (Michael W. Deem and Ramdas Pophale) SiO2 
 PCOD9023778
Probable space group: P -1
;
_chemical_formula_sum "Si O2"
_cell_formula_units_Z 14
_cell_length_a 11.423386
_cell_length_b 9.275654
_cell_length_c 8.718436
_cell_angle_alpha 112.134376
_cell_angle_beta 71.553242
_cell_angle_gamma 128.268913
_cell_volume 667.438837
_symmetry_space_group_name_H-M "P -1"
_symmetry_group_IT_number 2
_symmetry_cell_setting 'triclinic'
loop_
_space_group_symop_operation_xyz
x,y,z
-x,-y,-z
loop_
_atom_site_type_symbol
_atom_site_label
_atom_site_fract_x
_atom_site_fract_y
_atom_site_fract_z
Si Si1 0.604458 0.689735 0.132769
Si Si2 0.402888 0.526208 0.671571
Si Si3 0.797192 0.365692 0.361686
Si Si4 0.655428 0.250286 0.707350
Si Si5 0.598721 0.957076 0.835848
Si Si6 0.818227 0.076506 0.047438
Si Si7 0.937038 0.532966 0.882459
O O1 0.654216 0.630505 0.237429
O O2 0.491271 0.749105 0.245735
O O3 0.744773 0.868460 0.060024
O O4 0.500000 0.500000 0.000000
O O5 0.500000 0.500000 0.500000
O O6 0.275206 0.535626 0.646736
O O7 0.515377 0.734136 0.779003
O O8 0.741989 0.315791 0.537431
O O9 0.751079 0.175707 0.211799
O O10 0.974242 0.490537 0.301959
O O11 0.763594 0.394632 0.856964
O O12 0.614906 0.048467 0.700720
O O13 0.500000 0.000000 0.000000
O O14 0.758568 0.052584 0.890180
O O15 0.994281 0.243012 0.053893
O O16 0.000000 0.500000 0.000000
#
# Coordination Sequence:
#
# PCOD9023778 Si02
#       7
#     2   2   2   2   2   2   2
#     4  12  24  37  63  91 127 160 202 259 315 367
#     4  12  24  38  60  96 133 160 199 261 326 364
#     4  10  23  40  62  90 126 159 212 254 311 367
#     4  12  22  39  67  91 123 164 208 260 309 366
#     4  12  20  38  64  92 123 163 215 257 296 372
#     4  10  22  40  61  92 119 160 215 253 303 368
#     4  10  22  40  67  89 119 161 218 260 300 365
#
# _framework density 20.975702999999999
#
# number of rings (size 3 to 8) (size 9 to 14) (size 15 to 20)
#    0.857    0.000    7.143    0.429    4.000    1.143 
#    0.000    0.714    3.143    1.714    0.000    0.000 
#    0.000    0.000    0.000    0.000    0.000    0.000 
#
# Total GULP energy -78151.368897 kJ/mol
# GULP energy per Si atom -5582.240635 kJ/mol
# Density = 2.092796 g / cm^3
# Si number density = 20.975703 Si / 1000 Ang^3
#
#
#
# Elastic Constant Matrix: (Units=GPa)
#
#
# Indices 1 2 3 4 5 6 
#
# 1 60.8128 23.3772 4.3581 -4.0970 9.8027 -10.2855
# 2 23.3772 122.2220 9.2903 -14.0120 11.1710 -20.7858
# 3 4.3581 9.2903 53.3485 -14.1713 1.6337 -18.3342
# 4 -4.0970 -14.0120 -14.1713 42.7435 -8.8258 11.2686
# 5 9.8027 11.1710 1.6337 -8.8258 28.3618 -4.7705
# 6 -10.2855 -20.7858 -18.3342 11.2686 -4.7705 35.4074
#
#
#
# Elastic Compliance Matrix: (Units=1/GPa)
#
#
# Indices 1 2 3 4 5 6 
#
# 1 0.018828 -0.002643 0.000024 -0.001068 -0.005200 0.003570
# 2 -0.002643 0.009749 0.000537 0.001582 -0.001708 0.004500
# 3 0.000024 0.000537 0.023919 0.005571 0.002021 0.011207
# 4 -0.001068 0.001582 0.005571 0.028401 0.007502 -0.004525
# 5 -0.005200 -0.001708 0.002021 0.007502 0.040210 0.001563
# 6 0.003570 0.004500 0.011207 -0.004525 0.001563 0.039375
#
#
# Mechanical properties :
#
#
# Convention : Reuss Voigt Hill
#
# Bulk Modulus (GPa) = 20.68985 34.49273 27.59129
# Shear Modulus (GPa) = 27.66161 34.59305 31.12733
#
# Velocity S-wave (km/s) = 3.63539 4.06544 3.85641
# Velocity P-wave (km/s) = 5.24467 6.20619 5.74558
#
# Compressibility (1/GPa) = 0.04833288
#
# Stress axis : x y z
#
# Youngs Moduli (GPa) = 53.11172 102.57099 41.80845
#
# Poissons Ratio (x) = 0.27112 -0.00102
# Poissons Ratio (y) = 0.14039 -0.02246
# Poissons Ratio (z) = -0.00130 -0.05509
#
# Static dielectric constant tensor:
#      x y z
#    x 1.768690 0.017010 0.021960 
#    y 0.017010 1.777570 0.001710 
#    z 0.021960 0.001710 1.757990 
# 
# From -- ./inp_files/235588.got.cif
#   From: 2010.05.17/outbox.cif.g08.bks.cpg/sg2_118_cif.got.tgz:235588.got - 2010.06.03 11:33:40.
