data_PCOD9023104
_publ_section_title
;
Structure prediction by ZEFSAII (Michael W. Deem and Ramdas Pophale) SiO2 
 PCOD9023104
Probable space group: P -1
;
_chemical_formula_sum "Si O2"
_cell_formula_units_Z 16
_cell_length_a 8.825960
_cell_length_b 10.635761
_cell_length_c 14.768250
_cell_angle_alpha 83.226342
_cell_angle_beta 38.421196
_cell_angle_gamma 66.938002
_cell_volume 748.118347
_symmetry_space_group_name_H-M "P -1"
_symmetry_group_IT_number 2
_symmetry_cell_setting 'triclinic'
loop_
_space_group_symop_operation_xyz
x,y,z
-x,-y,-z
loop_
_atom_site_type_symbol
_atom_site_label
_atom_site_fract_x
_atom_site_fract_y
_atom_site_fract_z
Si Si1 0.983373 0.137405 0.442058
Si Si2 0.048462 0.356413 0.075072
Si Si3 0.093208 0.115112 0.742915
Si Si4 0.178854 0.543254 0.139964
Si Si5 0.829350 0.924247 0.848639
Si Si6 0.495900 0.372385 0.753473
Si Si7 0.986062 0.416801 0.599526
Si Si8 0.343273 0.120224 0.435425
O O1 0.060590 0.111473 0.303385
O O2 0.209020 0.154913 0.396127
O O3 0.678819 0.274777 0.592076
O O4 0.000000 0.000000 0.500000
O O5 0.108747 0.462466 0.101988
O O6 0.053175 0.223237 0.136393
O O7 0.743113 0.463206 0.168008
O O8 0.313173 0.303679 0.887311
O O9 0.183895 0.091022 0.595972
O O10 0.978883 0.282132 0.805948
O O11 0.356473 0.014978 0.689818
O O12 0.895832 0.044691 0.849031
O O13 0.090767 0.498706 0.278568
O O14 0.500000 0.500000 0.000000
O O15 0.500000 0.000000 0.000000
O O16 0.738935 0.373692 0.702561
O O17 0.000000 0.500000 0.500000
O O18 0.290738 0.276791 0.478792
#
# Coordination Sequence:
#
# PCOD9023104 Si02
#       8
#     2   2   2   2   2   2   2   2
#     4  11  22  40  69  93 132 172 220 263 330 394
#     4  11  25  43  69  97 134 170 220 273 324 392
#     4  10  22  43  65  94 130 168 217 267 320 389
#     4  11  22  41  66  92 128 173 212 257 333 390
#     4  12  26  43  67  99 134 170 220 273 325 388
#     4  10  24  45  64  96 131 177 213 272 334 384
#     4  10  22  39  66  90 131 167 219 267 321 389
#     4   9  21  40  64  93 124 174 213 267 323 382
#
# _framework density 21.386991999999999
#
# number of rings (size 3 to 8) (size 9 to 14) (size 15 to 20)
#    0.000    1.500    2.500    1.500    8.750    1.500 
#    0.000    0.625    0.000    0.000    0.000    0.000 
#    0.000    0.000    0.000    0.000    0.000    0.000 
#
# Total GULP energy -89234.644041 kJ/mol
# GULP energy per Si atom -5577.165253 kJ/mol
# Density = 2.133831 g / cm^3
# Si number density = 21.386992 Si / 1000 Ang^3
#
#
#
# Elastic Constant Matrix: (Units=GPa)
#
#
# Indices 1 2 3 4 5 6 
#
# 1 31.0000 2.7896 5.8737 5.0000 -1.8561 -4.0425
# 2 2.7896 80.7555 27.8015 -12.9463 -6.3552 -20.5011
# 3 5.8737 27.8015 95.1278 7.3046 6.2299 -12.9286
# 4 5.0000 -12.9463 7.3046 31.0303 -7.7406 -1.9107
# 5 -1.8561 -6.3552 6.2299 -7.7406 32.8804 0.4712
# 6 -4.0425 -20.5011 -12.9286 -1.9107 0.4712 35.4791
#
#
#
# Elastic Compliance Matrix: (Units=1/GPa)
#
#
# Indices 1 2 3 4 5 6 
#
# 1 0.033776 -0.000903 -0.001106 -0.005228 0.000673 0.002633
# 2 -0.000903 0.019299 -0.005698 0.011982 0.007443 0.009519
# 3 -0.001106 -0.005698 0.013244 -0.006553 -0.005232 0.001124
# 4 -0.005228 0.011982 -0.006553 0.043322 0.013374 0.006095
# 5 0.000673 0.007443 -0.005232 0.013374 0.035991 0.002713
# 6 0.002633 0.009519 0.001124 0.006095 0.002713 0.034688
#
#
# Mechanical properties :
#
#
# Convention : Reuss Voigt Hill
#
# Bulk Modulus (GPa) = 19.64454 31.09032 25.36743
# Shear Modulus (GPa) = 23.50703 31.23921 27.37312
#
# Velocity S-wave (km/s) = 3.31891 3.82601 3.58144
# Velocity P-wave (km/s) = 4.88795 5.83835 5.38416
#
# Compressibility (1/GPa) = 0.05090473
#
# Stress axis : x y z
#
# Youngs Moduli (GPa) = 29.60695 51.81609 75.50336
#
# Poissons Ratio (x) = 0.04676 0.08354
# Poissons Ratio (y) = 0.02672 0.43024
# Poissons Ratio (z) = 0.03276 0.29526
#
# Static dielectric constant tensor:
#      x y z
#    x 1.845210 0.034250 0.009760 
#    y 0.034250 1.809380 -0.003010 
#    z 0.009760 -0.003010 1.809090 
# 
# From -- ./inp_files/499090.got.cif
#   From: 2010.05.17/outbox.cif.g08.bks.cpg/sg2_250_cif.got.tgz:499090.got - 2010.06.03 11:33:40.
