data_PCOD9023987
_publ_section_title
;
Structure prediction by ZEFSAII (Michael W. Deem and Ramdas Pophale) SiO2 
 PCOD9023987
Probable space group: P -1
;
_chemical_formula_sum "Si O2"
_cell_formula_units_Z 14
_cell_length_a 11.367682
_cell_length_b 10.234647
_cell_length_c 9.506090
_cell_angle_alpha 44.234855
_cell_angle_beta 110.915247
_cell_angle_gamma 110.094816
_cell_volume 714.123618
_symmetry_space_group_name_H-M "P -1"
_symmetry_group_IT_number 2
_symmetry_cell_setting 'triclinic'
loop_
_space_group_symop_operation_xyz
x,y,z
-x,-y,-z
loop_
_atom_site_type_symbol
_atom_site_label
_atom_site_fract_x
_atom_site_fract_y
_atom_site_fract_z
Si Si1 0.935102 0.062235 0.068269
Si Si2 0.720604 0.300529 0.686575
Si Si3 0.487370 0.779954 0.122623
Si Si4 0.801348 0.754430 0.903373
Si Si5 0.639667 0.092107 0.533696
Si Si6 0.770325 0.694347 0.275280
Si Si7 0.381510 0.599266 0.933361
O O1 0.867271 0.863872 0.252616
O O2 0.824177 0.184756 0.888837
O O3 0.950687 0.815462 0.895000
O O4 0.000000 0.000000 0.000000
O O5 0.614352 0.333170 0.729005
O O6 0.647814 0.172603 0.632283
O O7 0.789427 0.490104 0.497924
O O8 0.626862 0.720573 0.232626
O O9 0.434229 0.732734 0.980603
O O10 0.500000 0.000000 0.000000
O O11 0.731843 0.932586 0.693534
O O12 0.781673 0.713793 0.095012
O O13 0.728488 0.568649 0.942485
O O14 0.671503 0.270292 0.307230
O O15 0.500000 0.000000 0.500000
O O16 0.500000 0.500000 0.000000
#
# Coordination Sequence:
#
# PCOD9023987 Si02
#       7
#     2   2   2   2   2   2   2
#     4  10  22  40  62  94 132 170 220 266 311 381
#     4  12  23  39  67  99 127 173 215 267 327 381
#     4  12  23  43  66  97 137 168 208 274 332 378
#     4  11  22  40  63  94 129 165 216 267 309 381
#     4  12  21  36  64  95 127 163 212 264 326 372
#     4  11  21  39  63  95 130 163 217 265 318 382
#     4  12  23  41  64  96 130 165 214 269 320 385
#
# _framework density 19.604448000000001
#
# number of rings (size 3 to 8) (size 9 to 14) (size 15 to 20)
#    0.000    0.571    8.571    1.286    0.000    3.429 
#    2.571    0.714    0.000    1.714    0.000    0.000 
#    0.000    0.000    0.000    0.000    0.000    0.000 
#
# Total GULP energy -78209.080717 kJ/mol
# GULP energy per Si atom -5586.362908 kJ/mol
# Density = 1.955983 g / cm^3
# Si number density = 19.604448 Si / 1000 Ang^3
#
#
#
# Elastic Constant Matrix: (Units=GPa)
#
#
# Indices 1 2 3 4 5 6 
#
# 1 86.9130 27.5285 13.0772 2.3346 -9.3322 27.3181
# 2 27.5285 100.2899 27.2313 -4.5515 1.9200 22.4983
# 3 13.0772 27.2313 82.1020 -18.6442 -7.1950 9.0261
# 4 2.3346 -4.5515 -18.6442 29.1644 5.5317 -5.0853
# 5 -9.3322 1.9200 -7.1950 5.5317 8.9398 -1.3828
# 6 27.3181 22.4983 9.0261 -5.0853 -1.3828 34.6108
#
#
#
# Elastic Compliance Matrix: (Units=1/GPa)
#
#
# Indices 1 2 3 4 5 6 
#
# 1 0.019854 -0.003057 -0.000630 -0.009574 0.024643 -0.013941
# 2 -0.003057 0.013413 -0.004116 0.000773 -0.010721 -0.005547
# 3 -0.000630 -0.004116 0.016193 0.008290 0.008206 0.000496
# 4 -0.009574 0.000773 0.008290 0.048370 -0.031759 0.010731
# 5 0.024643 -0.010721 0.008206 -0.031759 0.164174 -0.012728
# 6 -0.013941 -0.005547 0.000496 0.010731 -0.012728 0.044441
#
#
# Mechanical properties :
#
#
# Convention : Reuss Voigt Hill
#
# Bulk Modulus (GPa) = 29.54021 44.99765 37.26893
# Shear Modulus (GPa) = 14.99995 27.97418 21.48706
#
# Velocity S-wave (km/s) = 2.76910 3.78157 3.31423
# Velocity P-wave (km/s) = 5.03237 6.48611 5.80493
#
# Compressibility (1/GPa) = 0.03385216
#
# Stress axis : x y z
#
# Youngs Moduli (GPa) = 50.36756 74.55700 61.75686
#
# Poissons Ratio (x) = 0.22795 0.03892
# Poissons Ratio (y) = 0.15400 0.25418
# Poissons Ratio (z) = 0.03174 0.30686
#
# Static dielectric constant tensor:
#      x y z
#    x 1.688900 0.021460 -0.036430 
#    y 0.021460 1.726070 -0.007040 
#    z -0.036430 -0.007040 1.713160 
# 
# From -- ./inp_files/236794.got.cif
#   From: 2010.05.17/outbox.cif.g08.bks.cpg/sg2_119_cif.got.tgz:236794.got - 2010.06.03 11:33:40.
