data_PCOD9023003
_publ_section_title
;
Structure prediction by ZEFSAII (Michael W. Deem and Ramdas Pophale) SiO2 
 PCOD9023003
Probable space group: P -1
;
_chemical_formula_sum "Si O2"
_cell_formula_units_Z 12
_cell_length_a 12.813810
_cell_length_b 6.258532
_cell_length_c 9.259075
_cell_angle_alpha 101.563153
_cell_angle_beta 67.618249
_cell_angle_gamma 127.671607
_cell_volume 542.934097
_symmetry_space_group_name_H-M "P -1"
_symmetry_group_IT_number 2
_symmetry_cell_setting 'triclinic'
loop_
_space_group_symop_operation_xyz
x,y,z
-x,-y,-z
loop_
_atom_site_type_symbol
_atom_site_label
_atom_site_fract_x
_atom_site_fract_y
_atom_site_fract_z
Si Si1 0.425803 0.200929 0.933848
Si Si2 0.110004 0.193324 0.285580
Si Si3 0.226354 0.181135 0.799051
Si Si4 0.981233 0.732766 0.055823
Si Si5 0.690431 0.214827 0.801917
Si Si6 0.188766 0.018156 0.481829
O O1 0.333740 0.191332 0.851169
O O2 0.545192 0.162506 0.826174
O O3 0.500000 0.500000 0.000000
O O4 0.337355 0.974534 0.073058
O O5 0.202670 0.465588 0.182414
O O6 0.201898 0.209050 0.372462
O O7 0.054666 0.923585 0.185364
O O8 0.976350 0.164456 0.418672
O O9 0.259377 0.164209 0.614815
O O10 0.182406 0.384910 0.863315
O O11 0.073361 0.918720 0.895471
O O12 0.000000 0.500000 0.000000
O O13 0.755293 0.143379 0.631086
#
# Coordination Sequence:
#
# PCOD9023003 Si02
#       6
#     2   2   2   2   2   2
#     4  11  25  44  66  91 126 175 223 265 313 378
#     4  10  22  42  65  96 130 167 215 261 321 386
#     4  10  23  39  61  97 129 161 216 270 316 375
#     4  10  22  40  64  93 130 170 211 263 318 381
#     4  11  23  42  67  90 126 178 218 258 318 384
#     4  10  22  39  65  96 129 166 208 267 326 381
#
# _framework density 22.102129999999999
#
# number of rings (size 3 to 8) (size 9 to 14) (size 15 to 20)
#    0.000    1.667    0.000    3.500    0.000   18.000 
#    0.000    3.333    0.000    0.000    0.000    0.000 
#    0.000    0.000    0.000    0.000    0.000    0.000 
#
# Total GULP energy -67036.495784 kJ/mol
# GULP energy per Si atom -5586.374649 kJ/mol
# Density = 2.205182 g / cm^3
# Si number density = 22.102130 Si / 1000 Ang^3
#
#
#
# Elastic Constant Matrix: (Units=GPa)
#
#
# Indices 1 2 3 4 5 6 
#
# 1 195.0789 43.6443 78.4105 29.3276 6.2796 -17.5000
# 2 43.6443 94.2084 55.3326 1.4064 5.9132 -10.3126
# 3 78.4105 55.3326 150.4576 30.2624 4.5515 -12.0967
# 4 29.3276 1.4064 30.2624 31.6616 -8.0017 -7.8600
# 5 6.2796 5.9132 4.5515 -8.0017 56.1664 4.4827
# 6 -17.5000 -10.3126 -12.0967 -7.8600 4.4827 22.8501
#
#
#
# Elastic Compliance Matrix: (Units=1/GPa)
#
#
# Indices 1 2 3 4 5 6 
#
# 1 0.007255 -0.001775 -0.001998 -0.004458 -0.001290 0.002417
# 2 -0.001775 0.015347 -0.005861 0.007792 -0.000247 0.005193
# 3 -0.001998 -0.005861 0.011764 -0.009746 -0.001420 -0.001021
# 4 -0.004458 0.007792 -0.009746 0.048954 0.006605 0.010487
# 5 -0.001290 -0.000247 -0.001420 0.006605 0.019299 -0.003365
# 6 0.002417 0.005193 -0.001021 0.010487 -0.003365 0.051685
#
#
# Mechanical properties :
#
#
# Convention : Reuss Voigt Hill
#
# Bulk Modulus (GPa) = 66.23702 88.27997 77.25849
# Shear Modulus (GPa) = 27.99450 39.62612 33.81031
#
# Velocity S-wave (km/s) = 3.56279 4.23882 3.91542
# Velocity P-wave (km/s) = 6.85261 7.99908 7.44794
#
# Compressibility (1/GPa) = 0.01509730
#
# Stress axis : x y z
#
# Youngs Moduli (GPa) = 137.83751 65.15780 85.00364
#
# Poissons Ratio (x) = 0.11568 0.16984
# Poissons Ratio (y) = 0.24471 0.49822
# Poissons Ratio (z) = 0.27540 0.38190
#
# Static dielectric constant tensor:
#      x y z
#    x 1.973750 -0.077810 0.021570 
#    y -0.077810 1.899760 0.002560 
#    z 0.021570 0.002560 1.807480 
# 
# From -- ./inp_files/229838.got.cif
#   From: 2010.05.17/outbox.cif.g08.bks.cpg/sg2_115_cif.got.tgz:229838.got - 2010.06.03 11:33:40.
