data_PCOD9023150
_publ_section_title
;
Structure prediction by ZEFSAII (Michael W. Deem and Ramdas Pophale) SiO2 
 PCOD9023150
Probable space group: P -1
;
_chemical_formula_sum "Si O2"
_cell_formula_units_Z 16
_cell_length_a 12.884569
_cell_length_b 8.243479
_cell_length_c 26.147762
_cell_angle_alpha 51.138684
_cell_angle_beta 157.837932
_cell_angle_gamma 116.790790
_cell_volume 731.051843
_symmetry_space_group_name_H-M "P -1"
_symmetry_group_IT_number 2
_symmetry_cell_setting 'triclinic'
loop_
_space_group_symop_operation_xyz
x,y,z
-x,-y,-z
loop_
_atom_site_type_symbol
_atom_site_label
_atom_site_fract_x
_atom_site_fract_y
_atom_site_fract_z
Si Si1 0.360389 0.382779 0.702303
Si Si2 0.283172 0.338009 0.198294
Si Si3 0.116628 0.708163 0.333765
Si Si4 0.843770 0.898084 0.987601
Si Si5 0.847831 0.476329 0.720287
Si Si6 0.595815 0.103856 0.285180
Si Si7 0.957960 0.373963 0.397157
Si Si8 0.831882 0.853700 0.707954
O O1 0.539443 0.513348 0.731494
O O2 0.325857 0.464945 0.728963
O O3 0.000000 0.500000 0.500000
O O4 0.567044 0.109065 0.848118
O O5 0.505625 0.152650 0.294229
O O6 0.210450 0.226516 0.237813
O O7 0.000000 0.500000 0.000000
O O8 0.484962 0.619458 0.516552
O O9 0.006947 0.649113 0.241604
O O10 0.049958 0.545223 0.374662
O O11 0.003521 0.976951 0.244590
O O12 0.698364 0.774109 0.908970
O O13 0.091860 0.730295 0.172470
O O14 0.000000 0.000000 0.000000
O O15 0.973404 0.637899 0.775402
O O16 0.830862 0.197616 0.352167
O O17 0.739172 0.824891 0.398358
O O18 0.500000 0.000000 0.500000
#
# Coordination Sequence:
#
# PCOD9023150 Si02
#       8
#     2   2   2   2   2   2   2   2
#     4  11  24  41  66 102 140 175 225 285 357 424
#     4  11  24  41  68 100 138 177 233 301 346 408
#     4  10  23  42  69  94 137 183 229 283 343 422
#     4  12  23  40  70 103 134 170 231 293 341 405
#     4  10  23  41  64 101 131 177 237 282 339 407
#     4  10  22  39  66  95 131 175 218 283 346 414
#     4  10  22  43  62  93 132 179 222 267 352 423
#     4  10  23  40  64 106 134 179 234 290 346 416
#
# _framework density 21.886274
#
# number of rings (size 3 to 8) (size 9 to 14) (size 15 to 20)
#    0.000    1.500    1.250    3.000   12.250    0.000 
#    2.250    1.250    0.000    0.000    0.000    0.000 
#    0.000    0.000    0.000    0.000    0.000    0.000 
#
# Total GULP energy -89126.127042 kJ/mol
# GULP energy per Si atom -5570.382940 kJ/mol
# Density = 2.183646 g / cm^3
# Si number density = 21.886274 Si / 1000 Ang^3
#
#
#
# Elastic Constant Matrix: (Units=GPa)
#
#
# Indices 1 2 3 4 5 6 
#
# 1 63.8960 49.6602 7.9324 -14.5318 -6.1649 -18.3827
# 2 49.6602 133.5583 8.4141 -13.5919 -4.5375 -0.1657
# 3 7.9324 8.4141 50.2624 -0.1405 -8.2087 -12.2126
# 4 -14.5318 -13.5919 -0.1405 26.6153 3.0191 8.7627
# 5 -6.1649 -4.5375 -8.2087 3.0191 26.4829 -6.7208
# 6 -18.3827 -0.1657 -12.2126 8.7627 -6.7208 36.8247
#
#
#
# Elastic Compliance Matrix: (Units=1/GPa)
#
#
# Indices 1 2 3 4 5 6 
#
# 1 0.030382 -0.010647 0.002658 0.004555 0.009792 0.016703
# 2 -0.010647 0.011800 -0.002700 0.003085 -0.003559 -0.007541
# 3 0.002658 -0.002700 0.025024 -0.005444 0.011851 0.013072
# 4 0.004555 0.003085 -0.005444 0.046569 -0.008490 -0.012149
# 5 0.009792 -0.003559 0.011851 -0.008490 0.049091 0.019782
# 6 0.016703 -0.007541 0.013072 -0.012149 0.019782 0.046296
#
#
# Mechanical properties :
#
#
# Convention : Reuss Voigt Hill
#
# Bulk Modulus (GPa) = 21.82092 42.19224 32.00658
# Shear Modulus (GPa) = 20.34039 30.09861 25.21950
#
# Velocity S-wave (km/s) = 3.05186 3.71243 3.39823
# Velocity P-wave (km/s) = 4.73395 6.13970 5.48207
#
# Compressibility (1/GPa) = 0.04582759
#
# Stress axis : x y z
#
# Youngs Moduli (GPa) = 32.91476 84.74582 39.96094
#
# Poissons Ratio (x) = 0.90230 -0.10621
# Poissons Ratio (y) = 0.35045 0.10789
# Poissons Ratio (z) = -0.08748 0.22881
#
# Static dielectric constant tensor:
#      x y z
#    x 1.844180 -0.088530 -0.009330 
#    y -0.088530 1.971840 0.103290 
#    z -0.009330 0.103290 2.067960 
# 
# From -- ./inp_files/623402.got.cif
#   From: 2010.05.17/outbox.cif.g08.bks.cpg/sg2_312_cif.got.tgz:623402.got - 2010.06.03 11:33:40.
