data_PCOD9023705
_publ_section_title
;
Structure prediction by ZEFSAII (Michael W. Deem and Ramdas Pophale) SiO2 
 PCOD9023705
Probable space group: P -1
;
_chemical_formula_sum "Si O2"
_cell_formula_units_Z 16
_cell_length_a 8.953924
_cell_length_b 7.713426
_cell_length_c 17.729095
_cell_angle_alpha 102.181943
_cell_angle_beta 47.535783
_cell_angle_gamma 73.766654
_cell_volume 715.944351
_symmetry_space_group_name_H-M "P -1"
_symmetry_group_IT_number 2
_symmetry_cell_setting 'triclinic'
loop_
_space_group_symop_operation_xyz
x,y,z
-x,-y,-z
loop_
_atom_site_type_symbol
_atom_site_label
_atom_site_fract_x
_atom_site_fract_y
_atom_site_fract_z
Si Si1 0.063928 0.169765 0.012537
Si Si2 0.061640 0.369799 0.390334
Si Si3 0.454394 0.223782 0.128427
Si Si4 0.723486 0.126893 0.688578
Si Si5 0.283729 0.541147 0.967234
Si Si6 0.274902 0.951784 0.491086
Si Si7 0.664024 0.691747 0.446253
Si Si8 0.939553 0.577425 0.837574
O O1 0.351974 0.012785 0.923226
O O2 0.946735 0.327080 0.139526
O O3 0.963087 0.321573 0.988177
O O4 0.000000 0.000000 0.000000
O O5 0.267929 0.373749 0.273067
O O6 0.000000 0.500000 0.500000
O O7 0.812707 0.489867 0.434678
O O8 0.184802 0.117435 0.342791
O O9 0.602015 0.318583 0.054651
O O10 0.272432 0.237761 0.128825
O O11 0.495430 0.317707 0.832474
O O12 0.976290 0.108401 0.613523
O O13 0.663690 0.156873 0.622284
O O14 0.195348 0.496997 0.070223
O O15 0.366627 0.107029 0.481253
O O16 0.405488 0.783045 0.500653
O O17 0.853110 0.615040 0.303897
#
# Coordination Sequence:
#
# PCOD9023705 Si02
#       8
#     2   2   2   2   2   2   2   2
#     4  10  22  40  60  94 127 165 205 255 310 374
#     4  11  22  40  63  91 125 167 211 254 317 370
#     4  10  23  40  64  90 130 164 205 263 314 372
#     4  11  22  38  66  90 125 170 209 258 307 377
#     4  11  23  40  65  95 125 164 215 253 316 374
#     4  10  22  40  63  91 126 163 217 253 314 366
#     4  10  22  42  62  92 127 165 204 269 308 368
#     4  11  21  39  65  91 130 163 210 253 318 373
#
# _framework density 22.348106000000001
#
# number of rings (size 3 to 8) (size 9 to 14) (size 15 to 20)
#    0.000    1.500    1.250    4.125    1.750    2.500 
#    0.000    2.500    2.750    0.000    0.000    0.000 
#    0.000    0.000    0.000    0.000    0.000    0.000 
#
# Total GULP energy -89352.103108 kJ/mol
# GULP energy per Si atom -5584.506444 kJ/mol
# Density = 2.229724 g / cm^3
# Si number density = 22.348106 Si / 1000 Ang^3
#
#
#
# Elastic Constant Matrix: (Units=GPa)
#
#
# Indices 1 2 3 4 5 6 
#
# 1 93.3221 24.5979 9.3952 -9.0717 4.9504 -27.8942
# 2 24.5979 73.7952 2.4732 7.4491 -8.7289 -25.3262
# 3 9.3952 2.4732 70.1834 -2.9428 8.5715 -13.5772
# 4 -9.0717 7.4491 -2.9428 30.7345 -6.9079 -4.4793
# 5 4.9504 -8.7289 8.5715 -6.9079 17.5069 -1.8755
# 6 -27.8942 -25.3262 -13.5772 -4.4793 -1.8755 52.9590
#
#
#
# Elastic Compliance Matrix: (Units=1/GPa)
#
#
# Indices 1 2 3 4 5 6 
#
# 1 0.014132 -0.003501 0.000001 0.005230 -0.003025 0.006105
# 2 -0.003501 0.018631 -0.000138 -0.002209 0.010247 0.007206
# 3 0.000001 -0.000138 0.015893 0.000477 -0.007256 0.003793
# 4 0.005230 -0.002209 0.000477 0.038370 0.012918 0.005524
# 5 -0.003025 0.010247 -0.007256 0.012918 0.072281 0.005100
# 6 0.006105 0.007206 0.003793 0.005524 0.005100 0.027164
#
#
# Mechanical properties :
#
#
# Convention : Reuss Voigt Hill
#
# Bulk Modulus (GPa) = 24.16620 34.47038 29.31829
# Shear Modulus (GPa) = 24.09174 33.62902 28.86038
#
# Velocity S-wave (km/s) = 3.28689 3.88336 3.59751
# Velocity P-wave (km/s) = 5.02413 5.96365 5.51393
#
# Compressibility (1/GPa) = 0.04138011
#
# Stress axis : x y z
#
# Youngs Moduli (GPa) = 70.76239 53.67421 62.92100
#
# Poissons Ratio (x) = 0.18792 -0.00008
# Poissons Ratio (y) = 0.24775 0.00867
# Poissons Ratio (z) = -0.00009 0.00740
#
# Static dielectric constant tensor:
#      x y z
#    x 1.853340 0.002200 -0.010170 
#    y 0.002200 1.855490 0.001540 
#    z -0.010170 0.001540 1.822210 
# 
# From -- ./inp_files/221666.got.cif
#   From: 2010.05.17/outbox.cif.g08.bks.cpg/sg2_111_cif.got.tgz:221666.got - 2010.06.03 11:33:40.
