data_PCOD9023795
_publ_section_title
;
Structure prediction by ZEFSAII (Michael W. Deem and Ramdas Pophale) SiO2 
 PCOD9023795
Probable space group: P -1
;
_chemical_formula_sum "Si O2"
_cell_formula_units_Z 15
_cell_length_a 8.212310
_cell_length_b 16.520030
_cell_length_c 12.362141
_cell_angle_alpha 23.014955
_cell_angle_beta 106.252642
_cell_angle_gamma 103.081731
_cell_volume 627.323891
_symmetry_space_group_name_H-M "P -1"
_symmetry_group_IT_number 2
_symmetry_cell_setting 'triclinic'
loop_
_space_group_symop_operation_xyz
x,y,z
-x,-y,-z
loop_
_atom_site_type_symbol
_atom_site_label
_atom_site_fract_x
_atom_site_fract_y
_atom_site_fract_z
Si Si1 0.257374 0.690537 0.983755
Si Si2 0.845292 0.351266 0.745373
Si Si3 0.907998 0.068617 0.676843
Si Si4 0.824681 0.858019 0.538740
Si Si5 0.000000 0.500000 0.000000
Si Si6 0.474273 0.823716 0.536222
Si Si7 0.605850 0.629961 0.006821
Si Si8 0.874755 0.378649 0.487293
O O1 0.157911 0.549184 0.058614
O O2 0.164384 0.923532 0.671436
O O3 0.256457 0.640888 0.171903
O O4 0.451549 0.686814 0.989947
O O5 0.770690 0.336085 0.629544
O O6 0.943771 0.559130 0.515359
O O7 0.975383 0.144027 0.032830
O O8 0.708740 0.050371 0.639004
O O9 0.903903 0.193913 0.634359
O O10 0.007210 0.195538 0.445230
O O11 0.859415 0.642204 0.873031
O O12 0.634961 0.883200 0.420794
O O13 0.427775 0.598036 0.766582
O O14 0.567261 0.799271 0.698615
O O15 0.780172 0.577999 0.166289
#
# Coordination Sequence:
#
# PCOD9023795 Si02
#       8
#     2   2   2   2   1   2   2   2
#     4  11  24  40  63  93 128 167 214 265 324 383
#     4  10  23  41  65  93 119 171 220 263 316 377
#     4  10  22  42  66  95 130 168 209 271 317 385
#     4  11  24  38  65  96 128 172 211 254 325 389
#     4  12  22  40  60  90 134 164 206 262 312 396
#     4  10  22  40  63  97 130 166 212 258 329 388
#     4  10  22  40  61  93 130 168 206 269 321 379
#     4  10  22  41  66  90 124 171 216 262 322 370
#
# _framework density 23.911093999999999
#
# number of rings (size 3 to 8) (size 9 to 14) (size 15 to 20)
#    0.000    1.600    1.333    2.400    7.467    2.133 
#    0.000    0.000    0.000    4.000    0.000    0.000 
#    0.000    0.000    0.000    0.000    0.000    0.000 
#
# Total GULP energy -83507.541686 kJ/mol
# GULP energy per Si atom -5567.169446 kJ/mol
# Density = 2.385667 g / cm^3
# Si number density = 23.911094 Si / 1000 Ang^3
#
#
#
# Elastic Constant Matrix: (Units=GPa)
#
#
# Indices 1 2 3 4 5 6 
#
# 1 76.5584 21.7301 -5.0344 7.8336 2.3103 -8.2116
# 2 21.7301 110.4001 16.8571 11.7491 -9.1607 -16.9409
# 3 -5.0344 16.8571 43.5517 -5.6871 6.9158 -10.1445
# 4 7.8336 11.7491 -5.6871 36.4999 -2.9993 -9.8454
# 5 2.3103 -9.1607 6.9158 -2.9993 27.3208 -4.6172
# 6 -8.2116 -16.9409 -10.1445 -9.8454 -4.6172 35.2206
#
#
#
# Elastic Compliance Matrix: (Units=1/GPa)
#
#
# Indices 1 2 3 4 5 6 
#
# 1 0.014688 -0.003261 0.003813 -0.001158 -0.003051 0.002231
# 2 -0.003261 0.011814 -0.005421 -0.002538 0.005910 0.003426
# 3 0.003813 -0.005421 0.029400 0.006971 -0.007514 0.007713
# 4 -0.001158 -0.002538 0.006971 0.032456 0.002726 0.009947
# 5 -0.003051 0.005910 -0.007514 0.002726 0.042099 0.006248
# 6 0.002231 0.003426 0.007713 0.009947 0.006248 0.036382
#
#
# Mechanical properties :
#
#
# Convention : Reuss Voigt Hill
#
# Bulk Modulus (GPa) = 21.66227 33.06844 27.36535
# Shear Modulus (GPa) = 26.04640 32.93875 29.49258
#
# Velocity S-wave (km/s) = 3.30404 3.71556 3.51583
# Velocity P-wave (km/s) = 4.86156 5.68040 5.28686
#
# Compressibility (1/GPa) = 0.04616322
#
# Stress axis : x y z
#
# Youngs Moduli (GPa) = 68.08291 84.64713 34.01325
#
# Poissons Ratio (x) = 0.27602 -0.12969
# Poissons Ratio (y) = 0.22201 0.18440
# Poissons Ratio (z) = -0.25959 0.45891
#
# Static dielectric constant tensor:
#      x y z
#    x 2.023330 -0.075920 0.103110 
#    y -0.075920 1.931050 0.091820 
#    z 0.103110 0.091820 1.436470 
# 
# From -- ./inp_files/398261.got.cif
#   From: 2010.05.17/outbox.cif.g08.bks.cpg/sg2_200_cif.got.tgz:398261.got - 2010.06.03 11:33:40.
