data_PCOD9023382
_publ_section_title
;
Structure prediction by ZEFSAII (Michael W. Deem and Ramdas Pophale) SiO2 
 PCOD9023382
Probable space group: P -1
;
_chemical_formula_sum "Si O2"
_cell_formula_units_Z 10
_cell_length_a 8.222972
_cell_length_b 9.688673
_cell_length_c 9.571540
_cell_angle_alpha 61.246737
_cell_angle_beta 116.836179
_cell_angle_gamma 76.878456
_cell_volume 491.048960
_symmetry_space_group_name_H-M "P -1"
_symmetry_group_IT_number 2
_symmetry_cell_setting 'triclinic'
loop_
_space_group_symop_operation_xyz
x,y,z
-x,-y,-z
loop_
_atom_site_type_symbol
_atom_site_label
_atom_site_fract_x
_atom_site_fract_y
_atom_site_fract_z
Si Si1 0.756480 0.340670 0.709720
Si Si2 0.430545 0.086921 0.085891
Si Si3 0.131479 0.094628 0.474449
Si Si4 0.956768 0.504430 0.316545
Si Si5 0.889888 0.962680 0.821732
O O1 0.500000 0.500000 0.500000
O O2 0.872204 0.453279 0.701310
O O3 0.848205 0.171115 0.712046
O O4 0.858280 0.205794 0.953511
O O5 0.273748 0.036120 0.127785
O O6 0.641950 0.011689 0.299941
O O7 0.285151 0.314320 0.901675
O O8 0.500000 0.000000 0.000000
O O9 0.998751 0.311866 0.368952
O O10 0.166736 0.079364 0.329509
O O11 0.000000 0.000000 0.500000
O O12 0.000000 0.500000 0.500000
#
# Coordination Sequence:
#
# PCOD9023382 Si02
#       5
#     2   2   2   2   2
#     4  10  22  39  68  95 128 172 214 264 332 387
#     4  11  24  43  70  92 133 179 213 267 328 387
#     4  12  26  42  67  98 136 167 221 279 322 378
#     4  11  23  41  66  95 129 174 219 260 330 394
#     4  10  24  42  64 100 133 166 221 271 322 389
#
# _framework density 20.364568999999999
#
# number of rings (size 3 to 8) (size 9 to 14) (size 15 to 20)
#    0.000    1.200    2.000    3.000    5.600    5.600 
#    0.000    0.000    0.000    0.000    0.000    0.000 
#    0.000    0.000    0.000    0.000    0.000    0.000 
#
# Total GULP energy -55858.601016 kJ/mol
# GULP energy per Si atom -5585.860102 kJ/mol
# Density = 2.031822 g / cm^3
# Si number density = 20.364569 Si / 1000 Ang^3
#
#
#
# Elastic Constant Matrix: (Units=GPa)
#
#
# Indices 1 2 3 4 5 6 
#
# 1 77.2836 52.1076 44.7493 -6.4226 2.6209 4.8333
# 2 52.1076 187.7435 91.2502 -6.0891 -2.2052 12.5598
# 3 44.7493 91.2502 188.4173 -3.6445 34.2396 -10.7084
# 4 -6.4226 -6.0891 -3.6445 54.6742 -6.5019 -10.5603
# 5 2.6209 -2.2052 34.2396 -6.5019 38.6582 1.6479
# 6 4.8333 12.5598 -10.7084 -10.5603 1.6479 33.5275
#
#
#
# Elastic Compliance Matrix: (Units=1/GPa)
#
#
# Indices 1 2 3 4 5 6 
#
# 1 0.016857 -0.003112 -0.002849 0.001264 0.001494 -0.001850
# 2 -0.003112 0.008871 -0.004752 0.000019 0.005127 -0.004638
# 3 -0.002849 -0.004752 0.010349 -0.000165 -0.009524 0.005912
# 4 0.001264 0.000019 -0.000165 0.019943 0.003165 0.005884
# 5 0.001494 0.005127 -0.009524 0.003165 0.035278 -0.005915
# 6 -0.001850 -0.004638 0.005912 0.005884 -0.005915 0.035863
#
#
# Mechanical properties :
#
#
# Convention : Reuss Voigt Hill
#
# Bulk Modulus (GPa) = 68.25137 92.18432 80.21784
# Shear Modulus (GPa) = 32.57990 43.06115 37.82053
#
# Velocity S-wave (km/s) = 4.00413 4.60337 4.31417
# Velocity P-wave (km/s) = 7.41383 8.58021 8.01826
#
# Compressibility (1/GPa) = 0.01465172
#
# Stress axis : x y z
#
# Youngs Moduli (GPa) = 59.32275 112.72918 96.62956
#
# Poissons Ratio (x) = 0.35078 0.27527
# Poissons Ratio (y) = 0.18459 0.45918
# Poissons Ratio (z) = 0.16900 0.53568
#
# Static dielectric constant tensor:
#      x y z
#    x 1.765950 -0.000710 -0.038490 
#    y -0.000710 1.679270 -0.003070 
#    z -0.038490 -0.003070 1.736330 
# 
# From -- ./inp_files/17324.got.cif
#   From: 2010.05.17/outbox.cif.g08.bks.cpg/sg2_9_cif.got.tgz:17324.got - 2010.06.03 11:33:40.
