data_PCOD9023682
_publ_section_title
;
Structure prediction by ZEFSAII (Michael W. Deem and Ramdas Pophale) SiO2 
 PCOD9023682
Probable space group: P -1
;
_chemical_formula_sum "Si O2"
_cell_formula_units_Z 12
_cell_length_a 10.784694
_cell_length_b 12.100279
_cell_length_c 12.850967
_cell_angle_alpha 23.603913
_cell_angle_beta 127.671522
_cell_angle_gamma 133.110809
_cell_volume 489.562499
_symmetry_space_group_name_H-M "P -1"
_symmetry_group_IT_number 2
_symmetry_cell_setting 'triclinic'
loop_
_space_group_symop_operation_xyz
x,y,z
-x,-y,-z
loop_
_atom_site_type_symbol
_atom_site_label
_atom_site_fract_x
_atom_site_fract_y
_atom_site_fract_z
Si Si1 0.785378 0.228660 0.403576
Si Si2 0.758670 0.416875 0.882644
Si Si3 0.550734 0.825510 0.802493
Si Si4 0.302907 0.410606 0.505409
Si Si5 0.633719 0.931955 0.984389
Si Si6 0.062259 0.244773 0.117707
O O1 0.622925 0.112112 0.341575
O O2 0.686817 0.101970 0.569941
O O3 0.917628 0.068508 0.605566
O O4 0.880910 0.570786 0.120405
O O5 0.779328 0.651251 0.598188
O O6 0.802874 0.575893 0.878508
O O7 0.565169 0.181312 0.986587
O O8 0.891070 0.267377 0.052315
O O9 0.622699 0.816013 0.961360
O O10 0.500000 0.500000 0.000000
O O11 0.500000 0.500000 0.500000
O O12 0.285981 0.712011 0.276283
O O13 0.271982 0.196754 0.773374
#
# Coordination Sequence:
#
# PCOD9023682 Si02
#       6
#     2   2   2   2   2   2
#     4  11  23  38  58  93 116 156 197 249 308 338
#     4  10  22  40  60  90 127 158 198 233 314 353
#     4  11  23  39  66  88 123 150 208 261 297 344
#     4  10  23  37  60  88 124 162 197 244 290 363
#     4  11  23  38  64  91 120 155 204 250 297 351
#     4  11  24  37  62  90 126 159 189 251 293 380
#
# _framework density 24.511683000000001
#
# number of rings (size 3 to 8) (size 9 to 14) (size 15 to 20)
#    0.000    1.333    3.333    2.000    9.333    8.000 
#    0.000    0.000    0.000    6.000    0.000    0.000 
#    0.000    0.000    0.000    0.000    0.000    0.000 
#
# Total GULP energy -67080.990497 kJ/mol
# GULP energy per Si atom -5590.082541 kJ/mol
# Density = 2.445589 g / cm^3
# Si number density = 24.511683 Si / 1000 Ang^3
#
#
#
# Elastic Constant Matrix: (Units=GPa)
#
#
# Indices 1 2 3 4 5 6 
#
# 1 66.6959 4.9697 35.9606 4.9609 -18.4628 2.9808
# 2 4.9697 70.4498 42.9842 17.4417 -18.6119 -23.7628
# 3 35.9606 42.9842 207.7311 12.6267 -14.4740 -19.7207
# 4 4.9609 17.4417 12.6267 39.1702 5.9043 -6.6155
# 5 -18.4628 -18.6119 -14.4740 5.9043 43.0082 13.5156
# 6 2.9808 -23.7628 -19.7207 -6.6155 13.5156 42.5761
#
#
#
# Elastic Compliance Matrix: (Units=1/GPa)
#
#
# Indices 1 2 3 4 5 6 
#
# 1 0.020632 0.003263 -0.003650 -0.005644 0.011668 -0.005895
# 2 0.003263 0.023335 -0.003490 -0.010024 0.009639 0.006562
# 3 -0.003650 -0.003490 0.006189 0.000568 -0.001632 0.001781
# 4 -0.005644 -0.010024 0.000568 0.033097 -0.012416 0.004148
# 5 0.011668 0.009639 -0.001632 -0.012416 0.036653 -0.009758
# 6 -0.005895 0.006562 0.001781 0.004148 -0.009758 0.032129
#
#
# Mechanical properties :
#
#
# Convention : Reuss Voigt Hill
#
# Bulk Modulus (GPa) = 23.58402 56.96732 40.27567
# Shear Modulus (GPa) = 28.74858 42.34838 35.54848
#
# Velocity S-wave (km/s) = 3.42841 4.16105 3.81237
# Velocity P-wave (km/s) = 5.03134 6.81007 5.98713
#
# Compressibility (1/GPa) = 0.04240159
#
# Stress axis : x y z
#
# Youngs Moduli (GPa) = 48.46935 42.85459 161.58379
#
# Poissons Ratio (x) = -0.13985 0.58985
# Poissons Ratio (y) = -0.15817 0.56386
# Poissons Ratio (z) = 0.17693 0.14955
#
# Static dielectric constant tensor:
#      x y z
#    x 2.000280 0.079980 -0.028340 
#    y 0.079980 2.026270 -0.057760 
#    z -0.028340 -0.057760 1.984120 
# 
# From -- ./inp_files/131141.got.cif
#   From: 2010.05.17/outbox.cif.g08.bks.cpg/sg2_66_cif.got.tgz:131141.got - 2010.06.03 11:33:40.
