data_PCOD9023175
_publ_section_title
;
Structure prediction by ZEFSAII (Michael W. Deem and Ramdas Pophale) SiO2 
 PCOD9023175
Probable space group: P -1
;
_chemical_formula_sum "Si O2"
_cell_formula_units_Z 15
_cell_length_a 10.070272
_cell_length_b 10.805844
_cell_length_c 10.315157
_cell_angle_alpha 49.441802
_cell_angle_beta 68.301724
_cell_angle_gamma 104.364745
_cell_volume 572.007937
_symmetry_space_group_name_H-M "P -1"
_symmetry_group_IT_number 2
_symmetry_cell_setting 'triclinic'
loop_
_space_group_symop_operation_xyz
x,y,z
-x,-y,-z
loop_
_atom_site_type_symbol
_atom_site_label
_atom_site_fract_x
_atom_site_fract_y
_atom_site_fract_z
Si Si1 0.855428 0.945256 0.390321
Si Si2 0.500000 0.000000 0.000000
Si Si3 0.230910 0.440314 0.898566
Si Si4 0.818612 0.304740 0.854183
Si Si5 0.510401 0.645451 0.210548
Si Si6 0.520254 0.905860 0.429993
Si Si7 0.736472 0.559262 0.822461
Si Si8 0.906834 0.772030 0.260197
O O1 0.666877 0.871628 0.434426
O O2 0.800485 0.800269 0.636625
O O3 0.938765 0.857633 0.338331
O O4 0.004131 0.213792 0.159391
O O5 0.719060 0.253125 0.785629
O O6 0.589474 0.884831 0.055004
O O7 0.322051 0.358626 0.848452
O O8 0.305068 0.659360 0.648989
O O9 0.320092 0.526552 0.952313
O O10 0.623231 0.085087 0.154276
O O11 0.877758 0.519938 0.754520
O O12 0.981342 0.295309 0.791044
O O13 0.430318 0.584403 0.131231
O O14 0.328199 0.445758 0.502699
O O15 0.500000 0.000000 0.500000
O O16 0.000000 0.000000 0.000000
#
# Coordination Sequence:
#
# PCOD9023175 Si02
#       8
#     2   1   2   2   2   2   2   2
#     4  11  25  41  68 102 130 181 229 275 344 405
#     4  10  24  40  64 102 132 170 236 274 332 404
#     4  12  22  42  72  96 136 178 234 272 336 411
#     4  11  23  44  70  97 140 180 224 285 343 397
#     4  10  22  39  66  97 131 177 221 278 342 388
#     4  12  25  46  68  99 140 179 223 284 343 403
#     4  10  22  42  67  96 136 184 220 284 341 390
#     4  11  21  41  67  93 139 178 217 277 341 402
#
# _framework density 26.223410999999999
#
# number of rings (size 3 to 8) (size 9 to 14) (size 15 to 20)
#    0.000    1.067    5.333    1.600    0.000    7.467 
#    0.000    5.333    0.000    0.000    0.000    0.000 
#    0.000    0.000    0.000    0.000    0.000    0.000 
#
# Total GULP energy -83625.780839 kJ/mol
# GULP energy per Si atom -5575.052056 kJ/mol
# Density = 2.616373 g / cm^3
# Si number density = 26.223411 Si / 1000 Ang^3
#
#
#
# Elastic Constant Matrix: (Units=GPa)
#
#
# Indices 1 2 3 4 5 6 
#
# 1 56.2281 12.9131 12.6453 -2.8435 3.7277 -25.5729
# 2 12.9131 108.8839 20.4406 -10.3169 -3.2437 -22.2621
# 3 12.6453 20.4406 123.8719 -21.6190 14.5016 -3.5994
# 4 -2.8435 -10.3169 -21.6190 47.4728 -3.5975 3.5046
# 5 3.7277 -3.2437 14.5016 -3.5975 33.9341 -1.2929
# 6 -25.5729 -22.2621 -3.5994 3.5046 -1.2929 52.3819
#
#
#
# Elastic Compliance Matrix: (Units=1/GPa)
#
#
# Indices 1 2 3 4 5 6 
#
# 1 0.023442 -0.000205 -0.001952 -0.000462 -0.001382 0.011220
# 2 -0.000205 0.010567 -0.001592 0.001399 0.002023 0.004238
# 3 -0.001952 -0.001592 0.009577 0.003716 -0.003686 -0.001311
# 4 -0.000462 0.001399 0.003716 0.023177 0.001019 -0.000901
# 5 -0.001382 0.002023 -0.003686 0.001019 0.031522 0.000642
# 6 0.011220 0.004238 -0.001311 -0.000901 0.000642 0.026355
#
#
# Mechanical properties :
#
#
# Convention : Reuss Voigt Hill
#
# Bulk Modulus (GPa) = 27.71045 42.33134 35.02089
# Shear Modulus (GPa) = 34.68212 42.95674 38.81943
#
# Velocity S-wave (km/s) = 3.64065 4.05174 3.85169
# Velocity P-wave (km/s) = 5.31624 6.16980 5.75886
#
# Compressibility (1/GPa) = 0.03608747
#
# Stress axis : x y z
#
# Youngs Moduli (GPa) = 42.65868 94.63824 104.41863
#
# Poissons Ratio (x) = 0.01936 0.20384
# Poissons Ratio (y) = 0.00873 0.16625
# Poissons Ratio (z) = 0.08328 0.15068
#
# Static dielectric constant tensor:
#      x y z
#    x 2.194940 0.088930 0.011790 
#    y 0.088930 2.173760 0.043580 
#    z 0.011790 0.043580 2.178660 
# 
# From -- ./inp_files/277390.got.cif
#   From: 2010.05.17/outbox.cif.g08.bks.cpg/sg2_139_cif.got.tgz:277390.got - 2010.06.03 11:33:40.
