data_PCOD9023056
_publ_section_title
;
Structure prediction by ZEFSAII (Michael W. Deem and Ramdas Pophale) SiO2 
 PCOD9023056
Probable space group: P -1
;
_chemical_formula_sum "Si O2"
_cell_formula_units_Z 16
_cell_length_a 11.434528
_cell_length_b 5.457094
_cell_length_c 11.513741
_cell_angle_alpha 69.371268
_cell_angle_beta 93.853700
_cell_angle_gamma 92.485414
_cell_volume 670.715052
_symmetry_space_group_name_H-M "P -1"
_symmetry_group_IT_number 2
_symmetry_cell_setting 'triclinic'
loop_
_space_group_symop_operation_xyz
x,y,z
-x,-y,-z
loop_
_atom_site_type_symbol
_atom_site_label
_atom_site_fract_x
_atom_site_fract_y
_atom_site_fract_z
Si Si1 0.315785 0.140348 0.750730
Si Si2 0.872465 0.183244 0.653438
Si Si3 0.057130 0.391167 0.240283
Si Si4 0.743213 0.139623 0.409904
Si Si5 0.383348 0.661138 0.969494
Si Si6 0.300251 0.622249 0.212784
Si Si7 0.514077 0.406761 0.384922
Si Si8 0.179713 0.433953 0.851467
O O1 0.408837 0.374891 0.715456
O O2 0.214430 0.168170 0.834633
O O3 0.257630 0.123447 0.622486
O O4 0.387221 0.890358 0.836615
O O5 0.938567 0.448310 0.661734
O O6 0.820538 0.175203 0.522274
O O7 0.757301 0.181409 0.730845
O O8 0.950329 0.923360 0.708296
O O9 0.185742 0.460922 0.190589
O O10 0.954876 0.524477 0.138868
O O11 0.605116 0.171146 0.425667
O O12 0.791931 0.351074 0.284279
O O13 0.271980 0.487404 0.949181
O O14 0.500000 0.500000 0.000000
O O15 0.361466 0.752884 0.084095
O O16 0.387916 0.420693 0.314208
O O17 0.500000 0.500000 0.500000
#
# Coordination Sequence:
#
# PCOD9023056 Si02
#       8
#     2   2   2   2   2   2   2   2
#     4  10  24  40  69  96 135 182 230 287 353 410
#     4  10  24  42  66 103 140 181 233 282 349 410
#     4  10  25  45  66 103 140 183 233 287 346 411
#     4  10  22  39  65  99 136 181 230 287 347 415
#     4  11  24  46  70 101 135 178 235 287 347 415
#     4  10  24  41  66 101 141 181 233 283 347 413
#     4  11  21  41  63 102 138 176 226 285 357 416
#     4  10  24  43  67  96 136 179 235 283 348 408
#
# _framework density 23.855138
#
# number of rings (size 3 to 8) (size 9 to 14) (size 15 to 20)
#    0.750    1.000    1.250    2.250    8.750    7.000 
#    0.000    1.250    0.000    0.000    0.000    0.000 
#    0.000    0.000    0.000    0.000    0.000    0.000 
#
# Total GULP energy -89266.053484 kJ/mol
# GULP energy per Si atom -5579.128343 kJ/mol
# Density = 2.380084 g / cm^3
# Si number density = 23.855138 Si / 1000 Ang^3
#
#
#
# Elastic Constant Matrix: (Units=GPa)
#
#
# Indices 1 2 3 4 5 6 
#
# 1 114.3654 15.2827 22.0554 4.8220 34.5353 -7.7800
# 2 15.2827 75.2209 8.8760 13.3167 12.4805 -19.0682
# 3 22.0554 8.8760 90.6928 24.9822 13.0644 -8.2229
# 4 4.8220 13.3167 24.9822 26.9686 0.3645 2.2637
# 5 34.5353 12.4805 13.0644 0.3645 32.7956 -3.3358
# 6 -7.7800 -19.0682 -8.2229 2.2637 -3.3358 26.1057
#
#
#
# Elastic Compliance Matrix: (Units=1/GPa)
#
#
# Indices 1 2 3 4 5 6 
#
# 1 0.013134 0.000801 -0.000368 -0.002458 -0.013672 0.002849
# 2 0.000801 0.021652 0.005395 -0.017225 -0.009203 0.018071
# 3 -0.000368 0.005395 0.018194 -0.020217 -0.007637 0.010339
# 4 -0.002458 -0.017225 -0.020217 0.066549 0.014051 -0.023657
# 5 -0.013672 -0.009203 -0.007637 0.014051 0.050466 -0.007972
# 6 0.002849 0.018071 0.010339 -0.023657 -0.007972 0.056644
#
#
# Mechanical properties :
#
#
# Convention : Reuss Voigt Hill
#
# Bulk Modulus (GPa) = 15.47123 41.41191 28.44157
# Shear Modulus (GPa) = 21.13917 32.77829 26.95873
#
# Velocity S-wave (km/s) = 2.98005 3.71085 3.36535
# Velocity P-wave (km/s) = 4.28258 5.97980 5.20089
#
# Compressibility (1/GPa) = 0.06463611
#
# Stress axis : x y z
#
# Youngs Moduli (GPa) = 76.14012 46.18507 54.96256
#
# Poissons Ratio (x) = -0.03698 0.02021
# Poissons Ratio (y) = -0.06097 -0.29652
# Poissons Ratio (z) = 0.02799 -0.24917
#
# Static dielectric constant tensor:
#      x y z
#    x 1.944630 -0.012860 -0.006340 
#    y -0.012860 2.033540 0.003620 
#    z -0.006340 0.003620 1.905960 
# 
# From -- ./inp_files/410294.got.cif
#   From: 2010.05.17/outbox.cif.g08.bks.cpg/sg2_206_cif.got.tgz:410294.got - 2010.06.03 11:33:40.
