data_PCOD9023867
_publ_section_title
;
Structure prediction by ZEFSAII (Michael W. Deem and Ramdas Pophale) SiO2 
 PCOD9023867
Probable space group: P -1
;
_chemical_formula_sum "Si O2"
_cell_formula_units_Z 12
_cell_length_a 26.531240
_cell_length_b 21.644701
_cell_length_c 4.987685
_cell_angle_alpha 55.435999
_cell_angle_beta 56.264823
_cell_angle_gamma 12.241551
_cell_volume 500.111149
_symmetry_space_group_name_H-M "P -1"
_symmetry_group_IT_number 2
_symmetry_cell_setting 'triclinic'
loop_
_space_group_symop_operation_xyz
x,y,z
-x,-y,-z
loop_
_atom_site_type_symbol
_atom_site_label
_atom_site_fract_x
_atom_site_fract_y
_atom_site_fract_z
Si Si1 0.116380 0.402210 0.146896
Si Si2 0.409749 0.698486 0.462271
Si Si3 0.142824 0.151358 0.404925
Si Si4 0.499662 0.166486 0.563607
Si Si5 0.798210 0.131931 0.841826
Si Si6 0.203104 0.546864 0.004763
O O1 0.000000 0.500000 0.500000
O O2 0.389800 0.049103 0.214002
O O3 0.000000 0.500000 0.000000
O O4 0.029538 0.590767 0.902962
O O5 0.682843 0.349531 0.572524
O O6 0.342730 0.757319 0.212975
O O7 0.312952 0.894186 0.359783
O O8 0.266006 0.812753 0.800648
O O9 0.977180 0.298591 0.720793
O O10 0.306647 0.007801 0.460697
O O11 0.429026 0.269744 0.215259
O O12 0.276685 0.443449 0.738417
O O13 0.069848 0.785657 0.839704
#
# Coordination Sequence:
#
# PCOD9023867 Si02
#       6
#     2   2   2   2   2   2
#     4  10  22  40  62  88 122 159 200 253 300 351
#     4   9  18  34  61  86 115 160 198 241 302 356
#     4  10  23  42  65  88 122 165 204 246 307 361
#     4  11  24  40  60  92 125 157 205 255 296 356
#     4   9  18  35  57  89 121 150 199 250 293 353
#     4  11  23  39  63  91 122 162 202 248 304 360
#
# _framework density 23.994667
#
# number of rings (size 3 to 8) (size 9 to 14) (size 15 to 20)
#    0.000    2.000    0.000    4.000    0.000   13.333 
#    0.000    1.667    0.000    0.000    0.000    0.000 
#    0.000    0.000    0.000    0.000    0.000    0.000 
#
# Total GULP energy -67125.323432 kJ/mol
# GULP energy per Si atom -5593.776953 kJ/mol
# Density = 2.394005 g / cm^3
# Si number density = 23.994667 Si / 1000 Ang^3
#
#
#
# Elastic Constant Matrix: (Units=GPa)
#
#
# Indices 1 2 3 4 5 6 
#
# 1 82.5514 14.5805 21.2503 -4.4332 -9.5646 7.9413
# 2 14.5805 115.7006 20.7357 -38.7117 -23.3322 30.1521
# 3 21.2503 20.7357 84.3138 -5.8572 1.1481 6.3728
# 4 -4.4332 -38.7117 -5.8572 56.9695 7.2386 -3.5435
# 5 -9.5646 -23.3322 1.1481 7.2386 46.8689 -2.6612
# 6 7.9413 30.1521 6.3728 -3.5435 -2.6612 43.8124
#
#
#
# Elastic Compliance Matrix: (Units=1/GPa)
#
#
# Indices 1 2 3 4 5 6 
#
# 1 0.013453 -0.000031 -0.003270 0.000240 0.002673 -0.001759
# 2 -0.000031 0.015837 -0.002622 0.009142 0.005995 -0.009408
# 3 -0.003270 -0.002622 0.013312 -0.000367 -0.002225 0.000296
# 4 0.000240 0.009142 -0.000367 0.023381 0.000751 -0.004345
# 5 0.002673 0.005995 -0.002225 0.000751 0.024650 -0.002729
# 6 -0.001759 -0.009408 0.000296 -0.004345 -0.002729 0.029058
#
#
# Mechanical properties :
#
#
# Convention : Reuss Voigt Hill
#
# Bulk Modulus (GPa) = 32.51547 43.96655 38.24101
# Shear Modulus (GPa) = 35.26396 44.59680 39.93038
#
# Velocity S-wave (km/s) = 3.83777 4.31584 4.08381
# Velocity P-wave (km/s) = 5.76355 6.57256 6.18131
#
# Compressibility (1/GPa) = 0.03075460
#
# Stress axis : x y z
#
# Youngs Moduli (GPa) = 74.33452 63.14473 75.12090
#
# Poissons Ratio (x) = 0.00198 0.24561
# Poissons Ratio (y) = 0.00234 0.19699
# Poissons Ratio (z) = 0.24304 0.16558
#
# Static dielectric constant tensor:
#      x y z
#    x 1.884500 -0.004730 -0.052990 
#    y -0.004730 2.004830 -0.021280 
#    z -0.052990 -0.021280 1.871920 
# 
# From -- ./inp_files/128817.got.cif
#   From: 2010.05.17/outbox.cif.g08.bks.cpg/sg2_65_cif.got.tgz:128817.got - 2010.06.03 11:33:40.
