data_PCOD9023241
_publ_section_title
;
Structure prediction by ZEFSAII (Michael W. Deem and Ramdas Pophale) SiO2 
 PCOD9023241
Probable space group: P -1
;
_chemical_formula_sum "Si O2"
_cell_formula_units_Z 14
_cell_length_a 10.234395
_cell_length_b 6.840466
_cell_length_c 14.666610
_cell_angle_alpha 47.582065
_cell_angle_beta 130.726929
_cell_angle_gamma 128.383187
_cell_volume 543.615590
_symmetry_space_group_name_H-M "P -1"
_symmetry_group_IT_number 2
_symmetry_cell_setting 'triclinic'
loop_
_space_group_symop_operation_xyz
x,y,z
-x,-y,-z
loop_
_atom_site_type_symbol
_atom_site_label
_atom_site_fract_x
_atom_site_fract_y
_atom_site_fract_z
Si Si1 0.686492 0.327825 0.895254
Si Si2 0.289655 0.908861 0.465789
Si Si3 0.273042 0.184229 0.012080
Si Si4 0.204926 0.721214 0.831602
Si Si5 0.882063 0.902437 0.832934
Si Si6 0.863204 0.743661 0.576529
Si Si7 0.678425 0.620680 0.350203
O O1 0.855753 0.606291 0.863512
O O2 0.522022 0.444430 0.760661
O O3 0.731709 0.276570 0.035471
O O4 0.628105 0.030852 0.909958
O O5 0.246738 0.125620 0.445694
O O6 0.240936 0.604551 0.586822
O O7 0.500000 0.000000 0.500000
O O8 0.165082 0.904319 0.323215
O O9 0.306878 0.511360 0.900849
O O10 0.247564 0.153600 0.119153
O O11 0.079991 0.028401 0.924830
O O12 0.240908 0.049566 0.730825
O O13 0.995120 0.602709 0.734965
O O14 0.714469 0.575494 0.487504
O O15 0.000000 0.000000 0.500000
#
# Coordination Sequence:
#
# PCOD9023241 Si02
#       7
#     2   2   2   2   2   2   2
#     4  11  22  39  67  97 134 177 224 285 340 402
#     4  12  25  43  69  99 140 179 222 285 347 402
#     4  10  22  39  67  92 135 178 225 280 337 407
#     4  10  23  43  64  97 130 181 232 274 336 408
#     4  10  22  41  61  99 134 176 227 274 347 405
#     4  10  25  45  68  97 136 183 230 274 335 412
#     4  11  25  42  66 101 138 176 227 284 342 410
#
# _framework density 25.753494
#
# number of rings (size 3 to 8) (size 9 to 14) (size 15 to 20)
#    0.000    1.429    1.429    2.571    2.000    9.143 
#    0.000    0.000    0.000    0.000    0.000    0.000 
#    0.000    0.000    0.000    0.000    0.000    0.000 
#
# Total GULP energy -78090.725855 kJ/mol
# GULP energy per Si atom -5577.908990 kJ/mol
# Density = 2.569488 g / cm^3
# Si number density = 25.753494 Si / 1000 Ang^3
#
#
#
# Elastic Constant Matrix: (Units=GPa)
#
#
# Indices 1 2 3 4 5 6 
#
# 1 33.1234 -13.2887 12.5395 5.5825 5.9171 -3.0456
# 2 -13.2887 118.5308 28.5668 -15.5733 -2.4404 5.3750
# 3 12.5395 28.5668 156.8354 -2.0237 18.8478 -5.3561
# 4 5.5825 -15.5733 -2.0237 74.9204 -2.4480 7.3243
# 5 5.9171 -2.4404 18.8478 -2.4480 32.9744 -0.3214
# 6 -3.0456 5.3750 -5.3561 7.3243 -0.3214 26.8503
#
#
#
# Elastic Compliance Matrix: (Units=1/GPa)
#
#
# Indices 1 2 3 4 5 6 
#
# 1 0.034330 0.004018 -0.002877 -0.002243 -0.004355 0.003075
# 2 0.004018 0.009859 -0.002355 0.001980 0.001477 -0.002510
# 3 -0.002877 -0.002355 0.007569 -0.000368 -0.003995 0.001707
# 4 -0.002243 0.001980 -0.000368 0.014428 0.001785 -0.004639
# 5 -0.004355 0.001477 -0.003995 0.001785 0.033617 -0.001671
# 6 0.003075 -0.002510 0.001707 -0.004639 -0.001671 0.039681
#
#
# Mechanical properties :
#
#
# Convention : Reuss Voigt Hill
#
# Bulk Modulus (GPa) = 20.27129 40.45831 30.36480
# Shear Modulus (GPa) = 31.57467 45.66050 38.61758
#
# Velocity S-wave (km/s) = 3.50528 4.21525 3.87655
# Velocity P-wave (km/s) = 4.92656 6.27973 5.64385
#
# Compressibility (1/GPa) = 0.04933084
#
# Stress axis : x y z
#
# Youngs Moduli (GPa) = 29.12871 101.43002 132.12299
#
# Poissons Ratio (x) = -0.40759 0.38016
# Poissons Ratio (y) = -0.11705 0.31111
# Poissons Ratio (z) = 0.08381 0.23884
#
# Static dielectric constant tensor:
#      x y z
#    x 2.135280 -0.015180 -0.008210 
#    y -0.015180 1.535490 -0.115220 
#    z -0.008210 -0.115220 1.982940 
# 
# From -- ./inp_files/94368.got.cif
#   From: 2010.05.17/outbox.cif.g08.bks.cpg/sg2_48_cif.got.tgz:94368.got - 2010.06.03 11:33:40.
