data_PCOD9023416
_publ_section_title
;
Structure prediction by ZEFSAII (Michael W. Deem and Ramdas Pophale) SiO2 
 PCOD9023416
Probable space group: P -1
;
_chemical_formula_sum "Si O2"
_cell_formula_units_Z 14
_cell_length_a 9.522889
_cell_length_b 19.904342
_cell_length_c 9.116380
_cell_angle_alpha 135.796690
_cell_angle_beta 151.507134
_cell_angle_gamma 44.562091
_cell_volume 556.790855
_symmetry_space_group_name_H-M "P -1"
_symmetry_group_IT_number 2
_symmetry_cell_setting 'triclinic'
loop_
_space_group_symop_operation_xyz
x,y,z
-x,-y,-z
loop_
_atom_site_type_symbol
_atom_site_label
_atom_site_fract_x
_atom_site_fract_y
_atom_site_fract_z
Si Si1 0.056958 0.539847 0.774624
Si Si2 0.787495 0.709026 0.273296
Si Si3 0.719803 0.760830 0.814382
Si Si4 0.432928 0.862571 0.414478
Si Si5 0.635107 0.426405 0.294937
Si Si6 0.147129 0.006106 0.986497
Si Si7 0.105351 0.809070 0.474656
O O1 0.975853 0.658082 0.875796
O O2 0.815841 0.511621 0.624889
O O3 0.000000 0.500000 0.500000
O O4 0.396737 0.482677 0.042080
O O5 0.054635 0.662184 0.563277
O O6 0.951855 0.747704 0.351029
O O7 0.558145 0.798718 0.286035
O O8 0.595137 0.630036 0.925923
O O9 0.571886 0.801202 0.587965
O O10 0.433118 0.747656 0.625342
O O11 0.877601 0.832747 0.164835
O O12 0.072513 0.896760 0.136753
O O13 0.534858 0.965853 0.664132
O O14 0.156652 0.907251 0.751727
O O15 0.000000 0.000000 0.000000
#
# Coordination Sequence:
#
# PCOD9023416 Si02
#       7
#     2   2   2   2   2   2   2
#     4  11  23  44  69  99 143 184 230 285 345 419
#     4  11  23  44  70 104 136 187 238 283 339 412
#     4  12  27  46  69 107 143 185 226 288 366 405
#     4  12  26  44  75 103 140 184 241 282 339 427
#     4  10  22  39  68  99 129 177 236 288 325 397
#     4  12  26  46  74 106 136 183 242 285 343 411
#     4  12  27  46  70 101 151 182 226 296 355 410
#
# _framework density 25.144092000000001
#
# number of rings (size 3 to 8) (size 9 to 14) (size 15 to 20)
#    0.000    0.571    1.429    6.857    2.000    5.714 
#    0.000   14.286    0.000    0.000    0.000    0.000 
#    0.000    0.000    0.000    0.000    0.000    0.000 
#
# Total GULP energy -78242.365846 kJ/mol
# GULP energy per Si atom -5588.740418 kJ/mol
# Density = 2.508686 g / cm^3
# Si number density = 25.144092 Si / 1000 Ang^3
#
#
#
# Elastic Constant Matrix: (Units=GPa)
#
#
# Indices 1 2 3 4 5 6 
#
# 1 100.8058 27.3562 23.4234 11.4832 5.2461 3.0387
# 2 27.3562 77.3445 12.6112 -14.5250 -2.4701 2.5490
# 3 23.4234 12.6112 97.7021 -17.6410 12.9166 -3.8921
# 4 11.4832 -14.5250 -17.6410 46.5184 -0.9993 4.7583
# 5 5.2461 -2.4701 12.9166 -0.9993 36.6560 3.0430
# 6 3.0387 2.5490 -3.8921 4.7583 3.0430 31.0115
#
#
#
# Elastic Compliance Matrix: (Units=1/GPa)
#
#
# Indices 1 2 3 4 5 6 
#
# 1 0.012864 -0.005170 -0.003369 -0.006070 -0.001150 -0.000214
# 2 -0.005170 0.016131 -0.000029 0.006558 0.002186 -0.002044
# 3 -0.003369 -0.000029 0.012594 0.005363 -0.003934 0.001476
# 4 -0.006070 0.006558 0.005363 0.027448 0.000462 -0.003528
# 5 -0.001150 0.002186 -0.003934 0.000462 0.029282 -0.003505
# 6 -0.000214 -0.002044 0.001476 -0.003528 -0.003505 0.033506
#
#
# Mechanical properties :
#
#
# Convention : Reuss Voigt Hill
#
# Bulk Modulus (GPa) = 40.89562 44.73710 42.81636
# Shear Modulus (GPa) = 31.82450 37.00130 34.41290
#
# Velocity S-wave (km/s) = 3.56151 3.84027 3.70351
# Velocity P-wave (km/s) = 5.76301 6.12327 5.94587
#
# Compressibility (1/GPa) = 0.02445250
#
# Stress axis : x y z
#
# Youngs Moduli (GPa) = 77.73784 61.99140 79.40351
#
# Poissons Ratio (x) = 0.32050 0.26753
# Poissons Ratio (y) = 0.40191 0.00230
# Poissons Ratio (z) = 0.26191 0.00179
#
# Static dielectric constant tensor:
#      x y z
#    x 2.002900 0.054550 -0.013660 
#    y 0.054550 1.979450 0.001340 
#    z -0.013660 0.001340 1.939920 
# 
# From -- ./inp_files/218125.got.cif
#   From: 2010.05.17/outbox.cif.g08.bks.cpg/sg2_110_cif.got.tgz:218125.got - 2010.06.03 11:33:40.
