data_PCOD9023437
_publ_section_title
;
Structure prediction by ZEFSAII (Michael W. Deem and Ramdas Pophale) SiO2 
 PCOD9023437
Probable space group: P -1
;
_chemical_formula_sum "Si O2"
_cell_formula_units_Z 15
_cell_length_a 10.895015
_cell_length_b 12.383413
_cell_length_c 9.742876
_cell_angle_alpha 77.781001
_cell_angle_beta 117.638380
_cell_angle_gamma 141.940841
_cell_volume 688.900032
_symmetry_space_group_name_H-M "P -1"
_symmetry_group_IT_number 2
_symmetry_cell_setting 'triclinic'
loop_
_space_group_symop_operation_xyz
x,y,z
-x,-y,-z
loop_
_atom_site_type_symbol
_atom_site_label
_atom_site_fract_x
_atom_site_fract_y
_atom_site_fract_z
Si Si1 0.325104 0.969165 0.842865
Si Si2 0.165690 0.195335 0.602324
Si Si3 0.139991 0.409401 0.406550
Si Si4 0.000000 0.500000 0.500000
Si Si5 0.945456 0.816372 0.156448
Si Si6 0.609930 0.337224 0.794778
Si Si7 0.709310 0.898937 0.958172
Si Si8 0.196243 0.522238 0.854382
O O1 0.126157 0.773833 0.723016
O O2 0.470734 0.134474 0.767464
O O3 0.500000 0.000000 0.000000
O O4 0.223924 0.988710 0.900856
O O5 0.215516 0.331621 0.495951
O O6 0.032874 0.154111 0.678174
O O7 0.408434 0.295761 0.742078
O O8 0.000000 0.000000 0.500000
O O9 0.277846 0.548986 0.315522
O O10 0.144564 0.483620 0.526938
O O11 0.991779 0.540895 0.322747
O O12 0.825391 0.623620 0.120845
O O13 0.801616 0.832254 0.029051
O O14 0.179586 0.971637 0.150033
O O15 0.787746 0.438795 0.985669
O O16 0.437089 0.720344 0.867788
#
# Coordination Sequence:
#
# PCOD9023437 Si02
#       8
#     2   2   2   1   2   2   2   2
#     4  11  23  45  67  95 135 179 231 278 319 409
#     4  12  23  45  70 102 139 172 227 289 342 397
#     4  12  25  46  69 101 141 176 228 282 334 410
#     4  12  28  44  66 100 140 180 222 280 328 398
#     4  11  21  40  69  97 135 169 214 287 337 393
#     4  11  25  44  74 100 128 186 228 275 349 400
#     4  10  22  39  69 102 123 172 227 270 341 399
#     4  11  23  44  65  99 137 173 225 272 333 401
#
# _framework density 21.773841000000001
#
# number of rings (size 3 to 8) (size 9 to 14) (size 15 to 20)
#    0.000    0.800    5.333    3.200    0.000    5.333 
#    0.000    1.333    0.000    0.000    0.000    0.000 
#    0.000    0.000    0.000    0.000    0.000    0.000 
#
# Total GULP energy -83602.567036 kJ/mol
# GULP energy per Si atom -5573.504469 kJ/mol
# Density = 2.172428 g / cm^3
# Si number density = 21.773841 Si / 1000 Ang^3
#
#
#
# Elastic Constant Matrix: (Units=GPa)
#
#
# Indices 1 2 3 4 5 6 
#
# 1 56.9453 31.3773 17.8708 -14.8235 -16.1523 -6.1580
# 2 31.3773 108.0370 35.6959 -31.7121 -36.7283 6.0695
# 3 17.8708 35.6959 84.8046 -24.9515 -8.7162 11.6648
# 4 -14.8235 -31.7121 -24.9515 38.0594 -1.9514 -9.5158
# 5 -16.1523 -36.7283 -8.7162 -1.9514 48.7279 -10.0592
# 6 -6.1580 6.0695 11.6648 -9.5158 -10.0592 21.4171
#
#
#
# Elastic Compliance Matrix: (Units=1/GPa)
#
#
# Indices 1 2 3 4 5 6 
#
# 1 0.030066 0.002420 -0.003673 0.018827 0.017352 0.026475
# 2 0.002420 0.022950 -0.003411 0.023090 0.021834 0.016564
# 3 -0.003673 -0.003411 0.016082 0.004104 -0.002433 -0.008168
# 4 0.018827 0.023090 0.004104 0.068403 0.036208 0.044033
# 5 0.017352 0.021834 -0.002433 0.036208 0.052150 0.040708
# 6 0.026475 0.016564 -0.008168 0.044033 0.040708 0.092743
#
#
# Mechanical properties :
#
#
# Convention : Reuss Voigt Hill
#
# Bulk Modulus (GPa) = 16.73068 46.63056 31.68062
# Shear Modulus (GPa) = 16.04385 32.63039 24.33712
#
# Velocity S-wave (km/s) = 2.71743 3.87538 3.34686
# Velocity P-wave (km/s) = 4.18884 6.44105 5.43293
#
# Compressibility (1/GPa) = 0.05977044
#
# Stress axis : x y z
#
# Youngs Moduli (GPa) = 33.26020 43.57274 62.17990
#
# Poissons Ratio (x) = -0.10543 0.22838
# Poissons Ratio (y) = -0.08048 0.21207
# Poissons Ratio (z) = 0.12216 0.14861
#
# Static dielectric constant tensor:
#      x y z
#    x 2.213360 -0.217440 0.291380 
#    y -0.217440 1.879790 -0.133270 
#    z 0.291380 -0.133270 1.865860 
# 
# From -- ./inp_files/257721.got.cif
#   From: 2010.05.17/outbox.cif.g08.bks.cpg/sg2_129_cif.got.tgz:257721.got - 2010.06.03 11:33:40.
