data_PCOD9023711
_publ_section_title
;
Structure prediction by ZEFSAII (Michael W. Deem and Ramdas Pophale) SiO2 
 PCOD9023711
Probable space group: P -1
;
_chemical_formula_sum "Si O2"
_cell_formula_units_Z 13
_cell_length_a 11.866248
_cell_length_b 14.644693
_cell_length_c 16.140574
_cell_angle_alpha 25.833978
_cell_angle_beta 35.540110
_cell_angle_gamma 27.389213
_cell_volume 560.799607
_symmetry_space_group_name_H-M "P -1"
_symmetry_group_IT_number 2
_symmetry_cell_setting 'triclinic'
loop_
_space_group_symop_operation_xyz
x,y,z
-x,-y,-z
loop_
_atom_site_type_symbol
_atom_site_label
_atom_site_fract_x
_atom_site_fract_y
_atom_site_fract_z
Si Si1 0.411334 0.028681 0.411388
Si Si2 0.721383 0.175048 0.489408
Si Si3 0.642069 0.768780 0.218080
Si Si4 0.737394 0.614699 0.099764
Si Si5 0.846676 0.943603 0.294063
Si Si6 0.000000 0.500000 0.500000
Si Si7 0.889134 0.380293 0.842784
O O1 0.706502 0.854425 0.391845
O O2 0.322987 0.325557 0.234914
O O3 0.327481 0.986345 0.410853
O O4 0.294600 0.974221 0.601539
O O5 0.530061 0.281427 0.591462
O O6 0.679399 0.418463 0.267535
O O7 0.000000 0.000000 0.500000
O O8 0.741649 0.619356 0.193257
O O9 0.864978 0.698781 0.197018
O O10 0.466123 0.084336 0.050171
O O11 0.000000 0.500000 0.000000
O O12 0.144498 0.837471 0.930339
O O13 0.084831 0.642329 0.401472
O O14 0.904298 0.408022 0.713886
#
# Coordination Sequence:
#
# PCOD9023711 Si02
#       7
#     2   2   2   2   2   1   2
#     4  10  24  40  65 101 134 180 244 277 358 421
#     4  12  24  43  71  98 144 183 224 301 356 413
#     4  11  26  43  69 107 135 187 240 282 357 426
#     4  11  25  46  70 101 144 181 239 290 348 428
#     4  10  22  42  66  95 138 186 228 296 347 417
#     4  10  22  40  60  96 132 174 238 282 338 424
#     4  11  23  41  69  97 141 182 236 290 354 417
#
# _framework density 23.181187000000001
#
# number of rings (size 3 to 8) (size 9 to 14) (size 15 to 20)
#    0.000    1.231    1.538    3.231    2.154    3.692 
#    0.000    1.538    0.000    0.000    0.000    0.000 
#    0.000    0.000    0.000    0.000    0.000    0.000 
#
# Total GULP energy -72581.168706 kJ/mol
# GULP energy per Si atom -5583.166824 kJ/mol
# Density = 2.312843 g / cm^3
# Si number density = 23.181187 Si / 1000 Ang^3
#
#
#
# Elastic Constant Matrix: (Units=GPa)
#
#
# Indices 1 2 3 4 5 6 
#
# 1 99.1119 41.0561 13.5992 11.3009 6.2070 -4.4676
# 2 41.0561 138.3740 46.5031 11.2039 -0.2630 8.9702
# 3 13.5992 46.5031 172.8388 -3.9228 -20.0502 11.6685
# 4 11.3009 11.2039 -3.9228 42.3654 6.6480 -0.6333
# 5 6.2070 -0.2630 -20.0502 6.6480 26.3151 0.5955
# 6 -4.4676 8.9702 11.6685 -0.6333 0.5955 42.1918
#
#
#
# Elastic Compliance Matrix: (Units=1/GPa)
#
#
# Indices 1 2 3 4 5 6 
#
# 1 0.012061 -0.003382 -0.000562 -0.001891 -0.002878 0.002164
# 2 -0.003382 0.009210 -0.002167 -0.001715 -0.000289 -0.001739
# 3 -0.000562 -0.002167 0.007172 0.000501 0.005486 -0.001652
# 4 -0.001891 -0.001715 0.000501 0.025501 -0.005643 0.000488
# 5 -0.002878 -0.000289 0.005486 -0.005643 0.044338 -0.002471
# 6 0.002164 -0.001739 -0.001652 0.000488 -0.002471 0.024799
#
#
# Mechanical properties :
#
#
# Convention : Reuss Voigt Hill
#
# Bulk Modulus (GPa) = 61.64828 68.07125 64.85977
# Shear Modulus (GPa) = 35.53386 42.78556 39.15971
#
# Velocity S-wave (km/s) = 3.91944 4.30082 4.11455
# Velocity P-wave (km/s) = 6.86546 7.35469 7.11428
#
# Compressibility (1/GPa) = 0.01622105
#
# Stress axis : x y z
#
# Youngs Moduli (GPa) = 82.91038 108.58307 139.42560
#
# Poissons Ratio (x) = 0.36728 0.07833
# Poissons Ratio (y) = 0.28044 0.30210
# Poissons Ratio (z) = 0.04658 0.23527
#
# Static dielectric constant tensor:
#      x y z
#    x 1.698180 0.116600 -0.008850 
#    y 0.116600 1.936780 -0.060320 
#    z -0.008850 -0.060320 1.846090 
# 
# From -- ./inp_files/520604.got.cif
#   From: 2010.05.17/outbox.cif.g08.bks.cpg/sg2_261_cif.got.tgz:520604.got - 2010.06.03 11:33:40.
