data_PCOD9023812
_publ_section_title
;
Structure prediction by ZEFSAII (Michael W. Deem and Ramdas Pophale) SiO2 
 PCOD9023812
Probable space group: P -1
;
_chemical_formula_sum "Si O2"
_cell_formula_units_Z 16
_cell_length_a 20.745446
_cell_length_b 8.017530
_cell_length_c 14.397615
_cell_angle_alpha 135.135742
_cell_angle_beta 29.346773
_cell_angle_gamma 137.303396
_cell_volume 778.952784
_symmetry_space_group_name_H-M "P -1"
_symmetry_group_IT_number 2
_symmetry_cell_setting 'triclinic'
loop_
_space_group_symop_operation_xyz
x,y,z
-x,-y,-z
loop_
_atom_site_type_symbol
_atom_site_label
_atom_site_fract_x
_atom_site_fract_y
_atom_site_fract_z
Si Si1 0.209802 0.409160 0.103842
Si Si2 0.038191 0.390415 0.814746
Si Si3 0.894566 0.859515 0.696531
Si Si4 0.658254 0.702261 0.378724
Si Si5 0.679583 0.705809 0.557878
Si Si6 0.791051 0.062106 0.729135
Si Si7 0.932789 0.711152 0.946190
Si Si8 0.578492 0.803058 0.331933
O O1 0.174465 0.378505 0.244364
O O2 0.260841 0.697013 0.115235
O O3 0.081858 0.299362 0.150086
O O4 0.305448 0.236765 0.896903
O O5 0.195385 0.403211 0.633709
O O6 0.942794 0.105497 0.799495
O O7 0.021236 0.551391 0.812068
O O8 0.000000 0.500000 0.000000
O O9 0.042360 0.846124 0.468457
O O10 0.797050 0.915793 0.760475
O O11 0.500000 0.500000 0.500000
O O12 0.693019 0.824266 0.484341
O O13 0.782048 0.603856 0.147752
O O14 0.651290 0.872102 0.368071
O O15 0.537249 0.473362 0.639985
O O16 0.702714 0.882809 0.687920
O O17 0.000000 0.000000 0.000000
O O18 0.500000 0.000000 0.500000
#
# Coordination Sequence:
#
# PCOD9023812 Si02
#       8
#     2   2   2   2   2   2   2   2
#     4  11  23  42  65  90 129 170 207 262 322 379
#     4  11  20  34  63  90 127 158 205 264 322 373
#     4  10  22  40  61  95 127 166 206 261 320 373
#     4   9  20  40  59  83 124 166 204 255 326 379
#     4  10  22  40  62  89 122 169 209 256 314 381
#     4  10  22  43  63  90 128 167 217 253 309 385
#     4  11  22  34  58  98 125 159 214 267 323 383
#     4  10  24  42  62  93 126 159 212 266 323 379
#
# _framework density 20.540398
#
# number of rings (size 3 to 8) (size 9 to 14) (size 15 to 20)
#    0.000    1.750    2.500    1.125    7.000    0.500 
#    4.500    0.625    0.000    0.000    0.000    0.000 
#    0.000    0.000    0.000    0.000    0.000    0.000 
#
# Total GULP energy -89095.292562 kJ/mol
# GULP energy per Si atom -5568.455785 kJ/mol
# Density = 2.049365 g / cm^3
# Si number density = 20.540398 Si / 1000 Ang^3
#
#
#
# Elastic Constant Matrix: (Units=GPa)
#
#
# Indices 1 2 3 4 5 6 
#
# 1 136.8294 13.7736 25.9606 -2.7370 8.4764 2.1631
# 2 13.7736 29.6319 12.0563 0.7712 -0.3166 -1.5184
# 3 25.9606 12.0563 52.2252 7.7873 -3.1472 -3.8399
# 4 -2.7370 0.7712 7.7873 27.6019 -1.8025 0.6793
# 5 8.4764 -0.3166 -3.1472 -1.8025 30.8070 3.2502
# 6 2.1631 -1.5184 -3.8399 0.6793 3.2502 24.3825
#
#
#
# Elastic Compliance Matrix: (Units=1/GPa)
#
#
# Indices 1 2 3 4 5 6 
#
# 1 0.008576 -0.002401 -0.004254 0.001982 -0.002567 -0.001293
# 2 -0.002401 0.038002 -0.007592 0.000821 0.000182 0.001337
# 3 -0.004254 -0.007592 0.024496 -0.007026 0.002806 0.003584
# 4 0.001982 0.000821 -0.007026 0.038528 0.001261 -0.002473
# 5 -0.002567 0.000182 0.002806 0.001261 0.033938 -0.003878
# 6 -0.001293 0.001337 0.003584 -0.002473 -0.003878 0.042361
#
#
# Mechanical properties :
#
#
# Convention : Reuss Voigt Hill
#
# Bulk Modulus (GPa) = 23.48617 35.80749 29.64683
# Shear Modulus (GPa) = 21.87336 27.68468 24.77902
#
# Velocity S-wave (km/s) = 3.26681 3.67524 3.47703
# Velocity P-wave (km/s) = 5.06837 5.95655 5.53032
#
# Compressibility (1/GPa) = 0.04257825
#
# Stress axis : x y z
#
# Youngs Moduli (GPa) = 116.60055 26.31471 40.82377
#
# Poissons Ratio (x) = 0.06318 0.17367
# Poissons Ratio (y) = 0.27994 0.30995
# Poissons Ratio (z) = 0.49605 0.19979
#
# Static dielectric constant tensor:
#      x y z
#    x 1.801450 -0.024820 -0.057430 
#    y -0.024820 1.777600 0.003540 
#    z -0.057430 0.003540 2.044000 
# 
# From -- ./inp_files/422840.got.cif
#   From: 2010.05.17/outbox.cif.g08.bks.cpg/sg2_212_cif.got.tgz:422840.got - 2010.06.03 11:33:40.
