data_PCOD9023692
_publ_section_title
;
Structure prediction by ZEFSAII (Michael W. Deem and Ramdas Pophale) SiO2 
 PCOD9023692
Probable space group: P -1
;
_chemical_formula_sum "Si O2"
_cell_formula_units_Z 16
_cell_length_a 7.786418
_cell_length_b 5.375952
_cell_length_c 19.317131
_cell_angle_alpha 98.483300
_cell_angle_beta 95.678488
_cell_angle_gamma 119.499763
_cell_volume 682.106176
_symmetry_space_group_name_H-M "P -1"
_symmetry_group_IT_number 2
_symmetry_cell_setting 'triclinic'
loop_
_space_group_symop_operation_xyz
x,y,z
-x,-y,-z
loop_
_atom_site_type_symbol
_atom_site_label
_atom_site_fract_x
_atom_site_fract_y
_atom_site_fract_z
Si Si1 0.788270 0.258155 0.341056
Si Si2 0.277645 0.077784 0.922124
Si Si3 0.495640 0.018833 0.190585
Si Si4 0.157932 0.393425 0.154446
Si Si5 0.379673 0.943359 0.380900
Si Si6 0.173171 0.259609 0.306637
Si Si7 0.447337 0.318118 0.072555
Si Si8 0.054698 0.770787 0.462044
O O1 0.644694 0.180948 0.265949
O O2 0.951663 0.161755 0.326041
O O3 0.919781 0.597763 0.382178
O O4 0.619517 0.103434 0.387583
O O5 0.342627 0.421898 0.940478
O O6 0.405272 0.114775 0.860224
O O7 0.348956 0.060652 0.001050
O O8 0.071900 0.790282 0.884308
O O9 0.492321 0.241962 0.146373
O O10 0.276400 0.742252 0.188505
O O11 0.165728 0.248918 0.222175
O O12 0.264386 0.360406 0.089527
O O13 0.299198 0.606187 0.343882
O O14 0.283659 0.932998 0.451190
O O15 0.284417 0.099349 0.336383
O O16 0.000000 0.500000 0.500000
O O17 0.000000 0.000000 0.500000
#
# Coordination Sequence:
#
# PCOD9023692 Si02
#       8
#     2   2   2   2   2   2   2   2
#     4  11  24  45  74 103 143 190 235 297 367 417
#     4  10  22  40  60  91 135 183 229 298 360 427
#     4  11  22  41  63 100 127 178 237 295 357 430
#     4  11  22  38  63  92 139 173 244 296 364 413
#     4  11  25  45  75 106 144 184 237 288 354 429
#     4  11  24  43  68 109 144 183 242 301 349 425
#     4  10  23  39  61  92 134 183 240 289 362 439
#     4  11  26  49  72 110 148 185 237 288 355 444
#
# _framework density 23.456759999999999
#
# number of rings (size 3 to 8) (size 9 to 14) (size 15 to 20)
#    0.000    1.250    2.500    3.000    0.000    7.500 
#    4.500    0.000    0.000    0.000    0.000    0.000 
#    0.000    0.000    0.000    0.000    0.000    0.000 
#
# Total GULP energy -89124.070262 kJ/mol
# GULP energy per Si atom -5570.254391 kJ/mol
# Density = 2.340337 g / cm^3
# Si number density = 23.456760 Si / 1000 Ang^3
#
#
#
# Elastic Constant Matrix: (Units=GPa)
#
#
# Indices 1 2 3 4 5 6 
#
# 1 102.6493 55.5662 19.7437 -2.5176 -28.6226 23.7501
# 2 55.5662 114.4758 36.5260 -7.4844 21.7211 3.6828
# 3 19.7437 36.5260 127.4304 1.1009 -1.0979 -5.7461
# 4 -2.5176 -7.4844 1.1009 38.9466 7.6974 -0.4209
# 5 -28.6226 21.7211 -1.0979 7.6974 59.2956 -5.9168
# 6 23.7501 3.6828 -5.7461 -0.4209 -5.9168 47.6556
#
#
#
# Elastic Compliance Matrix: (Units=1/GPa)
#
#
# Indices 1 2 3 4 5 6 
#
# 1 0.024971 -0.015600 0.000388 -0.004954 0.017514 -0.009061
# 2 -0.015600 0.020667 -0.003520 0.006184 -0.015583 0.003873
# 3 0.000388 -0.003520 0.008886 -0.001272 0.001944 0.001380
# 4 -0.004954 0.006184 -0.001272 0.028220 -0.008238 0.001064
# 5 0.017514 -0.015583 0.001944 -0.008238 0.031792 -0.003416
# 6 -0.009061 0.003873 0.001380 0.001064 -0.003416 0.024952
#
#
# Mechanical properties :
#
#
# Convention : Reuss Voigt Hill
#
# Bulk Modulus (GPa) = 58.61788 63.13639 60.87713
# Shear Modulus (GPa) = 27.37638 44.69421 36.03530
#
# Velocity S-wave (km/s) = 3.41999 4.36981 3.92375
# Velocity P-wave (km/s) = 6.37488 7.24119 6.82180
#
# Compressibility (1/GPa) = 0.01705964
#
# Stress axis : x y z
#
# Youngs Moduli (GPa) = 40.04699 48.38572 112.53304
#
# Poissons Ratio (x) = 0.75482 -0.04363
# Poissons Ratio (y) = 0.62473 0.39611
# Poissons Ratio (z) = -0.01553 0.17032
#
# Static dielectric constant tensor:
#      x y z
#    x 2.029850 -0.014100 -0.050540 
#    y -0.014100 2.096540 -0.015800 
#    z -0.050540 -0.015800 1.957150 
# 
# From -- ./inp_files/585735.got.cif
#   From: 2010.05.17/outbox.cif.g08.bks.cpg/sg2_293_cif.got.tgz:585735.got - 2010.06.03 11:33:40.
