data_PCOD9023127
_publ_section_title
;
Structure prediction by ZEFSAII (Michael W. Deem and Ramdas Pophale) SiO2 
 PCOD9023127
Probable space group: P -1
;
_chemical_formula_sum "Si O2"
_cell_formula_units_Z 14
_cell_length_a 6.572164
_cell_length_b 17.761560
_cell_length_c 10.694004
_cell_angle_alpha 51.515260
_cell_angle_beta 98.746955
_cell_angle_gamma 131.043240
_cell_volume 663.765077
_symmetry_space_group_name_H-M "P -1"
_symmetry_group_IT_number 2
_symmetry_cell_setting 'triclinic'
loop_
_space_group_symop_operation_xyz
x,y,z
-x,-y,-z
loop_
_atom_site_type_symbol
_atom_site_label
_atom_site_fract_x
_atom_site_fract_y
_atom_site_fract_z
Si Si1 0.912927 0.831169 0.253765
Si Si2 0.941865 0.427030 0.751275
Si Si3 0.679181 0.857383 0.957101
Si Si4 0.791570 0.569830 0.870764
Si Si5 0.445151 0.720473 0.832799
Si Si6 0.845701 0.593819 0.462617
Si Si7 0.414174 0.316225 0.377155
O O1 0.996550 0.747490 0.342757
O O2 0.665594 0.756462 0.419957
O O3 0.797273 0.825881 0.111057
O O4 0.177355 0.992204 0.151603
O O5 0.859205 0.511581 0.646592
O O6 0.012993 0.406565 0.644845
O O7 0.248515 0.529657 0.747818
O O8 0.677178 0.271315 0.934976
O O9 0.705065 0.840180 0.830601
O O10 0.789768 0.658497 0.683155
O O11 0.138925 0.679268 0.833860
O O12 0.500000 0.500000 0.000000
O O13 0.688641 0.426630 0.977159
O O14 0.587020 0.750974 0.676389
O O15 0.500000 0.500000 0.500000
#
# Coordination Sequence:
#
# PCOD9023127 Si02
#       7
#     2   2   2   2   2   2   2
#     4  11  25  42  67  95 137 172 215 268 332 382
#     4  11  22  37  71  98 124 166 229 261 326 385
#     4  11  24  44  62  99 136 173 211 269 330 394
#     4   9  19  38  65  99 127 165 219 270 320 378
#     4  10  22  39  66  93 134 169 213 271 322 385
#     4  11  21  40  66  97 127 172 217 275 316 382
#     4  11  23  40  69 100 125 170 224 267 317 391
#
# _framework density 21.091801
#
# number of rings (size 3 to 8) (size 9 to 14) (size 15 to 20)
#    0.000    1.429    2.857    3.429    6.000    1.143 
#    0.000    0.714    0.000    0.000    0.000    0.000 
#    0.000    0.000    0.000    0.000    0.000    0.000 
#
# Total GULP energy -78005.892930 kJ/mol
# GULP energy per Si atom -5571.849495 kJ/mol
# Density = 2.104380 g / cm^3
# Si number density = 21.091801 Si / 1000 Ang^3
#
#
#
# Elastic Constant Matrix: (Units=GPa)
#
#
# Indices 1 2 3 4 5 6 
#
# 1 108.3945 49.0372 42.3357 3.5893 17.8814 2.3976
# 2 49.0372 152.2167 42.6127 -1.1360 17.5777 -7.0425
# 3 42.3357 42.6127 68.8822 -2.2501 11.5081 -8.0821
# 4 3.5893 -1.1360 -2.2501 38.1749 -4.1363 -1.4601
# 5 17.8814 17.5777 11.5081 -4.1363 24.7097 8.2988
# 6 2.3976 -7.0425 -8.0821 -1.4601 8.2988 31.5440
#
#
#
# Elastic Compliance Matrix: (Units=1/GPa)
#
#
# Indices 1 2 3 4 5 6 
#
# 1 0.013708 -0.002092 -0.006586 -0.002367 -0.005101 -0.001964
# 2 -0.002092 0.008696 -0.003153 -0.000075 -0.004003 0.002342
# 3 -0.006586 -0.003153 0.022306 0.001515 -0.005485 0.007025
# 4 -0.002367 -0.000075 0.001515 0.027112 0.005476 0.000366
# 5 -0.005101 -0.004003 -0.005485 0.005476 0.055984 -0.016387
# 6 -0.001964 0.002342 0.007025 0.000366 -0.016387 0.038502
#
#
# Mechanical properties :
#
#
# Convention : Reuss Voigt Hill
#
# Bulk Modulus (GPa) = 47.51031 66.38497 56.94764
# Shear Modulus (GPa) = 25.38248 31.91957 28.65103
#
# Velocity S-wave (km/s) = 3.47281 3.89442 3.68964
# Velocity P-wave (km/s) = 6.21731 7.19476 6.72382
#
# Compressibility (1/GPa) = 0.02104806
#
# Stress axis : x y z
#
# Youngs Moduli (GPa) = 72.95256 114.99306 44.83017
#
# Poissons Ratio (x) = 0.24052 0.29527
# Poissons Ratio (y) = 0.15259 0.14135
# Poissons Ratio (z) = 0.48050 0.36257
#
# Static dielectric constant tensor:
#      x y z
#    x 1.797560 -0.046380 -0.019230 
#    y -0.046380 1.846050 0.121380 
#    z -0.019230 0.121380 1.847130 
# 
# From -- ./inp_files/368921.got.cif
#   From: 2010.05.17/outbox.cif.g08.bks.cpg/sg2_185_cif.got.tgz:368921.got - 2010.06.03 11:33:40.
