data_PCOD9023847
_publ_section_title
;
Structure prediction by ZEFSAII (Michael W. Deem and Ramdas Pophale) SiO2 
 PCOD9023847
Probable space group: P -1
;
_chemical_formula_sum "Si O2"
_cell_formula_units_Z 16
_cell_length_a 10.556071
_cell_length_b 14.062357
_cell_length_c 12.624716
_cell_angle_alpha 130.951125
_cell_angle_beta 35.165171
_cell_angle_gamma 121.693114
_cell_volume 814.953145
_symmetry_space_group_name_H-M "P -1"
_symmetry_group_IT_number 2
_symmetry_cell_setting 'triclinic'
loop_
_space_group_symop_operation_xyz
x,y,z
-x,-y,-z
loop_
_atom_site_type_symbol
_atom_site_label
_atom_site_fract_x
_atom_site_fract_y
_atom_site_fract_z
Si Si1 0.369900 0.936031 0.288977
Si Si2 0.181471 0.670995 0.525684
Si Si3 0.007655 0.750612 0.384235
Si Si4 0.151800 0.112489 0.016793
Si Si5 0.247450 0.018228 0.205043
Si Si6 0.321470 0.287506 0.843744
Si Si7 0.891796 0.837229 0.288435
Si Si8 0.950500 0.496627 0.707083
O O1 0.250801 0.802257 0.288846
O O2 0.239011 0.980006 0.306108
O O3 0.300665 0.052613 0.497319
O O4 0.631460 0.926337 0.092092
O O5 0.428607 0.713615 0.368154
O O6 0.139346 0.587261 0.599000
O O7 0.007130 0.786729 0.741899
O O8 0.124502 0.584116 0.401413
O O9 0.848250 0.841006 0.629975
O O10 0.944578 0.775476 0.322269
O O11 0.982132 0.606670 0.327556
O O12 0.265259 0.177885 0.885367
O O13 0.000000 0.000000 0.000000
O O14 0.101551 0.918577 0.171615
O O15 0.500000 0.000000 0.000000
O O16 0.169676 0.265492 0.829526
O O17 0.245486 0.415270 0.048323
#
# Coordination Sequence:
#
# PCOD9023847 Si02
#       8
#     2   2   2   2   2   2   2   2
#     4   9  19  36  57  85 118 147 191 238 293 353
#     4  10  23  41  60  87 119 154 201 248 284 342
#     4   9  19  38  60  85 112 154 199 237 288 355
#     4  11  24  36  60  95 118 152 195 236 301 360
#     4   9  19  34  58  89 114 146 188 241 295 345
#     4  11  23  41  59  82 125 160 187 248 296 335
#     4   9  20  38  58  84 121 153 187 240 303 350
#     4  10  22  40  62  83 115 155 213 236 282 346
#
# _framework density 19.633030999999999
#
# number of rings (size 3 to 8) (size 9 to 14) (size 15 to 20)
#    0.000    2.250    0.000    3.375    3.500    5.500 
#    4.500    0.625    0.000    0.000    0.000    0.000 
#    0.000    0.000    0.000    0.000    0.000    0.000 
#
# Total GULP energy -89169.784766 kJ/mol
# GULP energy per Si atom -5573.111548 kJ/mol
# Density = 1.958835 g / cm^3
# Si number density = 19.633031 Si / 1000 Ang^3
#
#
#
# Elastic Constant Matrix: (Units=GPa)
#
#
# Indices 1 2 3 4 5 6 
#
# 1 66.4424 25.8121 30.9707 0.8217 -4.9615 9.6266
# 2 25.8121 90.6765 62.2452 -2.3108 -17.7899 -0.1075
# 3 30.9707 62.2452 122.3245 -17.7401 -17.2150 19.7979
# 4 0.8217 -2.3108 -17.7401 30.7216 6.8542 -2.2597
# 5 -4.9615 -17.7899 -17.2150 6.8542 29.3847 -0.4221
# 6 9.6266 -0.1075 19.7979 -2.2597 -0.4221 34.3156
#
#
#
# Elastic Compliance Matrix: (Units=1/GPa)
#
#
# Indices 1 2 3 4 5 6 
#
# 1 0.018185 -0.003466 -0.002596 -0.002521 -0.000015 -0.003781
# 2 -0.003466 0.020405 -0.010399 -0.005452 0.007044 0.006764
# 3 -0.002596 -0.010399 0.016830 0.008136 0.001106 -0.008464
# 4 -0.002521 -0.005452 0.008136 0.038571 -0.007979 -0.001562
# 5 -0.000015 0.007044 0.001106 -0.007979 0.040794 -0.000635
# 6 -0.003781 0.006764 -0.008464 -0.001562 -0.000635 0.034996
#
#
# Mechanical properties :
#
#
# Convention : Reuss Voigt Hill
#
# Bulk Modulus (GPa) = 44.45256 57.49993 50.97625
# Shear Modulus (GPa) = 23.78661 29.57875 26.68268
#
# Velocity S-wave (km/s) = 3.48452 3.88568 3.69056
# Velocity P-wave (km/s) = 6.23539 7.03436 6.64689
#
# Compressibility (1/GPa) = 0.02249589
#
# Stress axis : x y z
#
# Youngs Moduli (GPa) = 54.98983 49.00834 59.41903
#
# Poissons Ratio (x) = 0.16986 0.15427
# Poissons Ratio (y) = 0.19060 0.61792
# Poissons Ratio (z) = 0.14277 0.50966
#
# Static dielectric constant tensor:
#      x y z
#    x 1.777200 -0.086440 0.064610 
#    y -0.086440 1.765020 -0.040970 
#    z 0.064610 -0.040970 1.715930 
# 
# From -- ./inp_files/522480.got.cif
#   From: 2010.05.17/outbox.cif.g08.bks.cpg/sg2_262_cif.got.tgz:522480.got - 2010.06.03 11:33:40.
