data_PCOD9023288
_publ_section_title
;
Structure prediction by ZEFSAII (Michael W. Deem and Ramdas Pophale) SiO2 
 PCOD9023288
Probable space group: P -1
;
_chemical_formula_sum "Si O2"
_cell_formula_units_Z 16
_cell_length_a 25.142431
_cell_length_b 19.275487
_cell_length_c 5.105565
_cell_angle_alpha 59.137393
_cell_angle_beta 68.608339
_cell_angle_gamma 18.779396
_cell_volume 614.806994
_symmetry_space_group_name_H-M "P -1"
_symmetry_group_IT_number 2
_symmetry_cell_setting 'triclinic'
loop_
_space_group_symop_operation_xyz
x,y,z
-x,-y,-z
loop_
_atom_site_type_symbol
_atom_site_label
_atom_site_fract_x
_atom_site_fract_y
_atom_site_fract_z
Si Si1 0.187039 0.959614 0.612567
Si Si2 0.742964 0.539196 0.762379
Si Si3 0.918946 0.021474 0.670359
Si Si4 0.267504 0.979099 0.827561
Si Si5 0.467043 0.234420 0.786057
Si Si6 0.454640 0.431058 0.495883
Si Si7 0.077975 0.566552 0.067810
Si Si8 0.196204 0.241454 0.510407
O O1 0.146767 0.933904 0.565784
O O2 0.226938 0.946486 0.846745
O O3 0.383985 0.726602 0.583413
O O4 0.993468 0.269088 0.316496
O O5 0.595984 0.729312 0.426991
O O6 0.798235 0.556419 0.698631
O O7 0.671767 0.597249 0.051377
O O8 0.925216 0.241252 0.958368
O O9 0.744133 0.264373 0.705933
O O10 0.000000 0.000000 0.500000
O O11 0.233002 0.114305 0.503329
O O12 0.474191 0.694680 0.105413
O O13 0.121481 0.183962 0.929326
O O14 0.453476 0.347292 0.512962
O O15 0.656156 0.959685 0.129361
O O16 0.181471 0.349244 0.195019
O O17 0.000000 0.500000 0.500000
#
# Coordination Sequence:
#
# PCOD9023288 Si02
#       8
#     2   2   2   2   2   2   2   2
#     4  10  22  39  67  96 134 178 227 291 340 399
#     4  11  26  45  68  99 142 185 224 282 349 409
#     4  11  23  44  65  97 137 182 233 280 344 415
#     4   9  20  39  65  96 134 171 229 287 340 393
#     4  11  25  45  70  98 142 179 227 284 344 405
#     4  10  22  41  63  96 133 179 232 283 340 403
#     4   9  21  40  64  96 137 177 228 275 341 411
#     4   9  20  44  66 100 130 175 229 280 342 407
#
# _framework density 26.024429999999999
#
# number of rings (size 3 to 8) (size 9 to 14) (size 15 to 20)
#    0.000    2.000    1.250    1.125    7.000    2.500 
#    6.750    0.000    0.000    0.000    0.000    0.000 
#    0.000    0.000    0.000    0.000    0.000    0.000 
#
# Total GULP energy -89306.028128 kJ/mol
# GULP energy per Si atom -5581.626758 kJ/mol
# Density = 2.596520 g / cm^3
# Si number density = 26.024430 Si / 1000 Ang^3
#
#
#
# Elastic Constant Matrix: (Units=GPa)
#
#
# Indices 1 2 3 4 5 6 
#
# 1 52.4806 27.1735 3.1453 -10.6191 -20.3701 -23.8187
# 2 27.1735 94.3641 32.4130 -27.0676 -2.4281 3.5489
# 3 3.1453 32.4130 52.3845 -5.1348 4.0256 -0.2211
# 4 -10.6191 -27.0676 -5.1348 36.6415 10.4293 8.4929
# 5 -20.3701 -2.4281 4.0256 10.4293 33.2658 -17.8208
# 6 -23.8187 3.5489 -0.2211 8.4929 -17.8208 27.7966
#
#
#
# Elastic Compliance Matrix: (Units=1/GPa)
#
#
# Indices 1 2 3 4 5 6 
#
# 1 -0.009387 0.009699 -0.001187 0.021075 -0.030357 -0.035192
# 2 0.009699 0.010597 -0.008314 0.000565 0.016968 0.017597
# 3 -0.001187 -0.008314 0.024703 -0.000507 -0.006020 -0.003464
# 4 0.021075 0.000565 -0.000507 0.023828 0.017167 0.021709
# 5 -0.030357 0.016968 -0.006020 0.017167 -0.015040 -0.043114
# 6 -0.035192 0.017597 -0.003464 0.021709 -0.043114 -0.030729
#
#
# Mechanical properties :
#
#
# Convention : Reuss Voigt Hill
#
# Bulk Modulus (GPa) = 38.00979 36.07699 37.04339
# Shear Modulus (GPa) = 404.96454 28.64059 216.80256
#
# Velocity S-wave (km/s) = 12.48788 3.32102 9.13719
# Velocity P-wave (km/s) = 14.91867 5.34775 11.20636
#
# Compressibility (1/GPa) = 0.02630901
#
# Stress axis : x y z
#
# Youngs Moduli (GPa) = -106.53392 94.36642 40.48061
#
# Poissons Ratio (x) = -0.91522 0.04806
# Poissons Ratio (y) = 1.03322 0.33654
# Poissons Ratio (z) = -0.12648 0.78452
#
# Static dielectric constant tensor:
#      x y z
#    x 2.267320 -0.089400 -0.180650 
#    y -0.089400 2.086610 0.149350 
#    z -0.180650 0.149350 2.257520 
# 
# From -- ./inp_files/109504.got.cif
#   From: 2010.05.17/outbox.cif.g08.bks.cpg/sg2_55_cif.got.tgz:109504.got - 2010.06.03 11:33:40.
