data_PCOD9023934
_publ_section_title
;
Structure prediction by ZEFSAII (Michael W. Deem and Ramdas Pophale) SiO2 
 PCOD9023934
Probable space group: P -1
;
_chemical_formula_sum "Si O2"
_cell_formula_units_Z 14
_cell_length_a 19.218574
_cell_length_b 8.999888
_cell_length_c 5.271704
_cell_angle_alpha 93.934979
_cell_angle_beta 120.636396
_cell_angle_gamma 111.175470
_cell_volume 694.339489
_symmetry_space_group_name_H-M "P -1"
_symmetry_group_IT_number 2
_symmetry_cell_setting 'triclinic'
loop_
_space_group_symop_operation_xyz
x,y,z
-x,-y,-z
loop_
_atom_site_type_symbol
_atom_site_label
_atom_site_fract_x
_atom_site_fract_y
_atom_site_fract_z
Si Si1 0.272788 0.085517 0.303542
Si Si2 0.980624 0.734081 0.464918
Si Si3 0.457508 0.888200 0.160357
Si Si4 0.268241 0.878163 0.760176
Si Si5 0.916991 0.921016 0.036517
Si Si6 0.528837 0.614767 0.316321
Si Si7 0.918858 0.438638 0.639328
O O1 0.362973 0.260329 0.451248
O O2 0.290684 0.998724 0.572721
O O3 0.184169 0.109388 0.215642
O O4 0.256976 0.971316 0.005206
O O5 0.919238 0.758108 0.139279
O O6 0.918113 0.604384 0.545755
O O7 0.046523 0.656130 0.504799
O O8 0.048133 0.923184 0.687013
O O9 0.480667 0.734422 0.210957
O O10 0.500000 0.000000 0.500000
O O11 0.350947 0.836247 0.957159
O O12 0.500000 0.000000 0.000000
O O13 0.179359 0.708079 0.492892
O O14 0.000000 0.000000 0.000000
O O15 0.500000 0.500000 0.500000
O O16 0.500000 0.500000 0.000000
O O17 0.000000 0.500000 0.000000
#
# Coordination Sequence:
#
# PCOD9023934 Si02
#       7
#     2   2   2   2   2   2   2
#     4  12  25  45  73 100 139 188 240 287 360 437
#     4  10  22  40  62  91 136 172 231 281 349 401
#     4  12  23  47  75 102 139 185 242 294 348 441
#     4  12  24  44  74 102 133 192 243 286 352 428
#     4  11  23  42  66  96 135 188 229 283 350 428
#     4  12  26  47  72 107 147 179 230 311 369 415
#     4  11  23  41  64  96 139 177 231 298 341 403
#
# _framework density 20.163049999999998
#
# number of rings (size 3 to 8) (size 9 to 14) (size 15 to 20)
#    0.000    0.571    4.286    4.286    4.000    1.143 
#    5.143    0.000    0.000    0.000    0.000    0.000 
#    0.000    0.000    0.000    0.000    0.000    0.000 
#
# Total GULP energy -78109.027992 kJ/mol
# GULP energy per Si atom -5579.216285 kJ/mol
# Density = 2.011716 g / cm^3
# Si number density = 20.163050 Si / 1000 Ang^3
#
#
#
# Elastic Constant Matrix: (Units=GPa)
#
#
# Indices 1 2 3 4 5 6 
#
# 1 110.8733 55.8406 53.9640 -6.8873 24.7348 2.9614
# 2 55.8406 162.3013 60.4732 -20.3249 8.0078 5.9770
# 3 53.9640 60.4732 120.3002 1.3201 7.8588 12.9238
# 4 -6.8873 -20.3249 1.3201 40.0173 7.7032 5.3808
# 5 24.7348 8.0078 7.8588 7.7032 51.1952 -1.0860
# 6 2.9614 5.9770 12.9238 5.3808 -1.0860 36.5443
#
#
#
# Elastic Compliance Matrix: (Units=1/GPa)
#
#
# Indices 1 2 3 4 5 6 
#
# 1 0.014062 -0.002489 -0.004733 0.002419 -0.006033 0.000406
# 2 -0.002489 0.008819 -0.003263 0.004323 -0.000342 -0.000733
# 3 -0.004733 -0.003263 0.012348 -0.002714 0.001246 -0.003013
# 4 0.002419 0.004323 -0.002714 0.029435 -0.005952 -0.004454
# 5 -0.006033 -0.000342 0.001246 -0.005952 0.023241 0.001671
# 6 0.000406 -0.000733 -0.003013 -0.004454 0.001671 0.029222
#
#
# Mechanical properties :
#
#
# Convention : Reuss Voigt Hill
#
# Bulk Modulus (GPa) = 70.12959 81.55894 75.84427
# Shear Modulus (GPa) = 35.00206 40.43116 37.71661
#
# Velocity S-wave (km/s) = 4.17099 4.48282 4.32971
# Velocity P-wave (km/s) = 7.61925 8.20559 7.91785
#
# Compressibility (1/GPa) = 0.01425932
#
# Stress axis : x y z
#
# Youngs Moduli (GPa) = 71.11494 113.39581 80.98669
#
# Poissons Ratio (x) = 0.28224 0.38328
# Poissons Ratio (y) = 0.17701 0.26424
# Poissons Ratio (z) = 0.33656 0.36999
#
# Static dielectric constant tensor:
#      x y z
#    x 0.707880 1.233950 0.520510 
#    y 1.233950 0.388190 -0.635430 
#    z 0.520510 -0.635430 1.494460 
# 
# From -- ./inp_files/105490.got.cif
#   From: 2010.05.17/outbox.cif.g08.bks.cpg/sg2_53_cif.got.tgz:105490.got - 2010.06.03 11:33:40.
