data_PCOD9023206
_publ_section_title
;
Structure prediction by ZEFSAII (Michael W. Deem and Ramdas Pophale) SiO2 
 PCOD9023206
Probable space group: P -1
;
_chemical_formula_sum "Si O2"
_cell_formula_units_Z 16
_cell_length_a 14.217921
_cell_length_b 9.342472
_cell_length_c 8.783730
_cell_angle_alpha 78.978029
_cell_angle_beta 72.450952
_cell_angle_gamma 130.105156
_cell_volume 722.326566
_symmetry_space_group_name_H-M "P -1"
_symmetry_group_IT_number 2
_symmetry_cell_setting 'triclinic'
loop_
_space_group_symop_operation_xyz
x,y,z
-x,-y,-z
loop_
_atom_site_type_symbol
_atom_site_label
_atom_site_fract_x
_atom_site_fract_y
_atom_site_fract_z
Si Si1 0.787382 0.315453 0.464697
Si Si2 0.887058 0.082420 0.127127
Si Si3 0.367061 0.468996 0.069797
Si Si4 0.474215 0.049785 0.162783
Si Si5 0.167257 0.372388 0.417607
Si Si6 0.923794 0.507814 0.824196
Si Si7 0.061409 0.007090 0.188780
Si Si8 0.681782 0.092978 0.236128
O O1 0.782713 0.474030 0.496292
O O2 0.719764 0.209559 0.353678
O O3 0.957048 0.453284 0.334887
O O4 0.697863 0.120217 0.672871
O O5 0.721338 0.965211 0.254987
O O6 0.991598 0.315179 0.115412
O O7 0.937225 0.986172 0.197827
O O8 0.920332 0.092685 0.931622
O O9 0.296652 0.411198 0.284969
O O10 0.223388 0.258714 0.084391
O O11 0.500000 0.500000 0.000000
O O12 0.436458 0.699600 0.931452
O O13 0.529718 0.992567 0.271020
O O14 0.500000 0.000000 0.000000
O O15 0.140671 0.447269 0.270912
O O16 0.009394 0.131350 0.593682
O O17 0.795836 0.273338 0.012935
#
# Coordination Sequence:
#
# PCOD9023206 Si02
#       8
#     2   2   2   2   2   2   2   2
#     4  11  24  39  71 103 134 180 233 286 353 401
#     4  10  22  39  67 101 132 181 226 287 344 405
#     4  12  28  44  67  98 141 186 222 286 347 410
#     4  12  25  47  68  96 143 184 235 284 343 413
#     4  12  23  43  68 102 136 180 236 287 338 413
#     4  11  21  40  66 104 132 171 232 300 340 392
#     4  11  24  43  69  98 141 184 230 282 352 415
#     4  11  22  42  70 100 139 177 235 291 343 409
#
# _framework density 22.150645999999998
#
# number of rings (size 3 to 8) (size 9 to 14) (size 15 to 20)
#    0.000    0.750    3.750    4.125    3.500    2.000 
#    0.000    0.000    0.000    7.500    0.000    0.000 
#    0.000    0.000    0.000    0.000    0.000    0.000 
#
# Total GULP energy -89394.018031 kJ/mol
# GULP energy per Si atom -5587.126127 kJ/mol
# Density = 2.210023 g / cm^3
# Si number density = 22.150646 Si / 1000 Ang^3
#
#
#
# Elastic Constant Matrix: (Units=GPa)
#
#
# Indices 1 2 3 4 5 6 
#
# 1 113.7378 34.6731 29.6678 16.4503 -16.8332 -12.8247
# 2 34.6731 96.7591 43.5642 14.6320 -12.8809 -12.4054
# 3 29.6678 43.5642 130.3297 4.2240 -24.0310 0.7145
# 4 16.4503 14.6320 4.2240 46.8626 -4.2318 -6.0414
# 5 -16.8332 -12.8809 -24.0310 -4.2318 35.9965 6.8071
# 6 -12.8247 -12.4054 0.7145 -6.0414 6.8071 21.1691
#
#
#
# Elastic Compliance Matrix: (Units=1/GPa)
#
#
# Indices 1 2 3 4 5 6 
#
# 1 0.010925 -0.002167 -0.001251 -0.002315 0.002482 0.003932
# 2 -0.002167 0.014206 -0.004268 -0.002474 -0.000308 0.006549
# 3 -0.001251 -0.004268 0.010495 0.000677 0.005984 -0.005344
# 4 -0.002315 -0.002474 0.000677 0.023379 0.000548 0.003621
# 5 0.002482 -0.000308 0.005984 0.000548 0.034763 -0.009901
# 6 0.003932 0.006549 -0.005344 0.003621 -0.009901 0.057856
#
#
# Mechanical properties :
#
#
# Convention : Reuss Voigt Hill
#
# Bulk Modulus (GPa) = 49.37454 61.84856 55.61155
# Shear Modulus (GPa) = 28.77760 36.33373 32.55566
#
# Velocity S-wave (km/s) = 3.60832 4.05446 3.83788
# Velocity P-wave (km/s) = 6.30069 7.06403 6.69325
#
# Compressibility (1/GPa) = 0.02025335
#
# Stress axis : x y z
#
# Youngs Moduli (GPa) = 91.53639 70.39497 95.28324
#
# Poissons Ratio (x) = 0.15253 0.11924
# Poissons Ratio (y) = 0.19834 0.40664
# Poissons Ratio (z) = 0.11455 0.30043
#
# Static dielectric constant tensor:
#      x y z
#    x 1.875390 0.002010 -0.013260 
#    y 0.002010 1.838760 -0.015030 
#    z -0.013260 -0.015030 1.800450 
# 
# From -- ./inp_files/298220.got.cif
#   From: 2010.05.17/outbox.cif.g08.bks.cpg/sg2_150_cif.got.tgz:298220.got - 2010.06.03 11:33:40.
