data_PCOD9023907
_publ_section_title
;
Structure prediction by ZEFSAII (Michael W. Deem and Ramdas Pophale) SiO2 
 PCOD9023907
Probable space group: P -1
;
_chemical_formula_sum "Si O2"
_cell_formula_units_Z 14
_cell_length_a 9.674309
_cell_length_b 10.945955
_cell_length_c 12.178443
_cell_angle_alpha 33.659719
_cell_angle_beta 58.819647
_cell_angle_gamma 64.845267
_cell_volume 611.485894
_symmetry_space_group_name_H-M "P -1"
_symmetry_group_IT_number 2
_symmetry_cell_setting 'triclinic'
loop_
_space_group_symop_operation_xyz
x,y,z
-x,-y,-z
loop_
_atom_site_type_symbol
_atom_site_label
_atom_site_fract_x
_atom_site_fract_y
_atom_site_fract_z
Si Si1 0.131059 0.543526 0.321986
Si Si2 0.932557 0.751219 0.845563
Si Si3 0.475054 0.720862 0.772238
Si Si4 0.455069 0.364635 0.430349
Si Si5 0.838865 0.837369 0.569118
Si Si6 0.589595 0.799364 0.052645
Si Si7 0.653451 0.091190 0.112102
O O1 0.293213 0.450970 0.377333
O O2 0.097066 0.383999 0.352026
O O3 0.000000 0.500000 0.500000
O O4 0.182146 0.796600 0.084718
O O5 0.865653 0.803441 0.712465
O O6 0.780947 0.796314 0.955520
O O7 0.067634 0.940106 0.670879
O O8 0.000000 0.500000 0.000000
O O9 0.438287 0.690638 0.681304
O O10 0.648760 0.841218 0.619434
O O11 0.349790 0.848357 0.803556
O O12 0.500000 0.500000 0.000000
O O13 0.394855 0.164297 0.679502
O O14 0.543036 0.567258 0.301070
O O15 0.496661 0.800890 0.971952
O O16 0.500000 0.000000 0.000000
#
# Coordination Sequence:
#
# PCOD9023907 Si02
#       7
#     2   2   2   2   2   2   2
#     4  10  23  42  63  92 132 167 209 268 333 385
#     4  11  25  42  64  93 125 173 220 261 315 382
#     4  11  17  40  66  95 123 158 207 269 328 378
#     4  10  23  38  68  97 119 168 217 267 323 389
#     4  10  22  40  62  90 129 166 206 269 320 378
#     4  11  25  44  64  91 136 174 215 267 321 382
#     4  11  22  40  67  95 126 163 215 271 325 385
#
# _framework density 22.895050999999999
#
# number of rings (size 3 to 8) (size 9 to 14) (size 15 to 20)
#    0.000    1.429    5.714    0.429    6.000    3.429 
#    2.571    0.000    0.000    0.000    0.000    0.000 
#    0.000    0.000    0.000    0.000    0.000    0.000 
#
# Total GULP energy -78105.339512 kJ/mol
# GULP energy per Si atom -5578.952822 kJ/mol
# Density = 2.284294 g / cm^3
# Si number density = 22.895051 Si / 1000 Ang^3
#
#
#
# Elastic Constant Matrix: (Units=GPa)
#
#
# Indices 1 2 3 4 5 6 
#
# 1 36.9210 12.1588 28.1390 4.2157 -10.8272 -0.8433
# 2 12.1588 121.5812 70.5756 10.0711 -23.5301 -10.4506
# 3 28.1390 70.5756 240.7645 -15.2238 -28.4396 -9.4466
# 4 4.2157 10.0711 -15.2238 36.8612 -3.8717 1.3696
# 5 -10.8272 -23.5301 -28.4396 -3.8717 35.9029 2.0372
# 6 -0.8433 -10.4506 -9.4466 1.3696 2.0372 21.9466
#
#
#
# Elastic Compliance Matrix: (Units=1/GPa)
#
#
# Indices 1 2 3 4 5 6 
#
# 1 0.031996 0.000392 -0.003345 -0.004420 0.006801 -0.000379
# 2 0.000392 0.011487 -0.002965 -0.004072 0.004630 0.004033
# 3 -0.003345 -0.002965 0.005931 0.003844 0.002127 0.000575
# 4 -0.004420 -0.004072 0.003844 0.030694 0.002501 -0.002602
# 5 0.006801 0.004630 0.002127 0.002501 0.034894 -0.000014
# 6 -0.000379 0.004033 0.000575 -0.002602 -0.000014 0.047882
#
#
# Mechanical properties :
#
#
# Convention : Reuss Voigt Hill
#
# Bulk Modulus (GPa) = 26.61296 69.00150 47.80723
# Shear Modulus (GPa) = 26.70288 38.16836 32.43562
#
# Velocity S-wave (km/s) = 3.41884 4.08744 3.76800
# Velocity P-wave (km/s) = 5.21860 7.24430 6.31323
#
# Compressibility (1/GPa) = 0.03757567
#
# Stress axis : x y z
#
# Youngs Moduli (GPa) = 31.25411 87.05482 168.61785
#
# Poissons Ratio (x) = -0.03411 0.56408
# Poissons Ratio (y) = -0.01225 0.50001
# Poissons Ratio (z) = 0.10456 0.25815
#
# Static dielectric constant tensor:
#      x y z
#    x 1.842160 0.009050 0.027320 
#    y 0.009050 2.030420 0.001730 
#    z 0.027320 0.001730 2.029060 
# 
# From -- ./inp_files/517428.got.cif
#   From: 2010.05.17/outbox.cif.g08.bks.cpg/sg2_259_cif.got.tgz:517428.got - 2010.06.03 11:33:40.
