data_PCOD9023453
_publ_section_title
;
Structure prediction by ZEFSAII (Michael W. Deem and Ramdas Pophale) SiO2 
 PCOD9023453
Probable space group: P -1
;
_chemical_formula_sum "Si O2"
_cell_formula_units_Z 14
_cell_length_a 8.827750
_cell_length_b 9.568076
_cell_length_c 12.824889
_cell_angle_alpha 132.679085
_cell_angle_beta 68.748430
_cell_angle_gamma 131.048473
_cell_volume 593.861050
_symmetry_space_group_name_H-M "P -1"
_symmetry_group_IT_number 2
_symmetry_cell_setting 'triclinic'
loop_
_space_group_symop_operation_xyz
x,y,z
-x,-y,-z
loop_
_atom_site_type_symbol
_atom_site_label
_atom_site_fract_x
_atom_site_fract_y
_atom_site_fract_z
Si Si1 0.276505 0.344249 0.188999
Si Si2 0.491432 0.941226 0.216317
Si Si3 0.312508 0.254652 0.822808
Si Si4 0.792190 0.456697 0.493361
Si Si5 0.245995 0.938926 0.113742
Si Si6 0.893092 0.562542 0.900868
Si Si7 0.959544 0.930766 0.595685
O O1 0.482354 0.527369 0.168832
O O2 0.283414 0.472267 0.355814
O O3 0.101289 0.318293 0.148718
O O4 0.256307 0.114524 0.115431
O O5 0.631404 0.856250 0.157877
O O6 0.444067 0.976956 0.129762
O O7 0.271252 0.721758 0.207669
O O8 0.614400 0.191645 0.369998
O O9 0.200896 0.351792 0.951688
O O10 0.169970 0.060710 0.673356
O O11 0.845345 0.649200 0.489601
O O12 0.000000 0.500000 0.500000
O O13 0.158021 0.990960 0.265672
O O14 0.107608 0.679599 0.962027
O O15 0.000000 0.000000 0.500000
#
# Coordination Sequence:
#
# PCOD9023453 Si02
#       7
#     2   2   2   2   2   2   2
#     4  10  22  39  69  90 124 169 207 256 313 372
#     4  11  22  39  66  89 130 157 209 261 307 365
#     4  10  22  42  66  92 126 169 209 251 314 376
#     4  11  24  42  62  96 128 162 213 257 313 368
#     4  10  23  40  64  95 124 160 214 259 308 372
#     4  10  22  45  65  91 128 168 208 252 315 375
#     4  10  23  40  64  88 131 166 203 259 316 370
#
# _framework density 23.574538
#
# number of rings (size 3 to 8) (size 9 to 14) (size 15 to 20)
#    0.000    1.714    1.429    2.571    4.000    5.714 
#    2.571    2.857    0.000    0.000    0.000    0.000 
#    0.000    0.000    0.000    0.000    0.000    0.000 
#
# Total GULP energy -78267.748692 kJ/mol
# GULP energy per Si atom -5590.553478 kJ/mol
# Density = 2.352088 g / cm^3
# Si number density = 23.574538 Si / 1000 Ang^3
#
#
#
# Elastic Constant Matrix: (Units=GPa)
#
#
# Indices 1 2 3 4 5 6 
#
# 1 90.4898 32.1208 40.3537 12.6286 32.2701 -21.1051
# 2 32.1208 128.6885 70.0934 10.5184 9.5386 -29.6147
# 3 40.3537 70.0934 97.8144 23.9678 33.9794 1.3069
# 4 12.6286 10.5184 23.9678 39.5085 10.7209 6.1807
# 5 32.2701 9.5386 33.9794 10.7209 31.4088 -1.2736
# 6 -21.1051 -29.6147 1.3069 6.1807 -1.2736 34.9225
#
#
#
# Elastic Compliance Matrix: (Units=1/GPa)
#
#
# Indices 1 2 3 4 5 6 
#
# 1 0.022350 0.000859 -0.002890 -0.002796 -0.018569 0.014161
# 2 0.000859 0.026312 -0.026784 -0.000692 0.021342 0.024735
# 3 -0.002890 -0.026784 0.045059 -0.005083 -0.036987 -0.026595
# 4 -0.002796 -0.000692 -0.005083 0.031340 -0.002428 -0.007721
# 5 -0.018569 0.021342 -0.036987 -0.002428 0.085756 0.011818
# 6 0.014161 0.024735 -0.026595 -0.007721 0.011818 0.060962
#
#
# Mechanical properties :
#
#
# Convention : Reuss Voigt Hill
#
# Bulk Modulus (GPa) = 27.70816 66.90317 47.30566
# Shear Modulus (GPa) = 14.64396 32.79628 23.72012
#
# Velocity S-wave (km/s) = 2.49505 3.73389 3.17547
# Velocity P-wave (km/s) = 4.48099 6.85786 5.79265
#
# Compressibility (1/GPa) = 0.03609046
#
# Stress axis : x y z
#
# Youngs Moduli (GPa) = 44.74369 38.00551 22.19320
#
# Poissons Ratio (x) = -0.03266 0.06413
# Poissons Ratio (y) = -0.03845 0.59443
# Poissons Ratio (z) = 0.12930 1.01796
#
# Static dielectric constant tensor:
#      x y z
#    x 1.984040 0.040680 0.009540 
#    y 0.040680 1.955520 0.009830 
#    z 0.009540 0.009830 1.858600 
# 
# From -- ./inp_files/240921.got.cif
#   From: 2010.05.17/outbox.cif.g08.bks.cpg/sg2_121_cif.got.tgz:240921.got - 2010.06.03 11:33:40.
