data_PCOD9023628
_publ_section_title
;
Structure prediction by ZEFSAII (Michael W. Deem and Ramdas Pophale) SiO2 
 PCOD9023628
Probable space group: P -1
;
_chemical_formula_sum "Si O2"
_cell_formula_units_Z 16
_cell_length_a 5.332573
_cell_length_b 29.044508
_cell_length_c 8.848858
_cell_angle_alpha 41.003961
_cell_angle_beta 57.626220
_cell_angle_gamma 77.007539
_cell_volume 718.622342
_symmetry_space_group_name_H-M "P -1"
_symmetry_group_IT_number 2
_symmetry_cell_setting 'triclinic'
loop_
_space_group_symop_operation_xyz
x,y,z
-x,-y,-z
loop_
_atom_site_type_symbol
_atom_site_label
_atom_site_fract_x
_atom_site_fract_y
_atom_site_fract_z
Si Si1 0.312329 0.463356 0.802345
Si Si2 0.107156 0.471818 0.378068
Si Si3 0.105295 0.205137 0.268099
Si Si4 0.954468 0.839491 0.928404
Si Si5 0.544825 0.332327 0.970143
Si Si6 0.512286 0.077331 0.225889
Si Si7 0.503642 0.787152 0.459592
Si Si8 0.962170 0.915221 0.191761
O O1 0.500000 0.500000 0.500000
O O2 0.521322 0.504218 0.775405
O O3 0.995033 0.482870 0.833856
O O4 0.329024 0.381092 0.976613
O O5 0.000000 0.500000 0.500000
O O6 0.884779 0.386474 0.671111
O O7 0.984718 0.194994 0.162269
O O8 0.398640 0.277633 0.014833
O O9 0.133312 0.128875 0.511534
O O10 0.849916 0.215641 0.441231
O O11 0.800177 0.903120 0.767964
O O12 0.259524 0.865023 0.872514
O O13 0.684018 0.784393 0.254999
O O14 0.534781 0.278818 0.246697
O O15 0.500000 0.000000 0.500000
O O16 0.709654 0.082197 0.996351
O O17 0.700362 0.865779 0.281326
O O18 0.000000 0.000000 0.000000
#
# Coordination Sequence:
#
# PCOD9023628 Si02
#       8
#     2   2   2   2   2   2   2   2
#     4   8  15  27  47  81 115 146 185 237 275 331
#     4   8  15  27  47  81 115 146 185 237 275 331
#     4  11  23  37  61  83 114 158 192 246 289 349
#     4  11  25  43  57  84 122 146 193 240 296 349
#     4   9  19  31  54  85 115 151 198 233 285 348
#     4  11  23  42  62  85 113 150 188 247 299 352
#     4  10  23  39  56  86 115 154 193 244 291 351
#     4  10  22  40  59  85 114 148 201 244 292 351
#
# _framework density 22.264821999999999
#
# number of rings (size 3 to 8) (size 9 to 14) (size 15 to 20)
#    0.000    2.500    1.250    1.125   12.250    1.500 
#    0.000    0.000    0.000    0.000    0.000   15.750 
#    0.000    0.000    0.000    0.000    0.000    0.000 
#
# Total GULP energy -89135.682276 kJ/mol
# GULP energy per Si atom -5570.980142 kJ/mol
# Density = 2.221415 g / cm^3
# Si number density = 22.264822 Si / 1000 Ang^3
#
#
#
# Elastic Constant Matrix: (Units=GPa)
#
#
# Indices 1 2 3 4 5 6 
#
# 1 93.0752 11.0520 12.9861 -8.8053 19.3981 -4.8181
# 2 11.0520 39.8952 75.6868 3.6411 -14.5726 16.1036
# 3 12.9861 75.6868 14.7978 -33.8570 40.8994 -18.1756
# 4 -8.8053 3.6411 -33.8570 40.9261 2.4697 -3.3077
# 5 19.3981 -14.5726 40.8994 2.4697 10.5552 9.6586
# 6 -4.8181 16.1036 -18.1756 -3.3077 9.6586 19.4495
#
#
#
# Elastic Compliance Matrix: (Units=1/GPa)
#
#
# Indices 1 2 3 4 5 6 
#
# 1 0.012259 0.001706 -0.003903 -0.000348 -0.005613 0.000704
# 2 0.001706 0.009029 0.004496 0.004441 -0.013216 0.004466
# 3 -0.003903 0.004496 0.002394 -0.000685 0.012121 -0.008587
# 4 -0.000348 0.004441 -0.000685 0.022487 0.008599 -0.004849
# 5 -0.005613 -0.013216 0.012121 0.008599 0.031867 0.006516
# 6 0.000704 0.004466 -0.008587 -0.004849 0.006516 0.035806
#
#
# Mechanical properties :
#
#
# Convention : Reuss Voigt Hill
#
# Bulk Modulus (GPa) = 35.36138 38.57976 36.97057
# Shear Modulus (GPa) = 42.13273 17.38904 29.76088
#
# Velocity S-wave (km/s) = 4.35483 2.79769 3.66003
# Velocity P-wave (km/s) = 6.41893 5.27270 5.87384
#
# Compressibility (1/GPa) = 0.02827944
#
# Stress axis : x y z
#
# Youngs Moduli (GPa) = 81.57058 110.75443 417.67508
#
# Poissons Ratio (x) = -0.18898 1.63034
# Poissons Ratio (y) = -0.13919 -1.87766
# Poissons Ratio (z) = 0.31840 -0.49790
#
# Static dielectric constant tensor:
#      x y z
#    x 1.999310 -0.058230 0.063880 
#    y -0.058230 1.856100 -0.113490 
#    z 0.063880 -0.113490 1.918370 
# 
# From -- ./inp_files/140638.got.cif
#   From: 2010.05.17/outbox.cif.g08.bks.cpg/sg2_71_cif.got.tgz:140638.got - 2010.06.03 11:33:40.
