data_PCOD9023646
_publ_section_title
;
Structure prediction by ZEFSAII (Michael W. Deem and Ramdas Pophale) SiO2 
 PCOD9023646
Probable space group: P -1
;
_chemical_formula_sum "Si O2"
_cell_formula_units_Z 14
_cell_length_a 18.479594
_cell_length_b 5.402880
_cell_length_c 9.635528
_cell_angle_alpha 46.926244
_cell_angle_beta 57.962480
_cell_angle_gamma 78.085627
_cell_volume 576.546546
_symmetry_space_group_name_H-M "P -1"
_symmetry_group_IT_number 2
_symmetry_cell_setting 'triclinic'
loop_
_space_group_symop_operation_xyz
x,y,z
-x,-y,-z
loop_
_atom_site_type_symbol
_atom_site_label
_atom_site_fract_x
_atom_site_fract_y
_atom_site_fract_z
Si Si1 0.216051 0.687240 0.883639
Si Si2 0.580480 0.242201 0.409689
Si Si3 0.712925 0.521132 0.540430
Si Si4 0.473756 0.759502 0.250041
Si Si5 0.952436 0.289830 0.492965
Si Si6 0.189787 0.520602 0.292779
Si Si7 0.856403 0.287729 0.331575
O O1 0.316576 0.667830 0.763638
O O2 0.226041 0.102888 0.706336
O O3 0.149177 0.546992 0.877686
O O4 0.190824 0.564603 0.111341
O O5 0.553207 0.611400 0.282312
O O6 0.563463 0.077914 0.642841
O O7 0.500000 0.000000 0.500000
O O8 0.615193 0.523369 0.596354
O O9 0.720533 0.444614 0.724996
O O10 0.759565 0.267367 0.504387
O O11 0.500000 0.000000 0.000000
O O12 0.854535 0.197821 0.695699
O O13 0.000000 0.500000 0.500000
O O14 0.930180 0.465300 0.302585
O O15 0.000000 0.000000 0.500000
O O16 0.138407 0.115832 0.530667
#
# Coordination Sequence:
#
# PCOD9023646 Si02
#       7
#     2   2   2   2   2   2   2
#     4  11  23  42  65  96 137 174 232 284 339 416
#     4  11  24  41  58  89 129 176 226 293 335 384
#     4  10  22  40  59  92 134 174 225 288 338 405
#     4  11  25  39  59  89 128 180 235 283 347 398
#     4  11  22  46  76 103 144 177 221 284 345 419
#     4  10  24  40  71 100 127 186 221 275 350 416
#     4  10  22  43  68  97 136 174 223 272 348 401
#
# _framework density 24.282513999999999
#
# number of rings (size 3 to 8) (size 9 to 14) (size 15 to 20)
#    0.000    1.429    4.286    0.000    4.000    2.857 
#    0.000    1.429    0.000    0.000    0.000    0.000 
#    0.000    0.000    0.000    0.000    0.000    0.000 
#
# Total GULP energy -77980.356342 kJ/mol
# GULP energy per Si atom -5570.025453 kJ/mol
# Density = 2.422725 g / cm^3
# Si number density = 24.282514 Si / 1000 Ang^3
#
#
#
# Elastic Constant Matrix: (Units=GPa)
#
#
# Indices 1 2 3 4 5 6 
#
# 1 149.6761 46.2865 21.5911 23.2523 43.8190 0.7511
# 2 46.2865 108.3855 21.9601 25.1470 17.0676 -15.9370
# 3 21.5911 21.9601 100.9448 29.1706 45.5030 3.7203
# 4 23.2523 25.1470 29.1706 34.2834 14.4379 7.0640
# 5 43.8190 17.0676 45.5030 14.4379 39.9763 11.2905
# 6 0.7511 -15.9370 3.7203 7.0640 11.2905 51.3660
#
#
#
# Elastic Compliance Matrix: (Units=1/GPa)
#
#
# Indices 1 2 3 4 5 6 
#
# 1 0.014857 -0.001572 0.011911 -0.008573 -0.027684 0.005697
# 2 -0.001572 0.013475 0.002200 -0.010026 -0.004739 0.006465
# 3 0.011911 0.002200 0.034665 -0.020869 -0.049216 0.011686
# 4 -0.008573 -0.010026 -0.020869 0.053687 0.021904 -0.013671
# 5 -0.027684 -0.004739 -0.049216 0.021904 0.112631 -0.025270
# 6 0.005697 0.006465 0.011686 -0.013671 -0.025270 0.027979
#
#
# Mechanical properties :
#
#
# Convention : Reuss Voigt Hill
#
# Bulk Modulus (GPa) = 11.35385 59.85354 35.60369
# Shear Modulus (GPa) = 19.11506 43.06972 31.09239
#
# Velocity S-wave (km/s) = 2.80874 4.21609 3.58221
# Velocity P-wave (km/s) = 3.89931 6.95722 5.63948
#
# Compressibility (1/GPa) = 0.08807588
#
# Stress axis : x y z
#
# Youngs Moduli (GPa) = 67.30774 74.21217 28.84718
#
# Poissons Ratio (x) = 0.11665 -0.34360
# Poissons Ratio (y) = 0.10580 -0.06347
# Poissons Ratio (z) = -0.80170 -0.16327
#
# Static dielectric constant tensor:
#      x y z
#    x 2.068040 0.070640 -0.021200 
#    y 0.070640 2.186590 -0.042040 
#    z -0.021200 -0.042040 1.926490 
# 
# From -- ./inp_files/7564.got.cif
#   From: 2010.05.17/outbox.cif.g08.bks.cpg/sg2_4_cif.got.tgz:7564.got - 2010.06.03 11:33:40.
