data_PCOD9023215
_publ_section_title
;
Structure prediction by ZEFSAII (Michael W. Deem and Ramdas Pophale) SiO2 
 PCOD9023215
Probable space group: P -1
;
_chemical_formula_sum "Si O2"
_cell_formula_units_Z 12
_cell_length_a 9.263976
_cell_length_b 9.827601
_cell_length_c 15.138794
_cell_angle_alpha 140.183985
_cell_angle_beta 131.405148
_cell_angle_gamma 32.683152
_cell_volume 476.125327
_symmetry_space_group_name_H-M "P -1"
_symmetry_group_IT_number 2
_symmetry_cell_setting 'triclinic'
loop_
_space_group_symop_operation_xyz
x,y,z
-x,-y,-z
loop_
_atom_site_type_symbol
_atom_site_label
_atom_site_fract_x
_atom_site_fract_y
_atom_site_fract_z
Si Si1 0.014507 0.124366 0.328702
Si Si2 0.157594 0.080876 0.698210
Si Si3 0.220552 0.345045 0.610341
Si Si4 0.568255 0.379045 0.868673
Si Si5 0.494378 0.115805 0.960901
Si Si6 0.752621 0.624987 0.688024
O O1 0.246497 0.093471 0.452180
O O2 0.913141 0.043697 0.321657
O O3 0.799725 0.456696 0.372319
O O4 0.134493 0.907981 0.185549
O O5 0.444619 0.805752 0.633583
O O6 0.077844 0.686962 0.348986
O O7 0.228419 0.238266 0.862783
O O8 0.400828 0.296352 0.737359
O O9 0.925193 0.559383 0.642121
O O10 0.500000 0.500000 0.000000
O O11 0.494592 0.640729 0.910394
O O12 0.722925 0.841994 0.853780
O O13 0.500000 0.000000 0.000000
#
# Coordination Sequence:
#
# PCOD9023215 Si02
#       6
#     2   2   2   2   2   2
#     4  11  26  46  72 103 145 191 242 297 361 429
#     4  10  24  45  70 108 140 187 239 297 361 421
#     4  11  26  46  70 104 146 191 241 296 360 435
#     4  12  25  43  72 105 142 188 239 298 359 431
#     4  10  22  39  67 103 140 182 236 295 354 424
#     4  10  24  45  69 107 140 186 238 297 359 425
#
# _framework density 25.203448000000002
#
# number of rings (size 3 to 8) (size 9 to 14) (size 15 to 20)
#    1.000    0.333    0.000    4.500    4.667    9.333 
#    0.000    0.000    0.000    0.000    0.000    0.000 
#    0.000    0.000    0.000    0.000    0.000    0.000 
#
# Total GULP energy -67145.527192 kJ/mol
# GULP energy per Si atom -5595.460599 kJ/mol
# Density = 2.514608 g / cm^3
# Si number density = 25.203448 Si / 1000 Ang^3
#
#
#
# Elastic Constant Matrix: (Units=GPa)
#
#
# Indices 1 2 3 4 5 6 
#
# 1 74.9547 24.3288 38.6626 10.9080 9.0848 18.1857
# 2 24.3288 106.9409 15.2307 18.3104 4.8923 2.5547
# 3 38.6626 15.2307 124.5467 -1.2727 -11.2567 -3.2933
# 4 10.9080 18.3104 -1.2727 41.0041 -2.1130 3.9922
# 5 9.0848 4.8923 -11.2567 -2.1130 44.4052 -2.2076
# 6 18.1857 2.5547 -3.2933 3.9922 -2.2076 37.6434
#
#
#
# Elastic Compliance Matrix: (Units=1/GPa)
#
#
# Indices 1 2 3 4 5 6 
#
# 1 0.022285 -0.002684 -0.007556 -0.004231 -0.006937 -0.011203
# 2 -0.002684 0.010798 -0.000592 -0.004263 -0.000948 0.000909
# 3 -0.007556 -0.000592 0.011025 0.002406 0.004753 0.004679
# 4 -0.004231 -0.004263 0.002406 0.027679 0.003252 -0.000201
# 5 -0.006937 -0.000948 0.004753 0.003252 0.025651 0.004991
# 6 -0.011203 0.000909 0.004679 -0.000201 0.004991 0.032639
#
#
# Mechanical properties :
#
#
# Convention : Reuss Voigt Hill
#
# Bulk Modulus (GPa) = 44.55903 51.43185 47.99544
# Shear Modulus (GPa) = 31.40260 39.82523 35.61391
#
# Velocity S-wave (km/s) = 3.53365 3.97942 3.76314
# Velocity P-wave (km/s) = 5.86234 6.44712 6.16167
#
# Compressibility (1/GPa) = 0.02244214
#
# Stress axis : x y z
#
# Youngs Moduli (GPa) = 44.87388 92.61284 90.70274
#
# Poissons Ratio (x) = 0.24859 0.68535
# Poissons Ratio (y) = 0.12045 0.05374
# Poissons Ratio (z) = 0.33907 0.05487
#
# Static dielectric constant tensor:
#      x y z
#    x 1.974700 -0.092320 0.009340 
#    y -0.092320 2.039250 -0.023500 
#    z 0.009340 -0.023500 2.015490 
# 
# From -- ./inp_files/61145.got.cif
#   From: 2010.05.17/outbox.cif.g08.bks.cpg/sg2_31_cif.got.tgz:61145.got - 2010.06.03 11:33:40.
