data_PCOD9023498
_publ_section_title
;
Structure prediction by ZEFSAII (Michael W. Deem and Ramdas Pophale) SiO2 
 PCOD9023498
Probable space group: P -1
;
_chemical_formula_sum "Si O2"
_cell_formula_units_Z 16
_cell_length_a 9.320163
_cell_length_b 12.361075
_cell_length_c 11.817216
_cell_angle_alpha 71.004450
_cell_angle_beta 46.318134
_cell_angle_gamma 50.632784
_cell_volume 745.573929
_symmetry_space_group_name_H-M "P -1"
_symmetry_group_IT_number 2
_symmetry_cell_setting 'triclinic'
loop_
_space_group_symop_operation_xyz
x,y,z
-x,-y,-z
loop_
_atom_site_type_symbol
_atom_site_label
_atom_site_fract_x
_atom_site_fract_y
_atom_site_fract_z
Si Si1 0.453719 0.883729 0.031242
Si Si2 0.424924 0.709338 0.498556
Si Si3 0.224965 0.205832 0.474031
Si Si4 0.032331 0.015797 0.609818
Si Si5 0.193377 0.585805 0.543693
Si Si6 0.254587 0.982311 0.857437
Si Si7 0.915569 0.557287 0.900561
Si Si8 0.139688 0.279708 0.757278
O O1 0.227533 0.907236 0.214409
O O2 0.391603 0.913839 0.923523
O O3 0.675540 0.718595 0.982632
O O4 0.500000 0.000000 0.000000
O O5 0.312737 0.667154 0.476596
O O6 0.581782 0.579123 0.546039
O O7 0.612338 0.737680 0.335761
O O8 0.202016 0.856630 0.622388
O O9 0.519056 0.120131 0.319535
O O10 0.150582 0.269606 0.618761
O O11 0.162099 0.092687 0.532268
O O12 0.036102 0.331017 0.445110
O O13 0.000000 0.000000 0.500000
O O14 0.099714 0.572355 0.720789
O O15 0.165231 0.143501 0.834843
O O16 0.000000 0.000000 0.000000
O O17 0.918046 0.435435 0.872435
O O18 0.000000 0.500000 0.000000
#
# Coordination Sequence:
#
# PCOD9023498 Si02
#       8
#     2   2   2   2   2   2   2   2
#     4  12  26  44  75 108 142 190 242 303 359 435
#     4  10  22  39  70 105 136 180 236 294 354 415
#     4  12  24  47  72 105 144 190 251 298 361 440
#     4  12  24  41  74 107 137 187 244 298 353 429
#     4  10  22  43  70 105 139 182 238 293 356 434
#     4  12  26  48  68 105 147 192 242 300 372 433
#     4  11  25  46  70 104 152 189 236 300 373 430
#     4  11  26  46  73 103 146 196 236 305 368 431
#
# _framework density 21.459978
#
# number of rings (size 3 to 8) (size 9 to 14) (size 15 to 20)
#    0.000    0.750    3.750    3.375    5.250    2.000 
#    0.000    2.500    0.000    0.000    0.000    0.000 
#    0.000    0.000    0.000    0.000    0.000    0.000 
#
# Total GULP energy -89402.164811 kJ/mol
# GULP energy per Si atom -5587.635301 kJ/mol
# Density = 2.141113 g / cm^3
# Si number density = 21.459978 Si / 1000 Ang^3
#
#
#
# Elastic Constant Matrix: (Units=GPa)
#
#
# Indices 1 2 3 4 5 6 
#
# 1 101.3584 79.2320 55.0010 -0.6669 2.4828 -3.0606
# 2 79.2320 199.0514 68.1644 18.6933 1.3673 -13.6903
# 3 55.0010 68.1644 109.7743 3.7628 6.7864 -1.4753
# 4 -0.6669 18.6933 3.7628 43.6154 0.2474 -3.1882
# 5 2.4828 1.3673 6.7864 0.2474 41.0640 -0.5127
# 6 -3.0606 -13.6903 -1.4753 -3.1882 -0.5127 31.6819
#
#
#
# Elastic Compliance Matrix: (Units=1/GPa)
#
#
# Indices 1 2 3 4 5 6 
#
# 1 0.016796 -0.005179 -0.005307 0.002893 0.000009 -0.000571
# 2 -0.005179 0.008443 -0.002530 -0.003284 0.000504 0.002708
# 3 -0.005307 -0.002530 0.013446 -0.000222 -0.001829 -0.001032
# 4 0.002893 -0.003284 -0.000222 0.024496 -0.000160 0.001312
# 5 0.000009 0.000504 -0.001829 -0.000160 0.024645 0.000516
# 6 -0.000571 0.002708 -0.001032 0.001312 0.000516 0.032771
#
#
# Mechanical properties :
#
#
# Convention : Reuss Voigt Hill
#
# Bulk Modulus (GPa) = 79.03034 90.55321 84.79178
# Shear Modulus (GPa) = 33.14652 37.12469 35.13561
#
# Velocity S-wave (km/s) = 3.93437 4.16378 4.05070
# Velocity P-wave (km/s) = 7.58590 8.08727 7.84059
#
# Compressibility (1/GPa) = 0.01265337
#
# Stress axis : x y z
#
# Youngs Moduli (GPa) = 59.53876 118.44122 74.37099
#
# Poissons Ratio (x) = 0.61344 0.39466
# Poissons Ratio (y) = 0.30837 0.18815
# Poissons Ratio (z) = 0.31595 0.29964
#
# Static dielectric constant tensor:
#      x y z
#    x 1.793570 -0.001730 -0.004780 
#    y -0.001730 1.843410 0.057120 
#    z -0.004780 0.057120 1.793050 
# 
# From -- ./inp_files/392443.got.cif
#   From: 2010.05.17/outbox.cif.g08.bks.cpg/sg2_197_cif.got.tgz:392443.got - 2010.06.03 11:33:40.
