data_PCOD9023993
_publ_section_title
;
Structure prediction by ZEFSAII (Michael W. Deem and Ramdas Pophale) SiO2 
 PCOD9023993
Probable space group: P -1
;
_chemical_formula_sum "Si O2"
_cell_formula_units_Z 16
_cell_length_a 17.497034
_cell_length_b 8.454153
_cell_length_c 9.658800
_cell_angle_alpha 72.197545
_cell_angle_beta 37.502987
_cell_angle_gamma 74.793603
_cell_volume 827.698388
_symmetry_space_group_name_H-M "P -1"
_symmetry_group_IT_number 2
_symmetry_cell_setting 'triclinic'
loop_
_space_group_symop_operation_xyz
x,y,z
-x,-y,-z
loop_
_atom_site_type_symbol
_atom_site_label
_atom_site_fract_x
_atom_site_fract_y
_atom_site_fract_z
Si Si1 0.774202 0.156543 0.834665
Si Si2 0.980207 0.411664 0.403804
Si Si3 0.788865 0.203676 0.132612
Si Si4 0.514585 0.347177 0.129254
Si Si5 0.715896 0.842832 0.358093
Si Si6 0.972595 0.650273 0.109756
Si Si7 0.391406 0.500110 0.764859
Si Si8 0.236081 0.215223 0.016114
O O1 0.876689 0.273398 0.592690
O O2 0.787871 0.962284 0.836281
O O3 0.803865 0.168696 0.954957
O O4 0.635761 0.221581 0.966486
O O5 0.107227 0.325095 0.182805
O O6 0.000000 0.500000 0.500000
O O7 0.935944 0.556744 0.326738
O O8 0.713198 0.378478 0.187285
O O9 0.716861 0.041390 0.329818
O O10 0.909251 0.239843 0.044744
O O11 0.388690 0.248264 0.375900
O O12 0.557057 0.427990 0.189117
O O13 0.500000 0.500000 0.000000
O O14 0.855540 0.767409 0.203910
O O15 0.705250 0.811437 0.215500
O O16 0.000000 0.500000 0.000000
O O17 0.500000 0.500000 0.500000
O O18 0.336640 0.322475 0.921059
#
# Coordination Sequence:
#
# PCOD9023993 Si02
#       8
#     2   2   2   2   2   2   2   2
#     4  10  23  40  65  94 129 165 211 263 310 375
#     4  12  21  41  65  89 130 166 213 256 312 374
#     4  10  22  40  62  95 123 165 216 252 314 372
#     4  11  24  44  64  93 128 167 206 255 326 375
#     4  11  23  39  65  95 131 163 208 268 311 374
#     4  12  22  40  63  94 130 163 211 257 316 372
#     4  11  21  39  68  90 122 165 209 258 306 381
#     4  11  22  40  64 100 123 165 218 259 313 369
#
# _framework density 19.330712999999999
#
# number of rings (size 3 to 8) (size 9 to 14) (size 15 to 20)
#    0.000    1.000    5.000    2.250    1.750    1.500 
#    0.000    1.875    0.000    0.000    0.000    0.000 
#    0.000    0.000    0.000    0.000    0.000    0.000 
#
# Total GULP energy -89186.368786 kJ/mol
# GULP energy per Si atom -5574.148049 kJ/mol
# Density = 1.928672 g / cm^3
# Si number density = 19.330713 Si / 1000 Ang^3
#
#
#
# Elastic Constant Matrix: (Units=GPa)
#
#
# Indices 1 2 3 4 5 6 
#
# 1 65.5830 18.0781 13.1905 -10.9872 -14.6103 -8.5902
# 2 18.0781 96.2107 27.9391 -24.8007 -12.4808 6.3276
# 3 13.1905 27.9391 91.5776 -28.3053 -16.3603 7.7661
# 4 -10.9872 -24.8007 -28.3053 37.0771 2.4017 -3.0870
# 5 -14.6103 -12.4808 -16.3603 2.4017 31.1996 -11.8897
# 6 -8.5902 6.3276 7.7661 -3.0870 -11.8897 15.5777
#
#
#
# Elastic Compliance Matrix: (Units=1/GPa)
#
#
# Indices 1 2 3 4 5 6 
#
# 1 0.028049 -0.002301 0.000934 0.008928 0.026461 0.037902
# 2 -0.002301 0.013422 -0.000897 0.007205 0.002003 -0.003317
# 3 0.000934 -0.000897 0.015912 0.011415 0.008063 0.001363
# 4 0.008928 0.007205 0.011415 0.043542 0.016327 0.017395
# 5 0.026461 0.002003 0.008063 0.016327 0.074975 0.070218
# 6 0.037902 -0.003317 0.001363 0.017395 0.070218 0.142804
#
#
# Mechanical properties :
#
#
# Convention : Reuss Voigt Hill
#
# Bulk Modulus (GPa) = 18.91925 41.30963 30.11444
# Shear Modulus (GPa) = 14.66922 29.71512 22.19217
#
# Velocity S-wave (km/s) = 2.75772 3.92496 3.39193
# Velocity P-wave (km/s) = 4.46637 6.47741 5.56351
#
# Compressibility (1/GPa) = 0.05285620
#
# Stress axis : x y z
#
# Youngs Moduli (GPa) = 35.65161 74.50463 62.84504
#
# Poissons Ratio (x) = 0.17140 -0.05872
# Poissons Ratio (y) = 0.08202 0.05640
# Poissons Ratio (z) = -0.03331 0.06686
#
# Static dielectric constant tensor:
#      x y z
#    x 1.695890 0.002290 -0.022360 
#    y 0.002290 1.684240 -0.005160 
#    z -0.022360 -0.005160 1.667340 
# 
# From -- ./inp_files/262524.got.cif
#   From: 2010.05.17/outbox.cif.g08.bks.cpg/sg2_132_cif.got.tgz:262524.got - 2010.06.03 11:33:40.
