data_PCOD9023036
_publ_section_title
;
Structure prediction by ZEFSAII (Michael W. Deem and Ramdas Pophale) SiO2 
 PCOD9023036
Probable space group: P -1
;
_chemical_formula_sum "Si O2"
_cell_formula_units_Z 14
_cell_length_a 17.465557
_cell_length_b 7.596297
_cell_length_c 11.636522
_cell_angle_alpha 53.375890
_cell_angle_beta 149.813465
_cell_angle_gamma 120.723134
_cell_volume 622.971251
_symmetry_space_group_name_H-M "P -1"
_symmetry_group_IT_number 2
_symmetry_cell_setting 'triclinic'
loop_
_space_group_symop_operation_xyz
x,y,z
-x,-y,-z
loop_
_atom_site_type_symbol
_atom_site_label
_atom_site_fract_x
_atom_site_fract_y
_atom_site_fract_z
Si Si1 0.958361 0.781529 0.103907
Si Si2 0.338969 0.070115 0.383348
Si Si3 0.739745 0.176781 0.399737
Si Si4 0.103249 0.602222 0.998680
Si Si5 0.883727 0.933289 0.474354
Si Si6 0.421828 0.642328 0.520329
Si Si7 0.443460 0.240332 0.877759
O O1 0.903388 0.569789 0.046356
O O2 0.113253 0.713108 0.394652
O O3 0.797716 0.872907 0.906659
O O4 0.000000 0.000000 0.000000
O O5 0.451403 0.270749 0.436272
O O6 0.292212 0.025927 0.473279
O O7 0.406542 0.838026 0.518565
O O8 0.805744 0.115644 0.383573
O O9 0.576221 0.291568 0.122684
O O10 0.005268 0.814453 0.759647
O O11 0.267958 0.632189 0.252152
O O12 0.000000 0.500000 0.000000
O O13 0.733903 0.789486 0.302301
O O14 0.000000 0.000000 0.500000
O O15 0.447430 0.418663 0.711336
O O16 0.500000 0.000000 0.000000
#
# Coordination Sequence:
#
# PCOD9023036 Si02
#       7
#     2   2   2   2   2   2   2
#     4  10  22  39  65  98 132 175 223 281 342 394
#     4  10  23  43  70 105 138 176 227 288 350 404
#     4  10  22  46  68  95 143 178 222 286 348 409
#     4  12  22  41  72  98 130 183 233 279 339 408
#     4  11  25  44  67 102 136 180 231 283 344 411
#     4  11  24  43  70 107 137 179 235 282 341 414
#     4  10  24  43  68  99 140 182 228 284 345 404
#
# _framework density 22.472947000000001
#
# number of rings (size 3 to 8) (size 9 to 14) (size 15 to 20)
#    0.000    1.429    1.429    4.286    6.000    3.429 
#    0.000    1.429    0.000    0.000    0.000    0.000 
#    0.000    0.000    0.000    0.000    0.000    0.000 
#
# Total GULP energy -77964.539569 kJ/mol
# GULP energy per Si atom -5568.895683 kJ/mol
# Density = 2.242180 g / cm^3
# Si number density = 22.472947 Si / 1000 Ang^3
#
#
#
# Elastic Constant Matrix: (Units=GPa)
#
#
# Indices 1 2 3 4 5 6 
#
# 1 105.5558 28.4557 29.8096 12.8615 11.9814 32.4707
# 2 28.4557 76.3353 52.4592 18.4192 16.0496 22.0125
# 3 29.8096 52.4592 198.6445 41.1549 14.5032 32.1977
# 4 12.8615 18.4192 41.1549 40.5655 -2.1496 14.9771
# 5 11.9814 16.0496 14.5032 -2.1496 23.2138 3.3397
# 6 32.4707 22.0125 32.1977 14.9771 3.3397 41.2158
#
#
#
# Elastic Compliance Matrix: (Units=1/GPa)
#
#
# Indices 1 2 3 4 5 6 
#
# 1 0.013247 -0.001273 0.000399 -0.000830 -0.004935 -0.009366
# 2 -0.001273 0.020444 -0.002461 -0.005080 -0.011662 -0.005202
# 3 0.000399 -0.002461 0.007484 -0.005881 -0.003374 -0.002436
# 4 -0.000830 -0.005080 -0.005881 0.036068 0.011833 -0.006104
# 5 -0.004935 -0.011662 -0.003374 0.011833 0.056332 0.003888
# 6 -0.009366 -0.005202 -0.002436 -0.006104 0.003888 0.038226
#
#
# Mechanical properties :
#
#
# Convention : Reuss Voigt Hill
#
# Bulk Modulus (GPa) = 28.98266 66.88717 47.93492
# Shear Modulus (GPa) = 26.31966 38.98642 32.65304
#
# Velocity S-wave (km/s) = 3.42595 4.16963 3.81595
# Velocity P-wave (km/s) = 5.34548 7.28074 6.38683
#
# Compressibility (1/GPa) = 0.03450338
#
# Stress axis : x y z
#
# Youngs Moduli (GPa) = 75.49008 48.91526 133.62367
#
# Poissons Ratio (x) = 0.06229 -0.05328
# Poissons Ratio (y) = 0.09612 0.32881
# Poissons Ratio (z) = -0.03010 0.12037
#
# Static dielectric constant tensor:
#      x y z
#    x 1.916810 -0.088440 0.076530 
#    y -0.088440 1.952050 0.020430 
#    z 0.076530 0.020430 1.929070 
# 
# From -- ./inp_files/461930.got.cif
#   From: 2010.05.17/outbox.cif.g08.bks.cpg/sg2_231_cif.got.tgz:461930.got - 2010.06.03 11:33:40.
