data_PCOD9023167
_publ_section_title
;
Structure prediction by ZEFSAII (Michael W. Deem and Ramdas Pophale) SiO2 
 PCOD9023167
Probable space group: P -1
;
_chemical_formula_sum "Si O2"
_cell_formula_units_Z 12
_cell_length_a 8.771825
_cell_length_b 11.488700
_cell_length_c 14.294358
_cell_angle_alpha 151.029460
_cell_angle_beta 135.852080
_cell_angle_gamma 40.326912
_cell_volume 445.624698
_symmetry_space_group_name_H-M "P -1"
_symmetry_group_IT_number 2
_symmetry_cell_setting 'triclinic'
loop_
_space_group_symop_operation_xyz
x,y,z
-x,-y,-z
loop_
_atom_site_type_symbol
_atom_site_label
_atom_site_fract_x
_atom_site_fract_y
_atom_site_fract_z
Si Si1 0.772250 0.091874 0.771624
Si Si2 0.763579 0.745645 0.348442
Si Si3 0.538237 0.867785 0.768559
Si Si4 0.998894 0.317302 0.284157
Si Si5 0.233511 0.614695 0.353110
Si Si6 0.737384 0.521260 0.924622
O O1 0.509639 0.123667 0.711214
O O2 0.750979 0.369269 0.919502
O O3 0.818288 0.913401 0.573191
O O4 0.971455 0.950374 0.838234
O O5 0.796710 0.481264 0.236667
O O6 0.957453 0.705546 0.324950
O O7 0.760259 0.746730 0.711810
O O8 0.333565 0.780373 0.579055
O O9 0.636434 0.695134 0.783504
O O10 0.442960 0.178512 0.947768
O O11 0.000000 0.500000 0.500000
O O12 0.306026 0.635209 0.293108
O O13 0.000000 0.500000 0.000000
#
# Coordination Sequence:
#
# PCOD9023167 Si02
#       6
#     2   2   2   2   2   2
#     4  10  22  39  66  96 138 171 224 278 329 398
#     4   9  20  41  67  98 124 185 223 268 338 391
#     4  10  23  45  70  97 132 181 224 274 338 390
#     4   9  20  40  67  97 131 171 229 270 328 404
#     4  10  23  45  72  93 136 178 224 277 330 402
#     4  12  27  42  64 106 136 173 223 276 338 400
#
# _framework density 26.92849
#
# number of rings (size 3 to 8) (size 9 to 14) (size 15 to 20)
#    0.000    2.000    0.000    1.500    9.333    3.333 
#    3.000    1.667    0.000    0.000    0.000    0.000 
#    0.000    0.000    0.000    0.000    0.000    0.000 
#
# Total GULP energy -67276.114088 kJ/mol
# GULP energy per Si atom -5606.342841 kJ/mol
# Density = 2.686720 g / cm^3
# Si number density = 26.928490 Si / 1000 Ang^3
#
#
#
# Elastic Constant Matrix: (Units=GPa)
#
#
# Indices 1 2 3 4 5 6 
#
# 1 93.2356 36.2877 26.5230 2.5169 -8.9178 13.5158
# 2 36.2877 137.9299 6.5075 25.0470 -2.0149 29.4041
# 3 26.5230 6.5075 77.8818 21.5808 -10.8754 -6.8166
# 4 2.5169 25.0470 21.5808 40.8492 3.6882 10.4136
# 5 -8.9178 -2.0149 -10.8754 3.6882 41.1429 2.3970
# 6 13.5158 29.4041 -6.8166 10.4136 2.3970 57.7664
#
#
#
# Elastic Compliance Matrix: (Units=1/GPa)
#
#
# Indices 1 2 3 4 5 6 
#
# 1 0.014383 -0.003784 -0.006237 0.005456 0.000981 -0.003199
# 2 -0.003784 0.009907 0.002099 -0.006320 0.000950 -0.002810
# 3 -0.006237 0.002099 0.019424 -0.012816 0.004755 0.004796
# 4 0.005456 -0.006320 -0.012816 0.036808 -0.005466 -0.005981
# 5 0.000981 0.000950 0.004755 -0.005466 0.026327 -0.000259
# 6 -0.003199 -0.002810 0.004796 -0.005981 -0.000259 0.021145
#
#
# Mechanical properties :
#
#
# Convention : Reuss Voigt Hill
#
# Bulk Modulus (GPa) = 35.88194 49.74262 42.81228
# Shear Modulus (GPa) = 32.65259 43.93363 38.29311
#
# Velocity S-wave (km/s) = 3.48597 4.04356 3.77507
# Velocity P-wave (km/s) = 5.43659 6.34923 5.91055
#
# Compressibility (1/GPa) = 0.02786917
#
# Stress axis : x y z
#
# Youngs Moduli (GPa) = 69.52730 100.93749 51.48371
#
# Poissons Ratio (x) = 0.38196 0.32110
# Poissons Ratio (y) = 0.26310 -0.10805
# Poissons Ratio (z) = 0.43363 -0.21184
#
# Static dielectric constant tensor:
#      x y z
#    x 2.019090 0.088120 -0.006570 
#    y 0.088120 2.153750 0.006710 
#    z -0.006570 0.006710 2.180560 
# 
# From -- ./inp_files/190067.got.cif
#   From: 2010.05.17/outbox.cif.g08.bks.cpg/sg2_96_cif.got.tgz:190067.got - 2010.06.03 11:33:40.
