data_PCOD9023492
_publ_section_title
;
Structure prediction by ZEFSAII (Michael W. Deem and Ramdas Pophale) SiO2 
 PCOD9023492
Probable space group: P -1
;
_chemical_formula_sum "Si O2"
_cell_formula_units_Z 16
_cell_length_a 12.782771
_cell_length_b 12.707145
_cell_length_c 9.092237
_cell_angle_alpha 41.775459
_cell_angle_beta 55.057318
_cell_angle_gamma 42.464436
_cell_volume 663.432015
_symmetry_space_group_name_H-M "P -1"
_symmetry_group_IT_number 2
_symmetry_cell_setting 'triclinic'
loop_
_space_group_symop_operation_xyz
x,y,z
-x,-y,-z
loop_
_atom_site_type_symbol
_atom_site_label
_atom_site_fract_x
_atom_site_fract_y
_atom_site_fract_z
Si Si1 0.330933 0.679608 0.897346
Si Si2 0.404922 0.848839 0.396686
Si Si3 0.981379 0.423755 0.439284
Si Si4 0.236598 0.438696 0.058880
Si Si5 0.160198 0.042796 0.839338
Si Si6 0.712337 0.507984 0.376460
Si Si7 0.233207 0.897523 0.222651
Si Si8 0.459392 0.931783 0.819619
O O1 0.358984 0.802740 0.634005
O O2 0.243899 0.601358 0.964168
O O3 0.228803 0.827866 0.954019
O O4 0.500000 0.500000 0.000000
O O5 0.534393 0.646048 0.428058
O O6 0.253372 0.964609 0.294404
O O7 0.486495 0.957856 0.245342
O O8 0.039669 0.206403 0.657526
O O9 0.000000 0.500000 0.500000
O O10 0.812196 0.532060 0.392337
O O11 0.090434 0.437241 0.222170
O O12 0.257205 0.446327 0.858967
O O13 0.390152 0.240703 0.199406
O O14 0.307993 0.059250 0.708667
O O15 0.112729 0.050757 0.040230
O O16 0.768903 0.287067 0.562410
O O17 0.392046 0.840874 0.072588
#
# Coordination Sequence:
#
# PCOD9023492 Si02
#       8
#     2   2   2   2   2   2   2   2
#     4  12  24  40  72 108 135 172 215 289 342 392
#     4  12  22  39  72 105 135 168 222 276 348 399
#     4  12  30  46  68  95 133 191 225 274 326 399
#     4  12  25  46  68  98 137 174 230 275 341 392
#     4  10  24  45  65 101 134 173 222 274 335 392
#     4  12  24  46  66  97 140 180 223 269 330 413
#     4  10  22  42  68 104 127 173 215 283 340 390
#     4  10  22  39  70 102 133 164 215 286 340 384
#
# _framework density 24.117017000000001
#
# number of rings (size 3 to 8) (size 9 to 14) (size 15 to 20)
#    0.750    0.000    3.750    4.125    5.250    1.500 
#    0.000    1.875    0.000    0.000    0.000    0.000 
#    0.000    0.000    0.000    0.000    0.000    0.000 
#
# Total GULP energy -89487.510264 kJ/mol
# GULP energy per Si atom -5592.969391 kJ/mol
# Density = 2.406213 g / cm^3
# Si number density = 24.117017 Si / 1000 Ang^3
#
#
#
# Elastic Constant Matrix: (Units=GPa)
#
#
# Indices 1 2 3 4 5 6 
#
# 1 100.0983 11.2562 25.4366 -1.7358 10.5286 16.7945
# 2 11.2562 45.0791 13.0028 -10.0446 5.6737 11.5259
# 3 25.4366 13.0028 113.6337 19.3179 9.2374 -7.7607
# 4 -1.7358 -10.0446 19.3179 25.8866 2.7441 -1.3123
# 5 10.5286 5.6737 9.2374 2.7441 37.2280 2.9918
# 6 16.7945 11.5259 -7.7607 -1.3123 2.9918 34.6437
#
#
#
# Elastic Compliance Matrix: (Units=1/GPa)
#
#
# Indices 1 2 3 4 5 6 
#
# 1 0.012309 0.000935 -0.003796 0.003935 -0.002428 -0.006770
# 2 0.000935 0.031324 -0.007251 0.017425 -0.003597 -0.011528
# 3 -0.003796 -0.007251 0.013114 -0.012436 -0.000703 0.006780
# 4 0.003935 0.017425 -0.012436 0.054961 -0.004087 -0.008056
# 5 -0.002428 -0.003597 -0.000703 -0.004087 0.028605 -0.000409
# 6 -0.006770 -0.011528 0.006780 -0.008056 -0.000409 0.037232
#
#
# Mechanical properties :
#
#
# Convention : Reuss Voigt Hill
#
# Bulk Modulus (GPa) = 27.38010 39.80024 33.59017
# Shear Modulus (GPa) = 23.81589 33.49268 28.65429
#
# Velocity S-wave (km/s) = 3.14588 3.73065 3.45067
# Velocity P-wave (km/s) = 4.95713 5.92417 5.46209
#
# Compressibility (1/GPa) = 0.03652288
#
# Stress axis : x y z
#
# Youngs Moduli (GPa) = 81.23974 31.92418 76.25358
#
# Poissons Ratio (x) = -0.02984 0.28949
# Poissons Ratio (y) = -0.07595 0.55290
# Poissons Ratio (z) = 0.30842 0.23148
#
# Static dielectric constant tensor:
#      x y z
#    x 1.956310 0.034090 0.044360 
#    y 0.034090 1.906720 -0.015690 
#    z 0.044360 -0.015690 1.913920 
# 
# From -- ./inp_files/261557.got.cif
#   From: 2010.05.17/outbox.cif.g08.bks.cpg/sg2_131_cif.got.tgz:261557.got - 2010.06.03 11:33:40.
