data_PCOD9023321
_publ_section_title
;
Structure prediction by ZEFSAII (Michael W. Deem and Ramdas Pophale) SiO2 
 PCOD9023321
Probable space group: P -1
;
_chemical_formula_sum "Si O2"
_cell_formula_units_Z 14
_cell_length_a 14.011524
_cell_length_b 8.224559
_cell_length_c 9.124799
_cell_angle_alpha 82.645902
_cell_angle_beta 39.538794
_cell_angle_gamma 62.539979
_cell_volume 543.626338
_symmetry_space_group_name_H-M "P -1"
_symmetry_group_IT_number 2
_symmetry_cell_setting 'triclinic'
loop_
_space_group_symop_operation_xyz
x,y,z
-x,-y,-z
loop_
_atom_site_type_symbol
_atom_site_label
_atom_site_fract_x
_atom_site_fract_y
_atom_site_fract_z
Si Si1 0.030542 0.415783 0.308389
Si Si2 0.730123 0.460468 0.985531
Si Si3 0.544208 0.252419 0.295341
Si Si4 0.116631 0.039338 0.593487
Si Si5 0.800232 0.713929 0.327518
Si Si6 0.460997 0.717795 0.038882
Si Si7 0.918215 0.862661 0.934255
O O1 0.165399 0.460906 0.064783
O O2 0.090018 0.198225 0.217118
O O3 0.000000 0.500000 0.500000
O O4 0.850336 0.545597 0.409163
O O5 0.584932 0.424008 0.230561
O O6 0.623211 0.642086 0.972349
O O7 0.913476 0.232546 0.755743
O O8 0.368840 0.264833 0.557807
O O9 0.537321 0.215025 0.133990
O O10 0.722270 0.062668 0.177297
O O11 0.265955 0.886973 0.317913
O O12 0.067689 0.909764 0.760863
O O13 0.212160 0.120962 0.566705
O O14 0.936545 0.704999 0.045951
O O15 0.500000 0.500000 0.000000
#
# Coordination Sequence:
#
# PCOD9023321 Si02
#       7
#     2   2   2   2   2   2   2
#     4  11  25  41  68  98 131 170 225 276 330 389
#     4   9  22  42  61 100 133 169 216 278 328 387
#     4  10  23  39  67  92 133 170 220 271 329 392
#     4  10  24  42  72  94 132 181 222 273 330 393
#     4  11  24  46  64  97 133 177 222 266 338 401
#     4  10  22  39  68 100 133 169 226 273 335 381
#     4  11  25  43  68  94 134 177 219 275 330 398
#
# _framework density 25.752984999999999
#
# number of rings (size 3 to 8) (size 9 to 14) (size 15 to 20)
#    0.000    1.714    0.000    2.143   14.000    3.429 
#    0.000    0.714    0.000    0.000    0.000    0.000 
#    0.000    0.000    0.000    0.000    0.000    0.000 
#
# Total GULP energy -77961.473486 kJ/mol
# GULP energy per Si atom -5568.676678 kJ/mol
# Density = 2.569437 g / cm^3
# Si number density = 25.752985 Si / 1000 Ang^3
#
#
#
# Elastic Constant Matrix: (Units=GPa)
#
#
# Indices 1 2 3 4 5 6 
#
# 1 57.2195 11.8069 29.9792 4.2239 -16.3367 -0.2938
# 2 11.8069 82.8388 21.1460 -9.0827 -2.8756 -8.7038
# 3 29.9792 21.1460 124.3653 -6.3902 -1.9982 3.3669
# 4 4.2239 -9.0827 -6.3902 31.7288 8.1660 -2.5406
# 5 -16.3367 -2.8756 -1.9982 8.1660 49.7653 -11.2218
# 6 -0.2938 -8.7038 3.3669 -2.5406 -11.2218 52.1882
#
#
#
# Elastic Compliance Matrix: (Units=1/GPa)
#
#
# Indices 1 2 3 4 5 6 
#
# 1 0.024067 -0.002270 -0.005686 -0.007206 0.009114 0.001733
# 2 -0.002270 0.013514 -0.001611 0.004082 -0.000132 0.002515
# 3 -0.005686 -0.001611 0.009826 0.002766 -0.002312 -0.001297
# 4 -0.007206 0.004082 0.002766 0.036265 -0.007848 0.000540
# 5 0.009114 -0.000132 -0.002312 -0.007848 0.025462 0.005271
# 6 0.001733 0.002515 -0.001297 0.000540 0.005271 0.020834
#
#
# Mechanical properties :
#
#
# Convention : Reuss Voigt Hill
#
# Bulk Modulus (GPa) = 35.37165 43.36532 39.36849
# Shear Modulus (GPa) = 31.54037 40.16922 35.85480
#
# Velocity S-wave (km/s) = 3.50341 3.95370 3.73535
# Velocity P-wave (km/s) = 5.48907 6.14149 5.82442
#
# Compressibility (1/GPa) = 0.02827123
#
# Stress axis : x y z
#
# Youngs Moduli (GPa) = 41.55004 73.99913 101.77546
#
# Poissons Ratio (x) = 0.16801 0.57873
# Poissons Ratio (y) = 0.09434 0.16395
# Poissons Ratio (z) = 0.23627 0.11921
#
# Static dielectric constant tensor:
#      x y z
#    x 2.507930 -0.200630 0.045020 
#    y -0.200630 2.212070 0.053630 
#    z 0.045020 0.053630 2.112470 
# 
# From -- ./inp_files/184555.got.cif
#   From: 2010.05.17/outbox.cif.g08.bks.cpg/sg2_93_cif.got.tgz:184555.got - 2010.06.03 11:33:40.
