data_PCOD9023745
_publ_section_title
;
Structure prediction by ZEFSAII (Michael W. Deem and Ramdas Pophale) SiO2 
 PCOD9023745
Probable space group: P -1
;
_chemical_formula_sum "Si O2"
_cell_formula_units_Z 16
_cell_length_a 5.512118
_cell_length_b 5.129615
_cell_length_c 23.493549
_cell_angle_alpha 71.608268
_cell_angle_beta 74.634363
_cell_angle_gamma 89.256895
_cell_volume 606.004695
_symmetry_space_group_name_H-M "P -1"
_symmetry_group_IT_number 2
_symmetry_cell_setting 'triclinic'
loop_
_space_group_symop_operation_xyz
x,y,z
-x,-y,-z
loop_
_atom_site_type_symbol
_atom_site_label
_atom_site_fract_x
_atom_site_fract_y
_atom_site_fract_z
Si Si1 0.681307 0.246548 0.513241
Si Si2 0.646351 0.876315 0.681789
Si Si3 0.121027 0.938973 0.706569
Si Si4 0.023734 0.310825 0.790331
Si Si5 0.518898 0.499412 0.176900
Si Si6 0.793668 0.641911 0.577971
Si Si7 0.648407 0.609548 0.926451
Si Si8 0.800081 0.061116 0.960177
O O1 0.500000 0.500000 0.500000
O O2 0.780121 0.363897 0.560750
O O3 0.908124 0.270773 0.451531
O O4 0.646233 0.908600 0.544413
O O5 0.406018 0.030125 0.666448
O O6 0.550929 0.745663 0.757365
O O7 0.698059 0.641561 0.648705
O O8 0.912834 0.030807 0.670036
O O9 0.091719 0.605593 0.733265
O O10 0.064127 0.059650 0.763405
O O11 0.235353 0.330333 0.825489
O O12 0.725415 0.324294 0.818260
O O13 0.523339 0.391862 0.118716
O O14 0.813000 0.879633 0.916002
O O15 0.839293 0.378636 0.922791
O O16 0.500000 0.500000 0.000000
O O17 0.500000 0.000000 0.000000
O O18 0.000000 0.000000 0.000000
#
# Coordination Sequence:
#
# PCOD9023745 Si02
#       8
#     2   2   2   2   2   2   2   2
#     4  10  22  43  66  95 133 173 221 272 333 389
#     4  10  23  43  65 100 130 175 217 271 330 387
#     4  10  22  40  63  90 131 166 215 259 322 388
#     4  10  22  40  61  88 124 170 208 264 323 383
#     4  10  23  42  66  93 133 167 217 270 324 391
#     4  10  23  40  65  98 130 173 225 272 328 403
#     4  10  23  42  65  95 126 171 216 267 327 388
#     4  10  22  40  62  90 122 159 211 262 318 383
#
# _framework density 26.402431
#
# number of rings (size 3 to 8) (size 9 to 14) (size 15 to 20)
#    0.000    2.000    0.000    1.500    1.750   12.000 
#    2.250    1.250    0.000    0.000    0.000    0.000 
#    0.000    0.000    0.000    0.000    0.000    0.000 
#
# Total GULP energy -89282.783277 kJ/mol
# GULP energy per Si atom -5580.173955 kJ/mol
# Density = 2.634234 g / cm^3
# Si number density = 26.402431 Si / 1000 Ang^3
#
#
#
# Elastic Constant Matrix: (Units=GPa)
#
#
# Indices 1 2 3 4 5 6 
#
# 1 202.4737 19.6920 29.4861 8.6529 13.7285 -27.0726
# 2 19.6920 134.2725 9.8819 17.6950 9.8427 -5.3051
# 3 29.4861 9.8819 97.0682 12.8145 -6.4519 -7.9507
# 4 8.6529 17.6950 12.8145 47.4070 -5.0562 5.1723
# 5 13.7285 9.8427 -6.4519 -5.0562 41.9961 3.4889
# 6 -27.0726 -5.3051 -7.9507 5.1723 3.4889 36.2993
#
#
#
# Elastic Compliance Matrix: (Units=1/GPa)
#
#
# Indices 1 2 3 4 5 6 
#
# 1 0.006027 -0.000211 -0.001422 -0.001428 -0.002695 0.004615
# 2 -0.000211 0.008194 -0.000351 -0.003370 -0.002451 0.001679
# 3 -0.001422 -0.000351 0.011373 -0.002660 0.001843 0.001581
# 4 -0.001428 -0.003370 -0.002660 0.024448 0.004293 -0.006036
# 5 -0.002695 -0.002451 0.001843 0.004293 0.026492 -0.005122
# 6 0.004615 0.001679 0.001581 -0.006036 -0.005122 0.032935
#
#
# Mechanical properties :
#
#
# Convention : Reuss Voigt Hill
#
# Bulk Modulus (GPa) = 46.23842 61.32604 53.78223
# Shear Modulus (GPa) = 41.44343 50.12412 45.78377
#
# Velocity S-wave (km/s) = 3.96622 4.36187 4.16874
# Velocity P-wave (km/s) = 6.20689 6.97465 6.60194
#
# Compressibility (1/GPa) = 0.02162703
#
# Stress axis : x y z
#
# Youngs Moduli (GPa) = 165.90916 122.03482 87.92927
#
# Poissons Ratio (x) = 0.02578 0.12503
# Poissons Ratio (y) = 0.03505 0.03082
# Poissons Ratio (z) = 0.23592 0.04278
#
# Static dielectric constant tensor:
#      x y z
#    x 2.054420 0.032440 0.103430 
#    y 0.032440 2.166830 -0.015590 
#    z 0.103430 -0.015590 2.180890 
# 
# From -- ./inp_files/602926.got.cif
#   From: 2010.05.17/outbox.cif.g08.bks.cpg/sg2_302_cif.got.tgz:602926.got - 2010.06.03 11:33:40.
