data_PCOD9023303
_publ_section_title
;
Structure prediction by ZEFSAII (Michael W. Deem and Ramdas Pophale) SiO2 
 PCOD9023303
Probable space group: P -1
;
_chemical_formula_sum "Si O2"
_cell_formula_units_Z 14
_cell_length_a 13.566215
_cell_length_b 5.322952
_cell_length_c 9.431719
_cell_angle_alpha 73.766691
_cell_angle_beta 106.786594
_cell_angle_gamma 95.494112
_cell_volume 625.982834
_symmetry_space_group_name_H-M "P -1"
_symmetry_group_IT_number 2
_symmetry_cell_setting 'triclinic'
loop_
_space_group_symop_operation_xyz
x,y,z
-x,-y,-z
loop_
_atom_site_type_symbol
_atom_site_label
_atom_site_fract_x
_atom_site_fract_y
_atom_site_fract_z
Si Si1 0.435596 0.222983 0.512617
Si Si2 0.674514 0.488654 0.798309
Si Si3 0.828018 0.087438 0.924875
Si Si4 0.539684 0.778942 0.160502
Si Si5 0.260270 0.365060 0.885218
Si Si6 0.962694 0.559927 0.318647
Si Si7 0.981643 0.838755 0.831444
O O1 0.500000 0.500000 0.500000
O O2 0.341351 0.284036 0.358552
O O3 0.416365 0.133898 0.680687
O O4 0.500000 0.000000 0.500000
O O5 0.561534 0.387269 0.814404
O O6 0.744807 0.269885 0.790839
O O7 0.725037 0.538852 0.963754
O O8 0.768697 0.940303 0.051297
O O9 0.926642 0.235014 0.010621
O O10 0.878553 0.880959 0.871469
O O11 0.631384 0.619033 0.151919
O O12 0.500000 0.000000 0.000000
O O13 0.160383 0.481210 0.750083
O O14 0.988973 0.864592 0.251455
O O15 0.000000 0.500000 0.500000
O O16 0.018413 0.364891 0.263633
#
# Coordination Sequence:
#
# PCOD9023303 Si02
#       7
#     2   2   2   2   2   2   2
#     4  10  24  43  63  93 133 175 223 278 329 392
#     4  11  22  41  69  96 138 180 229 281 335 412
#     4  10  22  39  67  98 127 177 226 285 333 405
#     4  11  22  42  66  99 135 182 221 278 341 407
#     4  11  23  40  67  97 134 178 232 273 341 408
#     4  11  24  44  67  98 138 177 223 287 344 407
#     4  10  23  42  66  96 134 171 228 281 341 400
#
# _framework density 22.364830999999999
#
# number of rings (size 3 to 8) (size 9 to 14) (size 15 to 20)
#    0.000    1.429    2.857    1.714    4.000    4.000 
#    0.000    0.000    0.000    0.000    0.000    0.000 
#    0.000    0.000    0.000    0.000    0.000    0.000 
#
# Total GULP energy -78190.898839 kJ/mol
# GULP energy per Si atom -5585.064203 kJ/mol
# Density = 2.231393 g / cm^3
# Si number density = 22.364831 Si / 1000 Ang^3
#
#
#
# Elastic Constant Matrix: (Units=GPa)
#
#
# Indices 1 2 3 4 5 6 
#
# 1 129.3434 35.2424 47.4762 -3.5333 9.7056 -25.7424
# 2 35.2424 104.2664 50.4495 11.5185 -1.5128 -23.4470
# 3 47.4762 50.4495 185.0330 1.7146 14.3792 -21.8190
# 4 -3.5333 11.5185 1.7146 32.8368 -3.7169 -0.0546
# 5 9.7056 -1.5128 14.3792 -3.7169 31.1628 -1.2215
# 6 -25.7424 -23.4470 -21.8190 -0.0546 -1.2215 39.3475
#
#
#
# Elastic Compliance Matrix: (Units=1/GPa)
#
#
# Indices 1 2 3 4 5 6 
#
# 1 0.009832 -0.001868 -0.001325 0.001543 -0.002180 0.004519
# 2 -0.001868 0.013191 -0.002622 -0.004444 0.002107 0.005244
# 3 -0.001325 -0.002622 0.006826 0.000106 -0.002802 0.001269
# 4 0.001543 -0.004444 0.000106 0.032519 0.003077 -0.001440
# 5 -0.002180 0.002107 -0.002802 0.003077 0.034505 -0.000649
# 6 0.004519 0.005244 0.001269 -0.001440 -0.000649 0.032177
#
#
# Mechanical properties :
#
#
# Convention : Reuss Voigt Hill
#
# Bulk Modulus (GPa) = 54.88695 76.10877 65.49786
# Shear Modulus (GPa) = 34.07077 39.70107 36.88592
#
# Velocity S-wave (km/s) = 3.90732 4.21783 4.06554
# Velocity P-wave (km/s) = 6.70456 7.60425 7.16853
#
# Compressibility (1/GPa) = 0.01821927
#
# Stress axis : x y z
#
# Youngs Moduli (GPa) = 101.70999 75.80665 146.50572
#
# Poissons Ratio (x) = 0.14159 0.19419
# Poissons Ratio (y) = 0.18998 0.38408
# Poissons Ratio (z) = 0.13481 0.19873
#
# Static dielectric constant tensor:
#      x y z
#    x 1.853470 0.065990 0.019000 
#    y 0.065990 1.984050 0.044750 
#    z 0.019000 0.044750 1.866150 
# 
# From -- ./inp_files/36171.got.cif
#   From: 2010.05.17/outbox.cif.g08.bks.cpg/sg2_19_cif.got.tgz:36171.got - 2010.06.03 11:33:40.
