data_PCOD9023111
_publ_section_title
;
Structure prediction by ZEFSAII (Michael W. Deem and Ramdas Pophale) SiO2 
 PCOD9023111
Probable space group: P -1
;
_chemical_formula_sum "Si O2"
_cell_formula_units_Z 16
_cell_length_a 21.520004
_cell_length_b 10.509473
_cell_length_c 7.907433
_cell_angle_alpha 42.723544
_cell_angle_beta 126.349900
_cell_angle_gamma 149.559889
_cell_volume 610.410224
_symmetry_space_group_name_H-M "P -1"
_symmetry_group_IT_number 2
_symmetry_cell_setting 'triclinic'
loop_
_space_group_symop_operation_xyz
x,y,z
-x,-y,-z
loop_
_atom_site_type_symbol
_atom_site_label
_atom_site_fract_x
_atom_site_fract_y
_atom_site_fract_z
Si Si1 0.583321 0.533612 0.843148
Si Si2 0.696173 0.355159 0.859111
Si Si3 0.829447 0.614573 0.382307
Si Si4 0.176832 0.987053 0.891316
Si Si5 0.527712 0.820372 0.348597
Si Si6 0.646879 0.010691 0.810483
Si Si7 0.013067 0.635798 0.658002
Si Si8 0.846620 0.873015 0.838464
O O1 0.566895 0.726333 0.623775
O O2 0.522922 0.357207 0.738566
O O3 0.723196 0.732529 0.856851
O O4 0.497103 0.276422 0.096977
O O5 0.588419 0.280416 0.678026
O O6 0.712182 0.222051 0.879668
O O7 0.808450 0.689515 0.784376
O O8 0.637839 0.159243 0.128965
O O9 0.699676 0.255983 0.518336
O O10 0.925963 0.642162 0.573904
O O11 0.813290 0.771721 0.311643
O O12 0.881005 0.787315 0.118667
O O13 0.127500 0.839443 0.770830
O O14 0.298010 0.093597 0.018776
O O15 0.070703 0.706630 0.119949
O O16 0.062435 0.792336 0.403480
#
# Coordination Sequence:
#
# PCOD9023111 Si02
#       8
#     2   2   2   2   2   2   2   2
#     4   9  19  34  57  95 126 157 203 247 300 366
#     4   9  18  34  61  91 119 163 203 249 298 352
#     4  11  24  44  61  88 129 164 201 252 309 367
#     4  10  23  43  68  92 117 158 212 257 306 356
#     4   8  16  32  55  88 127 155 204 253 287 347
#     4  10  22  39  66  92 124 163 203 255 296 361
#     4  10  23  43  66  90 115 158 216 261 299 353
#     4  11  23  39  62  92 127 165 196 249 316 367
#
# _framework density 26.211881999999999
#
# number of rings (size 3 to 8) (size 9 to 14) (size 15 to 20)
#    0.000    2.250    0.000    2.250    8.750    3.000 
#    4.500    0.625    0.000    0.000    0.000    0.000 
#    0.000    0.000    0.000    0.000    0.000    0.000 
#
# Total GULP energy -89602.189258 kJ/mol
# GULP energy per Si atom -5600.136829 kJ/mol
# Density = 2.615222 g / cm^3
# Si number density = 26.211882 Si / 1000 Ang^3
#
#
#
# Elastic Constant Matrix: (Units=GPa)
#
#
# Indices 1 2 3 4 5 6 
#
# 1 96.7388 20.4786 31.1099 -12.3019 5.1201 -4.5436
# 2 20.4786 64.2541 29.8545 -19.0688 8.1980 -5.7350
# 3 31.1099 29.8545 139.3785 -14.5210 6.4535 15.2614
# 4 -12.3019 -19.0688 -14.5210 50.1359 -2.6196 -0.8797
# 5 5.1201 8.1980 6.4535 -2.6196 52.8844 -7.6496
# 6 -4.5436 -5.7350 15.2614 -0.8797 -7.6496 36.5594
#
#
#
# Elastic Compliance Matrix: (Units=1/GPa)
#
#
# Indices 1 2 3 4 5 6 
#
# 1 0.011795 -0.002062 -0.002257 0.001484 -0.000172 0.002084
# 2 -0.002062 0.020326 -0.003646 0.006161 -0.001583 0.004271
# 3 -0.002257 -0.003646 0.009094 0.000556 -0.000999 -0.004844
# 4 0.001484 0.006161 0.000556 0.022850 0.000183 0.001507
# 5 -0.000172 -0.001583 -0.000999 0.000183 0.019927 0.004321
# 6 0.002084 0.004271 -0.004844 0.001507 0.004321 0.031244
#
#
# Mechanical properties :
#
#
# Convention : Reuss Voigt Hill
#
# Bulk Modulus (GPa) = 39.54873 51.47306 45.51090
# Shear Modulus (GPa) = 35.81769 42.51116 39.16443
#
# Velocity S-wave (km/s) = 3.70059 4.03156 3.86961
# Velocity P-wave (km/s) = 5.77754 6.43049 6.11274
#
# Compressibility (1/GPa) = 0.02528526
#
# Stress axis : x y z
#
# Youngs Moduli (GPa) = 84.78117 49.19748 109.96259
#
# Poissons Ratio (x) = 0.10147 0.24814
# Poissons Ratio (y) = 0.17486 0.40092
# Poissons Ratio (z) = 0.19132 0.17937
#
# Static dielectric constant tensor:
#      x y z
#    x 2.067020 -0.042810 -0.030320 
#    y -0.042810 2.062890 0.003520 
#    z -0.030320 0.003520 2.037390 
# 
# From -- ./inp_files/353348.got.cif
#   From: 2010.05.17/outbox.cif.g08.bks.cpg/sg2_177_cif.got.tgz:353348.got - 2010.06.03 11:33:40.
