data_PCOD9023085
_publ_section_title
;
Structure prediction by ZEFSAII (Michael W. Deem and Ramdas Pophale) SiO2 
 PCOD9023085
Probable space group: P -1
;
_chemical_formula_sum "Si O2"
_cell_formula_units_Z 14
_cell_length_a 11.056670
_cell_length_b 5.526914
_cell_length_c 15.733436
_cell_angle_alpha 66.535308
_cell_angle_beta 42.145570
_cell_angle_gamma 81.063946
_cell_volume 576.315889
_symmetry_space_group_name_H-M "P -1"
_symmetry_group_IT_number 2
_symmetry_cell_setting 'triclinic'
loop_
_space_group_symop_operation_xyz
x,y,z
-x,-y,-z
loop_
_atom_site_type_symbol
_atom_site_label
_atom_site_fract_x
_atom_site_fract_y
_atom_site_fract_z
Si Si1 0.672605 0.236046 0.522736
Si Si2 0.937944 0.717275 0.891371
Si Si3 0.128506 0.292600 0.882252
Si Si4 0.446549 0.288486 0.978942
Si Si5 0.702712 0.328368 0.684871
Si Si6 0.035347 0.094040 0.565173
Si Si7 0.309900 0.188133 0.648719
O O1 0.636131 0.182770 0.650241
O O2 0.502120 0.093025 0.570829
O O3 0.694144 0.554430 0.444057
O O4 0.855851 0.120853 0.422548
O O5 0.016025 0.462015 0.860699
O O6 0.847074 0.620592 0.045240
O O7 0.771913 0.761319 0.915704
O O8 0.120501 0.960883 0.768711
O O9 0.304254 0.294170 0.734475
O O10 0.000000 0.000000 0.000000
O O11 0.555777 0.389886 0.820189
O O12 0.500000 0.500000 0.000000
O O13 0.500000 0.000000 0.000000
O O14 0.825492 0.614704 0.550225
O O15 0.839154 0.161317 0.683101
O O16 0.000000 0.000000 0.500000
#
# Coordination Sequence:
#
# PCOD9023085 Si02
#       7
#     2   2   2   2   2   2   2
#     4  10  22  40  69 106 143 186 237 308 362 440
#     4  10  23  45  68 100 141 194 237 299 370 436
#     4   9  20  39  68  98 137 186 233 292 362 431
#     4  12  31  48  75 111 147 194 250 309 366 441
#     4  10  23  46  66 101 141 187 245 297 370 433
#     4   9  21  41  71  97 134 190 233 294 362 430
#     4  10  22  39  66 106 141 180 241 295 367 436
#
# _framework density 24.292234000000001
#
# number of rings (size 3 to 8) (size 9 to 14) (size 15 to 20)
#    0.000    2.000    0.000    0.857    8.000   10.286 
#    0.000    2.857    0.000    0.000    0.000    0.000 
#    0.000    0.000    0.000    0.000    0.000    0.000 
#
# Total GULP energy -78107.972282 kJ/mol
# GULP energy per Si atom -5579.140877 kJ/mol
# Density = 2.423694 g / cm^3
# Si number density = 24.292234 Si / 1000 Ang^3
#
#
#
# Elastic Constant Matrix: (Units=GPa)
#
#
# Indices 1 2 3 4 5 6 
#
# 1 175.6819 77.1940 69.0984 6.8153 -26.3725 -32.5370
# 2 77.1940 116.8162 26.4510 0.7531 -16.8186 -27.4780
# 3 69.0984 26.4510 96.4809 1.0228 -0.6670 -5.3236
# 4 6.8153 0.7531 1.0228 27.8067 -3.0089 11.6529
# 5 -26.3725 -16.8186 -0.6670 -3.0089 48.6119 16.0531
# 6 -32.5370 -27.4780 -5.3236 11.6529 16.0531 50.6619
#
#
#
# Elastic Compliance Matrix: (Units=1/GPa)
#
#
# Indices 1 2 3 4 5 6 
#
# 1 0.011961 -0.004865 -0.006933 -0.004003 0.003054 0.004268
# 2 -0.004865 0.012687 0.000226 -0.000702 0.000456 0.003798
# 3 -0.006933 0.000226 0.015102 0.001842 -0.002587 -0.002347
# 4 -0.004003 -0.000702 0.001842 0.043454 0.005039 -0.014350
# 5 0.003054 0.000456 -0.002587 0.005039 0.025024 -0.007152
# 6 0.004268 0.003798 -0.002347 -0.014350 -0.007152 0.029860
#
#
# Mechanical properties :
#
#
# Convention : Reuss Voigt Hill
#
# Bulk Modulus (GPa) = 60.22206 81.60732 70.91469
# Shear Modulus (GPa) = 29.98219 39.83181 34.90700
#
# Velocity S-wave (km/s) = 3.51697 4.05371 3.79484
# Velocity P-wave (km/s) = 6.42935 7.45500 6.96109
#
# Compressibility (1/GPa) = 0.01660521
#
# Stress axis : x y z
#
# Youngs Moduli (GPa) = 83.60775 78.81801 66.21852
#
# Poissons Ratio (x) = 0.38341 0.45912
# Poissons Ratio (y) = 0.40671 -0.01495
# Poissons Ratio (z) = 0.57968 -0.01779
#
# Static dielectric constant tensor:
#      x y z
#    x 2.206730 0.088510 -0.088070 
#    y 0.088510 2.170750 -0.009090 
#    z -0.088070 -0.009090 2.066310 
# 
# From -- ./inp_files/564000.got.cif
#   From: 2010.05.17/outbox.cif.g08.bks.cpg/sg2_282_cif.got.tgz:564000.got - 2010.06.03 11:33:40.
