data_PCOD9023079
_publ_section_title
;
Structure prediction by ZEFSAII (Michael W. Deem and Ramdas Pophale) SiO2 
 PCOD9023079
Probable space group: P -1
;
_chemical_formula_sum "Si O2"
_cell_formula_units_Z 16
_cell_length_a 10.200576
_cell_length_b 11.366143
_cell_length_c 6.536898
_cell_angle_alpha 65.270239
_cell_angle_beta 92.839300
_cell_angle_gamma 79.180803
_cell_volume 669.151223
_symmetry_space_group_name_H-M "P -1"
_symmetry_group_IT_number 2
_symmetry_cell_setting 'triclinic'
loop_
_space_group_symop_operation_xyz
x,y,z
-x,-y,-z
loop_
_atom_site_type_symbol
_atom_site_label
_atom_site_fract_x
_atom_site_fract_y
_atom_site_fract_z
Si Si1 0.518181 0.785597 0.205654
Si Si2 0.189834 0.860148 0.680599
Si Si3 0.412886 0.634618 0.985840
Si Si4 0.685799 0.544553 0.586343
Si Si5 0.123166 0.323677 0.208328
Si Si6 0.097929 0.516142 0.681288
Si Si7 0.090105 0.074475 0.201416
Si Si8 0.285576 0.019866 0.912105
O O1 0.506086 0.725174 0.023337
O O2 0.551721 0.658703 0.449330
O O3 0.640008 0.859694 0.178562
O O4 0.382504 0.900510 0.136245
O O5 0.066189 0.857591 0.826673
O O6 0.125468 0.931867 0.418407
O O7 0.266484 0.957787 0.737726
O O8 0.298864 0.722496 0.771052
O O9 0.336711 0.584358 0.206699
O O10 0.500000 0.500000 0.000000
O O11 0.776621 0.615135 0.688906
O O12 0.760030 0.501936 0.407619
O O13 0.166337 0.170902 0.261902
O O14 0.981334 0.352567 0.301194
O O15 0.104848 0.403656 0.935467
O O16 0.000000 0.500000 0.500000
O O17 0.144262 0.065266 0.983811
#
# Coordination Sequence:
#
# PCOD9023079 Si02
#       8
#     2   2   2   2   2   2   2   2
#     4  10  23  45  65  99 127 176 227 268 337 389
#     4  10  25  46  61 104 126 175 224 266 340 388
#     4  11  27  44  68  96 139 176 224 283 328 402
#     4  11  23  41  65  98 135 179 218 272 335 398
#     4  10  22  39  66 103 133 173 220 272 336 399
#     4   9  21  39  62  97 138 174 215 268 334 399
#     4  11  23  41  72  95 133 171 217 279 329 395
#     4  10  22  45  70  91 135 169 223 277 319 402
#
# _framework density 23.910886000000001
#
# number of rings (size 3 to 8) (size 9 to 14) (size 15 to 20)
#    0.000    1.750    0.000    2.250   10.500    1.000 
#    9.000    2.500    0.000    0.000    0.000    0.000 
#    0.000    0.000    0.000    0.000    0.000    0.000 
#
# Total GULP energy -89472.776529 kJ/mol
# GULP energy per Si atom -5592.048533 kJ/mol
# Density = 2.385646 g / cm^3
# Si number density = 23.910886 Si / 1000 Ang^3
#
#
#
# Elastic Constant Matrix: (Units=GPa)
#
#
# Indices 1 2 3 4 5 6 
#
# 1 59.9519 16.8400 2.3035 6.8674 9.3020 -0.0847
# 2 16.8400 104.9656 23.6065 4.2745 2.4036 -6.5791
# 3 2.3035 23.6065 72.8311 -5.2224 8.7678 -19.1691
# 4 6.8674 4.2745 -5.2224 31.6051 -8.1262 8.0031
# 5 9.3020 2.4036 8.7678 -8.1262 38.2566 4.4928
# 6 -0.0847 -6.5791 -19.1691 8.0031 4.4928 37.8227
#
#
#
# Elastic Compliance Matrix: (Units=1/GPa)
#
#
# Indices 1 2 3 4 5 6 
#
# 1 0.019038 -0.002820 0.001200 -0.005676 -0.006179 0.002095
# 2 -0.002820 0.010832 -0.003485 -0.001397 0.000466 0.000352
# 3 0.001200 -0.003485 0.017848 -0.000546 -0.005359 0.009194
# 4 -0.005676 -0.001397 -0.000546 0.038287 0.010892 -0.009928
# 5 -0.006179 0.000466 -0.005359 0.010892 0.032185 -0.008777
# 6 0.002095 0.000352 0.009194 -0.009928 -0.008777 0.034308
#
#
# Mechanical properties :
#
#
# Convention : Reuss Voigt Hill
#
# Bulk Modulus (GPa) = 26.66175 35.91652 31.28913
# Shear Modulus (GPa) = 28.53716 34.53678 31.53697
#
# Velocity S-wave (km/s) = 3.45843 3.80464 3.63566
# Velocity P-wave (km/s) = 5.20791 5.86123 5.54420
#
# Compressibility (1/GPa) = 0.03750691
#
# Stress axis : x y z
#
# Youngs Moduli (GPa) = 52.52666 92.32326 56.02859
#
# Poissons Ratio (x) = 0.26038 -0.06725
# Poissons Ratio (y) = 0.14814 0.19528
# Poissons Ratio (z) = -0.06305 0.32177
#
# Static dielectric constant tensor:
#      x y z
#    x 1.955530 0.008480 0.004530 
#    y 0.008480 1.919900 0.001030 
#    z 0.004530 0.001030 1.884030 
# 
# From -- ./inp_files/69167.got.cif
#   From: 2010.05.17/outbox.cif.g08.bks.cpg/sg2_35_cif.got.tgz:69167.got - 2010.06.03 11:33:40.
