data_PCOD9023200
_publ_section_title
;
Structure prediction by ZEFSAII (Michael W. Deem and Ramdas Pophale) SiO2 
 PCOD9023200
Probable space group: P -1
;
_chemical_formula_sum "Si O2"
_cell_formula_units_Z 16
_cell_length_a 11.736789
_cell_length_b 9.541252
_cell_length_c 8.101919
_cell_angle_alpha 132.950336
_cell_angle_beta 71.396322
_cell_angle_gamma 108.444288
_cell_volume 622.936913
_symmetry_space_group_name_H-M "P -1"
_symmetry_group_IT_number 2
_symmetry_cell_setting 'triclinic'
loop_
_space_group_symop_operation_xyz
x,y,z
-x,-y,-z
loop_
_atom_site_type_symbol
_atom_site_label
_atom_site_fract_x
_atom_site_fract_y
_atom_site_fract_z
Si Si1 0.621784 0.452628 0.988344
Si Si2 0.051687 0.723551 0.175755
Si Si3 0.127130 0.137449 0.032729
Si Si4 0.796311 0.844128 0.323307
Si Si5 0.462689 0.772450 0.825107
Si Si6 0.730319 0.769617 0.627649
Si Si7 0.794363 0.353142 0.261767
Si Si8 0.844260 0.398640 0.641863
O O1 0.707439 0.640518 0.172685
O O2 0.583966 0.312470 0.045438
O O3 0.500000 0.500000 0.000000
O O4 0.705051 0.374561 0.748149
O O5 0.148023 0.744533 0.997822
O O6 0.094763 0.722952 0.345857
O O7 0.938813 0.834872 0.282548
O O8 0.000000 0.500000 0.000000
O O9 0.201874 0.066725 0.787280
O O10 0.114451 0.365199 0.182333
O O11 0.143629 0.657849 0.598383
O O12 0.000000 0.000000 0.000000
O O13 0.750305 0.910304 0.573146
O O14 0.587757 0.697927 0.657576
O O15 0.347732 0.727154 0.723052
O O16 0.500000 0.000000 0.000000
O O17 0.797378 0.582939 0.412008
O O18 0.790685 0.854872 0.836233
#
# Coordination Sequence:
#
# PCOD9023200 Si02
#       8
#     2   2   2   2   2   2   2   2
#     4  11  21  42  70  99 136 178 233 283 333 408
#     4  12  19  40  64 101 138 158 228 290 324 382
#     4  10  22  40  60  96 138 169 215 282 338 384
#     4  11  23  41  70  99 129 184 229 272 329 413
#     4  12  25  44  69 103 143 174 223 301 352 384
#     4  11  23  42  69  98 129 185 239 260 332 428
#     4  11  22  41  71 100 128 186 233 272 330 419
#     4  10  22  39  67 100 124 179 233 266 328 412
#
# _framework density 25.684782999999999
#
# number of rings (size 3 to 8) (size 9 to 14) (size 15 to 20)
#    0.000    1.000    6.250    2.625    1.750    3.000 
#    2.250    0.625    2.750    0.000    0.000    0.000 
#    0.000    0.000    0.000    0.000    0.000    0.000 
#
# Total GULP energy -89618.509894 kJ/mol
# GULP energy per Si atom -5601.156868 kJ/mol
# Density = 2.562632 g / cm^3
# Si number density = 25.684783 Si / 1000 Ang^3
#
#
#
# Elastic Constant Matrix: (Units=GPa)
#
#
# Indices 1 2 3 4 5 6 
#
# 1 165.7574 29.3438 70.6445 -22.3277 9.3503 9.5770
# 2 29.3438 144.3472 57.0489 -21.0975 3.9148 7.6925
# 3 70.6445 57.0489 143.8008 -41.0961 25.7324 15.6864
# 4 -22.3277 -21.0975 -41.0961 49.1154 -3.5693 -8.3917
# 5 9.3503 3.9148 25.7324 -3.5693 60.0100 -12.5291
# 6 9.5770 7.6925 15.6864 -8.3917 -12.5291 34.5007
#
#
#
# Elastic Compliance Matrix: (Units=1/GPa)
#
#
# Indices 1 2 3 4 5 6 
#
# 1 0.007649 -0.000047 -0.003674 0.000372 0.000363 -0.000220
# 2 -0.000047 0.008301 -0.003173 0.000988 0.000922 0.000180
# 3 -0.003674 -0.003173 0.013569 0.007101 -0.005609 -0.004752
# 4 0.000372 0.000988 0.007101 0.027291 -0.000974 0.002732
# 5 0.000363 0.000922 -0.005609 -0.000974 0.020898 0.009596
# 6 -0.000220 0.000180 -0.004752 0.002732 0.009596 0.035316
#
#
# Mechanical properties :
#
#
# Convention : Reuss Voigt Hill
#
# Bulk Modulus (GPa) = 63.56215 85.33107 74.44661
# Shear Modulus (GPa) = 37.86300 48.51643 43.18972
#
# Velocity S-wave (km/s) = 3.84362 4.35088 4.10509
# Velocity P-wave (km/s) = 6.67073 7.65080 7.17751
#
# Compressibility (1/GPa) = 0.01573263
#
# Stress axis : x y z
#
# Youngs Moduli (GPa) = 130.73020 120.46932 73.69764
#
# Poissons Ratio (x) = 0.00563 0.27076
# Poissons Ratio (y) = 0.00611 0.23382
# Poissons Ratio (z) = 0.48029 0.38221
#
# Static dielectric constant tensor:
#      x y z
#    x 2.023900 -0.015650 -0.004180 
#    y -0.015650 2.087660 0.057910 
#    z -0.004180 0.057910 2.083970 
# 
# From -- ./inp_files/179370.got.cif
#   From: 2010.05.17/outbox.cif.g08.bks.cpg/sg2_90_cif.got.tgz:179370.got - 2010.06.03 11:33:40.
