data_PCOD9023708
_publ_section_title
;
Structure prediction by ZEFSAII (Michael W. Deem and Ramdas Pophale) SiO2 
 PCOD9023708
Probable space group: P -1
;
_chemical_formula_sum "Si O2"
_cell_formula_units_Z 16
_cell_length_a 14.510716
_cell_length_b 5.135694
_cell_length_c 26.090310
_cell_angle_alpha 111.031081
_cell_angle_beta 23.035076
_cell_angle_gamma 106.924171
_cell_volume 706.028518
_symmetry_space_group_name_H-M "P -1"
_symmetry_group_IT_number 2
_symmetry_cell_setting 'triclinic'
loop_
_space_group_symop_operation_xyz
x,y,z
-x,-y,-z
loop_
_atom_site_type_symbol
_atom_site_label
_atom_site_fract_x
_atom_site_fract_y
_atom_site_fract_z
Si Si1 0.660738 0.629810 0.731683
Si Si2 0.429793 0.976125 0.719267
Si Si3 0.788676 0.579183 0.217822
Si Si4 0.186478 0.833872 0.176098
Si Si5 0.208598 0.464239 0.932355
Si Si6 0.334416 0.284457 0.594596
Si Si7 0.604925 0.588067 0.875275
Si Si8 0.091224 0.863221 0.496472
O O1 0.390098 0.698666 0.857497
O O2 0.630106 0.515483 0.796873
O O3 0.770226 0.429335 0.615133
O O4 0.862580 0.836386 0.645822
O O5 0.297422 0.138503 0.750171
O O6 0.353902 0.172665 0.821023
O O7 0.710115 0.971201 0.568047
O O8 0.357584 0.670076 0.743919
O O9 0.743139 0.605038 0.302194
O O10 0.062245 0.478761 0.060067
O O11 0.308814 0.670678 0.150661
O O12 0.911432 0.777954 0.310875
O O13 0.231936 0.159518 0.179339
O O14 0.341497 0.708353 0.038559
O O15 0.000000 0.500000 0.000000
O O16 0.500000 0.500000 0.500000
O O17 0.500000 0.000000 0.500000
O O18 0.000000 0.000000 0.500000
#
# Coordination Sequence:
#
# PCOD9023708 Si02
#       8
#     2   2   2   2   2   2   2   2
#     4  10  22  40  60  95 122 172 209 252 318 376
#     4  10  23  40  66  92 129 162 211 255 316 375
#     4  11  23  43  65  94 122 170 210 260 315 377
#     4  10  23  44  66  97 128 160 216 277 322 377
#     4   9  20  40  66  93 128 163 207 264 312 377
#     4  12  26  44  64  93 132 173 215 264 322 385
#     4  10  22  42  70  95 124 166 214 274 326 371
#     4  10  24  39  59  89 133 166 204 259 299 378
#
# _framework density 22.661975000000002
#
# number of rings (size 3 to 8) (size 9 to 14) (size 15 to 20)
#    0.000    1.750    0.000    2.625    8.750    3.000 
#    2.250    5.000    0.000    0.000    0.000    0.000 
#    0.000    0.000    0.000    0.000    0.000    0.000 
#
# Total GULP energy -89325.364100 kJ/mol
# GULP energy per Si atom -5582.835256 kJ/mol
# Density = 2.261040 g / cm^3
# Si number density = 22.661975 Si / 1000 Ang^3
#
#
#
# Elastic Constant Matrix: (Units=GPa)
#
#
# Indices 1 2 3 4 5 6 
#
# 1 60.9610 -5.8740 38.8474 -6.7034 14.6817 -3.7910
# 2 -5.8740 64.5717 22.9551 -11.8406 1.1944 -2.8627
# 3 38.8474 22.9551 157.7263 -35.0696 -8.8207 15.5579
# 4 -6.7034 -11.8406 -35.0696 25.0487 2.8659 4.7913
# 5 14.6817 1.1944 -8.8207 2.8659 50.2748 -8.0976
# 6 -3.7910 -2.8627 15.5579 4.7913 -8.0976 25.7348
#
#
#
# Elastic Compliance Matrix: (Units=1/GPa)
#
#
# Indices 1 2 3 4 5 6 
#
# 1 0.024319 0.005081 -0.008855 -0.004188 -0.007249 0.008000
# 2 0.005081 0.018207 -0.003161 0.005229 -0.002287 0.002992
# 3 -0.008855 -0.003161 0.014628 0.018952 0.001988 -0.013402
# 4 -0.004188 0.005229 0.018952 0.073317 -0.004008 -0.026404
# 5 -0.007249 -0.002287 0.001988 -0.004008 0.023546 0.005631
# 6 0.008000 0.002992 -0.013402 -0.026404 0.005631 0.055159
#
#
# Mechanical properties :
#
#
# Convention : Reuss Voigt Hill
#
# Bulk Modulus (GPa) = 23.10370 43.90177 33.50274
# Shear Modulus (GPa) = 21.05488 35.36701 28.21094
#
# Velocity S-wave (km/s) = 3.05139 3.95477 3.53208
# Velocity P-wave (km/s) = 4.75728 6.34571 5.60802
#
# Compressibility (1/GPa) = 0.04328311
#
# Stress axis : x y z
#
# Youngs Moduli (GPa) = 41.12011 54.92514 68.36072
#
# Poissons Ratio (x) = -0.27907 0.60532
# Poissons Ratio (y) = -0.20893 0.21612
# Poissons Ratio (z) = 0.36411 0.17364
#
# Static dielectric constant tensor:
#      x y z
#    x 1.866500 0.037340 -0.012820 
#    y 0.037340 1.888920 -0.000010 
#    z -0.012820 -0.000010 1.887460 
# 
# From -- ./inp_files/619022.got.cif
#   From: 2010.05.17/outbox.cif.g08.bks.cpg/sg2_310_cif.got.tgz:619022.got - 2010.06.03 11:33:40.
