data_PCOD9023352
_publ_section_title
;
Structure prediction by ZEFSAII (Michael W. Deem and Ramdas Pophale) SiO2 
 PCOD9023352
Probable space group: P -1
;
_chemical_formula_sum "Si O2"
_cell_formula_units_Z 12
_cell_length_a 7.065118
_cell_length_b 14.324085
_cell_length_c 11.465883
_cell_angle_alpha 29.077649
_cell_angle_beta 105.538911
_cell_angle_gamma 98.135698
_cell_volume 532.584360
_symmetry_space_group_name_H-M "P -1"
_symmetry_group_IT_number 2
_symmetry_cell_setting 'triclinic'
loop_
_space_group_symop_operation_xyz
x,y,z
-x,-y,-z
loop_
_atom_site_type_symbol
_atom_site_label
_atom_site_fract_x
_atom_site_fract_y
_atom_site_fract_z
Si Si1 0.073137 0.903274 0.493332
Si Si2 0.207335 0.562603 0.294163
Si Si3 0.511852 0.766063 0.743253
Si Si4 0.221630 0.234592 0.006064
Si Si5 0.181801 0.392697 0.228553
Si Si6 0.526961 0.812202 0.128009
O O1 0.281683 0.750583 0.717824
O O2 0.904207 0.795153 0.534832
O O3 0.128744 0.066157 0.239011
O O4 0.000000 0.000000 0.500000
O O5 0.218033 0.523788 0.199569
O O6 0.320583 0.737995 0.152097
O O7 0.326723 0.369619 0.587353
O O8 0.973255 0.611510 0.234139
O O9 0.646885 0.678092 0.971053
O O10 0.626118 0.688380 0.729869
O O11 0.500000 0.000000 0.500000
O O12 0.368202 0.153692 0.013770
O O13 0.000000 0.500000 0.000000
O O14 0.500000 0.000000 0.000000
#
# Coordination Sequence:
#
# PCOD9023352 Si02
#       6
#     2   2   2   2   2   2
#     4  11  23  40  70 107 148 190 234 286 366 441
#     4  11  27  50  73 107 147 186 250 302 362 434
#     4  10  22  39  68 105 142 188 235 282 370 436
#     4  11  24  45  75 103 145 191 244 298 359 437
#     4  12  24  44  70 112 150 187 233 308 366 436
#     4  11  29  51  77 100 142 197 253 305 353 423
#
# _framework density 22.531642000000002
#
# number of rings (size 3 to 8) (size 9 to 14) (size 15 to 20)
#    0.000    1.000    5.000    0.500   11.667    2.667 
#    3.000    0.000    0.000    0.000    0.000    0.000 
#    0.000    0.000    0.000    0.000    0.000    0.000 
#
# Total GULP energy -67200.948579 kJ/mol
# GULP energy per Si atom -5600.079048 kJ/mol
# Density = 2.248036 g / cm^3
# Si number density = 22.531642 Si / 1000 Ang^3
#
#
#
# Elastic Constant Matrix: (Units=GPa)
#
#
# Indices 1 2 3 4 5 6 
#
# 1 139.0307 52.6311 23.5694 -6.6046 19.5433 -7.0637
# 2 52.6311 134.7012 10.4348 -13.4987 -5.7874 5.6637
# 3 23.5694 10.4348 61.5167 -1.1639 -2.8111 11.1726
# 4 -6.6046 -13.4987 -1.1639 38.7352 1.0705 -0.5094
# 5 19.5433 -5.7874 -2.8111 1.0705 40.5574 5.6066
# 6 -7.0637 5.6637 11.1726 -0.5094 5.6066 42.5619
#
#
#
# Elastic Compliance Matrix: (Units=1/GPa)
#
#
# Indices 1 2 3 4 5 6 
#
# 1 0.010776 -0.004292 -0.004506 0.000451 -0.006743 0.004436
# 2 -0.004292 0.009568 0.000722 0.002485 0.003784 -0.002644
# 3 -0.004506 0.000722 0.019242 -0.000149 0.004509 -0.006491
# 4 0.000451 0.002485 -0.000149 0.026774 -0.000605 0.000183
# 5 -0.006743 0.003784 0.004509 -0.000605 0.029704 -0.006726
# 6 0.004436 -0.002644 -0.006491 0.000183 -0.006726 0.027175
#
#
# Mechanical properties :
#
#
# Convention : Reuss Voigt Hill
#
# Bulk Modulus (GPa) = 42.67593 56.50215 49.58904
# Shear Modulus (GPa) = 33.96691 40.94513 37.45602
#
# Velocity S-wave (km/s) = 3.88689 4.26752 4.08165
# Velocity P-wave (km/s) = 6.25504 7.02948 6.65353
#
# Compressibility (1/GPa) = 0.02343241
#
# Stress axis : x y z
#
# Youngs Moduli (GPa) = 92.79846 104.51701 51.97040
#
# Poissons Ratio (x) = 0.44863 0.23417
# Poissons Ratio (y) = 0.39833 -0.03751
# Poissons Ratio (z) = 0.41813 -0.07543
#
# Static dielectric constant tensor:
#      x y z
#    x 1.828520 0.027000 -0.012880 
#    y 0.027000 1.783800 0.003610 
#    z -0.012880 0.003610 1.939630 
# 
# From -- ./inp_files/367349.got.cif
#   From: 2010.05.17/outbox.cif.g08.bks.cpg/sg2_184_cif.got.tgz:367349.got - 2010.06.03 11:33:40.
