data_PCOD9023313
_publ_section_title
;
Structure prediction by ZEFSAII (Michael W. Deem and Ramdas Pophale) SiO2 
 PCOD9023313
Probable space group: P -1
;
_chemical_formula_sum "Si O2"
_cell_formula_units_Z 15
_cell_length_a 8.770816
_cell_length_b 16.621672
_cell_length_c 6.261820
_cell_angle_alpha 87.228183
_cell_angle_beta 52.107674
_cell_angle_gamma 83.700887
_cell_volume 715.856691
_symmetry_space_group_name_H-M "P -1"
_symmetry_group_IT_number 2
_symmetry_cell_setting 'triclinic'
loop_
_space_group_symop_operation_xyz
x,y,z
-x,-y,-z
loop_
_atom_site_type_symbol
_atom_site_label
_atom_site_fract_x
_atom_site_fract_y
_atom_site_fract_z
Si Si1 0.213748 0.206282 0.571249
Si Si2 0.631308 0.543054 0.051354
Si Si3 0.721949 0.343246 0.629254
Si Si4 0.948115 0.216410 0.158325
Si Si5 0.647779 0.199922 0.037145
Si Si6 0.000000 0.500000 0.000000
Si Si7 0.075928 0.388228 0.538698
Si Si8 0.051811 0.905365 0.440838
O O1 0.436611 0.196123 0.315672
O O2 0.120750 0.292753 0.552989
O O3 0.104611 0.135494 0.565828
O O4 0.158957 0.211870 0.867944
O O5 0.778658 0.588236 0.771665
O O6 0.500000 0.500000 0.000000
O O7 0.472628 0.607433 0.293691
O O8 0.774809 0.495233 0.101468
O O9 0.868571 0.298353 0.337018
O O10 0.859594 0.400364 0.626033
O O11 0.658381 0.274924 0.855461
O O12 0.795360 0.210520 0.101108
O O13 0.945786 0.142638 0.332552
O O14 0.739176 0.120168 0.843873
O O15 0.915672 0.561510 0.258834
O O16 0.000000 0.000000 0.500000
#
# Coordination Sequence:
#
# PCOD9023313 Si02
#       8
#     2   2   2   2   2   1   2   2
#     4  11  23  41  68  99 133 175 229 280 335 416
#     4  12  28  47  67  99 141 181 233 295 354 419
#     4  11  23  44  69  94 138 178 230 292 339 412
#     4  10  22  39  67  99 129 177 226 273 339 404
#     4  10  22  41  65 104 130 176 230 277 340 408
#     4  12  30  44  68  98 136 184 226 290 356 408
#     4  12  25  46  67  99 137 178 237 287 348 416
#     4  10  23  44  66  97 143 178 217 282 341 403
#
# _framework density 20.953914000000001
#
# number of rings (size 3 to 8) (size 9 to 14) (size 15 to 20)
#    0.000    1.067    6.667    0.400    3.733    5.333 
#    0.000    1.333    0.000    0.000    0.000    0.000 
#    0.000    0.000    0.000    0.000    0.000    0.000 
#
# Total GULP energy -83571.052707 kJ/mol
# GULP energy per Si atom -5571.403514 kJ/mol
# Density = 2.090622 g / cm^3
# Si number density = 20.953914 Si / 1000 Ang^3
#
#
#
# Elastic Constant Matrix: (Units=GPa)
#
#
# Indices 1 2 3 4 5 6 
#
# 1 88.4945 16.0368 39.1511 10.1572 -27.2064 1.4309
# 2 16.0368 68.6463 35.8305 16.5062 -8.8714 9.0285
# 3 39.1511 35.8305 163.0827 6.9633 -34.2398 8.0521
# 4 10.1572 16.5062 6.9633 15.9412 2.1970 0.1638
# 5 -27.2064 -8.8714 -34.2398 2.1970 39.1101 2.6794
# 6 1.4309 9.0285 8.0521 0.1638 2.6794 23.3459
#
#
#
# Elastic Compliance Matrix: (Units=1/GPa)
#
#
# Indices 1 2 3 4 5 6 
#
# 1 0.016813 0.001928 -0.001215 -0.013809 0.012026 -0.002640
# 2 0.001928 0.023627 -0.002830 -0.025226 0.006244 -0.008819
# 3 -0.001215 -0.002830 0.008497 -0.000832 0.006168 -0.002464
# 4 -0.013809 -0.025226 -0.000832 0.100997 -0.022605 0.012775
# 5 0.012026 0.006244 0.006168 -0.022605 0.042707 -0.010022
# 6 -0.002640 -0.008819 -0.002464 0.012775 -0.010022 0.048317
#
#
# Mechanical properties :
#
#
# Convention : Reuss Voigt Hill
#
# Bulk Modulus (GPa) = 22.36993 55.80670 39.08831
# Shear Modulus (GPa) = 19.22389 30.95979 25.09184
#
# Velocity S-wave (km/s) = 3.03221 3.84802 3.46421
# Velocity P-wave (km/s) = 4.79145 6.81424 5.89033
#
# Compressibility (1/GPa) = 0.04470287
#
# Stress axis : x y z
#
# Youngs Moduli (GPa) = 59.47721 42.32479 117.68217
#
# Poissons Ratio (x) = -0.08161 0.14299
# Poissons Ratio (y) = -0.11469 0.33309
# Poissons Ratio (z) = 0.07227 0.11980
#
# Static dielectric constant tensor:
#      x y z
#    x 1.768730 -0.013320 0.018980 
#    y -0.013320 1.757970 0.011590 
#    z 0.018980 0.011590 1.792940 
# 
# From -- ./inp_files/43963.got.cif
#   From: 2010.05.17/outbox.cif.g08.bks.cpg/sg2_22_cif.got.tgz:43963.got - 2010.06.03 11:33:40.
