data_PCOD9023267
_publ_section_title
;
Structure prediction by ZEFSAII (Michael W. Deem and Ramdas Pophale) SiO2 
 PCOD9023267
Probable space group: P -1
;
_chemical_formula_sum "Si O2"
_cell_formula_units_Z 14
_cell_length_a 19.754406
_cell_length_b 7.223745
_cell_length_c 16.275257
_cell_angle_alpha 131.284889
_cell_angle_beta 23.214120
_cell_angle_gamma 116.765819
_cell_volume 584.705651
_symmetry_space_group_name_H-M "P -1"
_symmetry_group_IT_number 2
_symmetry_cell_setting 'triclinic'
loop_
_space_group_symop_operation_xyz
x,y,z
-x,-y,-z
loop_
_atom_site_type_symbol
_atom_site_label
_atom_site_fract_x
_atom_site_fract_y
_atom_site_fract_z
Si Si1 0.543597 0.810280 0.314888
Si Si2 0.651160 0.616360 0.389345
Si Si3 0.111639 0.661807 0.298910
Si Si4 0.104659 0.242968 0.730377
Si Si5 0.237601 0.350395 0.353489
Si Si6 0.161460 0.830192 0.699714
Si Si7 0.657352 0.183272 0.807388
O O1 0.380381 0.718825 0.460806
O O2 0.500000 0.000000 0.500000
O O3 0.493498 0.044096 0.368255
O O4 0.762087 0.533006 0.976551
O O5 0.500000 0.500000 0.500000
O O6 0.762121 0.613097 0.351437
O O7 0.860623 0.459531 0.055247
O O8 0.266174 0.617141 0.184255
O O9 0.946967 0.580930 0.478481
O O10 0.000000 0.000000 0.500000
O O11 0.123639 0.050709 0.732284
O O12 0.208288 0.025062 0.476219
O O13 0.159134 0.569530 0.582060
O O14 0.315084 0.034551 0.212376
O O15 0.418598 0.357575 0.110629
O O16 0.000000 0.000000 0.000000
#
# Coordination Sequence:
#
# PCOD9023267 Si02
#       7
#     2   2   2   2   2   2   2
#     4  11  24  41  68 101 133 173 229 279 330 404
#     4  10  25  44  64  99 135 174 225 276 345 393
#     4  10  22  41  64  98 134 170 223 273 329 396
#     4  10  25  44  66  98 134 178 221 282 338 397
#     4  10  22  39  67  95 123 179 217 269 333 395
#     4  11  24  42  68  97 133 172 225 281 336 401
#     4  10  22  43  64  92 134 170 226 270 332 401
#
# _framework density 23.943673
#
# number of rings (size 3 to 8) (size 9 to 14) (size 15 to 20)
#    0.000    1.714    1.429    0.857   14.000    1.714 
#    0.000    0.714    0.000    0.000    0.000    0.000 
#    0.000    0.000    0.000    0.000    0.000    0.000 
#
# Total GULP energy -78155.189969 kJ/mol
# GULP energy per Si atom -5582.513569 kJ/mol
# Density = 2.388918 g / cm^3
# Si number density = 23.943673 Si / 1000 Ang^3
#
#
#
# Elastic Constant Matrix: (Units=GPa)
#
#
# Indices 1 2 3 4 5 6 
#
# 1 80.9392 35.4018 44.5989 -19.5506 -0.6538 36.5381
# 2 35.4018 103.3097 49.6334 -19.2049 -20.8214 48.6638
# 3 44.5989 49.6334 172.7423 -10.7866 1.6095 38.6107
# 4 -19.5506 -19.2049 -10.7866 50.2876 9.4808 -13.6568
# 5 -0.6538 -20.8214 1.6095 9.4808 36.9376 -2.3542
# 6 36.5381 48.6638 38.6107 -13.6568 -2.3542 58.2127
#
#
#
# Elastic Compliance Matrix: (Units=1/GPa)
#
#
# Indices 1 2 3 4 5 6 
#
# 1 0.019051 -0.000741 -0.002459 0.004551 -0.001696 -0.008708
# 2 -0.000741 0.019893 -0.002450 0.001105 0.010140 -0.013871
# 3 -0.002459 -0.002450 0.007459 -0.000373 -0.001750 -0.001514
# 4 0.004551 0.001105 -0.000373 0.023453 -0.005188 0.001759
# 5 -0.001696 0.010140 -0.001750 -0.005188 0.033777 -0.006102
# 6 -0.008708 -0.013871 -0.001514 0.001759 -0.006102 0.035410
#
#
# Mechanical properties :
#
#
# Convention : Reuss Voigt Hill
#
# Bulk Modulus (GPa) = 28.48694 68.47328 48.48011
# Shear Modulus (GPa) = 30.85581 44.24471 37.55026
#
# Velocity S-wave (km/s) = 3.59372 4.30335 3.96444
# Velocity P-wave (km/s) = 5.39843 7.30421 6.42240
#
# Compressibility (1/GPa) = 0.03510381
#
# Stress axis : x y z
#
# Youngs Moduli (GPa) = 52.49166 50.26820 134.06122
#
# Poissons Ratio (x) = 0.03723 0.32971
# Poissons Ratio (y) = 0.03888 0.32841
# Poissons Ratio (z) = 0.12910 0.12314
#
# Static dielectric constant tensor:
#      x y z
#    x 2.003790 -0.034430 -0.052490 
#    y -0.034430 1.944300 0.027880 
#    z -0.052490 0.027880 1.817320 
# 
# From -- ./inp_files/577461.got.cif
#   From: 2010.05.17/outbox.cif.g08.bks.cpg/sg2_289_cif.got.tgz:577461.got - 2010.06.03 11:33:40.
