data_PCOD9023962
_publ_section_title
;
Structure prediction by ZEFSAII (Michael W. Deem and Ramdas Pophale) SiO2 
 PCOD9023962
Probable space group: P -1
;
_chemical_formula_sum "Si O2"
_cell_formula_units_Z 14
_cell_length_a 6.891499
_cell_length_b 17.959993
_cell_length_c 17.952885
_cell_angle_alpha 23.745334
_cell_angle_beta 41.625256
_cell_angle_gamma 40.703087
_cell_volume 571.230057
_symmetry_space_group_name_H-M "P -1"
_symmetry_group_IT_number 2
_symmetry_cell_setting 'triclinic'
loop_
_space_group_symop_operation_xyz
x,y,z
-x,-y,-z
loop_
_atom_site_type_symbol
_atom_site_label
_atom_site_fract_x
_atom_site_fract_y
_atom_site_fract_z
Si Si1 0.591674 0.763944 0.111673
Si Si2 0.839238 0.876084 0.498520
Si Si3 0.655113 0.559471 0.565950
Si Si4 0.965977 0.722288 0.827455
Si Si5 0.359099 0.886247 0.455917
Si Si6 0.696385 0.163845 0.711553
Si Si7 0.844081 0.444112 0.921567
O O1 0.466410 0.628216 0.215708
O O2 0.394953 0.778375 0.230591
O O3 0.958506 0.665413 0.105332
O O4 0.563922 0.983166 0.897676
O O5 0.880931 0.655546 0.708742
O O6 0.085529 0.923808 0.438744
O O7 0.953206 0.890873 0.367623
O O8 0.500000 0.000000 0.500000
O O9 0.611281 0.718224 0.498184
O O10 0.466544 0.663641 0.453628
O O11 0.000000 0.500000 0.500000
O O12 0.244974 0.782472 0.652821
O O13 0.989927 0.700235 0.929059
O O14 0.667108 0.886850 0.733068
O O15 0.000000 0.500000 0.000000
O O16 0.500000 0.500000 0.000000
#
# Coordination Sequence:
#
# PCOD9023962 Si02
#       7
#     2   2   2   2   2   2   2
#     4  11  22  44  66  92 132 169 220 273 321 383
#     4  11  21  40  64  97 131 164 213 270 324 388
#     4  11  23  42  65  93 130 177 215 265 326 385
#     4  11  21  41  63  89 129 170 205 268 326 379
#     4  10  22  40  62  93 125 169 212 264 322 384
#     4  10  23  42  68  94 129 172 216 274 323 385
#     4  12  23  38  66  96 128 172 213 267 331 384
#
# _framework density 24.508514999999999
#
# number of rings (size 3 to 8) (size 9 to 14) (size 15 to 20)
#    0.000    1.143    4.286    3.857    0.000    1.714 
#    5.143    1.429    0.000    0.000    0.000    0.000 
#    0.000    0.000    0.000    0.000    0.000    0.000 
#
# Total GULP energy -78075.640842 kJ/mol
# GULP energy per Si atom -5576.831489 kJ/mol
# Density = 2.445273 g / cm^3
# Si number density = 24.508515 Si / 1000 Ang^3
#
#
#
# Elastic Constant Matrix: (Units=GPa)
#
#
# Indices 1 2 3 4 5 6 
#
# 1 24.4817 16.7814 8.5697 2.9257 4.1601 -0.6134
# 2 16.7814 223.2391 59.1405 22.9033 -2.2111 -5.1743
# 3 8.5697 59.1405 176.8347 -11.0138 7.7062 2.9689
# 4 2.9257 22.9033 -11.0138 61.2566 8.1473 -2.9062
# 5 4.1601 -2.2111 7.7062 8.1473 26.6863 3.0536
# 6 -0.6134 -5.1743 2.9689 -2.9062 3.0536 35.0095
#
#
#
# Elastic Compliance Matrix: (Units=1/GPa)
#
#
# Indices 1 2 3 4 5 6 
#
# 1 0.044539 -0.003169 -0.000815 -0.000104 -0.007052 0.000988
# 2 -0.003169 0.005532 -0.001961 -0.002542 0.002235 0.000522
# 3 -0.000815 -0.001961 0.006613 0.002285 -0.002591 -0.000449
# 4 -0.000104 -0.002542 0.002285 0.018660 -0.006730 0.001565
# 5 -0.007052 0.002235 -0.002591 -0.006730 0.041994 -0.003795
# 6 0.000988 0.000522 -0.000449 0.001565 -0.003795 0.029157
#
#
# Mechanical properties :
#
#
# Convention : Reuss Voigt Hill
#
# Bulk Modulus (GPa) = 22.32331 65.94873 44.13602
# Shear Modulus (GPa) = 28.84885 47.26140 38.05513
#
# Velocity S-wave (km/s) = 3.43460 4.39608 3.94475
# Velocity P-wave (km/s) = 4.98566 7.26184 6.22861
#
# Compressibility (1/GPa) = 0.04479622
#
# Stress axis : x y z
#
# Youngs Moduli (GPa) = 22.45205 180.75617 151.21460
#
# Poissons Ratio (x) = 0.57274 0.12317
# Poissons Ratio (y) = 0.07114 0.29656
# Poissons Ratio (z) = 0.01829 0.35449
#
# Static dielectric constant tensor:
#      x y z
#    x 2.161040 0.108050 -0.149000 
#    y 0.108050 2.174270 -0.074140 
#    z -0.149000 -0.074140 2.025120 
# 
# From -- ./inp_files/505296.got.cif
#   From: 2010.05.17/outbox.cif.g08.bks.cpg/sg2_253_cif.got.tgz:505296.got - 2010.06.03 11:33:40.
