data_PCOD9023038
_publ_section_title
;
Structure prediction by ZEFSAII (Michael W. Deem and Ramdas Pophale) SiO2 
 PCOD9023038
Probable space group: P -1
;
_chemical_formula_sum "Si O2"
_cell_formula_units_Z 16
_cell_length_a 11.710705
_cell_length_b 13.861555
_cell_length_c 9.436247
_cell_angle_alpha 64.066450
_cell_angle_beta 64.872103
_cell_angle_gamma 118.340396
_cell_volume 729.423211
_symmetry_space_group_name_H-M "P -1"
_symmetry_group_IT_number 2
_symmetry_cell_setting 'triclinic'
loop_
_space_group_symop_operation_xyz
x,y,z
-x,-y,-z
loop_
_atom_site_type_symbol
_atom_site_label
_atom_site_fract_x
_atom_site_fract_y
_atom_site_fract_z
Si Si1 0.090095 0.940811 0.481608
Si Si2 0.762215 0.331249 0.295398
Si Si3 0.526712 0.997215 0.153336
Si Si4 0.756978 0.681998 0.430944
Si Si5 0.313054 0.459538 0.145006
Si Si6 0.775097 0.960293 0.973493
Si Si7 0.414727 0.575926 0.552307
Si Si8 0.518091 0.187351 0.234913
O O1 0.890432 0.722299 0.720463
O O2 0.212646 0.016870 0.216795
O O3 0.262466 0.030607 0.452550
O O4 0.000000 0.000000 0.500000
O O5 0.696432 0.198094 0.532514
O O6 0.719522 0.416817 0.331182
O O7 0.593484 0.200728 0.339849
O O8 0.000000 0.500000 0.000000
O O9 0.590106 0.147280 0.108992
O O10 0.693717 0.012790 0.059825
O O11 0.500000 0.000000 0.000000
O O12 0.747086 0.592304 0.623614
O O13 0.547497 0.613918 0.586125
O O14 0.730135 0.605061 0.344385
O O15 0.982833 0.897241 0.194731
O O16 0.500000 0.500000 0.000000
O O17 0.378555 0.625072 0.969108
O O18 0.603631 0.751361 0.237567
#
# Coordination Sequence:
#
# PCOD9023038 Si02
#       8
#     2   2   2   2   2   2   2   2
#     4  11  23  41  69 103 139 184 235 291 361 424
#     4  11  28  47  70 105 143 186 244 299 357 420
#     4  11  25  49  74  99 141 190 245 289 352 434
#     4  10  22  39  65  98 133 178 230 286 353 420
#     4  11  23  40  67 105 139 178 235 289 358 429
#     4  10  22  42  66  97 131 180 237 286 349 426
#     4  10  22  43  64  95 136 181 228 290 353 424
#     4  12  25  46  70 100 143 187 233 300 354 418
#
# _framework density 21.935141000000002
#
# number of rings (size 3 to 8) (size 9 to 14) (size 15 to 20)
#    0.000    1.250    2.500    2.250    7.000    0.000 
#    0.000    3.125    0.000    0.000    0.000    0.000 
#    0.000    0.000    0.000    0.000    0.000    0.000 
#
# Total GULP energy -89497.155601 kJ/mol
# GULP energy per Si atom -5593.572225 kJ/mol
# Density = 2.188522 g / cm^3
# Si number density = 21.935141 Si / 1000 Ang^3
#
#
#
# Elastic Constant Matrix: (Units=GPa)
#
#
# Indices 1 2 3 4 5 6 
#
# 1 61.4172 32.7324 28.1100 -7.1542 2.3596 5.5250
# 2 32.7324 81.9894 34.5483 -8.6278 -5.7157 -12.5448
# 3 28.1100 34.5483 105.6187 0.6777 2.5657 7.8204
# 4 -7.1542 -8.6278 0.6777 28.2174 0.0671 -5.5512
# 5 2.3596 -5.7157 2.5657 0.0671 31.0507 -4.9752
# 6 5.5250 -12.5448 7.8204 -5.5512 -4.9752 55.4815
#
#
#
# Elastic Compliance Matrix: (Units=1/GPa)
#
#
# Indices 1 2 3 4 5 6 
#
# 1 0.022953 -0.008492 -0.002972 0.002543 -0.003686 -0.003863
# 2 -0.008492 0.019685 -0.004875 0.005354 0.005788 0.007038
# 3 -0.002972 -0.004875 0.012150 -0.003126 -0.002153 -0.003025
# 4 0.002543 0.005354 -0.003126 0.038864 0.001840 0.005451
# 5 -0.003686 0.005788 -0.002153 0.001840 0.034568 0.005263
# 6 -0.003863 0.007038 -0.003025 0.005451 0.005263 0.021444
#
#
# Mechanical properties :
#
#
# Convention : Reuss Voigt Hill
#
# Bulk Modulus (GPa) = 45.22701 48.86740 47.04720
# Shear Modulus (GPa) = 26.35570 33.19221 29.77396
#
# Velocity S-wave (km/s) = 3.47007 3.89420 3.68824
# Velocity P-wave (km/s) = 6.05957 6.52275 6.29542
#
# Compressibility (1/GPa) = 0.02211068
#
# Stress axis : x y z
#
# Youngs Moduli (GPa) = 43.56653 50.80057 82.30452
#
# Poissons Ratio (x) = 0.43138 0.24461
# Poissons Ratio (y) = 0.36995 0.40124
# Poissons Ratio (z) = 0.12948 0.24766
#
# Static dielectric constant tensor:
#      x y z
#    x 1.845390 -0.001060 0.017410 
#    y -0.001060 1.770080 0.015030 
#    z 0.017410 0.015030 1.811110 
# 
# From -- ./inp_files/272155.got.cif
#   From: 2010.05.17/outbox.cif.g08.bks.cpg/sg2_137_cif.got.tgz:272155.got - 2010.06.03 11:33:40.
