data_PCOD9023824
_publ_section_title
;
Structure prediction by ZEFSAII (Michael W. Deem and Ramdas Pophale) SiO2 
 PCOD9023824
Probable space group: P -1
;
_chemical_formula_sum "Si O2"
_cell_formula_units_Z 16
_cell_length_a 14.223702
_cell_length_b 25.144892
_cell_length_c 8.905733
_cell_angle_alpha 135.452378
_cell_angle_beta 47.185840
_cell_angle_gamma 160.484352
_cell_volume 746.009245
_symmetry_space_group_name_H-M "P -1"
_symmetry_group_IT_number 2
_symmetry_cell_setting 'triclinic'
loop_
_space_group_symop_operation_xyz
x,y,z
-x,-y,-z
loop_
_atom_site_type_symbol
_atom_site_label
_atom_site_fract_x
_atom_site_fract_y
_atom_site_fract_z
Si Si1 0.835948 0.986076 0.214434
Si Si2 0.652728 0.653577 0.715005
Si Si3 0.356164 0.585673 0.666333
Si Si4 0.088680 0.100612 0.473973
Si Si5 0.704706 0.594326 0.831676
Si Si6 0.151115 0.876225 0.107909
Si Si7 0.724459 0.228149 0.676214
Si Si8 0.558204 0.051637 0.786030
O O1 0.038216 0.165195 0.321570
O O2 0.847309 0.976734 0.359866
O O3 0.530683 0.846087 0.202943
O O4 0.000000 0.000000 0.000000
O O5 0.500000 0.500000 0.500000
O O6 0.465289 0.623583 0.792378
O O7 0.695975 0.660514 0.858018
O O8 0.614591 0.763469 0.656529
O O9 0.357051 0.508474 0.413794
O O10 0.022284 0.425363 0.713221
O O11 0.064701 0.171167 0.714645
O O12 0.000000 0.000000 0.500000
O O13 0.500000 0.500000 0.000000
O O14 0.989166 0.729902 0.888144
O O15 0.266204 0.903683 0.192731
O O16 0.391633 0.022232 0.018487
O O17 0.627375 0.107585 0.428243
O O18 0.730953 0.190694 0.756251
#
# Coordination Sequence:
#
# PCOD9023824 Si02
#       8
#     2   2   2   2   2   2   2   2
#     4  11  25  44  69  93 127 181 231 261 326 411
#     4   9  22  39  62  93 131 171 222 270 315 386
#     4  10  22  40  61  97 126 167 217 273 329 379
#     4  11  25  43  66  89 132 180 218 270 323 403
#     4  11  20  31  61  95 133 160 207 266 328 381
#     4  11  21  39  59 100 134 167 216 265 333 387
#     4  11  22  40  66  96 131 170 215 276 329 389
#     4  10  23  35  65  97 134 167 209 273 336 384
#
# _framework density 21.447455000000001
#
# number of rings (size 3 to 8) (size 9 to 14) (size 15 to 20)
#    0.000    1.500    3.750    0.750   10.500    0.000 
#    0.000    3.125    0.000    0.000    0.000    0.000 
#    0.000    0.000    0.000    0.000    0.000    0.000 
#
# Total GULP energy -89088.183360 kJ/mol
# GULP energy per Si atom -5568.011460 kJ/mol
# Density = 2.139864 g / cm^3
# Si number density = 21.447455 Si / 1000 Ang^3
#
#
#
# Elastic Constant Matrix: (Units=GPa)
#
#
# Indices 1 2 3 4 5 6 
#
# 1 95.7872 54.0115 33.6306 -16.3553 40.2268 -7.2264
# 2 54.0115 120.2894 9.5020 -24.6564 5.4354 12.1097
# 3 33.6306 9.5020 68.5615 -17.8980 15.0648 1.6545
# 4 -16.3553 -24.6564 -17.8980 31.5080 4.2146 3.8994
# 5 40.2268 5.4354 15.0648 4.2146 45.6432 -7.1329
# 6 -7.2264 12.1097 1.6545 3.8994 -7.1329 26.2942
#
#
#
# Elastic Compliance Matrix: (Units=1/GPa)
#
#
# Indices 1 2 3 4 5 6 
#
# 1 0.030377 -0.011991 -0.007514 0.004103 -0.022031 0.007759
# 2 -0.011991 0.016519 0.005935 0.011043 0.003763 -0.011894
# 3 -0.007514 0.005935 0.022716 0.015461 -0.004533 -0.009751
# 4 0.004103 0.011043 0.015461 0.055947 -0.018032 -0.018119
# 5 -0.022031 0.003763 -0.004533 -0.018032 0.045200 0.007433
# 6 0.007759 -0.011894 -0.009751 -0.018119 0.007433 0.050958
#
#
# Mechanical properties :
#
#
# Convention : Reuss Voigt Hill
#
# Bulk Modulus (GPa) = 23.54418 53.21404 38.37911
# Shear Modulus (GPa) = 19.01033 33.18867 26.09950
#
# Velocity S-wave (km/s) = 2.98042 3.93802 3.49220
# Velocity P-wave (km/s) = 4.77968 6.74852 5.84756
#
# Compressibility (1/GPa) = 0.04247334
#
# Stress axis : x y z
#
# Youngs Moduli (GPa) = 32.91941 60.53538 44.02146
#
# Poissons Ratio (x) = 0.72586 0.33078
# Poissons Ratio (y) = 0.39473 -0.26127
# Poissons Ratio (z) = 0.24736 -0.35928
#
# Static dielectric constant tensor:
#      x y z
#    x 1.748660 -0.036630 -0.004980 
#    y -0.036630 1.806390 0.103870 
#    z -0.004980 0.103870 1.800600 
# 
# From -- ./inp_files/320540.got.cif
#   From: 2010.05.17/outbox.cif.g08.bks.cpg/sg2_161_cif.got.tgz:320540.got - 2010.06.03 11:33:40.
