data_PCOD9023655
_publ_section_title
;
Structure prediction by ZEFSAII (Michael W. Deem and Ramdas Pophale) SiO2 
 PCOD9023655
Probable space group: P -1
;
_chemical_formula_sum "Si O2"
_cell_formula_units_Z 12
_cell_length_a 7.625635
_cell_length_b 11.944970
_cell_length_c 11.065202
_cell_angle_alpha 144.740496
_cell_angle_beta 64.457068
_cell_angle_gamma 102.558039
_cell_volume 507.130012
_symmetry_space_group_name_H-M "P -1"
_symmetry_group_IT_number 2
_symmetry_cell_setting 'triclinic'
loop_
_space_group_symop_operation_xyz
x,y,z
-x,-y,-z
loop_
_atom_site_type_symbol
_atom_site_label
_atom_site_fract_x
_atom_site_fract_y
_atom_site_fract_z
Si Si1 0.667849 0.877650 0.014163
Si Si2 0.545657 0.262117 0.258217
Si Si3 0.166234 0.416576 0.775208
Si Si4 0.414642 0.647349 0.045705
Si Si5 0.976858 0.235785 0.028828
Si Si6 0.729599 0.970229 0.456412
O O1 0.562298 0.765629 0.045676
O O2 0.575999 0.117487 0.238756
O O3 0.622856 0.788085 0.820937
O O4 0.897516 0.823160 0.938998
O O5 0.500000 0.500000 0.500000
O O6 0.761920 0.189473 0.063444
O O7 0.235354 0.184335 0.578873
O O8 0.072229 0.525449 0.776894
O O9 0.342323 0.519290 0.852127
O O10 0.000000 0.500000 0.000000
O O11 0.245408 0.822058 0.314138
O O12 0.500000 0.500000 0.000000
O O13 0.114420 0.117464 0.774704
O O14 0.500000 0.000000 0.500000
#
# Coordination Sequence:
#
# PCOD9023655 Si02
#       6
#     2   2   2   2   2   2
#     4  11  25  47  70 102 140 179 243 286 344 420
#     4  11  27  49  73  97 137 190 238 294 341 406
#     4  10  22  40  60 103 143 176 233 276 339 424
#     4  12  22  40  70 103 139 184 224 280 354 415
#     4  11  23  44  70 104 141 177 236 286 346 424
#     4  11  22  40  70 104 143 184 220 287 355 414
#
# _framework density 23.662571
#
# number of rings (size 3 to 8) (size 9 to 14) (size 15 to 20)
#    0.000    1.000    5.000    1.500    2.333    4.667 
#    0.000    6.667    0.000    0.000    0.000    0.000 
#    0.000    0.000    0.000    0.000    0.000    0.000 
#
# Total GULP energy -67085.164494 kJ/mol
# GULP energy per Si atom -5590.430374 kJ/mol
# Density = 2.360871 g / cm^3
# Si number density = 23.662571 Si / 1000 Ang^3
#
#
#
# Elastic Constant Matrix: (Units=GPa)
#
#
# Indices 1 2 3 4 5 6 
#
# 1 90.7700 36.4442 33.2560 10.0421 -3.5461 -27.1091
# 2 36.4442 138.9748 40.5695 37.4892 -20.8569 -17.1285
# 3 33.2560 40.5695 126.9435 38.2223 -6.9346 -11.9619
# 4 10.0421 37.4892 38.2223 53.7918 3.6444 -19.9617
# 5 -3.5461 -20.8569 -6.9346 3.6444 26.8929 -0.2509
# 6 -27.1091 -17.1285 -11.9619 -19.9617 -0.2509 55.4898
#
#
#
# Elastic Compliance Matrix: (Units=1/GPa)
#
#
# Indices 1 2 3 4 5 6 
#
# 1 0.015567 -0.003918 -0.003954 0.005619 -0.002696 0.007553
# 2 -0.003918 0.011872 0.000351 -0.008972 0.009984 -0.001356
# 3 -0.003954 0.000351 0.011433 -0.008827 0.003872 -0.002516
# 4 0.005619 -0.008972 -0.008827 0.034873 -0.013120 0.010559
# 5 -0.002696 0.009984 0.003872 -0.013120 0.047331 -0.001906
# 6 0.007553 -0.001356 -0.002516 0.010559 -0.001906 0.024540
#
#
# Mechanical properties :
#
#
# Convention : Reuss Voigt Hill
#
# Bulk Modulus (GPa) = 41.96019 64.13642 53.04830
# Shear Modulus (GPa) = 29.65608 43.66281 36.65945
#
# Velocity S-wave (km/s) = 3.54403 4.30027 3.94033
# Velocity P-wave (km/s) = 5.87521 7.19860 6.57031
#
# Compressibility (1/GPa) = 0.02383211
#
# Stress axis : x y z
#
# Youngs Moduli (GPa) = 64.23864 84.23320 87.46532
#
# Poissons Ratio (x) = 0.32999 0.34580
# Poissons Ratio (y) = 0.25166 -0.03072
# Poissons Ratio (z) = 0.25397 -0.02958
#
# Static dielectric constant tensor:
#      x y z
#    x 1.958270 0.018370 -0.019050 
#    y 0.018370 1.972200 -0.010070 
#    z -0.019050 -0.010070 1.917030 
# 
# From -- ./inp_files/184663.got.cif
#   From: 2010.05.17/outbox.cif.g08.bks.cpg/sg2_93_cif.got.tgz:184663.got - 2010.06.03 11:33:40.
