data_PCOD9023695
_publ_section_title
;
Structure prediction by ZEFSAII (Michael W. Deem and Ramdas Pophale) SiO2 
 PCOD9023695
Probable space group: P -1
;
_chemical_formula_sum "Si O2"
_cell_formula_units_Z 14
_cell_length_a 27.313782
_cell_length_b 15.693743
_cell_length_c 15.071347
_cell_angle_alpha 159.742851
_cell_angle_beta 19.111151
_cell_angle_gamma 159.217535
_cell_volume 661.947901
_symmetry_space_group_name_H-M "P -1"
_symmetry_group_IT_number 2
_symmetry_cell_setting 'triclinic'
loop_
_space_group_symop_operation_xyz
x,y,z
-x,-y,-z
loop_
_atom_site_type_symbol
_atom_site_label
_atom_site_fract_x
_atom_site_fract_y
_atom_site_fract_z
Si Si1 0.798054 0.036763 0.810243
Si Si2 0.849036 0.655727 0.829458
Si Si3 0.211290 0.567669 0.911111
Si Si4 0.479095 0.511251 0.272748
Si Si5 0.081377 0.843080 0.096633
Si Si6 0.430666 0.206229 0.783224
Si Si7 0.036839 0.293921 0.113069
O O1 0.953649 0.971292 0.462356
O O2 0.635947 0.770130 0.853128
O O3 0.847992 0.218079 0.991580
O O4 0.752023 0.129886 0.886678
O O5 0.888434 0.673291 0.884143
O O6 0.918871 0.451787 0.469289
O O7 0.653899 0.537005 0.032115
O O8 0.941543 0.968580 0.941299
O O9 0.358947 0.525218 0.569205
O O10 0.177372 0.453567 0.956129
O O11 0.033581 0.413176 0.014794
O O12 0.521220 0.741551 0.351287
O O13 0.234342 0.054653 0.986357
O O14 0.500000 0.000000 0.500000
O O15 0.500000 0.500000 0.000000
#
# Coordination Sequence:
#
# PCOD9023695 Si02
#       7
#     2   2   2   2   2   2   2
#     4  10  22  40  60  92 133 172 223 260 329 387
#     4  10  24  47  71 101 127 173 217 282 326 402
#     4  11  24  39  66  95 130 181 214 275 328 398
#     4  11  25  40  65 100 134 172 223 279 327 386
#     4  10  22  40  61  88 130 182 216 270 313 396
#     4  12  26  41  63  94 130 174 223 272 317 379
#     4  10  24  46  73  96 133 169 224 266 343 399
#
# _framework density 21.149701
#
# number of rings (size 3 to 8) (size 9 to 14) (size 15 to 20)
#    0.000    1.429    1.429    2.143   10.000    0.571 
#    0.000    0.714    0.000    0.000    0.000    0.000 
#    0.000    0.000    0.000    0.000    0.000    0.000 
#
# Total GULP energy -78141.585441 kJ/mol
# GULP energy per Si atom -5581.541817 kJ/mol
# Density = 2.110156 g / cm^3
# Si number density = 21.149701 Si / 1000 Ang^3
#
#
#
# Elastic Constant Matrix: (Units=GPa)
#
#
# Indices 1 2 3 4 5 6 
#
# 1 61.2483 31.3820 50.6059 -14.3978 -1.8113 -34.2729
# 2 31.3820 120.1654 66.6544 -28.4915 -3.6457 -33.5798
# 3 50.6059 66.6544 84.2210 2.8523 -25.8236 9.5302
# 4 -14.3978 -28.4915 2.8523 32.2790 0.2938 -10.5897
# 5 -1.8113 -3.6457 -25.8236 0.2938 21.3674 -2.8817
# 6 -34.2729 -33.5798 9.5302 -10.5897 -2.8817 32.8765
#
#
#
# Elastic Compliance Matrix: (Units=1/GPa)
#
#
# Indices 1 2 3 4 5 6 
#
# 1 0.007581 -0.011777 0.008647 -0.010955 0.007958 -0.009463
# 2 -0.011777 0.006197 0.004532 -0.002769 0.004528 -0.007756
# 3 0.008647 0.004532 0.002810 0.013370 0.007113 0.017759
# 4 -0.010955 -0.002769 0.013370 0.018760 0.013024 -0.010940
# 5 0.007958 0.004528 0.007113 0.013024 0.059397 0.020261
# 6 -0.009463 -0.007756 0.017759 -0.010940 0.020261 0.005733
#
#
# Mechanical properties :
#
#
# Convention : Reuss Voigt Hill
#
# Bulk Modulus (GPa) = 51.56734 62.54660 57.05697
# Shear Modulus (GPa) = 48.01321 25.10405 36.55863
#
# Velocity S-wave (km/s) = 4.76979 3.44898 4.16211
# Velocity P-wave (km/s) = 7.40064 6.74523 7.08052
#
# Compressibility (1/GPa) = 0.01939212
#
# Stress axis : x y z
#
# Youngs Moduli (GPa) = 131.90773 161.36884 355.90919
#
# Poissons Ratio (x) = 1.90043 -3.07766
# Poissons Ratio (y) = 1.55347 -1.61290
# Poissons Ratio (z) = -1.14065 -0.73129
#
# Static dielectric constant tensor:
#      x y z
#    x 1.789740 -0.043250 -0.020960 
#    y -0.043250 1.823650 0.119840 
#    z -0.020960 0.119840 1.882500 
# 
# From -- ./inp_files/34548.got.cif
#   From: 2010.05.17/outbox.cif.g08.bks.cpg/sg2_18_cif.got.tgz:34548.got - 2010.06.03 11:33:40.
