data_PCOD9023921
_publ_section_title
;
Structure prediction by ZEFSAII (Michael W. Deem and Ramdas Pophale) SiO2 
 PCOD9023921
Probable space group: P -1
;
_chemical_formula_sum "Si O2"
_cell_formula_units_Z 14
_cell_length_a 8.632250
_cell_length_b 30.403065
_cell_length_c 6.781191
_cell_angle_alpha 131.173667
_cell_angle_beta 122.576301
_cell_angle_gamma 25.466469
_cell_volume 567.337216
_symmetry_space_group_name_H-M "P -1"
_symmetry_group_IT_number 2
_symmetry_cell_setting 'triclinic'
loop_
_space_group_symop_operation_xyz
x,y,z
-x,-y,-z
loop_
_atom_site_type_symbol
_atom_site_label
_atom_site_fract_x
_atom_site_fract_y
_atom_site_fract_z
Si Si1 0.133569 0.412325 0.190826
Si Si2 0.218947 0.181278 0.262550
Si Si3 0.279883 0.004699 0.290401
Si Si4 0.408697 0.868155 0.260689
Si Si5 0.880470 0.161802 0.145816
Si Si6 0.864565 0.387569 0.147095
Si Si7 0.453055 0.424337 0.243830
O O1 0.497372 0.291793 0.196003
O O2 0.258716 0.414062 0.089057
O O3 0.000000 0.500000 0.500000
O O4 0.875220 0.426352 0.073849
O O5 0.403105 0.173024 0.522510
O O6 0.153249 0.138526 0.209516
O O7 0.830038 0.312211 0.299502
O O8 0.481743 0.092803 0.002146
O O9 0.242762 0.969008 0.333103
O O10 0.500000 0.000000 0.500000
O O11 0.926469 0.127932 0.301374
O O12 0.101698 0.902617 0.156230
O O13 0.744740 0.752335 0.011791
O O14 0.586364 0.412165 0.088911
O O15 0.788639 0.457801 0.471723
#
# Coordination Sequence:
#
# PCOD9023921 Si02
#       7
#     2   2   2   2   2   2   2
#     4   8  16  32  58  90 125 161 206 261 313 378
#     4  11  23  42  63  92 127 165 212 262 317 383
#     4  12  24  43  64  90 128 167 212 264 314 380
#     4  11  23  41  64  92 125 165 212 261 319 379
#     4  10  22  40  62  91 125 164 207 260 318 371
#     4   9  17  34  60  92 124 165 212 257 319 385
#     4   9  17  33  61  90 126 166 206 263 319 375
#
# _framework density 24.676680999999999
#
# number of rings (size 3 to 8) (size 9 to 14) (size 15 to 20)
#    0.000    2.000    2.857    0.857    0.000    1.143 
#    2.571    0.000    0.000    0.000    0.000   22.000 
#    0.000    0.000    0.000    0.000    0.000    0.000 
#
# Total GULP energy -78124.016484 kJ/mol
# GULP energy per Si atom -5580.286892 kJ/mol
# Density = 2.462052 g / cm^3
# Si number density = 24.676681 Si / 1000 Ang^3
#
#
#
# Elastic Constant Matrix: (Units=GPa)
#
#
# Indices 1 2 3 4 5 6 
#
# 1 171.5365 35.0187 17.4824 1.1859 16.4766 21.9838
# 2 35.0187 123.6730 43.7799 -9.9457 -11.1439 33.4265
# 3 17.4824 43.7799 64.9812 -1.8389 3.8720 -0.9081
# 4 1.1859 -9.9457 -1.8389 41.4558 -9.7536 -0.4443
# 5 16.4766 -11.1439 3.8720 -9.7536 34.9491 5.7876
# 6 21.9838 33.4265 -0.9081 -0.4443 5.7876 43.2358
#
#
#
# Elastic Compliance Matrix: (Units=1/GPa)
#
#
# Indices 1 2 3 4 5 6 
#
# 1 0.006841 -0.001863 -0.000416 -0.001611 -0.003969 -0.001532
# 2 -0.001863 0.019475 -0.013432 0.007066 0.013212 -0.016088
# 3 -0.000416 -0.013432 0.025206 -0.004348 -0.010153 0.012440
# 4 -0.001611 0.007066 -0.004348 0.028539 0.012471 -0.006111
# 5 -0.003969 0.013212 -0.010153 0.012471 0.041596 -0.013850
# 6 -0.001532 -0.016088 0.012440 -0.006111 -0.013850 0.038398
#
#
# Mechanical properties :
#
#
# Convention : Reuss Voigt Hill
#
# Bulk Modulus (GPa) = 49.74906 61.41698 55.58302
# Shear Modulus (GPa) = 25.22985 41.52211 33.37598
#
# Velocity S-wave (km/s) = 3.20099 4.10646 3.68167
# Velocity P-wave (km/s) = 5.81944 6.88670 6.37545
#
# Compressibility (1/GPa) = 0.02010088
#
# Stress axis : x y z
#
# Youngs Moduli (GPa) = 146.17482 51.34730 39.67262
#
# Poissons Ratio (x) = 0.09566 0.01650
# Poissons Ratio (y) = 0.27233 0.53288
# Poissons Ratio (z) = 0.06078 0.68970
#
# Static dielectric constant tensor:
#      x y z
#    x 2.073910 -0.016830 -0.007480 
#    y -0.016830 1.964390 -0.021640 
#    z -0.007480 -0.021640 1.827340 
# 
# From -- ./inp_files/57046.got.cif
#   From: 2010.05.17/outbox.cif.g08.bks.cpg/sg2_29_cif.got.tgz:57046.got - 2010.06.03 11:33:40.
