data_PCOD9023129
_publ_section_title
;
Structure prediction by ZEFSAII (Michael W. Deem and Ramdas Pophale) SiO2 
 PCOD9023129
Probable space group: P -1
;
_chemical_formula_sum "Si O2"
_cell_formula_units_Z 16
_cell_length_a 12.414361
_cell_length_b 12.223043
_cell_length_c 12.466986
_cell_angle_alpha 129.647928
_cell_angle_beta 56.885873
_cell_angle_gamma 81.115826
_cell_volume 763.521437
_symmetry_space_group_name_H-M "P -1"
_symmetry_group_IT_number 2
_symmetry_cell_setting 'triclinic'
loop_
_space_group_symop_operation_xyz
x,y,z
-x,-y,-z
loop_
_atom_site_type_symbol
_atom_site_label
_atom_site_fract_x
_atom_site_fract_y
_atom_site_fract_z
Si Si1 0.144470 0.649258 0.180969
Si Si2 0.722408 0.152049 0.697590
Si Si3 0.891534 0.890121 0.060772
Si Si4 0.096058 0.431491 0.230576
Si Si5 0.275855 0.760420 0.815706
Si Si6 0.551222 0.287829 0.641984
Si Si7 0.699694 0.752044 0.779179
Si Si8 0.505043 0.352369 0.165372
O O1 0.208398 0.742702 0.262498
O O2 0.144811 0.517081 0.178138
O O3 0.305504 0.481706 0.892444
O O4 0.916510 0.881831 0.411981
O O5 0.592917 0.248862 0.721450
O O6 0.604021 0.223671 0.917367
O O7 0.799311 0.052793 0.108770
O O8 0.706002 0.053809 0.349872
O O9 0.942344 0.684179 0.878848
O O10 0.093218 0.801621 0.936114
O O11 0.270072 0.256712 0.116063
O O12 0.895613 0.641971 0.541298
O O13 0.500000 0.500000 0.500000
O O14 0.319456 0.785459 0.925972
O O15 0.594386 0.407996 0.648194
O O16 0.665660 0.614367 0.689374
O O17 0.500000 0.000000 0.000000
#
# Coordination Sequence:
#
# PCOD9023129 Si02
#       8
#     2   2   2   2   2   2   2   2
#     4  10  22  40  62  89 123 166 211 266 318 368
#     4  10  22  39  66  94 120 164 220 274 313 362
#     4  11  26  40  64  96 132 175 207 261 320 389
#     4  11  24  42  62  94 135 168 211 258 327 391
#     4  11  23  43  63  94 130 167 218 258 316 382
#     4  11  23  40  63  95 125 164 220 262 315 374
#     4  11  23  40  65  96 128 166 211 269 326 378
#     4  11  21  41  70  94 125 165 215 276 316 369
#
# _framework density 20.955534
#
# number of rings (size 3 to 8) (size 9 to 14) (size 15 to 20)
#    0.000    1.250    1.250    5.250    7.000    1.500 
#    0.000    0.625    0.000    0.000    0.000    0.000 
#    0.000    0.000    0.000    0.000    0.000    0.000 
#
# Total GULP energy -89437.860649 kJ/mol
# GULP energy per Si atom -5589.866291 kJ/mol
# Density = 2.090784 g / cm^3
# Si number density = 20.955534 Si / 1000 Ang^3
#
#
#
# Elastic Constant Matrix: (Units=GPa)
#
#
# Indices 1 2 3 4 5 6 
#
# 1 57.1840 18.1237 -4.4448 -12.8436 -1.4933 -6.2198
# 2 18.1237 81.9501 12.7860 -11.5006 -2.8348 5.6942
# 3 -4.4448 12.7860 64.1846 2.7434 -1.9620 0.2968
# 4 -12.8436 -11.5006 2.7434 19.7732 -6.2080 -5.9615
# 5 -1.4933 -2.8348 -1.9620 -6.2080 21.7229 -1.5621
# 6 -6.2198 5.6942 0.2968 -5.9615 -1.5621 42.4761
#
#
#
# Elastic Compliance Matrix: (Units=1/GPa)
#
#
# Indices 1 2 3 4 5 6 
#
# 1 0.023377 -0.003255 0.001710 0.017115 0.006695 0.006496
# 2 -0.003255 0.014728 -0.003374 0.007646 0.003490 -0.001226
# 3 0.001710 -0.003374 0.016507 -0.002984 0.000328 0.000181
# 4 0.017115 0.007646 -0.002984 0.078560 0.025324 0.013459
# 5 0.006695 0.003490 0.000328 0.025324 0.054654 0.006074
# 6 0.006496 -0.001226 0.000181 0.013459 0.006074 0.026769
#
#
# Mechanical properties :
#
#
# Convention : Reuss Voigt Hill
#
# Bulk Modulus (GPa) = 22.33342 28.47204 25.40273
# Shear Modulus (GPa) = 20.88931 28.58466 24.73698
#
# Velocity S-wave (km/s) = 3.16070 3.69733 3.43950
# Velocity P-wave (km/s) = 4.89905 5.64299 5.28413
#
# Compressibility (1/GPa) = 0.04477595
#
# Stress axis : x y z
#
# Youngs Moduli (GPa) = 42.77664 67.89919 60.57912
#
# Poissons Ratio (x) = 0.22100 -0.10361
# Poissons Ratio (y) = 0.13923 0.20438
# Poissons Ratio (z) = -0.07316 0.22907
#
# Static dielectric constant tensor:
#      x y z
#    x 1.646320 0.076160 0.016930 
#    y 0.076160 1.670380 -0.008000 
#    z 0.016930 -0.008000 1.784260 
# 
# From -- ./inp_files/428874.got.cif
#   From: 2010.05.17/outbox.cif.g08.bks.cpg/sg2_215_cif.got.tgz:428874.got - 2010.06.03 11:33:40.
