data_PCOD9023462
_publ_section_title
;
Structure prediction by ZEFSAII (Michael W. Deem and Ramdas Pophale) SiO2 
 PCOD9023462
Probable space group: P -1
;
_chemical_formula_sum "Si O2"
_cell_formula_units_Z 16
_cell_length_a 8.518708
_cell_length_b 18.133684
_cell_length_c 16.475456
_cell_angle_alpha 145.824138
_cell_angle_beta 30.959255
_cell_angle_gamma 136.280250
_cell_volume 734.674006
_symmetry_space_group_name_H-M "P -1"
_symmetry_group_IT_number 2
_symmetry_cell_setting 'triclinic'
loop_
_space_group_symop_operation_xyz
x,y,z
-x,-y,-z
loop_
_atom_site_type_symbol
_atom_site_label
_atom_site_fract_x
_atom_site_fract_y
_atom_site_fract_z
Si Si1 0.333385 0.633171 0.185659
Si Si2 0.106285 0.442294 0.815304
Si Si3 0.196947 0.640757 0.546693
Si Si4 0.353643 0.611796 0.722307
Si Si5 0.969905 0.730042 0.569029
Si Si6 0.135716 0.824816 0.885999
Si Si7 0.259680 0.103665 0.732625
Si Si8 0.715327 0.965027 0.798555
O O1 0.084721 0.624869 0.359477
O O2 0.561193 0.756207 0.217087
O O3 0.158230 0.651262 0.194335
O O4 0.500000 0.500000 0.000000
O O5 0.447582 0.387044 0.617316
O O6 0.136618 0.555336 0.836592
O O7 0.000000 0.500000 0.000000
O O8 0.188754 0.723286 0.542014
O O9 0.053066 0.735372 0.763857
O O10 0.000000 0.500000 0.500000
O O11 0.500000 0.500000 0.500000
O O12 0.217088 0.716424 0.818339
O O13 0.637732 0.686716 0.709151
O O14 0.919206 0.852284 0.643838
O O15 0.456233 0.907787 0.800026
O O16 0.887588 0.908541 0.121011
O O17 0.500000 0.000000 0.500000
O O18 0.965697 0.083329 0.784107
O O19 0.500000 0.000000 0.000000
#
# Coordination Sequence:
#
# PCOD9023462 Si02
#       8
#     2   2   2   2   2   2   2   2
#     4  12  25  40  69 103 138 180 230 289 362 419
#     4  12  25  39  62 101 150 179 226 292 363 411
#     4  12  24  39  62 101 149 184 226 290 355 420
#     4  11  18  38  63  91 129 180 228 273 336 423
#     4  11  21  38  66  95 134 175 237 278 340 416
#     4  10  22  39  69  95 127 188 239 281 345 420
#     4  11  23  40  69  98 134 169 234 297 347 408
#     4   9  20  43  67  95 121 180 241 281 337 421
#
# _framework density 21.778368
#
# number of rings (size 3 to 8) (size 9 to 14) (size 15 to 20)
#    0.000    1.000    5.000    2.250    3.500    0.000 
#    0.000    2.500    0.000    6.000    0.000    0.000 
#    0.000    0.000    0.000    0.000    0.000    0.000 
#
# Total GULP energy -89148.903546 kJ/mol
# GULP energy per Si atom -5571.806472 kJ/mol
# Density = 2.172880 g / cm^3
# Si number density = 21.778368 Si / 1000 Ang^3
#
#
#
# Elastic Constant Matrix: (Units=GPa)
#
#
# Indices 1 2 3 4 5 6 
#
# 1 86.6848 14.5808 32.6267 -1.3272 12.9296 12.8175
# 2 14.5808 110.5085 18.2714 -6.5008 4.5982 39.2728
# 3 32.6267 18.2714 144.3655 -0.6939 11.5222 12.9193
# 4 -1.3272 -6.5008 -0.6939 32.0046 3.8641 2.3296
# 5 12.9296 4.5982 11.5222 3.8641 39.7493 -1.8910
# 6 12.8175 39.2728 12.9193 2.3296 -1.8910 33.0704
#
#
#
# Elastic Compliance Matrix: (Units=1/GPa)
#
#
# Indices 1 2 3 4 5 6 
#
# 1 0.013817 0.000958 -0.002356 0.001676 -0.004368 -0.005940
# 2 0.000958 0.016863 -0.000152 0.005437 -0.003743 -0.020935
# 3 -0.002356 -0.000152 0.007794 0.000386 -0.001611 -0.002070
# 4 0.001676 0.005437 0.000386 0.033759 -0.005040 -0.009924
# 5 -0.004368 -0.003743 -0.001611 -0.005040 0.028385 0.008745
# 6 -0.005940 -0.020935 -0.002070 -0.009924 0.008745 0.059410
#
#
# Mechanical properties :
#
#
# Convention : Reuss Voigt Hill
#
# Bulk Modulus (GPa) = 28.26909 52.50185 40.38547
# Shear Modulus (GPa) = 28.58451 39.37018 33.97735
#
# Velocity S-wave (km/s) = 3.62680 4.25640 3.95415
# Velocity P-wave (km/s) = 5.52691 6.95094 6.27942
#
# Compressibility (1/GPa) = 0.03537432
#
# Stress axis : x y z
#
# Youngs Moduli (GPa) = 72.37420 59.30005 128.29964
#
# Poissons Ratio (x) = -0.05680 0.30222
# Poissons Ratio (y) = -0.06933 0.01956
# Poissons Ratio (z) = 0.17049 0.00904
#
# Static dielectric constant tensor:
#      x y z
#    x 1.825350 0.106350 0.035880 
#    y 0.106350 1.943500 -0.016020 
#    z 0.035880 -0.016020 1.749240 
# 
# From -- ./inp_files/327402.got.cif
#   From: 2010.05.17/outbox.cif.g08.bks.cpg/sg2_164_cif.got.tgz:327402.got - 2010.06.03 11:33:40.
