data_PCOD9023412
_publ_section_title
;
Structure prediction by ZEFSAII (Michael W. Deem and Ramdas Pophale) SiO2 
 PCOD9023412
Probable space group: P -1
;
_chemical_formula_sum "Si O2"
_cell_formula_units_Z 14
_cell_length_a 11.358657
_cell_length_b 6.573051
_cell_length_c 8.871597
_cell_angle_alpha 81.898104
_cell_angle_beta 113.718322
_cell_angle_gamma 78.995935
_cell_volume 577.534560
_symmetry_space_group_name_H-M "P -1"
_symmetry_group_IT_number 2
_symmetry_cell_setting 'triclinic'
loop_
_space_group_symop_operation_xyz
x,y,z
-x,-y,-z
loop_
_atom_site_type_symbol
_atom_site_label
_atom_site_fract_x
_atom_site_fract_y
_atom_site_fract_z
Si Si1 0.688945 0.141513 0.885859
Si Si2 0.126931 0.183562 0.187469
Si Si3 0.640720 0.472320 0.361692
Si Si4 0.826120 0.468075 0.019245
Si Si5 0.844493 0.031257 0.454194
Si Si6 0.486789 0.244073 0.495806
Si Si7 0.705731 0.798103 0.159596
O O1 0.595658 0.227182 0.687319
O O2 0.826590 0.000913 0.894355
O O3 0.720208 0.330868 0.976667
O O4 0.640404 0.975660 0.983327
O O5 0.970960 0.303309 0.098808
O O6 0.167506 0.078485 0.380682
O O7 0.194788 0.365605 0.147338
O O8 0.770479 0.282827 0.406885
O O9 0.532257 0.344331 0.359579
O O10 0.641840 0.603310 0.504104
O O11 0.618127 0.657752 0.206314
O O12 0.815643 0.616974 0.144194
O O13 0.773396 0.918887 0.304288
O O14 0.000000 0.000000 0.500000
O O15 0.500000 0.000000 0.500000
#
# Coordination Sequence:
#
# PCOD9023412 Si02
#       7
#     2   2   2   2   2   2   2
#     4  11  23  45  70  96 139 182 231 294 350 410
#     4  10  22  39  68  98 139 186 234 282 340 422
#     4  11  25  44  71 100 138 182 230 290 346 411
#     4  10  23  42  66 103 139 187 231 284 350 416
#     4  12  25  43  68 106 146 186 229 287 350 416
#     4  11  26  48  72 102 137 183 243 293 345 416
#     4  11  25  43  68 104 143 177 235 285 349 422
#
# _framework density 24.240974000000001
#
# number of rings (size 3 to 8) (size 9 to 14) (size 15 to 20)
#    0.000    1.143    1.429    3.857    2.000    8.571 
#    0.000    3.571    0.000    0.000    0.000    0.000 
#    0.000    0.000    0.000    0.000    0.000    0.000 
#
# Total GULP energy -78286.706510 kJ/mol
# GULP energy per Si atom -5591.907608 kJ/mol
# Density = 2.418580 g / cm^3
# Si number density = 24.240974 Si / 1000 Ang^3
#
#
#
# Elastic Constant Matrix: (Units=GPa)
#
#
# Indices 1 2 3 4 5 6 
#
# 1 80.5065 60.4916 23.2412 -7.1260 -26.9249 -10.6850
# 2 60.4916 191.5646 55.8504 -7.6205 0.2343 -12.3317
# 3 23.2412 55.8504 107.4288 -23.0521 -27.4029 6.8026
# 4 -7.1260 -7.6205 -23.0521 48.1923 10.5423 -15.7399
# 5 -26.9249 0.2343 -27.4029 10.5423 31.7620 -7.0325
# 6 -10.6850 -12.3317 6.8026 -15.7399 -7.0325 51.3019
#
#
#
# Elastic Compliance Matrix: (Units=1/GPa)
#
#
# Indices 1 2 3 4 5 6 
#
# 1 0.032353 -0.012084 0.008282 0.001643 0.035923 0.008164
# 2 -0.012084 0.011149 -0.007497 -0.000311 -0.016971 -0.001264
# 3 0.008282 -0.007497 0.017675 0.004450 0.021259 0.001859
# 4 0.001643 -0.000311 0.004450 0.025857 -0.001715 0.007375
# 5 0.035923 -0.016971 0.021259 -0.001715 0.083520 0.011506
# 6 0.008164 -0.001264 0.001859 0.007375 0.011506 0.024483
#
#
# Mechanical properties :
#
#
# Convention : Reuss Voigt Hill
#
# Bulk Modulus (GPa) = 25.92210 73.18514 49.55362
# Shear Modulus (GPa) = 21.69253 42.24570 31.96912
#
# Velocity S-wave (km/s) = 2.99468 4.17914 3.63548
# Velocity P-wave (km/s) = 4.76175 7.31732 6.17323
#
# Compressibility (1/GPa) = 0.03857712
#
# Stress axis : x y z
#
# Youngs Moduli (GPa) = 30.90874 89.69511 56.57837
#
# Poissons Ratio (x) = 1.08387 -0.46856
# Poissons Ratio (y) = 0.37350 0.42420
# Poissons Ratio (z) = -0.25597 0.67249
#
# Static dielectric constant tensor:
#      x y z
#    x 2.002380 -0.025650 -0.022000 
#    y -0.025650 1.920350 -0.018330 
#    z -0.022000 -0.018330 1.895280 
# 
# From -- ./inp_files/131475.got.cif
#   From: 2010.05.17/outbox.cif.g08.bks.cpg/sg2_66_cif.got.tgz:131475.got - 2010.06.03 11:33:40.
