data_PCOD9023170
_publ_section_title
;
Structure prediction by ZEFSAII (Michael W. Deem and Ramdas Pophale) SiO2 
 PCOD9023170
Probable space group: P -1
;
_chemical_formula_sum "Si O2"
_cell_formula_units_Z 15
_cell_length_a 21.688682
_cell_length_b 8.964991
_cell_length_c 15.563592
_cell_angle_alpha 130.685739
_cell_angle_beta 18.840974
_cell_angle_gamma 131.293100
_cell_volume 729.589609
_symmetry_space_group_name_H-M "P -1"
_symmetry_group_IT_number 2
_symmetry_cell_setting 'triclinic'
loop_
_space_group_symop_operation_xyz
x,y,z
-x,-y,-z
loop_
_atom_site_type_symbol
_atom_site_label
_atom_site_fract_x
_atom_site_fract_y
_atom_site_fract_z
Si Si1 0.832632 0.561307 0.956150
Si Si2 0.361504 0.073253 0.639314
Si Si3 0.581606 0.572551 0.011442
Si Si4 0.000000 0.500000 0.000000
Si Si5 0.806389 0.331135 0.364652
Si Si6 0.932657 0.948794 0.667695
Si Si7 0.824850 0.338127 0.707593
Si Si8 0.718839 0.284351 0.154912
O O1 0.807231 0.404495 0.853942
O O2 0.054260 0.624680 0.719654
O O3 0.746458 0.755873 0.117040
O O4 0.721371 0.456642 0.146123
O O5 0.504524 0.163795 0.408414
O O6 0.500000 0.000000 0.500000
O O7 0.206306 0.892185 0.738812
O O8 0.409798 0.642553 0.317740
O O9 0.500000 0.500000 0.000000
O O10 0.758548 0.757264 0.832482
O O11 0.647394 0.386683 0.904524
O O12 0.901884 0.473591 0.216121
O O13 0.800813 0.375968 0.171693
O O14 0.110482 0.876711 0.457016
O O15 0.000000 0.000000 0.500000
O O16 0.853573 0.132675 0.883934
O O17 0.000000 0.500000 0.500000
#
# Coordination Sequence:
#
# PCOD9023170 Si02
#       8
#     2   2   2   1   2   2   2   2
#     4  11  24  41  67  93 133 173 221 278 337 400
#     4  12  23  41  66  96 129 172 227 270 334 400
#     4  11  24  43  70  96 132 174 225 280 338 403
#     4  10  24  38  64  98 132 176 212 274 330 392
#     4  11  22  42  63  97 133 173 225 273 334 396
#     4  11  22  43  69  97 133 173 225 276 337 396
#     4  10  22  39  66  97 124 173 217 272 334 396
#     4  11  23  43  66  96 135 178 218 277 335 399
#
# _framework density 20.559501999999998
#
# number of rings (size 3 to 8) (size 9 to 14) (size 15 to 20)
#    0.000    1.067    4.000    3.200    3.733    0.000 
#    0.000    0.667    0.000    0.000    0.000    0.000 
#    0.000    0.000    0.000    0.000    0.000    0.000 
#
# Total GULP energy -83549.720059 kJ/mol
# GULP energy per Si atom -5569.981337 kJ/mol
# Density = 2.051271 g / cm^3
# Si number density = 20.559502 Si / 1000 Ang^3
#
#
#
# Elastic Constant Matrix: (Units=GPa)
#
#
# Indices 1 2 3 4 5 6 
#
# 1 102.9055 7.6714 9.6512 6.6794 -14.5337 -2.6950
# 2 7.6714 54.6525 12.3054 1.1271 -11.5599 -8.9108
# 3 9.6512 12.3054 81.5248 3.7617 -2.9263 -19.4574
# 4 6.6794 1.1271 3.7617 41.8797 -6.1930 -1.5833
# 5 -14.5337 -11.5599 -2.9263 -6.1930 27.5165 4.3342
# 6 -2.6950 -8.9108 -19.4574 -1.5833 4.3342 32.2354
#
#
#
# Elastic Compliance Matrix: (Units=1/GPa)
#
#
# Indices 1 2 3 4 5 6 
#
# 1 0.010629 -0.000191 -0.001147 -0.000823 0.005323 -0.000612
# 2 -0.000191 0.021078 -0.002074 0.000995 0.008206 0.003504
# 3 -0.001147 -0.002074 0.014701 -0.000980 -0.001449 0.008351
# 4 -0.000823 0.000995 -0.000980 0.024882 0.005463 0.000102
# 5 0.005323 0.008206 -0.001449 0.005463 0.044282 -0.003847
# 6 -0.000612 0.003504 0.008351 0.000102 -0.003847 0.037503
#
#
# Mechanical properties :
#
#
# Convention : Reuss Voigt Hill
#
# Bulk Modulus (GPa) = 25.26195 33.14877 29.20536
# Shear Modulus (GPa) = 28.88642 34.28997 31.58819
#
# Velocity S-wave (km/s) = 3.75242 4.08835 3.92398
# Velocity P-wave (km/s) = 5.57567 6.20036 5.89630
#
# Compressibility (1/GPa) = 0.03958523
#
# Stress axis : x y z
#
# Youngs Moduli (GPa) = 94.08601 47.44372 68.02081
#
# Poissons Ratio (x) = 0.00905 0.07799
# Poissons Ratio (y) = 0.01794 0.14107
# Poissons Ratio (z) = 0.10788 0.09839
#
# Static dielectric constant tensor:
#      x y z
#    x 1.678040 -0.055320 -0.025750 
#    y -0.055320 1.709410 0.006530 
#    z -0.025750 0.006530 1.748150 
# 
# From -- ./inp_files/179574.got.cif
#   From: 2010.05.17/outbox.cif.g08.bks.cpg/sg2_90_cif.got.tgz:179574.got - 2010.06.03 11:33:40.
