data_PCOD9023337
_publ_section_title
;
Structure prediction by ZEFSAII (Michael W. Deem and Ramdas Pophale) SiO2 
 PCOD9023337
Probable space group: P -1
;
_chemical_formula_sum "Si O2"
_cell_formula_units_Z 15
_cell_length_a 4.931958
_cell_length_b 5.205496
_cell_length_c 22.069832
_cell_angle_alpha 86.705269
_cell_angle_beta 100.610345
_cell_angle_gamma 85.647400
_cell_volume 553.833656
_symmetry_space_group_name_H-M "P -1"
_symmetry_group_IT_number 2
_symmetry_cell_setting 'triclinic'
loop_
_space_group_symop_operation_xyz
x,y,z
-x,-y,-z
loop_
_atom_site_type_symbol
_atom_site_label
_atom_site_fract_x
_atom_site_fract_y
_atom_site_fract_z
Si Si1 0.214076 0.168323 0.538765
Si Si2 0.306903 0.148932 0.237455
Si Si3 0.500970 0.222612 0.659318
Si Si4 0.000000 0.000000 0.000000
Si Si5 0.274696 0.463478 0.940096
Si Si6 0.200786 0.399517 0.417969
Si Si7 0.306362 0.202917 0.098575
Si Si8 0.869171 0.370772 0.296421
O O1 0.404280 0.048760 0.602309
O O2 0.361997 0.268037 0.483505
O O3 0.027698 0.398937 0.561752
O O4 0.000000 0.000000 0.500000
O O5 0.285632 0.101235 0.166748
O O6 0.608096 0.227724 0.266700
O O7 0.077454 0.365252 0.248922
O O8 0.278164 0.909130 0.283724
O O9 0.614301 0.447550 0.621029
O O10 0.257145 0.350434 0.689807
O O11 0.131878 0.199918 0.949697
O O12 0.304463 0.982141 0.050894
O O13 0.453128 0.597462 0.892872
O O14 0.004774 0.674096 0.937174
O O15 0.500000 0.500000 0.000000
O O16 0.028212 0.247576 0.364085
#
# Coordination Sequence:
#
# PCOD9023337 Si02
#       8
#     2   2   2   1   2   2   2   2
#     4  10  22  39  68 102 141 187 242 311 376 438
#     4  12  27  46  73 103 148 197 246 297 371 444
#     4  11  25  44  73 101 145 193 254 299 377 444
#     4  10  22  44  78 104 146 184 232 298 368 420
#     4  10  22  43  72 107 145 185 236 298 361 437
#     4  10  22  42  66 104 138 186 250 309 370 439
#     4  11  25  45  68 113 149 189 249 300 367 451
#     4  11  25  47  70  99 145 193 246 315 359 434
#
# _framework density 27.083947999999999
#
# number of rings (size 3 to 8) (size 9 to 14) (size 15 to 20)
#    0.000    1.333    1.333    3.600    5.600    6.400 
#    2.400    1.333    0.000    0.000    0.000    0.000 
#    0.000    0.000    0.000    0.000    0.000    0.000 
#
# Total GULP energy -83595.655044 kJ/mol
# GULP energy per Si atom -5573.043670 kJ/mol
# Density = 2.702230 g / cm^3
# Si number density = 27.083948 Si / 1000 Ang^3
#
#
#
# Elastic Constant Matrix: (Units=GPa)
#
#
# Indices 1 2 3 4 5 6 
#
# 1 154.8340 42.1455 39.1404 -4.8187 -4.5985 25.2819
# 2 42.1455 80.0258 30.7159 -2.6442 -11.3072 27.2807
# 3 39.1404 30.7159 175.7402 5.1326 -12.9414 3.1327
# 4 -4.8187 -2.6442 5.1326 32.6691 7.1311 -2.6694
# 5 -4.5985 -11.3072 -12.9414 7.1311 41.9234 0.5165
# 6 25.2819 27.2807 3.1327 -2.6694 0.5165 58.4412
#
#
#
# Elastic Compliance Matrix: (Units=1/GPa)
#
#
# Indices 1 2 3 4 5 6 
#
# 1 0.007945 -0.003099 -0.001264 0.001079 -0.000515 -0.001869
# 2 -0.003099 0.017805 -0.002004 -0.000128 0.003950 -0.006904
# 3 -0.001264 -0.002004 0.006467 -0.001624 0.001581 0.001047
# 4 0.001079 -0.000128 -0.001624 0.032411 -0.005945 0.001213
# 5 -0.000515 0.003950 0.001581 -0.005945 0.026388 -0.002211
# 6 -0.001869 -0.006904 0.001047 0.001213 -0.002211 0.021161
#
#
# Mechanical properties :
#
#
# Convention : Reuss Voigt Hill
#
# Bulk Modulus (GPa) = 51.32751 70.51152 60.91952
# Shear Modulus (GPa) = 38.04996 46.51327 42.28162
#
# Velocity S-wave (km/s) = 3.75225 4.14862 3.95540
# Velocity P-wave (km/s) = 6.14532 7.00278 6.58802
#
# Compressibility (1/GPa) = 0.01948273
#
# Stress axis : x y z
#
# Youngs Moduli (GPa) = 125.86413 56.16445 154.62786
#
# Poissons Ratio (x) = 0.17406 0.19545
# Poissons Ratio (y) = 0.39008 0.30987
# Poissons Ratio (z) = 0.15909 0.11255
#
# Static dielectric constant tensor:
#      x y z
#    x 2.227230 0.081810 0.011220 
#    y 0.081810 2.139600 -0.230490 
#    z 0.011220 -0.230490 2.100310 
# 
# From -- ./inp_files/602904.got.cif
#   From: 2010.05.17/outbox.cif.g08.bks.cpg/sg2_302_cif.got.tgz:602904.got - 2010.06.03 11:33:40.
