data_PCOD9023016
_publ_section_title
;
Structure prediction by ZEFSAII (Michael W. Deem and Ramdas Pophale) SiO2 
 PCOD9023016
Probable space group: P -1
;
_chemical_formula_sum "Si O2"
_cell_formula_units_Z 16
_cell_length_a 12.025230
_cell_length_b 20.799588
_cell_length_c 11.349201
_cell_angle_alpha 27.727770
_cell_angle_beta 56.919517
_cell_angle_gamma 38.466271
_cell_volume 707.300611
_symmetry_space_group_name_H-M "P -1"
_symmetry_group_IT_number 2
_symmetry_cell_setting 'triclinic'
loop_
_space_group_symop_operation_xyz
x,y,z
-x,-y,-z
loop_
_atom_site_type_symbol
_atom_site_label
_atom_site_fract_x
_atom_site_fract_y
_atom_site_fract_z
Si Si1 0.485234 0.301135 0.873329
Si Si2 0.837071 0.882157 0.227220
Si Si3 0.749477 0.788662 0.207303
Si Si4 0.959641 0.186636 0.331994
Si Si5 0.750494 0.063652 0.621485
Si Si6 0.219195 0.712182 0.187816
Si Si7 0.278448 0.496850 0.268968
Si Si8 0.091597 0.576007 0.799217
O O1 0.346648 0.512838 0.528777
O O2 0.675513 0.225800 0.950254
O O3 0.326371 0.372248 0.946233
O O4 0.601734 0.107796 0.029140
O O5 0.829083 0.765275 0.328544
O O6 0.976891 0.891070 0.072378
O O7 0.954986 0.746343 0.496435
O O8 0.798018 0.587702 0.492190
O O9 0.500000 0.000000 0.000000
O O10 0.814919 0.864906 0.963265
O O11 0.875931 0.097673 0.539667
O O12 0.927113 0.306016 0.271048
O O13 0.834190 0.356534 0.020315
O O14 0.192602 0.991331 0.460736
O O15 0.514160 0.280877 0.440737
O O16 0.264252 0.619432 0.182603
O O17 0.000000 0.500000 0.000000
#
# Coordination Sequence:
#
# PCOD9023016 Si02
#       8
#     2   2   2   2   2   2   2   2
#     4  10  22  41  63  91 128 163 206 264 317 371
#     4  11  23  40  65  91 122 166 211 259 320 375
#     4  10  22  40  66  96 124 159 208 266 320 373
#     4  11  24  41  61  89 127 167 209 255 307 375
#     4  10  23  40  62  92 124 161 209 261 311 370
#     4  10  22  39  65  97 123 158 211 265 317 375
#     4  11  22  39  65  91 124 165 206 258 319 371
#     4  11  26  42  61  91 128 170 215 257 308 382
#
# _framework density 22.621217000000001
#
# number of rings (size 3 to 8) (size 9 to 14) (size 15 to 20)
#    0.000    1.500    0.000    4.500    0.000   12.500 
#    0.000    0.000    0.000    0.000    0.000    0.000 
#    0.000    0.000    0.000    0.000    0.000    0.000 
#
# Total GULP energy -89456.918660 kJ/mol
# GULP energy per Si atom -5591.057416 kJ/mol
# Density = 2.256973 g / cm^3
# Si number density = 22.621217 Si / 1000 Ang^3
#
#
#
# Elastic Constant Matrix: (Units=GPa)
#
#
# Indices 1 2 3 4 5 6 
#
# 1 82.2085 41.3620 21.4602 9.4457 2.4180 7.5842
# 2 41.3620 165.6761 40.1103 -12.2015 -1.7061 -7.3397
# 3 21.4602 40.1103 89.9409 10.3603 -9.7313 -10.4967
# 4 9.4457 -12.2015 10.3603 35.9108 6.3033 -3.1742
# 5 2.4180 -1.7061 -9.7313 6.3033 24.7622 10.9225
# 6 7.5842 -7.3397 -10.4967 -3.1742 10.9225 33.9342
#
#
#
# Elastic Compliance Matrix: (Units=1/GPa)
#
#
# Indices 1 2 3 4 5 6 
#
# 1 0.015967 -0.004255 -0.001757 -0.005976 0.001684 -0.006134
# 2 -0.004255 0.008467 -0.003402 0.005852 -0.003301 0.003340
# 3 -0.001757 -0.003402 0.014620 -0.005920 0.006516 0.001528
# 4 -0.005976 0.005852 -0.005920 0.036447 -0.014523 0.008854
# 5 0.001684 -0.003301 0.006516 -0.014523 0.054125 -0.017855
# 6 -0.006134 0.003340 0.001528 0.008854 -0.017855 0.038610
#
#
# Mechanical properties :
#
#
# Convention : Reuss Voigt Hill
#
# Bulk Modulus (GPa) = 49.44451 60.41004 54.92728
# Shear Modulus (GPa) = 25.79883 34.58097 30.18990
#
# Velocity S-wave (km/s) = 3.38075 3.91410 3.65716
# Velocity P-wave (km/s) = 6.09461 6.86949 6.49362
#
# Compressibility (1/GPa) = 0.02022469
#
# Stress axis : x y z
#
# Youngs Moduli (GPa) = 62.62936 118.10768 68.39859
#
# Poissons Ratio (x) = 0.50259 0.12019
# Poissons Ratio (y) = 0.26651 0.23270
# Poissons Ratio (z) = 0.11006 0.40181
#
# Static dielectric constant tensor:
#      x y z
#    x 1.816980 -0.044250 0.014060 
#    y -0.044250 1.957030 0.082260 
#    z 0.014060 0.082260 1.970080 
# 
# From -- ./inp_files/438333.got.cif
#   From: 2010.05.17/outbox.cif.g08.bks.cpg/sg2_220_cif.got.tgz:438333.got - 2010.06.03 11:33:40.
