data_PCOD9023926
_publ_section_title
;
Structure prediction by ZEFSAII (Michael W. Deem and Ramdas Pophale) SiO2 
 PCOD9023926
Probable space group: P -1
;
_chemical_formula_sum "Si O2"
_cell_formula_units_Z 16
_cell_length_a 11.997197
_cell_length_b 14.476470
_cell_length_c 11.258917
_cell_angle_alpha 31.978497
_cell_angle_beta 103.365526
_cell_angle_gamma 125.940723
_cell_volume 656.490122
_symmetry_space_group_name_H-M "P -1"
_symmetry_group_IT_number 2
_symmetry_cell_setting 'triclinic'
loop_
_space_group_symop_operation_xyz
x,y,z
-x,-y,-z
loop_
_atom_site_type_symbol
_atom_site_label
_atom_site_fract_x
_atom_site_fract_y
_atom_site_fract_z
Si Si1 0.215749 0.422073 0.582831
Si Si2 0.393026 0.658854 0.950275
Si Si3 0.079819 0.593625 0.283851
Si Si4 0.452897 0.145061 0.673787
Si Si5 0.952071 0.804580 0.967584
Si Si6 0.177901 0.140563 0.331079
Si Si7 0.341048 0.383241 0.441280
Si Si8 0.314037 0.924642 0.616404
O O1 0.106839 0.417079 0.467989
O O2 0.367085 0.706773 0.380797
O O3 0.315100 0.392786 0.562234
O O4 0.091589 0.216150 0.882648
O O5 0.566899 0.916660 0.644329
O O6 0.253805 0.654196 0.899748
O O7 0.334966 0.411601 0.146051
O O8 0.407090 0.633154 0.119892
O O9 0.000000 0.500000 0.500000
O O10 0.964620 0.607096 0.171181
O O11 0.277989 0.889650 0.982677
O O12 0.459165 0.360901 0.453079
O O13 0.422018 0.064172 0.615967
O O14 0.818819 0.761092 0.903041
O O15 0.143787 0.101451 0.661676
O O16 0.188091 0.944749 0.555699
O O17 0.000000 0.000000 0.500000
#
# Coordination Sequence:
#
# PCOD9023926 Si02
#       8
#     2   2   2   2   2   2   2   2
#     4  11  22  37  65  92 125 169 221 265 321 389
#     4  11  24  43  66  97 132 174 219 269 332 388
#     4   9  20  39  59  86 125 162 206 265 317 380
#     4  11  21  40  64  93 125 172 215 265 327 383
#     4  10  22  40  62  91 127 173 213 263 334 380
#     4  12  22  43  69  96 132 172 218 270 328 393
#     4  11  22  40  60  91 131 170 214 269 323 386
#     4  11  25  43  68  96 137 169 218 276 327 391
#
# _framework density 24.372033999999999
#
# number of rings (size 3 to 8) (size 9 to 14) (size 15 to 20)
#    0.000    1.250    2.500    3.750    1.750    0.500 
#    2.250    1.250    2.750    0.000    0.000    0.000 
#    0.000    0.000    0.000    0.000    0.000    0.000 
#
# Total GULP energy -89257.314333 kJ/mol
# GULP energy per Si atom -5578.582146 kJ/mol
# Density = 2.431656 g / cm^3
# Si number density = 24.372034 Si / 1000 Ang^3
#
#
#
# Elastic Constant Matrix: (Units=GPa)
#
#
# Indices 1 2 3 4 5 6 
#
# 1 112.2546 8.7654 28.3637 17.1944 22.5456 -8.3751
# 2 8.7654 70.9551 11.6803 24.6514 1.9034 4.7351
# 3 28.3637 11.6803 100.6673 32.5141 6.6995 -0.3976
# 4 17.1944 24.6514 32.5141 29.0791 6.9397 -0.3742
# 5 22.5456 1.9034 6.6995 6.9397 41.1231 6.5163
# 6 -8.3751 4.7351 -0.3976 -0.3742 6.5163 24.9751
#
#
#
# Elastic Compliance Matrix: (Units=1/GPa)
#
#
# Indices 1 2 3 4 5 6 
#
# 1 0.011538 -0.000304 -0.001822 -0.002930 -0.006395 0.005522
# 2 -0.000304 0.022589 0.005682 -0.026232 0.003510 -0.005603
# 3 -0.001822 0.005682 0.017250 -0.023602 0.002283 -0.002363
# 4 -0.002930 -0.026232 -0.023602 0.087034 -0.009181 0.007315
# 5 -0.006395 0.003510 0.002283 -0.009181 0.030563 -0.010886
# 6 0.005522 -0.005603 -0.002363 0.007315 -0.010886 0.045866
#
#
# Mechanical properties :
#
#
# Convention : Reuss Voigt Hill
#
# Bulk Modulus (GPa) = 17.09776 42.38843 29.74309
# Shear Modulus (GPa) = 22.00463 34.70664 28.35564
#
# Velocity S-wave (km/s) = 3.00803 3.77773 3.41464
# Velocity P-wave (km/s) = 4.36977 6.03808 5.27035
#
# Compressibility (1/GPa) = 0.05848721
#
# Stress axis : x y z
#
# Youngs Moduli (GPa) = 86.67288 44.26901 57.97260
#
# Poissons Ratio (x) = 0.01348 0.10561
# Poissons Ratio (y) = 0.02639 -0.32938
# Poissons Ratio (z) = 0.15790 -0.25152
#
# Static dielectric constant tensor:
#      x y z
#    x 2.007420 0.038630 0.047470 
#    y 0.038630 2.041070 0.019580 
#    z 0.047470 0.019580 1.956590 
# 
# From -- ./inp_files/283448.got.cif
#   From: 2010.05.17/outbox.cif.g08.bks.cpg/sg2_142_cif.got.tgz:283448.got - 2010.06.03 11:33:40.
