data_PCOD9023893
_publ_section_title
;
Structure prediction by ZEFSAII (Michael W. Deem and Ramdas Pophale) SiO2 
 PCOD9023893
Probable space group: P -1
;
_chemical_formula_sum "Si O2"
_cell_formula_units_Z 14
_cell_length_a 9.985906
_cell_length_b 13.297926
_cell_length_c 10.184907
_cell_angle_alpha 86.026268
_cell_angle_beta 115.000937
_cell_angle_gamma 146.572132
_cell_volume 555.900155
_symmetry_space_group_name_H-M "P -1"
_symmetry_group_IT_number 2
_symmetry_cell_setting 'triclinic'
loop_
_space_group_symop_operation_xyz
x,y,z
-x,-y,-z
loop_
_atom_site_type_symbol
_atom_site_label
_atom_site_fract_x
_atom_site_fract_y
_atom_site_fract_z
Si Si1 0.643093 0.736566 0.581982
Si Si2 0.733257 0.782606 0.168177
Si Si3 0.648594 0.051137 0.887529
Si Si4 0.801757 0.051517 0.216668
Si Si5 0.000981 0.465365 0.350884
Si Si6 0.511589 0.562909 0.818469
Si Si7 0.149429 0.770935 0.313617
O O1 0.278447 0.551312 0.425648
O O2 0.653807 0.704033 0.739144
O O3 0.848240 0.770486 0.594085
O O4 0.886493 0.980731 0.653367
O O5 0.515985 0.574847 0.181683
O O6 0.648642 0.848893 0.140108
O O7 0.679316 0.710952 0.004551
O O8 0.456185 0.040256 0.802164
O O9 0.356468 0.794150 0.792251
O O10 0.854583 0.173195 0.830462
O O11 0.836700 0.140416 0.091046
O O12 0.078021 0.609620 0.283812
O O13 0.000000 0.500000 0.500000
O O14 0.133240 0.362370 0.696957
O O15 0.500000 0.000000 0.500000
#
# Coordination Sequence:
#
# PCOD9023893 Si02
#       7
#     2   2   2   2   2   2   2
#     4  10  22  40  62  89 131 160 210 264 308 375
#     4   9  22  35  59  92 124 155 212 256 315 364
#     4  11  24  46  63  91 133 166 215 259 310 382
#     4   9  24  45  64  88 131 175 203 263 314 367
#     4  12  23  40  66  96 127 165 210 258 324 372
#     4  11  20  34  62  95 118 165 205 260 318 364
#     4  12  24  38  65  96 129 163 208 266 318 371
#
# _framework density 25.184379
#
# number of rings (size 3 to 8) (size 9 to 14) (size 15 to 20)
#    0.857    0.571    2.857    2.143    4.000    0.571 
#    2.571    2.857    0.000    0.000    0.000    0.000 
#    0.000    0.000    0.000    0.000    0.000    0.000 
#
# Total GULP energy -78264.013171 kJ/mol
# GULP energy per Si atom -5590.286655 kJ/mol
# Density = 2.512706 g / cm^3
# Si number density = 25.184379 Si / 1000 Ang^3
#
#
#
# Elastic Constant Matrix: (Units=GPa)
#
#
# Indices 1 2 3 4 5 6 
#
# 1 106.6604 16.0985 14.0711 15.9201 27.6684 -11.3009
# 2 16.0985 109.7207 12.8605 14.5620 -4.6807 -16.3329
# 3 14.0711 12.8605 69.7512 18.7020 13.6788 7.0721
# 4 15.9201 14.5620 18.7020 22.7880 8.1233 7.4409
# 5 27.6684 -4.6807 13.6788 8.1233 37.2632 7.3419
# 6 -11.3009 -16.3329 7.0721 7.4409 7.3419 37.2216
#
#
#
# Elastic Compliance Matrix: (Units=1/GPa)
#
#
# Indices 1 2 3 4 5 6 
#
# 1 0.014268 -0.000193 0.000947 -0.009511 -0.010476 0.008035
# 2 -0.000193 0.011630 -0.000656 -0.009879 0.002695 0.006612
# 3 0.000947 -0.000656 0.018976 -0.014197 -0.004688 0.000157
# 4 -0.009511 -0.009879 -0.014197 0.075354 -0.001596 -0.019274
# 5 -0.010476 0.002695 -0.004688 -0.001596 0.038681 -0.008418
# 6 0.008035 0.006612 0.000157 -0.019274 -0.008418 0.037691
#
#
# Mechanical properties :
#
#
# Convention : Reuss Voigt Hill
#
# Bulk Modulus (GPa) = 22.18702 41.35476 31.77089
# Shear Modulus (GPa) = 23.64888 35.66135 29.65512
#
# Velocity S-wave (km/s) = 3.06768 3.76707 3.43522
# Velocity P-wave (km/s) = 4.62348 5.94791 5.32701
#
# Compressibility (1/GPa) = 0.04507141
#
# Stress axis : x y z
#
# Youngs Moduli (GPa) = 70.08547 85.98796 52.69704
#
# Poissons Ratio (x) = 0.01659 -0.04991
# Poissons Ratio (y) = 0.01352 0.03455
# Poissons Ratio (z) = -0.06638 0.05638
#
# Static dielectric constant tensor:
#      x y z
#    x 2.051850 -0.011560 0.049890 
#    y -0.011560 1.936350 0.008490 
#    z 0.049890 0.008490 2.004870 
# 
# From -- ./inp_files/425134.got.cif
#   From: 2010.05.17/outbox.cif.g08.bks.cpg/sg2_213_cif.got.tgz:425134.got - 2010.06.03 11:33:40.
