data_PCOD9023405
_publ_section_title
;
Structure prediction by ZEFSAII (Michael W. Deem and Ramdas Pophale) SiO2 
 PCOD9023405
Probable space group: P -1
;
_chemical_formula_sum "Si O2"
_cell_formula_units_Z 16
_cell_length_a 16.174554
_cell_length_b 22.681307
_cell_length_c 28.117537
_cell_angle_alpha 168.704532
_cell_angle_beta 21.167094
_cell_angle_gamma 157.748444
_cell_volume 720.574309
_symmetry_space_group_name_H-M "P -1"
_symmetry_group_IT_number 2
_symmetry_cell_setting 'triclinic'
loop_
_space_group_symop_operation_xyz
x,y,z
-x,-y,-z
loop_
_atom_site_type_symbol
_atom_site_label
_atom_site_fract_x
_atom_site_fract_y
_atom_site_fract_z
Si Si1 0.039103 0.357481 0.968122
Si Si2 0.928441 0.741395 0.766115
Si Si3 0.253339 0.614056 0.143980
Si Si4 0.427048 0.830529 0.734097
Si Si5 0.055761 0.315376 0.543258
Si Si6 0.345890 0.265944 0.559807
Si Si7 0.733812 0.383013 0.034051
Si Si8 0.219986 0.362010 0.129842
O O1 0.263537 0.468976 0.902620
O O2 0.922050 0.031244 0.753808
O O3 0.111285 0.357927 0.984211
O O4 0.866528 0.600859 0.245374
O O5 0.819421 0.606442 0.767700
O O6 0.000000 0.500000 0.500000
O O7 0.744657 0.920818 0.980542
O O8 0.138710 0.006154 0.878195
O O9 0.119400 0.659259 0.299601
O O10 0.273519 0.928281 0.351732
O O11 0.514045 0.549574 0.958281
O O12 0.470940 0.738844 0.583830
O O13 0.297539 0.534849 0.595767
O O14 0.660323 0.022034 0.782214
O O15 0.940604 0.447983 0.663782
O O16 0.414554 0.479935 0.737883
O O17 0.000000 0.500000 0.000000
#
# Coordination Sequence:
#
# PCOD9023405 Si02
#       8
#     2   2   2   2   2   2   2   2
#     4  11  24  41  68 100 127 178 227 274 326 401
#     4  10  22  39  68  98 133 173 225 273 327 397
#     4  12  23  42  70  95 134 181 222 283 325 390
#     4  11  24  44  65 101 133 173 217 281 333 390
#     4  11  27  43  63 100 147 169 218 278 344 391
#     4  11  23  41  73  93 129 173 233 271 322 398
#     4  10  22  39  70  99 121 174 229 266 321 397
#     4  10  23  42  64 101 134 176 220 276 332 395
#
# _framework density 22.204509999999999
#
# number of rings (size 3 to 8) (size 9 to 14) (size 15 to 20)
#    0.000    1.250    3.750    0.750    3.500    5.000 
#    0.000    4.375    0.000    0.000    0.000    0.000 
#    0.000    0.000    0.000    0.000    0.000    0.000 
#
# Total GULP energy -89478.156715 kJ/mol
# GULP energy per Si atom -5592.384795 kJ/mol
# Density = 2.215397 g / cm^3
# Si number density = 22.204510 Si / 1000 Ang^3
#
#
#
# Elastic Constant Matrix: (Units=GPa)
#
#
# Indices 1 2 3 4 5 6 
#
# 1 64.5663 16.6186 22.3292 -0.2219 15.7155 6.7614
# 2 16.6186 97.5743 34.5079 9.7705 7.6859 -2.4361
# 3 22.3292 34.5079 87.3156 -7.1622 22.5170 -2.8446
# 4 -0.2219 9.7705 -7.1622 27.1741 -11.2904 6.3981
# 5 15.7155 7.6859 22.5170 -11.2904 35.0522 -5.6455
# 6 6.7614 -2.4361 -2.8446 6.3981 -5.6455 30.6129
#
#
#
# Elastic Compliance Matrix: (Units=1/GPa)
#
#
# Indices 1 2 3 4 5 6 
#
# 1 0.019407 -0.001717 -0.002498 -0.001965 -0.008283 -0.005772
# 2 -0.001717 0.013134 -0.005059 -0.006902 -0.000719 0.002264
# 3 -0.002498 -0.005059 0.016199 0.003148 -0.007217 -0.000335
# 4 -0.001965 -0.006902 0.003148 0.047854 0.014638 -0.007125
# 5 -0.008283 -0.000719 -0.007217 0.014638 0.042704 0.005917
# 6 -0.005772 0.002264 -0.000335 -0.007125 0.005917 0.036670
#
#
# Mechanical properties :
#
#
# Convention : Reuss Voigt Hill
#
# Bulk Modulus (GPa) = 33.11917 44.04086 38.58002
# Shear Modulus (GPa) = 24.44020 30.30123 27.37071
#
# Velocity S-wave (km/s) = 3.32126 3.69811 3.51474
# Velocity P-wave (km/s) = 5.44569 6.17349 5.82098
#
# Compressibility (1/GPa) = 0.03019399
#
# Stress axis : x y z
#
# Youngs Moduli (GPa) = 51.52668 76.13650 61.73190
#
# Poissons Ratio (x) = 0.13073 0.15419
# Poissons Ratio (y) = 0.08847 0.31228
# Poissons Ratio (z) = 0.12870 0.38515
#
# Static dielectric constant tensor:
#      x y z
#    x 1.858150 0.036020 -0.002150 
#    y 0.036020 1.878650 -0.015900 
#    z -0.002150 -0.015900 1.808470 
# 
# From -- ./inp_files/623942.got.cif
#   From: 2010.05.17/outbox.cif.g08.bks.cpg/sg2_312_cif.got.tgz:623942.got - 2010.06.03 11:33:40.
