data_PCOD9023220
_publ_section_title
;
Structure prediction by ZEFSAII (Michael W. Deem and Ramdas Pophale) SiO2 
 PCOD9023220
Probable space group: P -1
;
_chemical_formula_sum "Si O2"
_cell_formula_units_Z 14
_cell_length_a 5.308828
_cell_length_b 11.643312
_cell_length_c 11.352691
_cell_angle_alpha 85.171193
_cell_angle_beta 76.719964
_cell_angle_gamma 126.609483
_cell_volume 525.806701
_symmetry_space_group_name_H-M "P -1"
_symmetry_group_IT_number 2
_symmetry_cell_setting 'triclinic'
loop_
_space_group_symop_operation_xyz
x,y,z
-x,-y,-z
loop_
_atom_site_type_symbol
_atom_site_label
_atom_site_fract_x
_atom_site_fract_y
_atom_site_fract_z
Si Si1 0.412792 0.948425 0.876831
Si Si2 0.846496 0.909366 0.258937
Si Si3 0.838825 0.553042 0.364890
Si Si4 0.287382 0.371359 0.273438
Si Si5 0.700618 0.329592 0.081217
Si Si6 0.270241 0.738577 0.507356
Si Si7 0.448537 0.653499 0.143969
O O1 0.187392 0.769861 0.910805
O O2 0.253974 0.009296 0.817942
O O3 0.763188 0.004928 0.777162
O O4 0.500000 0.000000 0.000000
O O5 0.641721 0.861374 0.407649
O O6 0.705062 0.762286 0.208644
O O7 0.481720 0.481924 0.355855
O O8 0.778557 0.408672 0.437482
O O9 0.036669 0.689877 0.421266
O O10 0.100377 0.613757 0.225182
O O11 0.488591 0.317517 0.214322
O O12 0.358475 0.493226 0.163046
O O13 0.908555 0.244992 0.367581
O O14 0.461983 0.269205 0.997396
O O15 0.000000 0.500000 0.000000
#
# Coordination Sequence:
#
# PCOD9023220 Si02
#       7
#     2   2   2   2   2   2   2
#     4  12  28  50  72 106 142 186 244 290 350 436
#     4  11  26  46  77 101 142 190 239 290 357 415
#     4   9  18  37  59 103 137 176 238 286 343 409
#     4  11  22  37  68 102 145 178 236 292 351 421
#     4  12  26  45  70 105 141 189 232 298 361 421
#     4   9  21  38  64 101 136 186 231 292 340 421
#     4  10  22  39  67 106 137 188 231 295 353 414
#
# _framework density 26.625754000000001
#
# number of rings (size 3 to 8) (size 9 to 14) (size 15 to 20)
#    0.000    1.429    2.857    2.143    8.000    1.143 
#    0.000    1.429    0.000    0.000    0.000    0.000 
#    0.000    0.000    0.000    0.000    0.000    0.000 
#
# Total GULP energy -78399.154208 kJ/mol
# GULP energy per Si atom -5599.939586 kJ/mol
# Density = 2.656515 g / cm^3
# Si number density = 26.625754 Si / 1000 Ang^3
#
#
#
# Elastic Constant Matrix: (Units=GPa)
#
#
# Indices 1 2 3 4 5 6 
#
# 1 97.3398 20.5631 34.9565 -15.1678 -13.0606 -8.4765
# 2 20.5631 106.2563 26.3228 -12.9187 -8.6849 -22.2137
# 3 34.9565 26.3228 109.2645 -15.1383 -15.5213 -6.1044
# 4 -15.1678 -12.9187 -15.1383 29.9994 5.8746 -3.9467
# 5 -13.0606 -8.6849 -15.5213 5.8746 47.1465 -6.0639
# 6 -8.4765 -22.2137 -6.1044 -3.9467 -6.0639 40.0839
#
#
#
# Elastic Compliance Matrix: (Units=1/GPa)
#
#
# Indices 1 2 3 4 5 6 
#
# 1 0.012660 -0.000396 -0.002816 0.004736 0.002282 0.002840
# 2 -0.000396 0.012092 -0.001436 0.004841 0.001964 0.007173
# 3 -0.002816 -0.001436 0.011250 0.003302 0.002377 0.001007
# 4 0.004736 0.004841 0.003302 0.040688 -0.000739 0.008082
# 5 0.002282 0.001964 0.002377 -0.000739 0.023781 0.005458
# 6 0.002840 0.007173 0.001007 0.008082 0.005458 0.031298
#
#
# Mechanical properties :
#
#
# Convention : Reuss Voigt Hill
#
# Bulk Modulus (GPa) = 37.44383 52.94950 45.19666
# Shear Modulus (GPa) = 33.34066 38.84718 36.09392
#
# Velocity S-wave (km/s) = 3.54248 3.82384 3.68584
# Velocity P-wave (km/s) = 5.55209 6.27897 5.92668
#
# Compressibility (1/GPa) = 0.02670667
#
# Stress axis : x y z
#
# Youngs Moduli (GPa) = 78.99081 82.69749 88.88676
#
# Poissons Ratio (x) = 0.03277 0.25027
# Poissons Ratio (y) = 0.03130 0.12763
# Poissons Ratio (z) = 0.22241 0.11874
#
# Static dielectric constant tensor:
#      x y z
#    x 2.093010 0.057150 0.030130 
#    y 0.057150 2.114540 0.017600 
#    z 0.030130 0.017600 2.136090 
# 
# From -- ./inp_files/65444.got.cif
#   From: 2010.05.17/outbox.cif.g08.bks.cpg/sg2_33_cif.got.tgz:65444.got - 2010.06.03 11:33:40.
