data_PCOD9023191
_publ_section_title
;
Structure prediction by ZEFSAII (Michael W. Deem and Ramdas Pophale) SiO2 
 PCOD9023191
Probable space group: P -1
;
_chemical_formula_sum "Si O2"
_cell_formula_units_Z 14
_cell_length_a 15.120712
_cell_length_b 19.639686
_cell_length_c 11.220888
_cell_angle_alpha 34.156429
_cell_angle_beta 132.096680
_cell_angle_gamma 158.991060
_cell_volume 578.020615
_symmetry_space_group_name_H-M "P -1"
_symmetry_group_IT_number 2
_symmetry_cell_setting 'triclinic'
loop_
_space_group_symop_operation_xyz
x,y,z
-x,-y,-z
loop_
_atom_site_type_symbol
_atom_site_label
_atom_site_fract_x
_atom_site_fract_y
_atom_site_fract_z
Si Si1 0.937434 0.807293 0.895206
Si Si2 0.688015 0.126599 0.144722
Si Si3 0.301933 0.247957 0.038277
Si Si4 0.600540 0.569783 0.623157
Si Si5 0.159064 0.775621 0.260915
Si Si6 0.064256 0.307400 0.381261
Si Si7 0.785726 0.429320 0.634578
O O1 0.831874 0.767879 0.982215
O O2 0.644065 0.544466 0.937831
O O3 0.177084 0.115670 0.606392
O O4 0.056881 0.784661 0.064379
O O5 0.886667 0.250443 0.242717
O O6 0.482190 0.033625 0.158749
O O7 0.486083 0.840597 0.308182
O O8 0.836677 0.342330 0.862560
O O9 0.152547 0.991661 0.326932
O O10 0.321405 0.300220 0.842389
O O11 0.500000 0.500000 0.500000
O O12 0.765761 0.596323 0.713560
O O13 0.000000 0.500000 0.500000
O O14 0.056315 0.720541 0.378766
O O15 0.246679 0.515560 0.359930
#
# Coordination Sequence:
#
# PCOD9023191 Si02
#       7
#     2   2   2   2   2   2   2
#     4  10  23  43  70  96 133 175 220 275 332 392
#     4  10  23  43  63  99 134 173 223 268 335 393
#     4  10  23  44  68  97 132 174 221 277 331 393
#     4  11  27  43  65 101 130 175 224 271 338 394
#     4  10  22  39  66  99 126 171 220 262 331 393
#     4  11  25  43  67 101 132 172 227 273 331 401
#     4  10  23  40  66  95 135 177 211 277 327 390
#
# _framework density 24.220590999999999
#
# number of rings (size 3 to 8) (size 9 to 14) (size 15 to 20)
#    0.000    1.714    0.000    2.571    6.000    6.286 
#    0.000    0.000    0.000    0.000    0.000    0.000 
#    0.000    0.000    0.000    0.000    0.000    0.000 
#
# Total GULP energy -78293.067320 kJ/mol
# GULP energy per Si atom -5592.361951 kJ/mol
# Density = 2.416546 g / cm^3
# Si number density = 24.220591 Si / 1000 Ang^3
#
#
#
# Elastic Constant Matrix: (Units=GPa)
#
#
# Indices 1 2 3 4 5 6 
#
# 1 93.6684 8.5040 40.1785 -3.5142 -7.7566 5.8496
# 2 8.5040 74.7384 12.1568 8.9444 10.1042 13.1822
# 3 40.1785 12.1568 81.9691 0.3087 -13.9016 19.3481
# 4 -3.5142 8.9444 0.3087 41.7203 5.7499 7.3808
# 5 -7.7566 10.1042 -13.9016 5.7499 48.8244 5.8280
# 6 5.8496 13.1822 19.3481 7.3808 5.8280 41.6151
#
#
#
# Elastic Compliance Matrix: (Units=1/GPa)
#
#
# Indices 1 2 3 4 5 6 
#
# 1 0.013669 -0.000817 -0.006880 0.001131 0.000091 0.001323
# 2 -0.000817 0.014959 -0.001609 -0.002306 -0.003049 -0.003039
# 3 -0.006880 -0.001609 0.018624 0.000290 0.005463 -0.007999
# 4 0.001131 -0.002306 0.000290 0.025483 -0.001804 -0.003830
# 5 0.000091 -0.003049 0.005463 -0.001804 0.023438 -0.004549
# 6 0.001323 -0.003039 -0.007999 -0.003830 -0.004549 0.029842
#
#
# Mechanical properties :
#
#
# Convention : Reuss Voigt Hill
#
# Bulk Modulus (GPa) = 34.91661 41.33940 38.12801
# Shear Modulus (GPa) = 32.43106 39.06771 35.74938
#
# Velocity S-wave (km/s) = 3.66319 4.02057 3.84603
# Velocity P-wave (km/s) = 5.68677 6.21757 5.95808
#
# Compressibility (1/GPa) = 0.02863966
#
# Stress axis : x y z
#
# Youngs Moduli (GPa) = 73.16088 66.84921 53.69380
#
# Poissons Ratio (x) = 0.05462 0.36940
# Poissons Ratio (y) = 0.05978 0.08640
# Poissons Ratio (z) = 0.50333 0.10757
#
# Static dielectric constant tensor:
#      x y z
#    x 2.102080 -0.002360 -0.000890 
#    y -0.002360 1.987520 -0.015680 
#    z -0.000890 -0.015680 1.963440 
# 
# From -- ./inp_files/457638.got.cif
#   From: 2010.05.17/outbox.cif.g08.bks.cpg/sg2_229_cif.got.tgz:457638.got - 2010.06.03 11:33:40.
