data_PCOD9023587
_publ_section_title
;
Structure prediction by ZEFSAII (Michael W. Deem and Ramdas Pophale) SiO2 
 PCOD9023587
Probable space group: P -1
;
_chemical_formula_sum "Si O2"
_cell_formula_units_Z 12
_cell_length_a 13.765844
_cell_length_b 5.263071
_cell_length_c 16.958889
_cell_angle_alpha 52.847804
_cell_angle_beta 148.934873
_cell_angle_gamma 112.826423
_cell_volume 479.676967
_symmetry_space_group_name_H-M "P -1"
_symmetry_group_IT_number 2
_symmetry_cell_setting 'triclinic'
loop_
_space_group_symop_operation_xyz
x,y,z
-x,-y,-z
loop_
_atom_site_type_symbol
_atom_site_label
_atom_site_fract_x
_atom_site_fract_y
_atom_site_fract_z
Si Si1 0.188652 0.847914 0.557631
Si Si2 0.668132 0.557578 0.424673
Si Si3 0.016262 0.374546 0.944015
Si Si4 0.072829 0.460097 0.801043
Si Si5 0.362812 0.304120 0.900661
Si Si6 0.596456 0.625165 0.614611
O O1 0.287394 0.652353 0.584763
O O2 0.198035 0.561899 0.681261
O O3 0.317762 0.069586 0.642029
O O4 0.985416 0.142389 0.338040
O O5 0.456472 0.567690 0.311625
O O6 0.861913 0.392171 0.647823
O O7 0.804558 0.614257 0.726884
O O8 0.145504 0.403473 0.953126
O O9 0.000000 0.500000 0.000000
O O10 0.000000 0.000000 0.000000
O O11 0.234314 0.231689 0.896715
O O12 0.500000 0.500000 0.000000
O O13 0.500000 0.000000 0.000000
O O14 0.500000 0.500000 0.500000
O O15 0.500000 0.000000 0.500000
#
# Coordination Sequence:
#
# PCOD9023587 Si02
#       6
#     2   2   2   2   2   2
#     4  10  23  44  73  98 135 186 240 280 350 431
#     4  10  22  39  76  98 131 179 251 279 337 406
#     4  12  28  44  68 106 148 185 229 299 367 409
#     4  10  26  47  73  94 146 188 243 282 355 428
#     4  12  28  45  71 108 144 178 230 302 370 417
#     4  12  22  43  71  98 134 185 245 283 335 430
#
# _framework density 25.016832999999998
#
# number of rings (size 3 to 8) (size 9 to 14) (size 15 to 20)
#    1.000    0.000    1.667    4.500    4.667    4.667 
#    0.000    0.000    0.000    0.000    0.000    0.000 
#    0.000    0.000    0.000    0.000    0.000    0.000 
#
# Total GULP energy -66901.017088 kJ/mol
# GULP energy per Si atom -5575.084757 kJ/mol
# Density = 2.495989 g / cm^3
# Si number density = 25.016833 Si / 1000 Ang^3
#
#
#
# Elastic Constant Matrix: (Units=GPa)
#
#
# Indices 1 2 3 4 5 6 
#
# 1 153.4204 40.5820 25.4551 -12.8561 -9.4596 -52.7692
# 2 40.5820 153.3571 27.3479 -28.1581 -7.3967 -50.9336
# 3 25.4551 27.3479 45.2115 -8.2099 -20.9583 -18.5292
# 4 -12.8561 -28.1581 -8.2099 30.7209 -1.3834 5.1218
# 5 -9.4596 -7.3967 -20.9583 -1.3834 37.8531 1.0783
# 6 -52.7692 -50.9336 -18.5292 5.1218 1.0783 53.4281
#
#
#
# Elastic Compliance Matrix: (Units=1/GPa)
#
#
# Indices 1 2 3 4 5 6 
#
# 1 0.010678 0.002187 -0.000311 0.004507 0.002745 0.012036
# 2 0.002187 0.012161 -0.000323 0.009994 0.002750 0.012628
# 3 -0.000311 -0.000323 0.038704 0.008956 0.021288 0.011520
# 4 0.004507 0.009994 0.008956 0.044301 0.009296 0.012651
# 5 0.002745 0.002750 0.021288 0.009296 0.039454 0.011029
# 6 0.012036 0.012628 0.011520 0.012651 0.011029 0.045203
#
#
# Mechanical properties :
#
#
# Convention : Reuss Voigt Hill
#
# Bulk Modulus (GPa) = 15.46773 59.86211 37.66492
# Shear Modulus (GPa) = 23.92993 41.64070 32.78531
#
# Velocity S-wave (km/s) = 3.09617 4.08426 3.62405
# Velocity P-wave (km/s) = 4.35638 6.79870 5.70966
#
# Compressibility (1/GPa) = 0.06465071
#
# Stress axis : x y z
#
# Youngs Moduli (GPa) = 93.65224 82.22799 25.83692
#
# Poissons Ratio (x) = -0.17985 0.00804
# Poissons Ratio (y) = -0.20484 0.00833
# Poissons Ratio (z) = 0.02913 0.02653
#
# Static dielectric constant tensor:
#      x y z
#    x 1.819580 -0.152940 -0.086840 
#    y -0.152940 1.672340 -0.049850 
#    z -0.086840 -0.049850 1.958130 
# 
# From -- ./inp_files/510765.got.cif
#   From: 2010.05.17/outbox.cif.g08.bks.cpg/sg2_256_cif.got.tgz:510765.got - 2010.06.03 11:33:40.
