data_PCOD9023958
_publ_section_title
;
Structure prediction by ZEFSAII (Michael W. Deem and Ramdas Pophale) SiO2 
 PCOD9023958
Probable space group: P -1
;
_chemical_formula_sum "Si O2"
_cell_formula_units_Z 16
_cell_length_a 12.361106
_cell_length_b 6.712204
_cell_length_c 14.775303
_cell_angle_alpha 133.360518
_cell_angle_beta 80.309073
_cell_angle_gamma 78.863679
_cell_volume 792.883497
_symmetry_space_group_name_H-M "P -1"
_symmetry_group_IT_number 2
_symmetry_cell_setting 'triclinic'
loop_
_space_group_symop_operation_xyz
x,y,z
-x,-y,-z
loop_
_atom_site_type_symbol
_atom_site_label
_atom_site_fract_x
_atom_site_fract_y
_atom_site_fract_z
Si Si1 0.527951 0.273469 0.112940
Si Si2 0.319108 0.827493 0.768195
Si Si3 0.738220 0.735677 0.393513
Si Si4 0.657176 0.056884 0.675660
Si Si5 0.445452 0.857543 0.597147
Si Si6 0.050141 0.634873 0.895521
Si Si7 0.151218 0.452340 0.026267
Si Si8 0.646396 0.308092 0.934604
O O1 0.572368 0.244160 0.199668
O O2 0.405642 0.581771 0.218146
O O3 0.638687 0.258657 0.027737
O O4 0.500000 0.000000 0.000000
O O5 0.306019 0.522982 0.656979
O O6 0.341221 0.986452 0.727068
O O7 0.200273 0.088847 0.906950
O O8 0.848802 0.561221 0.254549
O O9 0.757082 0.873429 0.529002
O O10 0.625454 0.009571 0.444162
O O11 0.686415 0.030305 0.770494
O O12 0.546592 0.969600 0.642258
O O13 0.500000 0.500000 0.500000
O O14 0.955820 0.475940 0.863623
O O15 0.100452 0.584908 0.976108
O O16 0.000000 0.000000 0.000000
O O17 0.265108 0.533381 0.050933
O O18 0.500000 0.500000 0.000000
#
# Coordination Sequence:
#
# PCOD9023958 Si02
#       8
#     2   2   2   2   2   2   2   2
#     4  11  21  36  60  93 128 174 212 254 325 396
#     4  12  20  35  63  90 128 162 214 270 321 380
#     4  12  23  39  60  97 127 169 221 266 325 390
#     4  11  22  39  57  92 137 168 214 264 321 403
#     4  12  22  36  59  94 135 173 202 265 337 396
#     4  11  24  42  69  95 127 170 230 281 319 377
#     4  11  23  42  66  96 126 171 221 280 328 374
#     4  10  22  40  62  92 135 168 214 266 327 402
#
# _framework density 20.179508999999999
#
# number of rings (size 3 to 8) (size 9 to 14) (size 15 to 20)
#    0.000    0.750    5.000    5.625    0.000    0.000 
#    0.000    0.625    0.000    0.750    0.000    0.000 
#    0.000    0.000    0.000    0.000    0.000    0.000 
#
# Total GULP energy -89130.568076 kJ/mol
# GULP energy per Si atom -5570.660505 kJ/mol
# Density = 2.013358 g / cm^3
# Si number density = 20.179509 Si / 1000 Ang^3
#
#
#
# Elastic Constant Matrix: (Units=GPa)
#
#
# Indices 1 2 3 4 5 6 
#
# 1 80.8518 29.7587 28.5731 -0.9731 -1.5678 28.4050
# 2 29.7587 69.4995 27.8460 -2.5063 -3.8765 11.7856
# 3 28.5731 27.8460 121.9048 -5.9005 3.2666 15.5768
# 4 -0.9731 -2.5063 -5.9005 43.1281 5.3525 -4.5894
# 5 -1.5678 -3.8765 3.2666 5.3525 28.1906 -4.7198
# 6 28.4050 11.7856 15.5768 -4.5894 -4.7198 36.8717
#
#
#
# Elastic Compliance Matrix: (Units=1/GPa)
#
#
# Indices 1 2 3 4 5 6 
#
# 1 0.019506 -0.005627 -0.001669 -0.001310 -0.001401 -0.012866
# 2 -0.005627 0.018079 -0.002881 0.000234 0.002483 0.000121
# 3 -0.001669 -0.002881 0.009621 0.001167 -0.002158 -0.001989
# 4 -0.001310 0.000234 0.001167 0.024170 -0.004279 0.002902
# 5 -0.001401 0.002483 -0.002158 -0.004279 0.037719 0.005493
# 6 -0.012866 0.000121 -0.001989 0.002902 0.005493 0.038899
#
#
# Mechanical properties :
#
#
# Convention : Reuss Voigt Hill
#
# Bulk Modulus (GPa) = 37.24142 49.40131 43.32137
# Shear Modulus (GPa) = 28.20088 34.04329 31.12209
#
# Velocity S-wave (km/s) = 3.74237 4.11179 3.93142
# Velocity P-wave (km/s) = 6.09663 6.86123 6.49020
#
# Compressibility (1/GPa) = 0.02685182
#
# Stress axis : x y z
#
# Youngs Moduli (GPa) = 51.26523 55.31249 103.94067
#
# Poissons Ratio (x) = 0.31127 0.17343
# Poissons Ratio (y) = 0.28849 0.29949
# Poissons Ratio (z) = 0.08554 0.15937
#
# Static dielectric constant tensor:
#      x y z
#    x 1.745020 -0.005110 -0.044290 
#    y -0.005110 1.801960 -0.051290 
#    z -0.044290 -0.051290 1.804640 
# 
# From -- ./inp_files/525166.got.cif
#   From: 2010.05.17/outbox.cif.g08.bks.cpg/sg2_263_cif.got.tgz:525166.got - 2010.06.03 11:33:40.
