data_PCOD9023450
_publ_section_title
;
Structure prediction by ZEFSAII (Michael W. Deem and Ramdas Pophale) SiO2 
 PCOD9023450
Probable space group: P -1
;
_chemical_formula_sum "Si O2"
_cell_formula_units_Z 16
_cell_length_a 12.839436
_cell_length_b 7.450046
_cell_length_c 25.282934
_cell_angle_alpha 43.994519
_cell_angle_beta 155.931338
_cell_angle_gamma 123.169023
_cell_volume 631.575114
_symmetry_space_group_name_H-M "P -1"
_symmetry_group_IT_number 2
_symmetry_cell_setting 'triclinic'
loop_
_space_group_symop_operation_xyz
x,y,z
-x,-y,-z
loop_
_atom_site_type_symbol
_atom_site_label
_atom_site_fract_x
_atom_site_fract_y
_atom_site_fract_z
Si Si1 0.688906 0.493918 0.269429
Si Si2 0.869658 0.270568 0.997004
Si Si3 0.802409 0.095216 0.505065
Si Si4 0.685688 0.052142 0.861540
Si Si5 0.441351 0.797440 0.347354
Si Si6 0.706268 0.041590 0.129874
Si Si7 0.372477 0.674697 0.835115
Si Si8 0.326486 0.807599 0.458898
O O1 0.353298 0.606747 0.086755
O O2 0.806358 0.285676 0.416670
O O3 0.778681 0.348810 0.285312
O O4 0.752966 0.769996 0.245460
O O5 0.672052 0.258296 0.859840
O O6 0.000000 0.500000 0.000000
O O7 0.121536 0.968931 0.180258
O O8 0.683855 0.262253 0.468731
O O9 0.617557 0.921711 0.438602
O O10 0.110894 0.869851 0.706455
O O11 0.531384 0.124773 0.718243
O O12 0.589473 0.819550 0.892125
O O13 0.000000 0.000000 0.000000
O O14 0.542117 0.462933 0.460285
O O15 0.534188 0.362042 0.997130
O O16 0.008740 0.985932 0.258911
O O17 0.500000 0.000000 0.000000
O O18 0.500000 0.000000 0.500000
#
# Coordination Sequence:
#
# PCOD9023450 Si02
#       8
#     2   2   2   2   2   2   2   2
#     4  11  22  45  74 115 150 198 255 328 378 471
#     4  11  22  40  70 111 148 198 255 316 388 454
#     4  12  26  47  81 114 153 198 266 322 394 459
#     4  10  22  39  69 108 151 196 254 316 375 451
#     4  11  24  46  74 110 153 199 257 317 392 453
#     4  10  26  48  74 105 157 207 254 305 400 462
#     4  11  24  45  75 110 155 205 254 314 386 472
#     4  12  31  51  77 113 159 206 265 327 394 476
#
# _framework density 25.333486000000001
#
# number of rings (size 3 to 8) (size 9 to 14) (size 15 to 20)
#    0.000    1.000    2.500    3.375    7.000    4.500 
#    0.000    0.000    0.000    0.000    0.000    0.000 
#    0.000    0.000    0.000    0.000    0.000    0.000 
#
# Total GULP energy -89494.675564 kJ/mol
# GULP energy per Si atom -5593.417223 kJ/mol
# Density = 2.527583 g / cm^3
# Si number density = 25.333486 Si / 1000 Ang^3
#
#
#
# Elastic Constant Matrix: (Units=GPa)
#
#
# Indices 1 2 3 4 5 6 
#
# 1 51.2542 6.3528 11.4299 -7.3744 0.6710 -14.2474
# 2 6.3528 121.5846 48.2295 6.9205 -0.6549 -7.0224
# 3 11.4299 48.2295 147.1384 -10.4212 8.7826 4.7576
# 4 -7.3744 6.9205 -10.4212 48.6937 -5.0127 2.7027
# 5 0.6710 -0.6549 8.7826 -5.0127 51.8997 0.6315
# 6 -14.2474 -7.0224 4.7576 2.7027 0.6315 55.0192
#
#
#
# Elastic Compliance Matrix: (Units=1/GPa)
#
#
# Indices 1 2 3 4 5 6 
#
# 1 0.021858 -0.000343 -0.001584 0.002726 0.000176 0.005617
# 2 -0.000343 0.009822 -0.003429 -0.002220 0.000475 0.001565
# 3 -0.001584 -0.003429 0.008310 0.001992 -0.001217 -0.001650
# 4 0.002726 -0.002220 0.001992 0.021916 0.001727 -0.000846
# 5 0.000176 0.000475 -0.001217 0.001727 0.019645 -0.000099
# 6 0.005617 0.001565 -0.001650 -0.000846 -0.000099 0.020015
#
#
# Mechanical properties :
#
#
# Convention : Reuss Voigt Hill
#
# Bulk Modulus (GPa) = 34.15667 50.22243 42.18955
# Shear Modulus (GPa) = 40.97016 48.05352 44.51184
#
# Velocity S-wave (km/s) = 4.02585 4.36000 4.19625
# Velocity P-wave (km/s) = 5.92638 6.72411 6.33781
#
# Compressibility (1/GPa) = 0.02927686
#
# Stress axis : x y z
#
# Youngs Moduli (GPa) = 45.74996 101.81051 120.32989
#
# Poissons Ratio (x) = 0.03496 0.19066
# Poissons Ratio (y) = 0.01571 0.41262
# Poissons Ratio (z) = 0.07249 0.34911
#
# Static dielectric constant tensor:
#      x y z
#    x 2.135610 0.013750 -0.021980 
#    y 0.013750 1.969800 -0.011860 
#    z -0.021980 -0.011860 2.016870 
# 
# From -- ./inp_files/623404.got.cif
#   From: 2010.05.17/outbox.cif.g08.bks.cpg/sg2_312_cif.got.tgz:623404.got - 2010.06.03 11:33:40.
