data_PCOD9023972
_publ_section_title
;
Structure prediction by ZEFSAII (Michael W. Deem and Ramdas Pophale) SiO2 
 PCOD9023972
Probable space group: P -1
;
_chemical_formula_sum "Si O2"
_cell_formula_units_Z 16
_cell_length_a 8.594495
_cell_length_b 12.450628
_cell_length_c 12.397986
_cell_angle_alpha 49.904028
_cell_angle_beta 115.949312
_cell_angle_gamma 79.133317
_cell_volume 665.846070
_symmetry_space_group_name_H-M "P -1"
_symmetry_group_IT_number 2
_symmetry_cell_setting 'triclinic'
loop_
_space_group_symop_operation_xyz
x,y,z
-x,-y,-z
loop_
_atom_site_type_symbol
_atom_site_label
_atom_site_fract_x
_atom_site_fract_y
_atom_site_fract_z
Si Si1 0.642284 0.738567 0.786355
Si Si2 0.371508 0.360000 0.918285
Si Si3 0.363350 0.669282 0.615321
Si Si4 0.894776 0.094869 0.245221
Si Si5 0.893831 0.544459 0.644184
Si Si6 0.841591 0.817285 0.624304
Si Si7 0.375706 0.771696 0.315411
Si Si8 0.963414 0.199279 0.972059
O O1 0.551245 0.674909 0.715151
O O2 0.833334 0.726856 0.789236
O O3 0.414651 0.964204 0.594984
O O4 0.699752 0.626514 0.986911
O O5 0.396529 0.503601 0.790346
O O6 0.150282 0.419770 0.745864
O O7 0.642596 0.158541 0.129340
O O8 0.379842 0.673425 0.488420
O O9 0.106027 0.868335 0.442688
O O10 0.962091 0.168695 0.312114
O O11 0.905981 0.180475 0.085426
O O12 0.643532 0.658147 0.435764
O O13 0.934595 0.379426 0.830697
O O14 0.858096 0.704500 0.601247
O O15 0.221188 0.777022 0.177324
O O16 0.226475 0.994829 0.156171
#
# Coordination Sequence:
#
# PCOD9023972 Si02
#       8
#     2   2   2   2   2   2   2   2
#     4  10  22  40  62  93 131 169 212 259 314 375
#     4  12  27  36  61  96 135 176 205 242 325 395
#     4  10  22  42  62  91 127 172 208 266 309 371
#     4  10  24  42  61  93 137 165 212 254 319 380
#     4  12  25  38  67  97 128 165 210 267 309 379
#     4  10  23  40  65  94 130 168 211 270 309 364
#     4  10  22  47  72  92 124 158 224 270 317 362
#     4  10  23  45  74  95 115 170 215 273 315 367
#
# _framework density 24.029578999999998
#
# number of rings (size 3 to 8) (size 9 to 14) (size 15 to 20)
#    0.000    1.500    1.250    2.250    8.750    2.000 
#    0.000    2.500    0.000    4.500    0.000    0.000 
#    0.000    0.000    0.000    0.000    0.000    0.000 
#
# Total GULP energy -89530.106210 kJ/mol
# GULP energy per Si atom -5595.631638 kJ/mol
# Density = 2.397489 g / cm^3
# Si number density = 24.029579 Si / 1000 Ang^3
#
#
#
# Elastic Constant Matrix: (Units=GPa)
#
#
# Indices 1 2 3 4 5 6 
#
# 1 87.1269 13.2332 46.4104 0.2547 35.0007 7.2204
# 2 13.2332 46.3986 16.5723 2.1822 0.0363 8.5196
# 3 46.4104 16.5723 87.5627 -3.2985 9.5822 8.9755
# 4 0.2547 2.1822 -3.2985 38.4557 4.9234 1.4088
# 5 35.0007 0.0363 9.5822 4.9234 56.4003 -0.0749
# 6 7.2204 8.5196 8.9755 1.4088 -0.0749 7.8469
#
#
#
# Elastic Compliance Matrix: (Units=1/GPa)
#
#
# Indices 1 2 3 4 5 6 
#
# 1 0.022333 -0.001517 -0.009274 0.001043 -0.012385 -0.008600
# 2 -0.001517 0.027501 -0.001900 -0.000922 0.001293 -0.026110
# 3 -0.009274 -0.001900 0.017460 0.001684 0.002630 -0.009652
# 4 0.001043 -0.000922 0.001684 0.026861 -0.003287 -0.006738
# 5 -0.012385 0.001293 0.002630 -0.003287 0.025266 0.007816
# 6 -0.008600 -0.026110 -0.009652 -0.006738 0.007816 0.176026
#
#
# Mechanical properties :
#
#
# Convention : Reuss Voigt Hill
#
# Bulk Modulus (GPa) = 23.86010 41.50223 32.68117
# Shear Modulus (GPa) = 14.93428 30.19874 22.56651
#
# Velocity S-wave (km/s) = 2.49569 3.54889 3.06782
# Velocity P-wave (km/s) = 4.27266 5.83966 5.11650
#
# Compressibility (1/GPa) = 0.04191098
#
# Stress axis : x y z
#
# Youngs Moduli (GPa) = 44.77703 36.36293 57.27270
#
# Poissons Ratio (x) = 0.05518 0.53112
# Poissons Ratio (y) = 0.06795 0.10884
# Poissons Ratio (z) = 0.41524 0.06910
#
# Static dielectric constant tensor:
#      x y z
#    x 1.937370 -0.023420 0.049440 
#    y -0.023420 1.901890 -0.018590 
#    z 0.049440 -0.018590 1.975900 
# 
# From -- ./inp_files/349457.got.cif
#   From: 2010.05.17/outbox.cif.g08.bks.cpg/sg2_175_cif.got.tgz:349457.got - 2010.06.03 11:33:40.
