data_PCOD9023261
_publ_section_title
;
Structure prediction by ZEFSAII (Michael W. Deem and Ramdas Pophale) SiO2 
 PCOD9023261
Probable space group: P -1
;
_chemical_formula_sum "Si O2"
_cell_formula_units_Z 16
_cell_length_a 12.655165
_cell_length_b 18.123272
_cell_length_c 21.715566
_cell_angle_alpha 153.840845
_cell_angle_beta 160.477349
_cell_angle_gamma 28.135385
_cell_volume 711.699647
_symmetry_space_group_name_H-M "P -1"
_symmetry_group_IT_number 2
_symmetry_cell_setting 'triclinic'
loop_
_space_group_symop_operation_xyz
x,y,z
-x,-y,-z
loop_
_atom_site_type_symbol
_atom_site_label
_atom_site_fract_x
_atom_site_fract_y
_atom_site_fract_z
Si Si1 0.220704 0.559424 0.483575
Si Si2 0.664706 0.433480 0.753640
Si Si3 0.329715 0.114430 0.551115
Si Si4 0.358967 0.013649 0.723572
Si Si5 0.308059 0.279226 0.221952
Si Si6 0.391485 0.113318 0.362803
Si Si7 0.294029 0.743110 0.848043
Si Si8 0.183823 0.013625 0.876240
O O1 0.476626 0.485321 0.623579
O O2 0.152354 0.414253 0.290573
O O3 0.437983 0.652648 0.629487
O O4 0.880361 0.686585 0.415756
O O5 0.646794 0.235207 0.602201
O O6 0.417384 0.545893 0.750782
O O7 0.000000 0.500000 0.000000
O O8 0.500000 0.000000 0.500000
O O9 0.543384 0.055565 0.684262
O O10 0.044490 0.017684 0.326637
O O11 0.483358 0.886192 0.752154
O O12 0.582435 0.947724 0.738347
O O13 0.000000 0.000000 0.500000
O O14 0.417578 0.195952 0.912537
O O15 0.076972 0.197361 0.989801
O O16 0.033232 0.219513 0.264356
O O17 0.223434 0.860701 0.834573
O O18 0.500000 0.000000 0.000000
#
# Coordination Sequence:
#
# PCOD9023261 Si02
#       8
#     2   2   2   2   2   2   2   2
#     4  11  22  43  66  95 135 173 218 283 341 389
#     4  12  25  42  67 102 132 173 228 283 337 399
#     4  12  24  43  68  98 131 177 226 274 336 412
#     4  11  23  41  68 102 130 176 229 275 335 403
#     4  10  22  39  67  94 133 169 222 277 337 384
#     4  12  25  43  66  95 140 175 224 276 343 402
#     4  11  24  43  66  94 135 180 216 279 342 400
#     4  11  21  40  69  95 126 170 229 272 330 390
#
# _framework density 22.481394000000002
#
# number of rings (size 3 to 8) (size 9 to 14) (size 15 to 20)
#    0.000    0.750    5.000    2.250    5.250    0.000 
#    0.000    0.625    0.000    0.000    0.000    0.000 
#    0.000    0.000    0.000    0.000    0.000    0.000 
#
# Total GULP energy -89170.741446 kJ/mol
# GULP energy per Si atom -5573.171340 kJ/mol
# Density = 2.243023 g / cm^3
# Si number density = 22.481394 Si / 1000 Ang^3
#
#
#
# Elastic Constant Matrix: (Units=GPa)
#
#
# Indices 1 2 3 4 5 6 
#
# 1 83.7603 13.5353 -11.9732 -2.5242 -0.1325 -11.5161
# 2 13.5353 70.9617 -0.4157 9.3787 -14.6075 -15.7005
# 3 -11.9732 -0.4157 39.7843 12.1154 -11.7391 -11.1898
# 4 -2.5242 9.3787 12.1154 39.9523 -14.4242 -3.5137
# 5 -0.1325 -14.6075 -11.7391 -14.4242 34.9044 3.5569
# 6 -11.5161 -15.7005 -11.1898 -3.5137 3.5569 36.7189
#
#
#
# Elastic Compliance Matrix: (Units=1/GPa)
#
#
# Indices 1 2 3 4 5 6 
#
# 1 0.013745 -0.001168 0.005935 0.000222 0.001087 0.005536
# 2 -0.001168 0.017919 0.004959 -0.002438 0.007354 0.007861
# 3 0.005935 0.004959 0.035720 -0.006874 0.009921 0.013249
# 4 0.000222 -0.002438 -0.006874 0.031083 0.009618 -0.001025
# 5 0.001087 0.007354 0.009921 0.009618 0.038667 0.003684
# 6 0.005536 0.007861 0.013249 -0.001025 0.003684 0.035914
#
#
# Mechanical properties :
#
#
# Convention : Reuss Voigt Hill
#
# Bulk Modulus (GPa) = 11.51572 21.86656 16.69114
# Shear Modulus (GPa) = 27.39076 35.20579 31.29828
#
# Velocity S-wave (km/s) = 3.49431 3.96156 3.73525
# Velocity P-wave (km/s) = 4.62750 5.53831 5.10327
#
# Compressibility (1/GPa) = 0.08683785
#
# Stress axis : x y z
#
# Youngs Moduli (GPa) = 72.75123 55.80568 27.99516
#
# Poissons Ratio (x) = 0.06517 -0.16614
# Poissons Ratio (y) = 0.08496 -0.13884
# Poissons Ratio (z) = -0.43176 -0.27676
#
# Static dielectric constant tensor:
#      x y z
#    x 1.808090 0.014690 -0.029740 
#    y 0.014690 1.655170 0.168010 
#    z -0.029740 0.168010 1.808860 
# 
# From -- ./inp_files/596012.got.cif
#   From: 2010.05.17/outbox.cif.g08.bks.cpg/sg2_299_cif.got.tgz:596012.got - 2010.06.03 11:33:40.
