data_PCOD9023924
_publ_section_title
;
Structure prediction by ZEFSAII (Michael W. Deem and Ramdas Pophale) SiO2 
 PCOD9023924
Probable space group: P -1
;
_chemical_formula_sum "Si O2"
_cell_formula_units_Z 14
_cell_length_a 6.837235
_cell_length_b 25.502940
_cell_length_c 5.068430
_cell_angle_alpha 101.686749
_cell_angle_beta 111.210585
_cell_angle_gamma 49.332193
_cell_volume 624.246659
_symmetry_space_group_name_H-M "P -1"
_symmetry_group_IT_number 2
_symmetry_cell_setting 'triclinic'
loop_
_space_group_symop_operation_xyz
x,y,z
-x,-y,-z
loop_
_atom_site_type_symbol
_atom_site_label
_atom_site_fract_x
_atom_site_fract_y
_atom_site_fract_z
Si Si1 0.728138 0.112060 0.413311
Si Si2 0.250524 0.713418 0.840006
Si Si3 0.079788 0.325050 0.089362
Si Si4 0.541657 0.456047 0.724626
Si Si5 0.616940 0.195022 0.939514
Si Si6 0.601629 0.636054 0.432264
Si Si7 0.366656 0.993999 0.679495
O O1 0.703290 0.134669 0.122271
O O2 0.604317 0.175840 0.617118
O O3 0.594877 0.076114 0.361370
O O4 0.044613 0.056086 0.581297
O O5 0.353877 0.688496 0.568303
O O6 0.033900 0.704963 0.817750
O O7 0.158197 0.616531 0.159810
O O8 0.180421 0.786999 0.921646
O O9 0.170333 0.360154 0.353003
O O10 0.332323 0.262552 0.981720
O O11 0.500000 0.500000 0.500000
O O12 0.348091 0.435372 0.593549
O O13 0.500000 0.500000 0.000000
O O14 0.498553 0.337249 0.886067
O O15 0.500000 0.000000 0.500000
O O16 0.500000 0.000000 0.000000
#
# Coordination Sequence:
#
# PCOD9023924 Si02
#       7
#     2   2   2   2   2   2   2
#     4  11  25  43  65 101 134 163 220 268 300 380
#     4  10  22  40  62  91 127 162 208 260 313 387
#     4  10  24  43  66  90 130 171 206 265 332 379
#     4  11  24  41  63  92 123 163 218 267 314 385
#     4  11  23  41  67  97 130 169 211 264 324 375
#     4  10  22  41  63  90 121 162 210 260 321 383
#     4  11  24  45  70  95 133 178 213 257 316 368
#
# _framework density 22.427032000000001
#
# number of rings (size 3 to 8) (size 9 to 14) (size 15 to 20)
#    0.000    1.429    0.000    5.143    0.000   17.143 
#    0.000    4.286    0.000    0.000    0.000    0.000 
#    0.000    0.000    0.000    0.000    0.000    0.000 
#
# Total GULP energy -78378.225171 kJ/mol
# GULP energy per Si atom -5598.444655 kJ/mol
# Density = 2.237599 g / cm^3
# Si number density = 22.427032 Si / 1000 Ang^3
#
#
#
# Elastic Constant Matrix: (Units=GPa)
#
#
# Indices 1 2 3 4 5 6 
#
# 1 134.3397 42.0850 27.0139 5.8199 12.6055 41.7701
# 2 42.0850 76.2170 11.5724 8.7097 7.5332 27.1123
# 3 27.0139 11.5724 89.0721 9.6969 -0.6895 9.2607
# 4 5.8199 8.7097 9.6969 43.6228 9.6884 2.5115
# 5 12.6055 7.5332 -0.6895 9.6884 40.9568 -2.6751
# 6 41.7701 27.1123 9.2607 2.5115 -2.6751 50.3188
#
#
#
# Elastic Compliance Matrix: (Units=1/GPa)
#
#
# Indices 1 2 3 4 5 6 
#
# 1 0.011626 -0.002986 -0.002449 0.000883 -0.003791 -0.007837
# 2 -0.002986 0.017823 -0.000462 -0.002135 -0.002323 -0.007056
# 3 -0.002449 -0.000462 0.012313 -0.002710 0.001703 0.000241
# 4 0.000883 -0.002135 -0.002710 0.025189 -0.005926 -0.000656
# 5 -0.003791 -0.002323 0.001703 -0.005926 0.027823 0.005860
# 6 -0.007837 -0.007056 0.000241 -0.000656 0.005860 0.030480
#
#
# Mechanical properties :
#
#
# Convention : Reuss Voigt Hill
#
# Bulk Modulus (GPa) = 33.36849 51.21906 42.29377
# Shear Modulus (GPa) = 34.00525 41.57686 37.79106
#
# Velocity S-wave (km/s) = 3.89814 4.31033 4.10941
# Velocity P-wave (km/s) = 5.93057 6.90360 6.43550
#
# Compressibility (1/GPa) = 0.02996840
#
# Stress axis : x y z
#
# Youngs Moduli (GPa) = 86.01587 56.10679 81.21752
#
# Poissons Ratio (x) = 0.16754 0.19887
# Poissons Ratio (y) = 0.25686 0.03751
# Poissons Ratio (z) = 0.21062 0.02591
#
# Static dielectric constant tensor:
#      x y z
#    x 1.844950 0.005880 0.020670 
#    y 0.005880 1.840760 -0.003310 
#    z 0.020670 -0.003310 1.761200 
# 
# From -- ./inp_files/11126.got.cif
#   From: 2010.05.17/outbox.cif.g08.bks.cpg/sg2_6_cif.got.tgz:11126.got - 2010.06.03 11:33:40.
