data_PCOD9023050
_publ_section_title
;
Structure prediction by ZEFSAII (Michael W. Deem and Ramdas Pophale) SiO2 
 PCOD9023050
Probable space group: P -1
;
_chemical_formula_sum "Si O2"
_cell_formula_units_Z 16
_cell_length_a 16.824370
_cell_length_b 24.349425
_cell_length_c 13.731806
_cell_angle_alpha 157.319641
_cell_angle_beta 24.298599
_cell_angle_gamma 158.075502
_cell_volume 747.376604
_symmetry_space_group_name_H-M "P -1"
_symmetry_group_IT_number 2
_symmetry_cell_setting 'triclinic'
loop_
_space_group_symop_operation_xyz
x,y,z
-x,-y,-z
loop_
_atom_site_type_symbol
_atom_site_label
_atom_site_fract_x
_atom_site_fract_y
_atom_site_fract_z
Si Si1 0.815185 0.493941 0.770973
Si Si2 0.888256 0.035439 0.403888
Si Si3 0.768828 0.246429 0.155296
Si Si4 0.499544 0.896944 0.480293
Si Si5 0.570332 0.869996 0.825080
Si Si6 0.250160 0.032507 0.884015
Si Si7 0.659517 0.743249 0.331821
Si Si8 0.619603 0.697962 0.677973
O O1 0.611290 0.301126 0.703736
O O2 0.000000 0.500000 0.500000
O O3 0.972531 0.599874 0.862416
O O4 0.703742 0.596256 0.027487
O O5 0.654615 0.008325 0.580299
O O6 0.829066 0.902634 0.337103
O O7 0.103291 0.214883 0.491556
O O8 0.995946 0.988531 0.116199
O O9 0.671165 0.191516 0.063745
O O10 0.597041 0.300561 0.476395
O O11 0.714078 0.075709 0.993081
O O12 0.290082 0.916299 0.720795
O O13 0.664636 0.970161 0.321630
O O14 0.690194 0.806730 0.512680
O O15 0.553000 0.774481 0.787806
O O16 0.412325 0.221823 0.057052
O O17 0.500000 0.500000 0.500000
#
# Coordination Sequence:
#
# PCOD9023050 Si02
#       8
#     2   2   2   2   2   2   2   2
#     4  12  25  37  64 100 135 160 214 272 314 387
#     4  10  22  39  68  87 124 165 208 257 327 373
#     4   9  22  42  64  98 131 170 208 271 328 377
#     4  11  23  43  64  88 127 169 215 251 321 388
#     4   9  21  44  65  91 137 162 219 266 323 390
#     4   9  24  43  62  87 124 170 213 261 310 377
#     4  10  22  39  65  99 126 171 210 259 335 384
#     4  10  23  42  65  93 127 162 216 273 308 379
#
# _framework density 21.408215999999999
#
# number of rings (size 3 to 8) (size 9 to 14) (size 15 to 20)
#    1.500    0.500    0.000    2.625    5.250    5.000 
#    4.500    0.625    0.000    0.000    0.000    0.000 
#    0.000    0.000    0.000    0.000    0.000    0.000 
#
# Total GULP energy -89178.290361 kJ/mol
# GULP energy per Si atom -5573.643148 kJ/mol
# Density = 2.135949 g / cm^3
# Si number density = 21.408216 Si / 1000 Ang^3
#
#
#
# Elastic Constant Matrix: (Units=GPa)
#
#
# Indices 1 2 3 4 5 6 
#
# 1 99.2155 40.4504 15.4612 11.7428 -22.6922 10.7761
# 2 40.4504 101.2207 7.8367 17.9563 -28.9245 9.0825
# 3 15.4612 7.8367 88.0459 12.9883 -24.1329 -8.5274
# 4 11.7428 17.9563 12.9883 36.1969 -8.3306 -0.7624
# 5 -22.6922 -28.9245 -24.1329 -8.3306 28.8185 1.9132
# 6 10.7761 9.0825 -8.5274 -0.7624 1.9132 25.0913
#
#
#
# Elastic Compliance Matrix: (Units=1/GPa)
#
#
# Indices 1 2 3 4 5 6 
#
# 1 0.013764 -0.002366 -0.000322 -0.001418 0.008170 -0.005830
# 2 -0.002366 0.016780 0.003852 -0.005120 0.017070 -0.005206
# 3 -0.000322 0.003852 0.016304 -0.003927 0.015934 0.002951
# 4 -0.001418 -0.005120 -0.003927 0.031979 -0.000441 0.002133
# 5 0.008170 0.017070 0.015934 -0.000441 0.072131 -0.009786
# 6 -0.005830 -0.005206 0.002951 0.002133 -0.009786 0.046057
#
#
# Mechanical properties :
#
#
# Convention : Reuss Voigt Hill
#
# Bulk Modulus (GPa) = 20.33588 46.21983 33.27785
# Shear Modulus (GPa) = 23.68781 33.00360 28.34571
#
# Velocity S-wave (km/s) = 3.32999 3.93062 3.64271
# Velocity P-wave (km/s) = 4.92999 6.49895 5.76807
#
# Compressibility (1/GPa) = 0.04917418
#
# Stress axis : x y z
#
# Youngs Moduli (GPa) = 72.65493 59.59569 61.33444
#
# Poissons Ratio (x) = 0.14100 0.01978
# Poissons Ratio (y) = 0.17189 -0.23624
# Poissons Ratio (z) = 0.02343 -0.22954
#
# Static dielectric constant tensor:
#      x y z
#    x 1.820870 0.047350 0.033890 
#    y 0.047350 1.715920 -0.019110 
#    z 0.033890 -0.019110 1.827060 
# 
# From -- ./inp_files/539400.got.cif
#   From: 2010.05.17/outbox.cif.g08.bks.cpg/sg2_270_cif.got.tgz:539400.got - 2010.06.03 11:33:40.
