data_PCOD9023713
_publ_section_title
;
Structure prediction by ZEFSAII (Michael W. Deem and Ramdas Pophale) SiO2 
 PCOD9023713
Probable space group: P -1
;
_chemical_formula_sum "Si O2"
_cell_formula_units_Z 16
_cell_length_a 16.131888
_cell_length_b 8.363350
_cell_length_c 16.155006
_cell_angle_alpha 138.582170
_cell_angle_beta 153.573679
_cell_angle_gamma 42.872749
_cell_volume 627.635426
_symmetry_space_group_name_H-M "P -1"
_symmetry_group_IT_number 2
_symmetry_cell_setting 'triclinic'
loop_
_space_group_symop_operation_xyz
x,y,z
-x,-y,-z
loop_
_atom_site_type_symbol
_atom_site_label
_atom_site_fract_x
_atom_site_fract_y
_atom_site_fract_z
Si Si1 0.851452 0.686596 0.251032
Si Si2 0.342699 0.116538 0.259248
Si Si3 0.259374 0.764371 0.588223
Si Si4 0.639838 0.373449 0.819143
Si Si5 0.143410 0.002107 0.868957
Si Si6 0.706593 0.524176 0.227015
Si Si7 0.963054 0.471181 0.052699
Si Si8 0.723952 0.036555 0.507485
O O1 0.836600 0.588418 0.293257
O O2 0.066857 0.680398 0.412240
O O3 0.743973 0.974082 0.267037
O O4 0.742840 0.510875 0.034126
O O5 0.377310 0.890841 0.265293
O O6 0.541967 0.193946 0.451904
O O7 0.165705 0.328014 0.211741
O O8 0.279524 0.024337 0.076810
O O9 0.442850 0.553287 0.689553
O O10 0.265420 0.846093 0.528818
O O11 0.796545 0.334120 0.871767
O O12 0.933936 0.008896 0.720039
O O13 0.204401 0.754161 0.774492
O O14 0.123377 0.245242 0.889929
O O15 0.689060 0.756822 0.361299
O O16 0.500000 0.500000 0.000000
O O17 0.000000 0.500000 0.000000
#
# Coordination Sequence:
#
# PCOD9023713 Si02
#       8
#     2   2   2   2   2   2   2   2
#     4  10  22  40  60  96 134 165 213 255 312 389
#     4  11  24  43  64  98 125 167 220 268 320 368
#     4  10  23  39  61  96 130 173 208 253 316 382
#     4  12  22  41  68  89 130 166 208 270 322 372
#     4  11  22  42  65  92 128 171 213 259 314 376
#     4  11  21  40  65  99 135 168 208 260 318 384
#     4  10  24  43  68  91 124 169 221 266 315 380
#     4  11  23  41  68  94 133 171 213 257 315 388
#
# _framework density 25.492505999999999
#
# number of rings (size 3 to 8) (size 9 to 14) (size 15 to 20)
#    0.000    1.250    2.500    3.375    3.500    0.500 
#   11.250    2.500    0.000    6.000    0.000    0.000 
#    0.000    0.000    0.000    0.000    0.000    0.000 
#
# Total GULP energy -89641.569384 kJ/mol
# GULP energy per Si atom -5602.598087 kJ/mol
# Density = 2.543448 g / cm^3
# Si number density = 25.492506 Si / 1000 Ang^3
#
#
#
# Elastic Constant Matrix: (Units=GPa)
#
#
# Indices 1 2 3 4 5 6 
#
# 1 70.4646 21.7751 5.0822 -2.6484 29.9059 -4.9091
# 2 21.7751 151.1988 -1.4684 -13.1227 15.5045 -7.0618
# 3 5.0822 -1.4684 89.4659 -14.3224 17.2593 -13.2319
# 4 -2.6484 -13.1227 -14.3224 43.8682 -8.8182 9.9737
# 5 29.9059 15.5045 17.2593 -8.8182 50.5045 4.0204
# 6 -4.9091 -7.0618 -13.2319 9.9737 4.0204 22.6094
#
#
#
# Elastic Compliance Matrix: (Units=1/GPa)
#
#
# Indices 1 2 3 4 5 6 
#
# 1 0.021004 -0.001397 0.002386 -0.003388 -0.014175 0.009536
# 2 -0.001397 0.007238 0.001100 0.001608 -0.001664 0.002188
# 3 0.002386 0.001100 0.014099 0.001436 -0.007094 0.009741
# 4 -0.003388 0.001608 0.001436 0.027868 0.006916 -0.012916
# 5 -0.014175 -0.001664 -0.007094 0.006916 0.033673 -0.016788
# 6 0.009536 0.002188 0.009741 -0.012916 -0.016788 0.061367
#
#
# Mechanical properties :
#
#
# Convention : Reuss Voigt Hill
#
# Bulk Modulus (GPa) = 21.49586 40.21191 30.85388
# Shear Modulus (GPa) = 28.31647 42.44578 35.38113
#
# Velocity S-wave (km/s) = 3.33645 4.08490 3.72950
# Velocity P-wave (km/s) = 4.82629 6.16902 5.53850
#
# Compressibility (1/GPa) = 0.04652059
#
# Stress axis : x y z
#
# Youngs Moduli (GPa) = 47.60998 138.15812 70.92716
#
# Poissons Ratio (x) = 0.19299 -0.16926
# Poissons Ratio (y) = 0.06651 -0.07804
# Poissons Ratio (z) = -0.11362 -0.15201
#
# Static dielectric constant tensor:
#      x y z
#    x 2.058260 -0.061510 -0.040770 
#    y -0.061510 2.015040 0.023370 
#    z -0.040770 0.023370 1.989870 
# 
# From -- ./inp_files/352447.got.cif
#   From: 2010.05.17/outbox.cif.g08.bks.cpg/sg2_177_cif.got.tgz:352447.got - 2010.06.03 11:33:40.
