data_PCOD9023285
_publ_section_title
;
Structure prediction by ZEFSAII (Michael W. Deem and Ramdas Pophale) SiO2 
 PCOD9023285
Probable space group: P -1
;
_chemical_formula_sum "Si O2"
_cell_formula_units_Z 12
_cell_length_a 11.849503
_cell_length_b 20.853035
_cell_length_c 5.090853
_cell_angle_alpha 55.991225
_cell_angle_beta 112.129568
_cell_angle_gamma 150.893138
_cell_volume 487.293166
_symmetry_space_group_name_H-M "P -1"
_symmetry_group_IT_number 2
_symmetry_cell_setting 'triclinic'
loop_
_space_group_symop_operation_xyz
x,y,z
-x,-y,-z
loop_
_atom_site_type_symbol
_atom_site_label
_atom_site_fract_x
_atom_site_fract_y
_atom_site_fract_z
Si Si1 0.674436 0.643637 0.621702
Si Si2 0.655278 0.107859 0.136954
Si Si3 0.824417 0.476478 0.392250
Si Si4 0.760449 0.540146 0.664238
Si Si5 0.122978 0.928465 0.630368
Si Si6 0.573190 0.859382 0.089577
O O1 0.816648 0.658005 0.536507
O O2 0.508901 0.597977 0.372814
O O3 0.851195 0.793692 0.604078
O O4 0.500000 0.500000 0.000000
O O5 0.863664 0.158177 0.180423
O O6 0.500000 0.000000 0.500000
O O7 0.637436 0.190488 0.949353
O O8 0.500000 0.000000 0.000000
O O9 0.896885 0.576101 0.457799
O O10 0.562760 0.295624 0.638258
O O11 0.000000 0.500000 0.500000
O O12 0.803438 0.509266 0.022855
O O13 0.222891 0.011935 0.805619
O O14 0.304270 0.062778 0.263931
#
# Coordination Sequence:
#
# PCOD9023285 Si02
#       6
#     2   2   2   2   2   2
#     4  11  25  47  76  98 137 178 242 295 329 399
#     4   8  16  33  54  88 123 161 208 264 324 386
#     4  12  26  47  71 100 145 184 224 275 350 428
#     4  11  26  46  70 104 133 183 241 278 340 407
#     4  10  22  39  67  96 131 174 227 283 341 382
#     4  10  22  40  62  98 137 174 220 275 341 414
#
# _framework density 24.625831999999999
#
# number of rings (size 3 to 8) (size 9 to 14) (size 15 to 20)
#    0.000    1.667    1.667    1.500    7.000    0.000 
#   12.000    5.000    0.000    0.000    0.000    0.000 
#    0.000    0.000    0.000    0.000    0.000    0.000 
#
# Total GULP energy -67063.415029 kJ/mol
# GULP energy per Si atom -5588.617919 kJ/mol
# Density = 2.456978 g / cm^3
# Si number density = 24.625832 Si / 1000 Ang^3
#
#
#
# Elastic Constant Matrix: (Units=GPa)
#
#
# Indices 1 2 3 4 5 6 
#
# 1 97.3236 17.7063 32.6748 20.4446 1.2826 -9.8640
# 2 17.7063 86.2770 41.9683 15.5088 13.6884 -3.1581
# 3 32.6748 41.9683 138.5490 32.3552 -8.2119 -8.8236
# 4 20.4446 15.5088 32.3552 50.5641 4.6862 1.2577
# 5 1.2826 13.6884 -8.2119 4.6862 32.2562 13.7586
# 6 -9.8640 -3.1581 -8.8236 1.2577 13.7586 34.7070
#
#
#
# Elastic Compliance Matrix: (Units=1/GPa)
#
#
# Indices 1 2 3 4 5 6 
#
# 1 0.012110 -0.000598 -0.001709 -0.003550 -0.001759 0.003778
# 2 -0.000598 0.015813 -0.004785 -0.000768 -0.009420 0.003815
# 3 -0.001709 -0.004785 0.010586 -0.005133 0.005662 -0.000289
# 4 -0.003550 -0.000768 -0.005133 0.025122 -0.003712 -0.001823
# 5 -0.001759 -0.009420 0.005662 -0.003712 0.044478 -0.017415
# 6 0.003778 0.003815 -0.000289 -0.001823 -0.017415 0.037130
#
#
# Mechanical properties :
#
#
# Convention : Reuss Voigt Hill
#
# Bulk Modulus (GPa) = 41.11164 56.31648 48.71406
# Shear Modulus (GPa) = 29.84505 38.82547 34.33526
#
# Velocity S-wave (km/s) = 3.48507 3.97497 3.73805
# Velocity P-wave (km/s) = 5.73804 6.63217 6.20124
#
# Compressibility (1/GPa) = 0.02432401
#
# Stress axis : x y z
#
# Youngs Moduli (GPa) = 82.57931 63.23792 94.46385
#
# Poissons Ratio (x) = 0.03784 0.16146
# Poissons Ratio (y) = 0.04941 0.45201
# Poissons Ratio (z) = 0.14114 0.30259
#
# Static dielectric constant tensor:
#      x y z
#    x 2.020150 0.077880 0.004770 
#    y 0.077880 1.939610 -0.020760 
#    z 0.004770 -0.020760 1.965940 
# 
# From -- ./inp_files/82426.got.cif
#   From: 2010.05.17/outbox.cif.g08.bks.cpg/sg2_42_cif.got.tgz:82426.got - 2010.06.03 11:33:40.
