data_PCOD9023244
_publ_section_title
;
Structure prediction by ZEFSAII (Michael W. Deem and Ramdas Pophale) SiO2 
 PCOD9023244
Probable space group: P -1
;
_chemical_formula_sum "Si O2"
_cell_formula_units_Z 16
_cell_length_a 15.064793
_cell_length_b 14.536585
_cell_length_c 9.230104
_cell_angle_alpha 149.643276
_cell_angle_beta 110.968459
_cell_angle_gamma 90.880567
_cell_volume 693.235547
_symmetry_space_group_name_H-M "P -1"
_symmetry_group_IT_number 2
_symmetry_cell_setting 'triclinic'
loop_
_space_group_symop_operation_xyz
x,y,z
-x,-y,-z
loop_
_atom_site_type_symbol
_atom_site_label
_atom_site_fract_x
_atom_site_fract_y
_atom_site_fract_z
Si Si1 0.774415 0.989971 0.076476
Si Si2 0.264287 0.662090 0.612192
Si Si3 0.559699 0.995447 0.243303
Si Si4 0.979830 0.681746 0.789284
Si Si5 0.181211 0.835309 0.331418
Si Si6 0.511036 0.601530 0.486447
Si Si7 0.957312 0.740959 0.536511
Si Si8 0.720669 0.537109 0.946990
O O1 0.754565 0.156280 0.208677
O O2 0.805904 0.062636 0.363235
O O3 0.899046 0.061650 0.177169
O O4 0.636102 0.702716 0.607126
O O5 0.152025 0.474785 0.407663
O O6 0.247981 0.511057 0.256735
O O7 0.411955 0.826597 0.981590
O O8 0.672329 0.036459 0.453884
O O9 0.628325 0.273674 0.621768
O O10 0.541972 0.852868 0.891617
O O11 0.964973 0.771844 0.754924
O O12 0.000000 0.500000 0.500000
O O13 0.103090 0.863947 0.216895
O O14 0.096627 0.538586 0.899066
O O15 0.500000 0.500000 0.500000
O O16 0.373956 0.418118 0.076453
O O17 0.850737 0.721262 0.365462
#
# Coordination Sequence:
#
# PCOD9023244 Si02
#       8
#     2   2   2   2   2   2   2   2
#     4  11  16  28  49  70  94 131 156 188 240 297
#     4  11  15  27  46  70 100 126 157 185 242 286
#     4   9  17  29  49  72  94 124 159 191 236 292
#     4  10  19  26  39  71 109 122 152 203 236 275
#     4   9  16  26  43  68  97 126 153 190 238 284
#     4  10  19  31  49  77  99 119 156 207 241 272
#     4  10  18  28  43  70 103 126 155 192 246 275
#     4  10  17  31  52  73  97 127 154 194 242 293
#
# _framework density 23.080179000000001
#
# number of rings (size 3 to 8) (size 9 to 14) (size 15 to 20)
#    0.000    2.000    7.500    1.875    0.000    0.000 
#    0.000    7.500    0.000    0.000    0.000   21.000 
#    0.000    0.000    0.000    0.000    0.000    0.000 
#
# Total GULP energy -89396.718336 kJ/mol
# GULP energy per Si atom -5587.294896 kJ/mol
# Density = 2.302765 g / cm^3
# Si number density = 23.080179 Si / 1000 Ang^3
#
#
#
# Elastic Constant Matrix: (Units=GPa)
#
#
# Indices 1 2 3 4 5 6 
#
# 1 89.0122 70.6055 110.1159 -23.4525 58.8084 -4.9335
# 2 70.6055 146.8699 76.8078 -23.0543 54.3778 0.6945
# 3 110.1159 76.8078 89.9121 20.3464 67.6757 28.6483
# 4 -23.4525 -23.0543 20.3464 5.3164 -13.7145 -6.4204
# 5 58.8084 54.3778 67.6757 -13.7145 66.8628 5.7455
# 6 -4.9335 0.6945 28.6483 -6.4204 5.7455 24.5701
#
#
#
# Elastic Compliance Matrix: (Units=1/GPa)
#
#
# Indices 1 2 3 4 5 6 
#
# 1 0.017802 -0.007597 0.004461 -0.022301 -0.018315 -0.002957
# 2 -0.007597 0.011633 0.001019 0.004067 -0.002863 -0.001310
# 3 0.004461 0.001019 0.001249 0.018019 -0.002729 0.004757
# 4 -0.022301 0.004067 0.018019 0.031632 0.006170 -0.018780
# 5 -0.018315 -0.002863 -0.002729 0.006170 0.038084 -0.007707
# 6 -0.002957 -0.001310 0.004757 -0.018780 -0.007707 0.031491
#
#
# Mechanical properties :
#
#
# Convention : Reuss Voigt Hill
#
# Bulk Modulus (GPa) = 37.80700 93.42807 65.61753
# Shear Modulus (GPa) = 34.49664 23.90087 29.19875
#
# Velocity S-wave (km/s) = 3.87026 3.22150 3.56068
# Velocity P-wave (km/s) = 6.03226 7.37598 6.73770
#
# Compressibility (1/GPa) = 0.02645013
#
# Stress axis : x y z
#
# Youngs Moduli (GPa) = 56.17288 85.96434 800.44472
#
# Poissons Ratio (x) = 0.65304 -3.57082
# Poissons Ratio (y) = 0.42673 -0.81534
# Poissons Ratio (z) = -0.25059 -0.08756
#
# Static dielectric constant tensor:
#      x y z
#    x 1.893540 -0.071550 0.019040 
#    y -0.071550 1.876080 0.018660 
#    z 0.019040 0.018660 1.910910 
# 
# From -- ./inp_files/239539.got.cif
#   From: 2010.05.17/outbox.cif.g08.bks.cpg/sg2_120_cif.got.tgz:239539.got - 2010.06.03 11:33:40.
