data_PCOD9023672
_publ_section_title
;
Structure prediction by ZEFSAII (Michael W. Deem and Ramdas Pophale) SiO2 
 PCOD9023672
Probable space group: P -1
;
_chemical_formula_sum "Si O2"
_cell_formula_units_Z 16
_cell_length_a 22.311165
_cell_length_b 4.848195
_cell_length_c 5.207549
_cell_angle_alpha 90.000000
_cell_angle_beta 80.562219
_cell_angle_gamma 102.550441
_cell_volume 542.020931
_symmetry_space_group_name_H-M "P -1"
_symmetry_group_IT_number 2
_symmetry_cell_setting 'triclinic'
loop_
_space_group_symop_operation_xyz
x,y,z
-x,-y,-z
loop_
_atom_site_type_symbol
_atom_site_label
_atom_site_fract_x
_atom_site_fract_y
_atom_site_fract_z
Si Si1 0.109992 0.996373 0.187067
Si Si2 0.609992 0.223610 0.687067
Si Si3 0.735049 0.084728 0.603408
Si Si4 0.015065 0.330871 0.738815
Si Si5 0.764951 0.614630 0.896592
Si Si6 0.139983 0.665993 0.673191
Si Si7 0.515065 0.699259 0.238815
Si Si8 0.639983 0.613974 0.173191
O O1 0.035394 0.967696 0.231958
O O2 0.125713 0.839895 0.432566
O O3 0.161386 0.284795 0.113721
O O4 0.123090 0.813828 0.937623
O O5 0.661386 0.037976 0.613722
O O6 0.535394 0.103091 0.731958
O O7 0.623090 0.432351 0.437624
O O8 0.625713 0.411531 0.932566
O O9 0.746901 0.285921 0.847735
O O10 0.785152 0.282420 0.382361
O O11 0.753099 0.792120 0.652265
O O12 0.000000 0.500000 0.500000
O O13 0.089952 0.365663 0.683885
O O14 0.000000 0.500000 0.000000
O O15 0.714848 0.712115 0.117639
O O16 0.500000 0.500000 0.500000
O O17 0.589952 0.814241 0.183885
O O18 0.500000 0.500000 0.000000
#
# Coordination Sequence:
#
# PCOD9023672 Si02
#       8
#     2   2   2   2   2   2   2   2
#     4   9  18  33  55  82 113 149 190 236 286 341
#     4   9  18  33  55  82 113 149 190 236 286 341
#     4  10  22  40  60  88 120 156 196 242 292 348
#     4   8  14  28  51  78 108 144 186 232 282 336
#     4  10  22  40  60  88 120 156 196 242 292 348
#     4   9  18  33  55  82 113 149 190 236 286 341
#     4   8  14  28  51  78 108 144 186 232 282 336
#     4   9  18  33  55  82 113 149 190 236 286 341
#
# _framework density 29.519154
#
# number of rings (size 3 to 8) (size 9 to 14) (size 15 to 20)
#    0.000    3.000    0.000    0.000    0.000    8.000 
#    0.000    1.250    0.000    0.000    0.000   54.250 
#    0.000    0.000    0.000    0.000    0.000    0.000 
#
# Total GULP energy -89643.784896 kJ/mol
# GULP energy per Si atom -5602.736556 kJ/mol
# Density = 2.945197 g / cm^3
# Si number density = 29.519154 Si / 1000 Ang^3
#
#
#
# Elastic Constant Matrix: (Units=GPa)
#
#
# Indices 1 2 3 4 5 6 
#
# 1 175.4565 52.5867 64.9337 -0.9904 -17.3199 8.6420
# 2 52.5867 118.8612 37.3760 -2.8361 -1.2526 4.2734
# 3 64.9337 37.3760 173.9721 0.2621 4.1301 6.0524
# 4 -0.9904 -2.8361 0.2621 24.1465 9.1935 -6.7870
# 5 -17.3199 -1.2526 4.1301 9.1935 65.5387 -2.2436
# 6 8.6420 4.2734 6.0524 -6.7870 -2.2436 43.4237
#
#
#
# Elastic Compliance Matrix: (Units=1/GPa)
#
#
# Indices 1 2 3 4 5 6 
#
# 1 0.007589 -0.002605 -0.002290 -0.001093 0.002220 -0.000991
# 2 -0.002605 0.009956 -0.001149 0.001269 -0.000608 -0.000134
# 3 -0.002290 -0.001149 0.006891 -0.000022 -0.001074 -0.000450
# 4 -0.001093 0.001269 -0.000022 0.045932 -0.006469 0.006941
# 5 0.002220 -0.000608 -0.001074 -0.006469 0.016795 -0.000376
# 6 -0.000991 -0.000134 -0.000450 0.006941 -0.000376 0.024368
#
#
# Mechanical properties :
#
#
# Convention : Reuss Voigt Hill
#
# Bulk Modulus (GPa) = 80.98416 86.45363 83.71890
# Shear Modulus (GPa) = 39.14379 47.51466 43.32922
#
# Velocity S-wave (km/s) = 3.64544 4.01636 3.83539
# Velocity P-wave (km/s) = 6.72406 7.13156 6.93080
#
# Compressibility (1/GPa) = 0.01234809
#
# Stress axis : x y z
#
# Youngs Moduli (GPa) = 131.76690 100.44495 145.12191
#
# Poissons Ratio (x) = 0.26163 0.33227
# Poissons Ratio (y) = 0.34322 0.16682
# Poissons Ratio (z) = 0.30169 0.11546
#
# Static dielectric constant tensor:
#      x y z
#    x 2.469410 0.059860 -0.033690 
#    y 0.059860 2.203450 -0.007920 
#    z -0.033690 -0.007920 2.298060 
# 
# From -- ./inp_files/121643.got.cif
#   From: 2010.05.17/outbox.cif.g08.bks.cpg/sg2_61_cif.got.tgz:121643.got - 2010.06.03 11:33:40.
