data_PCOD9023407
_publ_section_title
;
Structure prediction by ZEFSAII (Michael W. Deem and Ramdas Pophale) SiO2 
 PCOD9023407
Probable space group: P -1
;
_chemical_formula_sum "Si O2"
_cell_formula_units_Z 12
_cell_length_a 12.064256
_cell_length_b 11.580754
_cell_length_c 5.524853
_cell_angle_alpha 87.504185
_cell_angle_beta 121.846863
_cell_angle_gamma 122.519337
_cell_volume 520.898064
_symmetry_space_group_name_H-M "P -1"
_symmetry_group_IT_number 2
_symmetry_cell_setting 'triclinic'
loop_
_space_group_symop_operation_xyz
x,y,z
-x,-y,-z
loop_
_atom_site_type_symbol
_atom_site_label
_atom_site_fract_x
_atom_site_fract_y
_atom_site_fract_z
Si Si1 0.960872 0.260076 0.606668
Si Si2 0.271935 0.565373 0.943708
Si Si3 0.013955 0.906358 0.719536
Si Si4 0.378143 0.838902 0.774299
Si Si5 0.442082 0.639236 0.641573
Si Si6 0.201476 0.201694 0.129352
O O1 0.080804 0.433153 0.718771
O O2 0.928369 0.181881 0.318178
O O3 0.786005 0.194178 0.524229
O O4 0.072328 0.223676 0.869847
O O5 0.312186 0.721192 0.927166
O O6 0.360031 0.555012 0.808541
O O7 0.336967 0.564731 0.283156
O O8 0.830569 0.795346 0.625110
O O9 0.000000 0.000000 0.500000
O O10 0.141893 0.037184 0.034934
O O11 0.456882 0.786048 0.691919
O O12 0.500000 0.000000 0.000000
O O13 0.621144 0.686876 0.786166
#
# Coordination Sequence:
#
# PCOD9023407 Si02
#       6
#     2   2   2   2   2   2
#     4  11  23  41  69 100 135 179 227 281 339 402
#     4  10  26  44  68 100 139 180 226 278 339 403
#     4   9  21  38  62  97 133 174 223 271 338 397
#     4  10  24  45  71  99 134 180 229 283 336 405
#     4  10  25  44  68  97 140 174 230 274 340 399
#     4  10  22  39  68  98 135 180 223 284 334 404
#
# _framework density 23.037137999999999
#
# number of rings (size 3 to 8) (size 9 to 14) (size 15 to 20)
#    1.000    1.000    0.000    1.500    7.000    6.667 
#    0.000    0.000    0.000    0.000    0.000    0.000 
#    0.000    0.000    0.000    0.000    0.000    0.000 
#
# Total GULP energy -66880.024717 kJ/mol
# GULP energy per Si atom -5573.335393 kJ/mol
# Density = 2.298470 g / cm^3
# Si number density = 23.037138 Si / 1000 Ang^3
#
#
#
# Elastic Constant Matrix: (Units=GPa)
#
#
# Indices 1 2 3 4 5 6 
#
# 1 102.1741 27.0423 35.0978 -9.3628 16.8310 1.9153
# 2 27.0423 103.7675 38.7286 26.6294 2.9816 -4.0034
# 3 35.0978 38.7286 64.2124 -2.8871 2.8244 6.8895
# 4 -9.3628 26.6294 -2.8871 27.0069 5.5634 -3.0615
# 5 16.8310 2.9816 2.8244 5.5634 41.7734 3.3521
# 6 1.9153 -4.0034 6.8895 -3.0615 3.3521 27.6209
#
#
#
# Elastic Compliance Matrix: (Units=1/GPa)
#
#
# Indices 1 2 3 4 5 6 
#
# 1 0.014662 -0.004578 -0.004633 0.010672 -0.006808 0.001485
# 2 -0.004578 0.021828 -0.012320 -0.024915 0.004174 0.003286
# 3 -0.004633 -0.012320 0.026838 0.012693 -0.000219 -0.006725
# 4 0.010672 -0.024915 0.012693 0.069478 -0.012772 0.001734
# 5 -0.006808 0.004174 -0.000219 -0.012772 0.028399 -0.003730
# 6 0.001485 0.003286 -0.006725 0.001734 -0.003730 0.038900
#
#
# Mechanical properties :
#
#
# Convention : Reuss Voigt Hill
#
# Bulk Modulus (GPa) = 49.34015 52.43238 50.88626
# Shear Modulus (GPa) = 20.00621 30.56595 25.28608
#
# Velocity S-wave (km/s) = 2.95012 3.64649 3.31663
# Velocity P-wave (km/s) = 5.75051 6.36699 6.06659
#
# Compressibility (1/GPa) = 0.02026747
#
# Stress axis : x y z
#
# Youngs Moduli (GPa) = 68.20424 45.81171 37.26046
#
# Poissons Ratio (x) = 0.20971 0.17263
# Poissons Ratio (y) = 0.31221 0.45904
# Poissons Ratio (z) = 0.31600 0.56439
#
# Static dielectric constant tensor:
#      x y z
#    x 1.899490 0.011050 -0.067320 
#    y 0.011050 1.909050 -0.028500 
#    z -0.067320 -0.028500 1.965270 
# 
# From -- ./inp_files/83340.got.cif
#   From: 2010.05.17/outbox.cif.g08.bks.cpg/sg2_42_cif.got.tgz:83340.got - 2010.06.03 11:33:40.
