data_PCOD9023986
_publ_section_title
;
Structure prediction by ZEFSAII (Michael W. Deem and Ramdas Pophale) SiO2 
 PCOD9023986
Probable space group: P -1
;
_chemical_formula_sum "Si O2"
_cell_formula_units_Z 16
_cell_length_a 4.824660
_cell_length_b 21.193983
_cell_length_c 11.998658
_cell_angle_alpha 33.566234
_cell_angle_beta 113.496882
_cell_angle_gamma 117.874610
_cell_volume 599.545684
_symmetry_space_group_name_H-M "P -1"
_symmetry_group_IT_number 2
_symmetry_cell_setting 'triclinic'
loop_
_space_group_symop_operation_xyz
x,y,z
-x,-y,-z
loop_
_atom_site_type_symbol
_atom_site_label
_atom_site_fract_x
_atom_site_fract_y
_atom_site_fract_z
Si Si1 0.129896 0.240370 0.259760
Si Si2 0.495284 0.786762 0.458230
Si Si3 0.485622 0.912398 0.490389
Si Si4 0.547274 0.864174 0.938279
Si Si5 0.373102 0.614216 0.322184
Si Si6 0.225394 0.890252 0.073743
Si Si7 0.858595 0.529346 0.204442
Si Si8 0.266393 0.362858 0.433415
O O1 0.447297 0.291108 0.311263
O O2 0.241927 0.145785 0.339235
O O3 0.840608 0.164466 0.398222
O O4 0.058891 0.352089 0.027979
O O5 0.518778 0.898865 0.379183
O O6 0.231796 0.795581 0.312443
O O7 0.764065 0.756266 0.467944
O O8 0.507911 0.051286 0.293960
O O9 0.522580 0.728577 0.100959
O O10 0.302641 0.852172 0.018753
O O11 0.891662 0.916615 0.968889
O O12 0.500000 0.500000 0.500000
O O13 0.015316 0.569544 0.291220
O O14 0.509319 0.655298 0.404114
O O15 0.500000 0.000000 0.000000
O O16 0.999212 0.424269 0.336211
O O17 0.493210 0.470537 0.242061
#
# Coordination Sequence:
#
# PCOD9023986 Si02
#       8
#     2   2   2   2   2   2   2   2
#     4  10  23  43  62  91 134 171 212 264 315 383
#     4  10  24  35  65  92 138 157 211 260 328 382
#     4  10  22  40  62  94 132 163 211 262 321 389
#     4  12  24  40  66  97 131 172 211 259 334 386
#     4  10  25  45  68  96 130 168 222 273 314 375
#     4  12  23  37  63  99 136 167 204 259 335 397
#     4  11  25  45  65  89 129 177 223 267 314 370
#     4  11  24  40  67  96 128 167 218 268 331 377
#
# _framework density 26.686872999999999
#
# number of rings (size 3 to 8) (size 9 to 14) (size 15 to 20)
#    0.750    0.500    2.500    3.000    7.000    3.000 
#    0.000    1.250    0.000    0.000    0.000    0.000 
#    0.000    0.000    0.000    0.000    0.000    0.000 
#
# Total GULP energy -89165.857093 kJ/mol
# GULP energy per Si atom -5572.866068 kJ/mol
# Density = 2.662613 g / cm^3
# Si number density = 26.686873 Si / 1000 Ang^3
#
#
#
# Elastic Constant Matrix: (Units=GPa)
#
#
# Indices 1 2 3 4 5 6 
#
# 1 107.5443 21.8452 29.6293 -13.2821 1.0275 -7.3667
# 2 21.8452 77.0163 20.2474 -5.4867 7.7767 4.9996
# 3 29.6293 20.2474 188.1981 -36.1161 5.9916 -4.4851
# 4 -13.2821 -5.4867 -36.1161 45.3028 5.1564 7.3053
# 5 1.0275 7.7767 5.9916 5.1564 30.5163 0.6611
# 6 -7.3667 4.9996 -4.4851 7.3053 0.6611 37.3108
#
#
#
# Elastic Compliance Matrix: (Units=1/GPa)
#
#
# Indices 1 2 3 4 5 6 
#
# 1 0.010464 -0.002743 -0.001008 0.001583 0.000234 0.001998
# 2 -0.002743 0.014614 -0.000877 0.001120 -0.003589 -0.002761
# 3 -0.001008 -0.000877 0.006604 0.005120 -0.001899 -0.000257
# 4 0.001583 0.001120 0.005120 0.028186 -0.006006 -0.004634
# 5 0.000234 -0.003589 -0.001899 -0.006006 0.035045 0.000854
# 6 0.001998 -0.002761 -0.000257 -0.004634 0.000854 0.028428
#
#
# Mechanical properties :
#
#
# Convention : Reuss Voigt Hill
#
# Bulk Modulus (GPa) = 44.59444 57.35584 50.97514
# Shear Modulus (GPa) = 35.69558 42.69509 39.19534
#
# Velocity S-wave (km/s) = 3.66125 4.00416 3.83654
# Velocity P-wave (km/s) = 5.88384 6.55107 6.22640
#
# Compressibility (1/GPa) = 0.02242432
#
# Stress axis : x y z
#
# Youngs Moduli (GPa) = 95.56847 68.42535 151.43388
#
# Poissons Ratio (x) = 0.18772 0.15269
# Poissons Ratio (y) = 0.26219 0.13280
# Poissons Ratio (z) = 0.09636 0.06000
#
# Static dielectric constant tensor:
#      x y z
#    x 2.174110 0.039070 -0.072650 
#    y 0.039070 2.330820 -0.084810 
#    z -0.072650 -0.084810 2.161130 
# 
# From -- ./inp_files/370998.got.cif
#   From: 2010.05.17/outbox.cif.g08.bks.cpg/sg2_186_cif.got.tgz:370998.got - 2010.06.03 11:33:40.
