data_PCOD9023280
_publ_section_title
;
Structure prediction by ZEFSAII (Michael W. Deem and Ramdas Pophale) SiO2 
 PCOD9023280
Probable space group: P -1
;
_chemical_formula_sum "Si O2"
_cell_formula_units_Z 15
_cell_length_a 10.963890
_cell_length_b 10.063097
_cell_length_c 6.006887
_cell_angle_alpha 83.323717
_cell_angle_beta 102.240568
_cell_angle_gamma 69.340476
_cell_volume 592.650962
_symmetry_space_group_name_H-M "P -1"
_symmetry_group_IT_number 2
_symmetry_cell_setting 'triclinic'
loop_
_space_group_symop_operation_xyz
x,y,z
-x,-y,-z
loop_
_atom_site_type_symbol
_atom_site_label
_atom_site_fract_x
_atom_site_fract_y
_atom_site_fract_z
Si Si1 0.000000 0.500000 0.000000
Si Si2 0.432399 0.323334 0.174323
Si Si3 0.288387 0.915707 0.738527
Si Si4 0.268478 0.188258 0.403786
Si Si5 0.799688 0.577118 0.298738
Si Si6 0.889751 0.124601 0.663043
Si Si7 0.755153 0.415391 0.713717
Si Si8 0.130285 0.116180 0.997184
O O1 0.874075 0.444985 0.884638
O O2 0.063264 0.478339 0.776068
O O3 0.585137 0.235150 0.181067
O O4 0.392524 0.220445 0.349429
O O5 0.384938 0.477041 0.252686
O O6 0.331885 0.351344 0.922443
O O7 0.160080 0.884943 0.601931
O O8 0.304701 0.026615 0.537526
O O9 0.260887 0.004854 0.940615
O O10 0.205641 0.296328 0.558770
O O11 0.161382 0.229660 0.144884
O O12 0.772273 0.458287 0.459248
O O13 0.775160 0.248971 0.737957
O O14 0.018961 0.163702 0.751676
O O15 0.916120 0.972980 0.822487
#
# Coordination Sequence:
#
# PCOD9023280 Si02
#       8
#     1   2   2   2   2   2   2   2
#     4  10  22  40  60  96 126 160 204 260 314 372
#     4  10  23  41  61  96 131 164 212 261 315 377
#     4  11  23  41  65  91 128 172 213 262 313 368
#     4  10  22  39  67  96 125 166 208 266 319 374
#     4  10  22  40  60  97 128 164 206 259 321 376
#     4  10  24  43  63  91 126 169 215 260 314 377
#     4  10  23  40  64  91 126 169 206 258 318 379
#     4  10  23  43  64  96 125 165 215 265 315 373
#
# _framework density 25.310009000000001
#
# number of rings (size 3 to 8) (size 9 to 14) (size 15 to 20)
#    0.000    1.867    0.000    2.000    7.467    9.067 
#    0.000    1.333    0.000    0.000    0.000    0.000 
#    0.000    0.000    0.000    0.000    0.000    0.000 
#
# Total GULP energy -83698.832606 kJ/mol
# GULP energy per Si atom -5579.922174 kJ/mol
# Density = 2.525240 g / cm^3
# Si number density = 25.310009 Si / 1000 Ang^3
#
#
#
# Elastic Constant Matrix: (Units=GPa)
#
#
# Indices 1 2 3 4 5 6 
#
# 1 38.3616 9.8078 28.5412 5.6574 -1.5118 -18.1239
# 2 9.8078 66.6628 30.2482 15.9797 7.4143 -3.1236
# 3 28.5412 30.2482 107.3640 30.6644 3.5821 -14.6123
# 4 5.6574 15.9797 30.6644 51.2188 0.9012 -4.0336
# 5 -1.5118 7.4143 3.5821 0.9012 21.6344 1.4232
# 6 -18.1239 -3.1236 -14.6123 -4.0336 1.4232 48.1116
#
#
#
# Elastic Compliance Matrix: (Units=1/GPa)
#
#
# Indices 1 2 3 4 5 6 
#
# 1 0.038608 -0.002148 -0.008934 0.002612 0.004029 0.011791
# 2 -0.002148 0.018318 -0.003568 -0.003307 -0.005646 -0.000814
# 3 -0.008934 -0.003568 0.014692 -0.006640 -0.001581 0.000355
# 4 0.002612 -0.003307 -0.006640 0.024278 0.001355 0.000748
# 5 0.004029 -0.005646 -0.001581 0.001355 0.048687 -0.000656
# 6 0.011791 -0.000814 0.000355 0.000748 -0.000656 0.025364
#
#
# Mechanical properties :
#
#
# Convention : Reuss Voigt Hill
#
# Bulk Modulus (GPa) = 23.63051 38.84254 31.23652
# Shear Modulus (GPa) = 23.43536 33.77905 28.60720
#
# Velocity S-wave (km/s) = 3.04622 3.65720 3.36560
# Velocity P-wave (km/s) = 4.66147 5.76311 5.24131
#
# Compressibility (1/GPa) = 0.04231818
#
# Stress axis : x y z
#
# Youngs Moduli (GPa) = 25.90143 54.59044 68.06502
#
# Poissons Ratio (x) = 0.11727 0.60809
# Poissons Ratio (y) = 0.05564 0.24284
# Poissons Ratio (z) = 0.23140 0.19477
#
# Static dielectric constant tensor:
#      x y z
#    x 2.002620 -0.001200 0.027140 
#    y -0.001200 1.732920 0.174140 
#    z 0.027140 0.174140 1.888570 
# 
# From -- ./inp_files/70657.got.cif
#   From: 2010.05.17/outbox.cif.g08.bks.cpg/sg2_36_cif.got.tgz:70657.got - 2010.06.03 11:33:40.
