data_PCOD9023487
_publ_section_title
;
Structure prediction by ZEFSAII (Michael W. Deem and Ramdas Pophale) SiO2 
 PCOD9023487
Probable space group: P -1
;
_chemical_formula_sum "Si O2"
_cell_formula_units_Z 16
_cell_length_a 18.253676
_cell_length_b 9.936889
_cell_length_c 11.649416
_cell_angle_alpha 139.025990
_cell_angle_beta 35.714936
_cell_angle_gamma 145.783216
_cell_volume 670.744587
_symmetry_space_group_name_H-M "P -1"
_symmetry_group_IT_number 2
_symmetry_cell_setting 'triclinic'
loop_
_space_group_symop_operation_xyz
x,y,z
-x,-y,-z
loop_
_atom_site_type_symbol
_atom_site_label
_atom_site_fract_x
_atom_site_fract_y
_atom_site_fract_z
Si Si1 0.722283 0.751369 0.953062
Si Si2 0.120744 0.749429 0.435402
Si Si3 0.967165 0.859238 0.175110
Si Si4 0.316422 0.647781 0.702452
Si Si5 0.200541 0.281374 0.926156
Si Si6 0.344074 0.801745 0.004652
Si Si7 0.634074 0.951749 0.503200
Si Si8 0.601833 0.336575 0.652621
O O1 0.694751 0.586757 0.770678
O O2 0.861458 0.034445 0.941049
O O3 0.784990 0.666215 0.923203
O O4 0.566650 0.717553 0.168405
O O5 0.064654 0.932583 0.617112
O O6 0.186032 0.733845 0.220192
O O7 0.000000 0.500000 0.500000
O O8 0.277860 0.898079 0.400739
O O9 0.838892 0.605642 0.232696
O O10 0.940087 0.817058 0.044620
O O11 0.478474 0.687653 0.547364
O O12 0.326673 0.656819 0.556742
O O13 0.336541 0.840792 0.902260
O O14 0.248475 0.090433 0.732560
O O15 0.325800 0.541230 0.876904
O O16 0.500000 0.000000 0.000000
O O17 0.595737 0.118164 0.587632
#
# Coordination Sequence:
#
# PCOD9023487 Si02
#       8
#     2   2   2   2   2   2   2   2
#     4  11  23  44  69 101 128 177 232 273 319 404
#     4  11  23  42  71 102 134 173 220 282 339 399
#     4  10  24  42  69 100 138 167 215 286 353 379
#     4  11  24  43  64  99 136 179 215 279 338 396
#     4  10  22  39  70 100 133 167 222 275 342 393
#     4  11  23  39  66 102 135 170 217 282 341 395
#     4  11  22  42  69  94 137 180 223 270 328 407
#     4  11  25  44  70  95 134 185 231 263 324 401
#
# _framework density 23.854087
#
# number of rings (size 3 to 8) (size 9 to 14) (size 15 to 20)
#    0.000    1.250    2.500    3.000    1.750    5.000 
#    2.250    0.625    0.000    0.000    0.000    0.000 
#    0.000    0.000    0.000    0.000    0.000    0.000 
#
# Total GULP energy -89207.473484 kJ/mol
# GULP energy per Si atom -5575.467093 kJ/mol
# Density = 2.379979 g / cm^3
# Si number density = 23.854087 Si / 1000 Ang^3
#
#
#
# Elastic Constant Matrix: (Units=GPa)
#
#
# Indices 1 2 3 4 5 6 
#
# 1 79.9852 25.8557 48.0443 -8.2157 23.2506 19.8118
# 2 25.8557 134.0187 38.3487 -19.2604 10.3160 28.2237
# 3 48.0443 38.3487 115.7133 -8.0530 39.4273 2.6791
# 4 -8.2157 -19.2604 -8.0530 42.4916 -7.7784 6.8997
# 5 23.2506 10.3160 39.4273 -7.7784 34.9624 2.6013
# 6 19.8118 28.2237 2.6791 6.8997 2.6013 33.7941
#
#
#
# Elastic Compliance Matrix: (Units=1/GPa)
#
#
# Indices 1 2 3 4 5 6 
#
# 1 0.021828 0.002185 -0.007612 0.005386 -0.004278 -0.014788
# 2 0.002185 0.012068 -0.005316 0.007623 0.003628 -0.012774
# 3 -0.007612 -0.005316 0.018444 -0.004880 -0.015973 0.009667
# 4 0.005386 0.007623 -0.004880 0.031148 0.007799 -0.016097
# 5 -0.004278 0.003628 -0.015973 0.007799 0.050476 -0.004734
# 6 -0.014788 -0.012774 0.009667 -0.016097 -0.004734 0.051813
#
#
# Mechanical properties :
#
#
# Convention : Reuss Voigt Hill
#
# Bulk Modulus (GPa) = 32.41330 61.57940 46.99635
# Shear Modulus (GPa) = 22.98332 36.74752 29.86542
#
# Velocity S-wave (km/s) = 3.10739 3.92919 3.54221
# Velocity P-wave (km/s) = 5.14705 6.81585 6.03937
#
# Compressibility (1/GPa) = 0.03085154
#
# Stress axis : x y z
#
# Youngs Moduli (GPa) = 45.81217 82.86531 54.21904
#
# Poissons Ratio (x) = -0.18104 0.41274
# Poissons Ratio (y) = -0.10009 0.28825
# Poissons Ratio (z) = 0.34874 0.44055
#
# Static dielectric constant tensor:
#      x y z
#    x 1.966110 -0.010550 0.072850 
#    y -0.010550 1.981390 0.012630 
#    z 0.072850 0.012630 1.992130 
# 
# From -- ./inp_files/543065.got.cif
#   From: 2010.05.17/outbox.cif.g08.bks.cpg/sg2_272_cif.got.tgz:543065.got - 2010.06.03 11:33:40.
