data_PCOD9023339
_publ_section_title
;
Structure prediction by ZEFSAII (Michael W. Deem and Ramdas Pophale) SiO2 
 PCOD9023339
Probable space group: P -1
;
_chemical_formula_sum "Si O2"
_cell_formula_units_Z 13
_cell_length_a 8.655739
_cell_length_b 12.945498
_cell_length_c 8.019430
_cell_angle_alpha 131.259514
_cell_angle_beta 129.909643
_cell_angle_gamma 77.552134
_cell_volume 483.421159
_symmetry_space_group_name_H-M "P -1"
_symmetry_group_IT_number 2
_symmetry_cell_setting 'triclinic'
loop_
_space_group_symop_operation_xyz
x,y,z
-x,-y,-z
loop_
_atom_site_type_symbol
_atom_site_label
_atom_site_fract_x
_atom_site_fract_y
_atom_site_fract_z
Si Si1 0.110424 0.146726 0.829834
Si Si2 0.819240 0.532560 0.802648
Si Si3 0.500000 0.000000 0.000000
Si Si4 0.486554 0.869813 0.223770
Si Si5 0.172355 0.154705 0.359538
Si Si6 0.483522 0.762066 0.597706
Si Si7 0.961178 0.308984 0.182326
O O1 0.193805 0.311228 0.988879
O O2 0.325161 0.121339 0.030235
O O3 0.000000 0.000000 0.500000
O O4 0.429917 0.915882 0.053037
O O5 0.603935 0.397772 0.556960
O O6 0.000000 0.500000 0.000000
O O7 0.898951 0.551711 0.684138
O O8 0.675142 0.152355 0.389796
O O9 0.287225 0.725459 0.991556
O O10 0.717321 0.853923 0.397908
O O11 0.980893 0.182127 0.933724
O O12 0.386695 0.220335 0.461165
O O13 0.064995 0.276664 0.388661
O O14 0.000000 0.000000 0.000000
O O15 0.500000 0.000000 0.500000
#
# Coordination Sequence:
#
# PCOD9023339 Si02
#       7
#     2   2   1   2   2   2   2
#     4   9  22  37  66 104 146 187 249 296 359 445
#     4  10  22  39  68 102 147 197 238 297 385 431
#     4  12  28  38  74 112 134 194 258 292 372 444
#     4  12  23  43  68  99 154 185 243 314 368 434
#     4  11  21  38  68  97 139 194 240 297 379 426
#     4  11  23  40  65 106 146 186 245 303 362 444
#     4   9  22  41  66 101 139 195 239 296 380 430
#
# _framework density 26.891665
#
# number of rings (size 3 to 8) (size 9 to 14) (size 15 to 20)
#    0.923    0.615    3.077    1.385    4.308    0.000 
#    0.000    3.077    0.000    0.923    0.000    5.385 
#    0.000    0.000    0.000    0.000    0.000    0.000 
#
# Total GULP energy -72375.511015 kJ/mol
# GULP energy per Si atom -5567.347001 kJ/mol
# Density = 2.683046 g / cm^3
# Si number density = 26.891665 Si / 1000 Ang^3
#
#
#
# Elastic Constant Matrix: (Units=GPa)
#
#
# Indices 1 2 3 4 5 6 
#
# 1 82.6301 45.0898 50.0000 7.8820 10.8923 14.5927
# 2 45.0898 184.8328 75.9414 16.9946 28.1534 -0.7707
# 3 50.0000 75.9414 128.1486 18.9313 15.6320 1.4436
# 4 7.8820 16.9946 18.9313 59.3595 -2.7156 22.0941
# 5 10.8923 28.1534 15.6320 -2.7156 36.4803 12.2362
# 6 14.5927 -0.7707 1.4436 22.0941 12.2362 50.5737
#
#
#
# Elastic Compliance Matrix: (Units=1/GPa)
#
#
# Indices 1 2 3 4 5 6 
#
# 1 0.017739 -0.002356 -0.006043 0.002754 0.001513 -0.006551
# 2 -0.002356 0.008354 -0.002959 -0.002700 -0.005846 0.003485
# 3 -0.006043 -0.002959 0.012824 -0.003990 -0.002978 0.003796
# 4 0.002754 -0.002700 -0.003990 0.023946 0.009256 -0.013422
# 5 0.001513 -0.005846 -0.002978 0.009256 0.038027 -0.013685
# 6 -0.006551 0.003485 0.003796 -0.013422 -0.013685 0.030783
#
#
# Mechanical properties :
#
#
# Convention : Reuss Voigt Hill
#
# Bulk Modulus (GPa) = 61.71765 81.96375 71.84070
# Shear Modulus (GPa) = 31.29145 44.25473 37.77309
#
# Velocity S-wave (km/s) = 3.41488 4.06108 3.75192
# Velocity P-wave (km/s) = 6.20877 7.24812 6.74848
#
# Compressibility (1/GPa) = 0.01620282
#
# Stress axis : x y z
#
# Youngs Moduli (GPa) = 56.37335 119.70614 77.97618
#
# Poissons Ratio (x) = 0.28197 0.47120
# Poissons Ratio (y) = 0.13279 0.23071
# Poissons Ratio (z) = 0.34066 0.35417
#
# Static dielectric constant tensor:
#      x y z
#    x 2.357210 -0.139990 0.029720 
#    y -0.139990 2.308140 -0.037190 
#    z 0.029720 -0.037190 2.204220 
# 
# From -- ./inp_files/260406.got.cif
#   From: 2010.05.17/outbox.cif.g08.bks.cpg/sg2_131_cif.got.tgz:260406.got - 2010.06.03 11:33:40.
