data_PCOD9023653
_publ_section_title
;
Structure prediction by ZEFSAII (Michael W. Deem and Ramdas Pophale) SiO2 
 PCOD9023653
Probable space group: P -1
;
_chemical_formula_sum "Si O2"
_cell_formula_units_Z 15
_cell_length_a 7.493797
_cell_length_b 15.603469
_cell_length_c 10.716342
_cell_angle_alpha 124.425587
_cell_angle_beta 51.039075
_cell_angle_gamma 138.849211
_cell_volume 630.740754
_symmetry_space_group_name_H-M "P -1"
_symmetry_group_IT_number 2
_symmetry_cell_setting 'triclinic'
loop_
_space_group_symop_operation_xyz
x,y,z
-x,-y,-z
loop_
_atom_site_type_symbol
_atom_site_label
_atom_site_fract_x
_atom_site_fract_y
_atom_site_fract_z
Si Si1 0.361381 0.868931 0.215322
Si Si2 0.165806 0.179460 0.062446
Si Si3 0.055093 0.008081 0.193002
Si Si4 0.694110 0.382379 0.601227
Si Si5 0.500000 0.000000 0.000000
Si Si6 0.561745 0.558552 0.713788
Si Si7 0.678304 0.916679 0.512285
Si Si8 0.967804 0.620285 0.347381
O O1 0.095748 0.749804 0.315902
O O2 0.445643 0.003585 0.348190
O O3 0.596215 0.841361 0.093694
O O4 0.325556 0.886556 0.100055
O O5 0.300000 0.327567 0.150495
O O6 0.921503 0.091472 0.989201
O O7 0.059925 0.107206 0.182826
O O8 0.776520 0.928912 0.335647
O O9 0.362792 0.073938 0.176998
O O10 0.543269 0.238641 0.490894
O O11 0.000000 0.500000 0.500000
O O12 0.492889 0.568292 0.303167
O O13 0.776748 0.377091 0.702155
O O14 0.783325 0.610070 0.540219
O O15 0.256664 0.507313 0.744386
O O16 0.000000 0.000000 0.500000
#
# Coordination Sequence:
#
# PCOD9023653 Si02
#       8
#     2   2   2   2   1   2   2   2
#     4  11  23  42  66 101 132 178 230 290 352 411
#     4  10  23  41  65  95 143 178 224 291 359 420
#     4  10  22  41  63  99 132 180 233 289 355 412
#     4  10  24  42  67 108 138 182 238 286 351 421
#     4  10  22  40  60 100 134 168 222 290 360 410
#     4  10  22  45  67 100 141 188 234 282 352 426
#     4  12  23  42  73 103 136 183 240 295 346 420
#     4  10  22  43  70  99 138 185 239 289 341 429
#
# _framework density 23.781562999999998
#
# number of rings (size 3 to 8) (size 9 to 14) (size 15 to 20)
#    0.000    1.600    1.333    2.400    0.000   11.200 
#    4.800    2.667    0.000    0.000    0.000    0.000 
#    0.000    0.000    0.000    0.000    0.000    0.000 
#
# Total GULP energy -83505.030754 kJ/mol
# GULP energy per Si atom -5567.002050 kJ/mol
# Density = 2.372744 g / cm^3
# Si number density = 23.781563 Si / 1000 Ang^3
#
#
#
# Elastic Constant Matrix: (Units=GPa)
#
#
# Indices 1 2 3 4 5 6 
#
# 1 87.5644 36.1114 12.4353 -16.3166 12.2725 -10.8769
# 2 36.1114 148.9650 39.7640 10.1932 5.2015 -21.8263
# 3 12.4353 39.7640 63.0686 -1.9758 -5.6830 -12.0408
# 4 -16.3166 10.1932 -1.9758 28.6395 0.0147 8.7244
# 5 12.2725 5.2015 -5.6830 0.0147 35.8445 -6.1548
# 6 -10.8769 -21.8263 -12.0408 8.7244 -6.1548 36.0913
#
#
#
# Elastic Compliance Matrix: (Units=1/GPa)
#
#
# Indices 1 2 3 4 5 6 
#
# 1 0.015997 -0.004516 -0.000767 0.011211 -0.005252 -0.001772
# 2 -0.004516 0.010469 -0.004932 -0.008270 0.000168 0.005352
# 3 -0.000767 -0.004932 0.020381 0.001484 0.004907 0.004064
# 4 0.011211 -0.008270 0.001484 0.048516 -0.004770 -0.013669
# 5 -0.005252 0.000168 0.004907 -0.004770 0.031602 0.006698
# 6 -0.001772 0.005352 0.004064 -0.013669 0.006698 0.036212
#
#
# Mechanical properties :
#
#
# Convention : Reuss Voigt Hill
#
# Bulk Modulus (GPa) = 37.85637 52.91327 45.38482
# Shear Modulus (GPa) = 25.98589 34.20088 30.09338
#
# Velocity S-wave (km/s) = 3.30917 3.79638 3.56112
# Velocity P-wave (km/s) = 5.52755 6.44319 6.00285
#
# Compressibility (1/GPa) = 0.02641564
#
# Stress axis : x y z
#
# Youngs Moduli (GPa) = 62.51311 95.52417 49.06542
#
# Poissons Ratio (x) = 0.43143 0.03762
# Poissons Ratio (y) = 0.28234 0.24199
# Poissons Ratio (z) = 0.04794 0.47112
#
# Static dielectric constant tensor:
#      x y z
#    x 1.001630 -0.299850 -0.043540 
#    y -0.299850 1.759310 -0.050190 
#    z -0.043540 -0.050190 1.984010 
# 
# From -- ./inp_files/402179.got.cif
#   From: 2010.05.17/outbox.cif.g08.bks.cpg/sg2_202_cif.got.tgz:402179.got - 2010.06.03 11:33:40.
