data_PCOD9023422
_publ_section_title
;
Structure prediction by ZEFSAII (Michael W. Deem and Ramdas Pophale) SiO2 
 PCOD9023422
Probable space group: P -1
;
_chemical_formula_sum "Si O2"
_cell_formula_units_Z 16
_cell_length_a 7.465136
_cell_length_b 8.508553
_cell_length_c 24.232251
_cell_angle_alpha 138.424221
_cell_angle_beta 135.649014
_cell_angle_gamma 69.031525
_cell_volume 659.954247
_symmetry_space_group_name_H-M "P -1"
_symmetry_group_IT_number 2
_symmetry_cell_setting 'triclinic'
loop_
_space_group_symop_operation_xyz
x,y,z
-x,-y,-z
loop_
_atom_site_type_symbol
_atom_site_label
_atom_site_fract_x
_atom_site_fract_y
_atom_site_fract_z
Si Si1 0.616893 0.101067 0.721046
Si Si2 0.799725 0.397671 0.648720
Si Si3 0.592470 0.015408 0.888526
Si Si4 0.817109 0.300800 0.362048
Si Si5 0.102972 0.987934 0.858477
Si Si6 0.775327 0.970958 0.605111
Si Si7 0.188831 0.317325 0.073465
Si Si8 0.937009 0.233270 0.522761
O O1 0.654346 0.079590 0.657748
O O2 0.641376 0.382451 0.814921
O O3 0.309074 0.891363 0.608831
O O4 0.855531 0.035898 0.785397
O O5 0.913539 0.211939 0.658488
O O6 0.828819 0.364761 0.581550
O O7 0.965548 0.695289 0.774445
O O8 0.465749 0.250024 0.540774
O O9 0.474932 0.919983 0.776134
O O10 0.353816 0.029991 0.881149
O O11 0.696696 0.813730 0.888371
O O12 0.870387 0.266722 0.006665
O O13 0.000000 0.500000 0.500000
O O14 0.807396 0.523380 0.376927
O O15 0.023588 0.152891 0.357864
O O16 0.196227 0.175382 0.980618
O O17 0.000000 0.000000 0.500000
#
# Coordination Sequence:
#
# PCOD9023422 Si02
#       8
#     2   2   2   2   2   2   2   2
#     4  11  24  44  69 104 146 185 247 301 359 429
#     4  10  22  39  68  99 141 186 237 287 368 433
#     4  11  26  49  71 106 144 190 244 297 359 427
#     4  12  24  42  70 107 146 182 237 302 368 426
#     4  12  24  49  75 104 140 194 244 306 355 421
#     4  10  22  41  65 104 139 192 228 299 371 420
#     4  11  28  47  73 104 145 200 245 290 354 439
#     4  11  22  41  67 102 144 189 235 300 363 434
#
# _framework density 24.244104
#
# number of rings (size 3 to 8) (size 9 to 14) (size 15 to 20)
#    0.000    1.000    2.500    3.000    7.000    3.500 
#    0.000    0.000    0.000    0.000    0.000    0.000 
#    0.000    0.000    0.000    0.000    0.000    0.000 
#
# Total GULP energy -89336.960543 kJ/mol
# GULP energy per Si atom -5583.560034 kJ/mol
# Density = 2.418892 g / cm^3
# Si number density = 24.244104 Si / 1000 Ang^3
#
#
#
# Elastic Constant Matrix: (Units=GPa)
#
#
# Indices 1 2 3 4 5 6 
#
# 1 78.0613 9.9272 52.6834 7.4260 -9.7786 -8.9412
# 2 9.9272 46.5119 20.8405 0.3053 -2.9179 -11.2703
# 3 52.6834 20.8405 138.8413 6.4252 -19.7033 -0.5505
# 4 7.4260 0.3053 6.4252 52.1734 -0.2659 0.8223
# 5 -9.7786 -2.9179 -19.7033 -0.2659 32.8731 -2.7562
# 6 -8.9412 -11.2703 -0.5505 0.8223 -2.7562 28.3173
#
#
#
# Elastic Compliance Matrix: (Units=1/GPa)
#
#
# Indices 1 2 3 4 5 6 
#
# 1 0.018371 0.000715 -0.006678 -0.001884 0.002031 0.006208
# 2 0.000715 0.025720 -0.003951 0.000074 0.001007 0.010482
# 3 -0.006678 -0.003951 0.010889 -0.000299 0.003929 -0.003078
# 4 -0.001884 0.000074 -0.000299 0.019487 -0.000676 -0.001203
# 5 0.002031 0.001007 0.003929 -0.000676 0.033834 0.004431
# 6 0.006208 0.010482 -0.003078 -0.001203 0.004431 0.041852
#
#
# Mechanical properties :
#
#
# Convention : Reuss Voigt Hill
#
# Bulk Modulus (GPa) = 28.44788 47.81295 38.13042
# Shear Modulus (GPa) = 27.51799 34.67032 31.09415
#
# Velocity S-wave (km/s) = 3.37269 3.78570 3.58515
# Velocity P-wave (km/s) = 5.18904 6.23482 5.73582
#
# Compressibility (1/GPa) = 0.03515200
#
# Stress axis : x y z
#
# Youngs Moduli (GPa) = 54.43237 38.88022 91.83743
#
# Poissons Ratio (x) = -0.02781 0.61333
# Poissons Ratio (y) = -0.03894 0.36286
# Poissons Ratio (z) = 0.36352 0.15362
#
# Static dielectric constant tensor:
#      x y z
#    x 2.085020 0.112400 -0.034580 
#    y 0.112400 1.981310 -0.069330 
#    z -0.034580 -0.069330 1.949170 
# 
# From -- ./inp_files/306915.got.cif
#   From: 2010.05.17/outbox.cif.g08.bks.cpg/sg2_154_cif.got.tgz:306915.got - 2010.06.03 11:33:40.
