data_PCOD9023383
_publ_section_title
;
Structure prediction by ZEFSAII (Michael W. Deem and Ramdas Pophale) SiO2 
 PCOD9023383
Probable space group: P -1
;
_chemical_formula_sum "Si O2"
_cell_formula_units_Z 12
_cell_length_a 14.882001
_cell_length_b 8.904513
_cell_length_c 5.359720
_cell_angle_alpha 98.001323
_cell_angle_beta 53.180227
_cell_angle_gamma 119.093844
_cell_volume 484.931241
_symmetry_space_group_name_H-M "P -1"
_symmetry_group_IT_number 2
_symmetry_cell_setting 'triclinic'
loop_
_space_group_symop_operation_xyz
x,y,z
-x,-y,-z
loop_
_atom_site_type_symbol
_atom_site_label
_atom_site_fract_x
_atom_site_fract_y
_atom_site_fract_z
Si Si1 0.610951 0.723542 0.746253
Si Si2 0.810231 0.389820 0.481349
Si Si3 0.164395 0.118736 0.935192
Si Si4 0.470788 0.885888 0.276019
Si Si5 0.341097 0.480651 0.999659
Si Si6 0.015905 0.757498 0.974957
O O1 0.745450 0.872403 0.443860
O O2 0.640245 0.575121 0.764226
O O3 0.560413 0.799942 0.064456
O O4 0.489662 0.630013 0.731972
O O5 0.680862 0.263563 0.509872
O O6 0.749406 0.433538 0.831798
O O7 0.906552 0.578618 0.242617
O O8 0.891908 0.292600 0.343297
O O9 0.054728 0.165445 0.057064
O O10 0.266689 0.291150 0.954584
O O11 0.095055 0.915002 0.081767
O O12 0.500000 0.000000 0.500000
O O13 0.500000 0.000000 0.000000
#
# Coordination Sequence:
#
# PCOD9023383 Si02
#       6
#     2   2   2   2   2   2
#     4  10  22  41  66  98 133 168 231 287 353 404
#     4  10  22  45  63  99 141 173 233 280 355 406
#     4  11  22  41  68  96 132 180 237 276 352 408
#     4  11  26  45  74 106 139 180 232 296 359 414
#     4  10  22  39  68  95 128 177 223 294 346 412
#     4  10  23  41  63  93 142 180 227 288 330 433
#
# _framework density 24.745774999999998
#
# number of rings (size 3 to 8) (size 9 to 14) (size 15 to 20)
#    0.000    1.667    1.667    1.500    4.667    4.000 
#    0.000    1.667    0.000    0.000    0.000    0.000 
#    0.000    0.000    0.000    0.000    0.000    0.000 
#
# Total GULP energy -67028.748101 kJ/mol
# GULP energy per Si atom -5585.729008 kJ/mol
# Density = 2.468945 g / cm^3
# Si number density = 24.745775 Si / 1000 Ang^3
#
#
#
# Elastic Constant Matrix: (Units=GPa)
#
#
# Indices 1 2 3 4 5 6 
#
# 1 67.3902 54.5213 63.5105 12.4722 -34.2215 -9.4568
# 2 54.5213 204.7746 71.6186 3.7303 -15.6453 10.6033
# 3 63.5105 71.6186 110.7530 9.2865 -37.1387 3.6522
# 4 12.4722 3.7303 9.2865 35.8945 -1.8469 -3.1010
# 5 -34.2215 -15.6453 -37.1387 -1.8469 47.0633 6.5635
# 6 -9.4568 10.6033 3.6522 -3.1010 6.5635 38.9948
#
#
#
# Elastic Compliance Matrix: (Units=1/GPa)
#
#
# Indices 1 2 3 4 5 6 
#
# 1 0.048485 -0.005759 -0.017827 -0.009769 0.017313 0.011303
# 2 -0.005759 0.007126 -0.002490 0.001522 -0.003387 -0.002410
# 3 -0.017827 -0.002490 0.022774 0.000252 0.005114 -0.006620
# 4 -0.009769 0.001522 0.000252 0.030805 -0.005263 0.000529
# 5 0.017313 -0.003387 0.005114 -0.005263 0.036815 -0.001974
# 6 0.011303 -0.002410 -0.006620 0.000529 -0.001974 0.030035
#
#
# Mechanical properties :
#
#
# Convention : Reuss Voigt Hill
#
# Bulk Modulus (GPa) = 38.11963 84.69097 61.40530
# Shear Modulus (GPa) = 21.10272 37.27500 29.18886
#
# Velocity S-wave (km/s) = 2.92341 3.88534 3.43818
# Velocity P-wave (km/s) = 5.18006 7.37744 6.37415
#
# Compressibility (1/GPa) = 0.02623321
#
# Stress axis : x y z
#
# Youngs Moduli (GPa) = 20.62497 140.33865 43.90962
#
# Poissons Ratio (x) = 0.80816 0.78280
# Poissons Ratio (y) = 0.11877 0.10932
# Poissons Ratio (z) = 0.36769 0.34938
#
# Static dielectric constant tensor:
#      x y z
#    x 2.039930 0.044640 0.042060 
#    y 0.044640 2.013980 0.024980 
#    z 0.042060 0.024980 1.984370 
# 
# From -- ./inp_files/23266.got.cif
#   From: 2010.05.17/outbox.cif.g08.bks.cpg/sg2_12_cif.got.tgz:23266.got - 2010.06.03 11:33:40.
