data_PCOD9023843
_publ_section_title
;
Structure prediction by ZEFSAII (Michael W. Deem and Ramdas Pophale) SiO2 
 PCOD9023843
Probable space group: P -1
;
_chemical_formula_sum "Si O2"
_cell_formula_units_Z 15
_cell_length_a 8.388687
_cell_length_b 19.897762
_cell_length_c 11.589359
_cell_angle_alpha 30.175425
_cell_angle_beta 138.666732
_cell_angle_gamma 126.424753
_cell_volume 633.183422
_symmetry_space_group_name_H-M "P -1"
_symmetry_group_IT_number 2
_symmetry_cell_setting 'triclinic'
loop_
_space_group_symop_operation_xyz
x,y,z
-x,-y,-z
loop_
_atom_site_type_symbol
_atom_site_label
_atom_site_fract_x
_atom_site_fract_y
_atom_site_fract_z
Si Si1 0.899459 0.917417 0.399291
Si Si2 0.781344 0.368756 0.273034
Si Si3 0.121008 0.096926 0.839078
Si Si4 0.110646 0.389935 0.628036
Si Si5 0.620728 0.041297 0.287196
Si Si6 0.689965 0.746318 0.849502
Si Si7 0.024738 0.363308 0.049810
Si Si8 0.500000 0.500000 0.500000
O O1 0.819022 0.973481 0.147278
O O2 0.760163 0.008654 0.289423
O O3 0.857760 0.763168 0.620765
O O4 0.187722 0.910262 0.593797
O O5 0.502727 0.353442 0.131195
O O6 0.938512 0.233513 0.506688
O O7 0.884869 0.361116 0.470815
O O8 0.845623 0.506843 0.052013
O O9 0.363801 0.130669 0.982644
O O10 0.000000 0.000000 0.000000
O O11 0.301286 0.445155 0.564162
O O12 0.000000 0.500000 0.500000
O O13 0.230835 0.264792 0.958637
O O14 0.573994 0.897597 0.525254
O O15 0.912494 0.697900 0.954230
O O16 0.735351 0.411573 0.828075
#
# Coordination Sequence:
#
# PCOD9023843 Si02
#       8
#     2   2   2   2   2   2   2   1
#     4  10  25  47  69  98 137 183 235 286 347 418
#     4  11  25  43  67 105 138 175 235 282 349 429
#     4  12  26  44  66 104 139 178 230 286 344 415
#     4  11  24  45  70 100 141 189 227 293 357 412
#     4  10  24  46  73  97 134 185 236 284 347 419
#     4  11  22  45  71  97 135 185 228 287 354 410
#     4  10  23  43  68 101 137 177 230 289 349 413
#     4  10  22  40  62 104 136 166 238 270 342 428
#
# _framework density 23.689817000000001
#
# number of rings (size 3 to 8) (size 9 to 14) (size 15 to 20)
#    0.000    1.333    4.000    0.800    7.467    1.067 
#    2.400    0.000    0.000    0.000    0.000    0.000 
#    0.000    0.000    0.000    0.000    0.000    0.000 
#
# Total GULP energy -83664.004025 kJ/mol
# GULP energy per Si atom -5577.600268 kJ/mol
# Density = 2.363590 g / cm^3
# Si number density = 23.689817 Si / 1000 Ang^3
#
#
#
# Elastic Constant Matrix: (Units=GPa)
#
#
# Indices 1 2 3 4 5 6 
#
# 1 66.3261 19.6713 32.3939 6.1944 -18.3507 -1.5826
# 2 19.6713 82.8852 6.2905 11.7266 -8.5457 5.4589
# 3 32.3939 6.2905 55.7604 7.2853 -5.2280 5.2987
# 4 6.1944 11.7266 7.2853 43.0071 1.1598 -2.3914
# 5 -18.3507 -8.5457 -5.2280 1.1598 44.2127 11.8683
# 6 -1.5826 5.4589 5.2987 -2.3914 11.8683 30.2401
#
#
#
# Elastic Compliance Matrix: (Units=1/GPa)
#
#
# Indices 1 2 3 4 5 6 
#
# 1 0.025074 -0.004190 -0.013471 -0.000315 0.007635 0.001408
# 2 -0.004190 0.013997 0.002008 -0.003864 0.002480 -0.004377
# 3 -0.013471 0.002008 0.026491 -0.003407 -0.000421 -0.005814
# 4 -0.000315 -0.003864 -0.003407 0.025264 -0.003155 0.004514
# 5 0.007635 0.002480 -0.000421 -0.003155 0.029464 -0.011787
# 6 0.001408 -0.004377 -0.005814 0.004514 -0.011787 0.039934
#
#
# Mechanical properties :
#
#
# Convention : Reuss Voigt Hill
#
# Bulk Modulus (GPa) = 29.19008 35.74256 32.46632
# Shear Modulus (GPa) = 24.63673 33.26639 28.95156
#
# Velocity S-wave (km/s) = 3.22836 3.75140 3.49966
# Velocity P-wave (km/s) = 5.12298 5.82103 5.48313
#
# Compressibility (1/GPa) = 0.03425821
#
# Stress axis : x y z
#
# Youngs Moduli (GPa) = 39.88164 71.44176 37.74806
#
# Poissons Ratio (x) = 0.29931 0.50850
# Poissons Ratio (y) = 0.16708 -0.07580
# Poissons Ratio (z) = 0.53724 -0.14346
#
# Static dielectric constant tensor:
#      x y z
#    x 1.967760 -0.030510 0.029170 
#    y -0.030510 1.898290 -0.028660 
#    z 0.029170 -0.028660 1.954270 
# 
# From -- ./inp_files/405340.got.cif
#   From: 2010.05.17/outbox.cif.g08.bks.cpg/sg2_203_cif.got.tgz:405340.got - 2010.06.03 11:33:40.
