data_PCOD9023880
_publ_section_title
;
Structure prediction by ZEFSAII (Michael W. Deem and Ramdas Pophale) SiO2 
 PCOD9023880
Probable space group: P -1
;
_chemical_formula_sum "Si O2"
_cell_formula_units_Z 15
_cell_length_a 6.935411
_cell_length_b 24.716714
_cell_length_c 24.835676
_cell_angle_alpha 167.954509
_cell_angle_beta 139.759964
_cell_angle_gamma 41.543890
_cell_volume 573.878464
_symmetry_space_group_name_H-M "P -1"
_symmetry_group_IT_number 2
_symmetry_cell_setting 'triclinic'
loop_
_space_group_symop_operation_xyz
x,y,z
-x,-y,-z
loop_
_atom_site_type_symbol
_atom_site_label
_atom_site_fract_x
_atom_site_fract_y
_atom_site_fract_z
Si Si1 0.799757 0.247299 0.904121
Si Si2 0.340659 0.466178 0.555513
Si Si3 0.500000 0.500000 0.500000
Si Si4 0.300124 0.582716 0.832223
Si Si5 0.037575 0.903139 0.758211
Si Si6 0.709646 0.029865 0.521252
Si Si7 0.614760 0.950758 0.133249
Si Si8 0.999612 0.503929 0.091934
O O1 0.516946 0.059664 0.660398
O O2 0.100524 0.075045 0.793008
O O3 0.815834 0.447784 0.053393
O O4 0.804145 0.391326 0.102309
O O5 0.514929 0.479602 0.548973
O O6 0.000000 0.500000 0.500000
O O7 0.398654 0.193004 0.330801
O O8 0.447981 0.684204 0.830900
O O9 0.732885 0.240429 0.292159
O O10 0.181596 0.318820 0.525163
O O11 0.657295 0.572675 0.899983
O O12 0.150828 0.831525 0.011624
O O13 0.235247 0.998154 0.842846
O O14 0.500000 0.000000 0.500000
O O15 0.852193 0.310735 0.828875
O O16 0.956958 0.802373 0.357382
#
# Coordination Sequence:
#
# PCOD9023880 Si02
#       8
#     2   2   1   2   2   2   2   2
#     4  10  22  40  64  84 122 161 191 248 302 342
#     4  11  24  40  61  91 120 153 201 244 291 358
#     4  10  22  40  64  84 122 162 190 248 302 340
#     4  11  24  40  61  91 121 155 203 247 293 359
#     4  10  22  40  62  90 120 157 203 244 295 358
#     4  10  22  40  62  90 120 157 202 244 295 359
#     4  10  22  40  62  89 119 156 200 242 294 357
#     4  11  24  40  61  91 121 155 203 246 294 359
#
# _framework density 26.137937999999998
#
# number of rings (size 3 to 8) (size 9 to 14) (size 15 to 20)
#    0.000    1.600    0.000    6.000    0.000   17.600 
#    0.000    0.000    0.000    0.000    0.000    0.000 
#    0.000    0.000    0.000    0.000    0.000    0.000 
#
# Total GULP energy -83822.341204 kJ/mol
# GULP energy per Si atom -5588.156080 kJ/mol
# Density = 2.607845 g / cm^3
# Si number density = 26.137938 Si / 1000 Ang^3
#
#
#
# Elastic Constant Matrix: (Units=GPa)
#
#
# Indices 1 2 3 4 5 6 
#
# 1 123.5177 -114.7259 -158.3534 56.2674 -8.5566 -0.2448
# 2 -114.7259 584.8647 721.3509 -197.8730 -44.2877 -33.9316
# 3 -158.3534 721.3509 1183.4958 -323.7048 -65.4829 -19.3677
# 4 56.2674 -197.8730 -323.7048 152.0233 8.4402 -7.2859
# 5 -8.5566 -44.2877 -65.4829 8.4402 27.8856 -6.0209
# 6 -0.2448 -33.9316 -19.3677 -7.2859 -6.0209 50.3339
#
#
#
# Elastic Compliance Matrix: (Units=1/GPa)
#
#
# Indices 1 2 3 4 5 6 
#
# 1 0.011928 0.002230 0.000707 -0.000400 0.009616 0.002926
# 2 0.002230 0.008037 -0.003900 0.001283 0.004916 0.004701
# 3 0.000707 -0.003900 0.004870 0.004826 0.004093 0.000436
# 4 -0.000400 0.001283 0.004826 0.018479 0.009052 0.006477
# 5 0.009616 0.004916 0.004093 0.009052 0.056294 0.012980
# 6 0.002926 0.004701 0.000436 0.006477 0.012980 0.025709
#
#
# Mechanical properties :
#
#
# Convention : Reuss Voigt Hill
#
# Bulk Modulus (GPa) = 43.65029 309.82460 176.73744
# Shear Modulus (GPa) = 37.07006 142.28902 89.67954
#
# Velocity S-wave (km/s) = 3.77005 7.38620 5.86384
# Velocity P-wave (km/s) = 5.97388 13.83954 10.65880
#
# Compressibility (1/GPa) = 0.02290936
#
# Stress axis : x y z
#
# Youngs Moduli (GPa) = 83.83534 124.43086 205.31880
#
# Poissons Ratio (x) = -0.27747 -0.14525
# Poissons Ratio (y) = -0.18694 0.80080
# Poissons Ratio (z) = -0.05931 0.48531
#
# Static dielectric constant tensor:
#      x y z
#    x 2.172140 -0.010020 0.017540 
#    y -0.010020 2.072890 0.031760 
#    z 0.017540 0.031760 2.027550 
# 
# From -- ./inp_files/622790.got.cif
#   From: 2010.05.17/outbox.cif.g08.bks.cpg/sg2_312_cif.got.tgz:622790.got - 2010.06.03 11:33:40.
