data_PCOD9023606
_publ_section_title
;
Structure prediction by ZEFSAII (Michael W. Deem and Ramdas Pophale) SiO2 
 PCOD9023606
Probable space group: P -1
;
_chemical_formula_sum "Si O2"
_cell_formula_units_Z 15
_cell_length_a 11.068035
_cell_length_b 13.416189
_cell_length_c 14.426399
_cell_angle_alpha 131.530892
_cell_angle_beta 71.862980
_cell_angle_gamma 146.452246
_cell_volume 719.870927
_symmetry_space_group_name_H-M "P -1"
_symmetry_group_IT_number 2
_symmetry_cell_setting 'triclinic'
loop_
_space_group_symop_operation_xyz
x,y,z
-x,-y,-z
loop_
_atom_site_type_symbol
_atom_site_label
_atom_site_fract_x
_atom_site_fract_y
_atom_site_fract_z
Si Si1 0.135987 0.917400 0.151326
Si Si2 0.406956 0.186882 0.064131
Si Si3 0.098220 0.681816 0.364894
Si Si4 0.500000 0.500000 0.500000
Si Si5 0.452623 0.039591 0.680110
Si Si6 0.487190 0.632068 0.040393
Si Si7 0.534902 0.051535 0.173226
Si Si8 0.108650 0.239410 0.584066
O O1 0.176344 0.972847 0.064904
O O2 0.295376 0.184559 0.327208
O O3 0.280202 0.912031 0.138639
O O4 0.823509 0.627106 0.071541
O O5 0.656350 0.493155 0.239338
O O6 0.338696 0.192793 0.986590
O O7 0.491741 0.115001 0.973265
O O8 0.254268 0.729915 0.286877
O O9 0.789893 0.358853 0.255353
O O10 0.106640 0.841080 0.423962
O O11 0.246526 0.809054 0.506854
O O12 0.252001 0.346645 0.517961
O O13 0.430361 0.175431 0.790204
O O14 0.409135 0.926205 0.718284
O O15 0.500000 0.500000 0.000000
O O16 0.000000 0.000000 0.500000
#
# Coordination Sequence:
#
# PCOD9023606 Si02
#       8
#     2   2   2   1   2   2   2   2
#     4  11  23  39  66  95 125 164 211 261 315 372
#     4  10  23  41  65  97 121 163 211 263 317 366
#     4  11  23  44  65  92 132 166 210 261 311 374
#     4  10  22  40  58 100 124 162 206 256 318 366
#     4  10  26  41  62  96 126 173 208 251 320 378
#     4  11  26  42  64  90 133 168 206 258 318 381
#     4  11  22  41  69  94 125 161 214 265 310 372
#     4  11  24  38  67  94 128 164 210 262 312 370
#
# _framework density 20.837069
#
# number of rings (size 3 to 8) (size 9 to 14) (size 15 to 20)
#    0.000    1.333    2.667    2.400    9.333    1.600 
#    0.000    0.000    0.000    0.000    0.000    0.000 
#    0.000    0.000    0.000    0.000    0.000    0.000 
#
# Total GULP energy -83606.519636 kJ/mol
# GULP energy per Si atom -5573.767976 kJ/mol
# Density = 2.078964 g / cm^3
# Si number density = 20.837069 Si / 1000 Ang^3
#
#
#
# Elastic Constant Matrix: (Units=GPa)
#
#
# Indices 1 2 3 4 5 6 
#
# 1 83.2258 14.5054 3.6516 -8.7174 -19.6475 -13.6505
# 2 14.5054 52.4387 3.5438 -9.7033 -3.2043 -10.6389
# 3 3.6516 3.5438 48.6393 -7.8939 -23.1124 -12.5448
# 4 -8.7174 -9.7033 -7.8939 38.9459 6.5972 0.2001
# 5 -19.6475 -3.2043 -23.1124 6.5972 26.3314 4.5015
# 6 -13.6505 -10.6389 -12.5448 0.2001 4.5015 27.8270
#
#
#
# Elastic Compliance Matrix: (Units=1/GPa)
#
#
# Indices 1 2 3 4 5 6 
#
# 1 0.019201 -0.002181 0.012652 0.002410 0.022752 0.010591
# 2 -0.002181 0.022168 0.001204 0.005336 -0.000578 0.008003
# 3 0.012652 0.001204 0.047918 0.004791 0.046917 0.020645
# 4 0.002410 0.005336 0.004791 0.028738 -0.001473 0.005414
# 5 0.022752 -0.000578 0.046917 -0.001473 0.093533 0.016971
# 6 0.010591 0.008003 0.020645 0.005414 0.016971 0.050714
#
#
# Mechanical properties :
#
#
# Convention : Reuss Voigt Hill
#
# Bulk Modulus (GPa) = 8.87823 25.30059 17.08941
# Shear Modulus (GPa) = 18.08516 29.46106 23.77311
#
# Velocity S-wave (km/s) = 2.94927 3.76424 3.38139
# Velocity P-wave (km/s) = 3.98341 5.57325 4.84400
#
# Compressibility (1/GPa) = 0.11263505
#
# Stress axis : x y z
#
# Youngs Moduli (GPa) = 52.07943 45.11096 20.86894
#
# Poissons Ratio (x) = 0.09841 -0.26403
# Poissons Ratio (y) = 0.11361 -0.02512
# Poissons Ratio (z) = -0.65889 -0.05431
#
# Static dielectric constant tensor:
#      x y z
#    x 1.731860 -0.030590 0.013030 
#    y -0.030590 1.744080 -0.013130 
#    z 0.013030 -0.013130 1.748840 
# 
# From -- ./inp_files/425265.got.cif
#   From: 2010.05.17/outbox.cif.g08.bks.cpg/sg2_213_cif.got.tgz:425265.got - 2010.06.03 11:33:40.
