data_PCOD9023996
_publ_section_title
;
Structure prediction by ZEFSAII (Michael W. Deem and Ramdas Pophale) SiO2 
 PCOD9023996
Probable space group: P -1
;
_chemical_formula_sum "Si O2"
_cell_formula_units_Z 16
_cell_length_a 16.841513
_cell_length_b 5.435552
_cell_length_c 14.688417
_cell_angle_alpha 98.489797
_cell_angle_beta 148.258795
_cell_angle_gamma 91.217414
_cell_volume 671.209086
_symmetry_space_group_name_H-M "P -1"
_symmetry_group_IT_number 2
_symmetry_cell_setting 'triclinic'
loop_
_space_group_symop_operation_xyz
x,y,z
-x,-y,-z
loop_
_atom_site_type_symbol
_atom_site_label
_atom_site_fract_x
_atom_site_fract_y
_atom_site_fract_z
Si Si1 0.944686 0.455554 0.549237
Si Si2 0.365919 0.663161 0.148262
Si Si3 0.749455 0.672627 0.137476
Si Si4 0.555073 0.091880 0.456715
Si Si5 0.124494 0.464406 0.194648
Si Si6 0.248125 0.273572 0.148394
Si Si7 0.061788 0.820532 0.831481
Si Si8 0.676097 0.172047 0.169132
O O1 0.768592 0.276422 0.358110
O O2 0.000000 0.500000 0.500000
O O3 0.070376 0.323022 0.707074
O O4 0.967452 0.719464 0.641876
O O5 0.285961 0.561142 0.161279
O O6 0.530117 0.857689 0.346975
O O7 0.358685 0.424014 0.061816
O O8 0.237225 0.787222 0.985368
O O9 0.687095 0.433291 0.135339
O O10 0.751322 0.956094 0.187949
O O11 0.727745 0.285691 0.633371
O O12 0.415758 0.217339 0.299481
O O13 0.500000 0.000000 0.500000
O O14 0.197597 0.257405 0.202949
O O15 0.037933 0.363814 0.197871
O O16 0.000000 0.500000 0.000000
O O17 0.109997 0.100545 0.941124
O O18 0.500000 0.000000 0.000000
#
# Coordination Sequence:
#
# PCOD9023996 Si02
#       8
#     2   2   2   2   2   2   2   2
#     4   9  21  42  65  95 125 171 220 265 324 400
#     4  10  22  40  64  91 122 171 217 260 314 402
#     4  10  23  41  69  95 128 176 220 266 330 401
#     4  11  23  40  60  89 125 167 222 258 321 397
#     4  12  22  41  61  91 129 166 209 271 324 382
#     4  11  22  41  65  86 128 170 213 261 327 391
#     4  10  22  40  62  95 126 162 218 269 327 382
#     4  11  23  43  67  97 136 167 215 280 339 387
#
# _framework density 23.837582000000001
#
# number of rings (size 3 to 8) (size 9 to 14) (size 15 to 20)
#    0.000    1.500    2.500    2.250    7.000    1.000 
#    2.250    0.000    0.000    0.000    0.000    0.000 
#    0.000    0.000    0.000    0.000    0.000    0.000 
#
# Total GULP energy -89279.623429 kJ/mol
# GULP energy per Si atom -5579.976464 kJ/mol
# Density = 2.378333 g / cm^3
# Si number density = 23.837582 Si / 1000 Ang^3
#
#
#
# Elastic Constant Matrix: (Units=GPa)
#
#
# Indices 1 2 3 4 5 6 
#
# 1 52.2534 23.5440 48.4689 18.6438 -8.1297 12.7433
# 2 23.5440 80.1278 45.6764 28.3873 -6.5450 9.1967
# 3 48.4689 45.6764 201.4091 59.6605 -9.2135 6.3107
# 4 18.6438 28.3873 59.6605 47.9165 -5.7258 -3.1465
# 5 -8.1297 -6.5450 -9.2135 -5.7258 45.0985 11.5828
# 6 12.7433 9.1967 6.3107 -3.1465 11.5828 30.2538
#
#
#
# Elastic Compliance Matrix: (Units=1/GPa)
#
#
# Indices 1 2 3 4 5 6 
#
# 1 0.031070 -0.002425 -0.004667 -0.004918 0.007457 -0.014743
# 2 -0.002425 0.017528 -0.000412 -0.009036 0.002440 -0.006095
# 3 -0.004667 -0.000412 0.008880 -0.009049 -0.000061 -0.000679
# 4 -0.004918 -0.009036 -0.009049 0.039931 -0.001958 0.011609
# 5 0.007457 0.002440 -0.000061 -0.001958 0.027346 -0.014544
# 6 -0.014743 -0.006095 -0.000679 0.011609 -0.014544 0.048033
#
#
# Mechanical properties :
#
#
# Convention : Reuss Voigt Hill
#
# Bulk Modulus (GPa) = 23.54660 63.24102 43.39381
# Shear Modulus (GPa) = 24.75816 39.06048 31.90932
#
# Velocity S-wave (km/s) = 3.22626 4.05237 3.66268
# Velocity P-wave (km/s) = 4.87624 6.96298 6.01086
#
# Compressibility (1/GPa) = 0.04246897
#
# Stress axis : x y z
#
# Youngs Moduli (GPa) = 32.18578 57.05276 112.60651
#
# Poissons Ratio (x) = 0.13836 0.52553
# Poissons Ratio (y) = 0.07806 0.04643
# Poissons Ratio (z) = 0.15021 0.02352
#
# Static dielectric constant tensor:
#      x y z
#    x 1.997430 -0.036590 -0.013450 
#    y -0.036590 2.032220 -0.032050 
#    z -0.013450 -0.032050 1.936680 
# 
# From -- ./inp_files/46591.got.cif
#   From: 2010.05.17/outbox.cif.g08.bks.cpg/sg2_24_cif.got.tgz:46591.got - 2010.06.03 11:33:40.
