data_PCOD9023503
_publ_section_title
;
Structure prediction by ZEFSAII (Michael W. Deem and Ramdas Pophale) SiO2 
 PCOD9023503
Probable space group: P -1
;
_chemical_formula_sum "Si O2"
_cell_formula_units_Z 14
_cell_length_a 5.339862
_cell_length_b 25.657096
_cell_length_c 16.374140
_cell_angle_alpha 163.293211
_cell_angle_beta 103.577423
_cell_angle_gamma 84.052607
_cell_volume 564.810987
_symmetry_space_group_name_H-M "P -1"
_symmetry_group_IT_number 2
_symmetry_cell_setting 'triclinic'
loop_
_space_group_symop_operation_xyz
x,y,z
-x,-y,-z
loop_
_atom_site_type_symbol
_atom_site_label
_atom_site_fract_x
_atom_site_fract_y
_atom_site_fract_z
Si Si1 0.962325 0.987816 0.834500
Si Si2 0.394463 0.173284 0.268007
Si Si3 0.847249 0.508608 0.629289
Si Si4 0.175951 0.444090 0.863769
Si Si5 0.300293 0.538599 0.832815
Si Si6 0.675774 0.192339 0.010173
Si Si7 0.293843 0.157909 0.796132
O O1 0.784295 0.914019 0.793787
O O2 0.999922 0.795918 0.519693
O O3 0.801182 0.054356 0.855282
O O4 0.248320 0.164000 0.154668
O O5 0.488366 0.409671 0.650408
O O6 0.500000 0.000000 0.000000
O O7 0.642504 0.327908 0.284259
O O8 0.010366 0.438412 0.605288
O O9 0.092103 0.655461 0.806576
O O10 0.724237 0.647378 0.872315
O O11 0.204984 0.538957 0.918595
O O12 0.500000 0.500000 0.000000
O O13 0.000000 0.500000 0.000000
O O14 0.482252 0.753352 0.127748
O O15 0.403990 0.074173 0.755292
O O16 0.000000 0.000000 0.500000
#
# Coordination Sequence:
#
# PCOD9023503 Si02
#       7
#     2   2   2   2   2   2   2
#     4  10  23  42  69 102 142 189 244 312 369 458
#     4  10  22  39  70 107 139 183 249 309 385 438
#     4  10  22  43  71 100 143 187 249 313 381 443
#     4  11  28  49  72 110 153 204 254 307 388 471
#     4  10  24  45  74 104 144 197 248 321 382 447
#     4  10  22  44  68 107 139 189 253 310 375 446
#     4  11  26  43  73 107 149 200 250 309 384 464
#
# _framework density 24.787053
#
# number of rings (size 3 to 8) (size 9 to 14) (size 15 to 20)
#    0.000    1.714    1.429    0.429    8.000    5.714 
#    0.000    0.000    0.000    0.000    0.000    0.000 
#    0.000    0.000    0.000    0.000    0.000    0.000 
#
# Total GULP energy -78236.817787 kJ/mol
# GULP energy per Si atom -5588.344128 kJ/mol
# Density = 2.473064 g / cm^3
# Si number density = 24.787053 Si / 1000 Ang^3
#
#
#
# Elastic Constant Matrix: (Units=GPa)
#
#
# Indices 1 2 3 4 5 6 
#
# 1 90.0533 61.1952 30.0128 -22.5895 -33.8581 9.3945
# 2 61.1952 210.6348 50.9708 -33.2257 -0.8790 -1.9598
# 3 30.0128 50.9708 85.4847 -28.2421 -13.9418 10.1852
# 4 -22.5895 -33.2257 -28.2421 34.6462 -7.3629 -0.3782
# 5 -33.8581 -0.8790 -13.9418 -7.3629 50.3442 -13.5626
# 6 9.3945 -1.9598 10.1852 -0.3782 -13.5626 43.1069
#
#
#
# Elastic Compliance Matrix: (Units=1/GPa)
#
#
# Indices 1 2 3 4 5 6 
#
# 1 0.026877 -0.005518 0.004176 0.020338 0.022122 0.000044
# 2 -0.005518 0.007062 -0.003185 -0.000318 -0.004266 0.000931
# 3 0.004176 -0.003185 0.020137 0.018257 0.010354 -0.002395
# 4 0.020338 -0.000318 0.018257 0.062671 0.028060 0.000618
# 5 0.022122 -0.004266 0.010354 0.028060 0.043370 0.006430
# 6 0.000044 0.000931 -0.002395 0.000618 0.006430 0.025825
#
#
# Mechanical properties :
#
#
# Convention : Reuss Voigt Hill
#
# Bulk Modulus (GPa) = 22.21188 74.50338 48.35763
# Shear Modulus (GPa) = 23.80896 41.88572 32.84734
#
# Velocity S-wave (km/s) = 3.10262 4.11520 3.64425
# Velocity P-wave (km/s) = 4.67071 7.25965 6.10402
#
# Compressibility (1/GPa) = 0.04502095
#
# Stress axis : x y z
#
# Youngs Moduli (GPa) = 37.20617 141.59811 49.66033
#
# Poissons Ratio (x) = 0.78137 -0.20737
# Poissons Ratio (y) = 0.20531 0.15818
# Poissons Ratio (z) = -0.15537 0.45102
#
# Static dielectric constant tensor:
#      x y z
#    x 1.951670 -0.043820 0.234040 
#    y -0.043820 1.920590 -0.016320 
#    z 0.234040 -0.016320 1.776180 
# 
# From -- ./inp_files/486037.got.cif
#   From: 2010.05.17/outbox.cif.g08.bks.cpg/sg2_244_cif.got.tgz:486037.got - 2010.06.03 11:33:40.
