data_PCOD9023975
_publ_section_title
;
Structure prediction by ZEFSAII (Michael W. Deem and Ramdas Pophale) SiO2 
 PCOD9023975
Probable space group: P -1
;
_chemical_formula_sum "Si O2"
_cell_formula_units_Z 16
_cell_length_a 8.641176
_cell_length_b 12.096826
_cell_length_c 9.109069
_cell_angle_alpha 126.592355
_cell_angle_beta 84.083557
_cell_angle_gamma 95.480008
_cell_volume 759.737276
_symmetry_space_group_name_H-M "P -1"
_symmetry_group_IT_number 2
_symmetry_cell_setting 'triclinic'
loop_
_space_group_symop_operation_xyz
x,y,z
-x,-y,-z
loop_
_atom_site_type_symbol
_atom_site_label
_atom_site_fract_x
_atom_site_fract_y
_atom_site_fract_z
Si Si1 0.414767 0.330320 0.956916
Si Si2 0.597968 0.872652 0.418056
Si Si3 0.491015 0.842190 0.934805
Si Si4 0.997201 0.140862 0.207801
Si Si5 0.857058 0.253095 0.036371
Si Si6 0.076134 0.047703 0.681909
Si Si7 0.290737 0.483268 0.842501
Si Si8 0.317941 0.253592 0.406508
O O1 0.491071 0.259026 0.750139
O O2 0.279293 0.408956 0.945621
O O3 0.397242 0.209118 0.984944
O O4 0.538964 0.438350 0.102028
O O5 0.758536 0.885722 0.324999
O O6 0.637386 0.863059 0.575477
O O7 0.500000 0.000000 0.500000
O O8 0.316416 0.815696 0.988094
O O9 0.539657 0.741207 0.717486
O O10 0.500000 0.000000 0.000000
O O11 0.164860 0.201519 0.291915
O O12 0.920988 0.250053 0.194666
O O13 0.909831 0.084138 0.317016
O O14 0.000000 0.000000 0.000000
O O15 0.833643 0.401992 0.086052
O O16 0.967596 0.158022 0.855951
O O17 0.000000 0.000000 0.500000
O O18 0.289163 0.379295 0.620816
#
# Coordination Sequence:
#
# PCOD9023975 Si02
#       8
#     2   2   2   2   2   2   2   2
#     4   9  21  39  64  92 129 169 208 271 313 366
#     4  11  24  38  67  98 124 165 216 266 327 380
#     4  11  22  37  68  99 128 163 215 269 325 380
#     4  10  22  40  62  93 132 165 202 268 335 371
#     4  10  24  41  65  91 129 177 209 259 329 379
#     4  11  23  41  63  93 135 163 210 275 323 384
#     4   9  21  45  64  88 131 173 222 258 305 387
#     4  11  23  41  64  96 129 167 215 264 311 385
#
# _framework density 21.059912000000001
#
# number of rings (size 3 to 8) (size 9 to 14) (size 15 to 20)
#    0.000    1.750    1.250    2.250   10.500    2.500 
#    0.000    3.750    2.750    0.000    0.000    0.000 
#    0.000    0.000    0.000    0.000    0.000    0.000 
#
# Total GULP energy -89154.402446 kJ/mol
# GULP energy per Si atom -5572.150153 kJ/mol
# Density = 2.101198 g / cm^3
# Si number density = 21.059912 Si / 1000 Ang^3
#
#
#
# Elastic Constant Matrix: (Units=GPa)
#
#
# Indices 1 2 3 4 5 6 
#
# 1 57.4556 38.9836 46.2965 -3.4924 2.5379 -18.1399
# 2 38.9836 150.4177 37.4102 -19.6004 7.7106 -50.6217
# 3 46.2965 37.4102 111.3954 -12.5180 17.0941 -16.1603
# 4 -3.4924 -19.6004 -12.5180 44.1029 0.6197 6.6578
# 5 2.5379 7.7106 17.0941 0.6197 38.0609 -4.9866
# 6 -18.1399 -50.6217 -16.1603 6.6578 -4.9866 43.4272
#
#
#
# Elastic Compliance Matrix: (Units=1/GPa)
#
#
# Indices 1 2 3 4 5 6 
#
# 1 0.030865 -0.004170 -0.011880 -0.003559 0.004797 0.004707
# 2 -0.004170 0.012228 -0.000191 0.003267 -0.000612 0.011870
# 3 -0.011880 -0.000191 0.015204 0.003493 -0.006155 -0.000769
# 4 -0.003559 0.003267 0.003493 0.024944 -0.002463 -0.000486
# 5 0.004797 -0.000612 -0.006155 -0.002463 0.029241 0.002735
# 6 0.004707 0.011870 -0.000769 -0.000486 0.002735 0.038932
#
#
# Mechanical properties :
#
#
# Convention : Reuss Voigt Hill
#
# Bulk Modulus (GPa) = 38.73694 62.73881 50.73788
# Shear Modulus (GPa) = 25.97391 38.22342 32.09867
#
# Velocity S-wave (km/s) = 3.51570 4.26489 3.90828
# Velocity P-wave (km/s) = 5.90879 7.35579 6.67163
#
# Compressibility (1/GPa) = 0.02581515
#
# Stress axis : x y z
#
# Youngs Moduli (GPa) = 32.39907 81.77907 65.77180
#
# Poissons Ratio (x) = 0.34102 0.78140
# Poissons Ratio (y) = 0.13510 0.01253
# Poissons Ratio (z) = 0.38492 0.01558
#
# Static dielectric constant tensor:
#      x y z
#    x 1.789160 0.012140 0.042570 
#    y 0.012140 1.864550 0.023220 
#    z 0.042570 0.023220 1.807480 
# 
# From -- ./inp_files/182533.got.cif
#   From: 2010.05.17/outbox.cif.g08.bks.cpg/sg2_92_cif.got.tgz:182533.got - 2010.06.03 11:33:40.
