data_PCOD9023263
_publ_section_title
;
Structure prediction by ZEFSAII (Michael W. Deem and Ramdas Pophale) SiO2 
 PCOD9023263
Probable space group: P -1
;
_chemical_formula_sum "Si O2"
_cell_formula_units_Z 14
_cell_length_a 16.762129
_cell_length_b 7.027870
_cell_length_c 13.492525
_cell_angle_alpha 73.647119
_cell_angle_beta 153.678469
_cell_angle_gamma 90.014601
_cell_volume 544.759671
_symmetry_space_group_name_H-M "P -1"
_symmetry_group_IT_number 2
_symmetry_cell_setting 'triclinic'
loop_
_space_group_symop_operation_xyz
x,y,z
-x,-y,-z
loop_
_atom_site_type_symbol
_atom_site_label
_atom_site_fract_x
_atom_site_fract_y
_atom_site_fract_z
Si Si1 0.838830 0.347399 0.282235
Si Si2 0.010945 0.807399 0.147133
Si Si3 0.954233 0.436327 0.600470
Si Si4 0.572921 0.207761 0.344359
Si Si5 0.539812 0.177695 0.955866
Si Si6 0.368608 0.293577 0.529045
Si Si7 0.458552 0.790786 0.478256
O O1 0.977818 0.316882 0.538726
O O2 0.988314 0.367628 0.364940
O O3 0.604081 0.622379 0.963239
O O4 0.752397 0.178594 0.215917
O O5 0.903383 0.761191 0.127702
O O6 0.196037 0.827540 0.396840
O O7 0.138472 0.555802 0.262689
O O8 0.190950 0.943282 0.162222
O O9 0.695095 0.569612 0.314028
O O10 0.463106 0.343542 0.308560
O O11 0.644460 0.933254 0.466645
O O12 0.522512 0.196595 0.813765
O O13 0.500000 0.000000 0.000000
O O14 0.450395 0.330565 0.509965
O O15 0.500000 0.000000 0.500000
#
# Coordination Sequence:
#
# PCOD9023263 Si02
#       7
#     2   2   2   2   2   2   2
#     4  11  22  42  66 100 137 183 223 286 348 404
#     4  11  23  44  66 102 136 177 235 277 345 411
#     4  10  22  39  67  94 135 185 219 281 349 401
#     4  11  22  42  70  95 138 180 226 285 339 408
#     4  11  23  40  64  98 140 176 234 281 343 418
#     4  10  23  43  65 101 135 181 226 285 342 406
#     4  10  23  43  68  97 136 181 229 283 337 409
#
# _framework density 25.699407000000001
#
# number of rings (size 3 to 8) (size 9 to 14) (size 15 to 20)
#    0.000    1.429    2.857    3.429    2.000    4.571 
#    5.143    0.000    0.000    0.000    0.000    0.000 
#    0.000    0.000    0.000    0.000    0.000    0.000 
#
# Total GULP energy -78148.166982 kJ/mol
# GULP energy per Si atom -5582.011927 kJ/mol
# Density = 2.564091 g / cm^3
# Si number density = 25.699407 Si / 1000 Ang^3
#
#
#
# Elastic Constant Matrix: (Units=GPa)
#
#
# Indices 1 2 3 4 5 6 
#
# 1 103.2622 42.8852 33.4427 4.7018 -15.0967 7.9967
# 2 42.8852 117.3050 13.5120 11.9672 -7.0574 26.2260
# 3 33.4427 13.5120 100.2689 7.2790 4.7358 13.8963
# 4 4.7018 11.9672 7.2790 46.7391 13.7927 10.1982
# 5 -15.0967 -7.0574 4.7358 13.7927 36.5969 -0.5264
# 6 7.9967 26.2260 13.8963 10.1982 -0.5264 40.1730
#
#
#
# Elastic Compliance Matrix: (Units=1/GPa)
#
#
# Indices 1 2 3 4 5 6 
#
# 1 0.013797 -0.004480 -0.004469 -0.001852 0.006137 0.002274
# 2 -0.004480 0.011753 0.000911 -0.001457 0.000753 -0.006716
# 3 -0.004469 0.000911 0.012034 0.000197 -0.003356 -0.003962
# 4 -0.001852 -0.001457 0.000197 0.026425 -0.011110 -0.005602
# 5 0.006137 0.000753 -0.003356 -0.011110 0.034662 0.002722
# 6 0.002274 -0.006716 -0.003962 -0.005602 0.002722 0.031653
#
#
# Mechanical properties :
#
#
# Convention : Reuss Voigt Hill
#
# Bulk Modulus (GPa) = 46.48914 55.61285 51.05099
# Shear Modulus (GPa) = 32.55878 40.10153 36.33016
#
# Velocity S-wave (km/s) = 3.56323 3.95448 3.76394
# Velocity P-wave (km/s) = 5.92095 6.52206 6.22876
#
# Compressibility (1/GPa) = 0.02151040
#
# Stress axis : x y z
#
# Youngs Moduli (GPa) = 72.47896 85.08392 83.09686
#
# Poissons Ratio (x) = 0.38114 0.37133
# Poissons Ratio (y) = 0.32468 -0.07573
# Poissons Ratio (z) = 0.32388 -0.07754
#
# Static dielectric constant tensor:
#      x y z
#    x 2.184660 0.052510 -0.046470 
#    y 0.052510 2.114220 -0.031450 
#    z -0.046470 -0.031450 2.024710 
# 
# From -- ./inp_files/526466.got.cif
#   From: 2010.05.17/outbox.cif.g08.bks.cpg/sg2_264_cif.got.tgz:526466.got - 2010.06.03 11:33:40.
