data_PCOD9023654
_publ_section_title
;
Structure prediction by ZEFSAII (Michael W. Deem and Ramdas Pophale) SiO2 
 PCOD9023654
Probable space group: P -1
;
_chemical_formula_sum "Si O2"
_cell_formula_units_Z 16
_cell_length_a 14.665288
_cell_length_b 9.737603
_cell_length_c 11.953011
_cell_angle_alpha 98.175260
_cell_angle_beta 28.819419
_cell_angle_gamma 86.774608
_cell_volume 753.701910
_symmetry_space_group_name_H-M "P -1"
_symmetry_group_IT_number 2
_symmetry_cell_setting 'triclinic'
loop_
_space_group_symop_operation_xyz
x,y,z
-x,-y,-z
loop_
_atom_site_type_symbol
_atom_site_label
_atom_site_fract_x
_atom_site_fract_y
_atom_site_fract_z
Si Si1 0.006285 0.112719 0.105193
Si Si2 0.324136 0.914913 0.372924
Si Si3 0.740181 0.370301 0.849929
Si Si4 0.610221 0.366258 0.221473
Si Si5 0.633261 0.657238 0.874742
Si Si6 0.159149 0.114858 0.354973
Si Si7 0.654085 0.026961 0.101001
Si Si8 0.163202 0.573794 0.799675
O O1 0.945637 0.278174 0.139924
O O2 0.843994 0.107586 0.371856
O O3 0.217857 0.060000 0.939857
O O4 0.000000 0.000000 0.000000
O O5 0.232793 0.001540 0.365851
O O6 0.494996 0.755225 0.136024
O O7 0.437864 0.009035 0.324268
O O8 0.525819 0.363524 0.042882
O O9 0.918782 0.209572 0.624451
O O10 0.710713 0.418120 0.015353
O O11 0.772788 0.495091 0.752002
O O12 0.368502 0.460438 0.505516
O O13 0.738762 0.377464 0.192079
O O14 0.638216 0.195736 0.149078
O O15 0.745588 0.758391 0.716163
O O16 0.237184 0.040214 0.142185
O O17 0.000000 0.500000 0.000000
#
# Coordination Sequence:
#
# PCOD9023654 Si02
#       8
#     2   2   2   2   2   2   2   2
#     4  12  26  45  68 101 129 177 236 278 336 398
#     4  11  24  42  68  97 140 172 225 282 331 402
#     4  11  22  38  66  94 139 177 213 274 334 402
#     4  11  24  44  68  96 130 180 225 274 345 395
#     4  10  22  40  60 100 137 175 218 266 335 407
#     4  11  23  40  67 105 135 173 223 268 336 406
#     4  11  24  43  72 101 138 179 220 281 338 401
#     4  11  28  48  67  94 133 173 234 287 333 398
#
# _framework density 21.228551
#
# number of rings (size 3 to 8) (size 9 to 14) (size 15 to 20)
#    0.000    1.000    1.250    5.625    1.750    8.000 
#    0.000    0.000    0.000    0.000    0.000    0.000 
#    0.000    0.000    0.000    0.000    0.000    0.000 
#
# Total GULP energy -89539.079657 kJ/mol
# GULP energy per Si atom -5596.192479 kJ/mol
# Density = 2.118023 g / cm^3
# Si number density = 21.228551 Si / 1000 Ang^3
#
#
#
# Elastic Constant Matrix: (Units=GPa)
#
#
# Indices 1 2 3 4 5 6 
#
# 1 103.9685 67.3853 30.8455 6.2410 -6.4380 -11.9577
# 2 67.3853 139.3457 35.3215 -1.5687 -14.5755 -12.9868
# 3 30.8455 35.3215 50.8772 -0.3949 -10.2356 -3.8791
# 4 6.2410 -1.5687 -0.3949 29.8826 -5.0205 -3.8684
# 5 -6.4380 -14.5755 -10.2356 -5.0205 24.9732 6.3605
# 6 -11.9577 -12.9868 -3.8791 -3.8684 6.3605 26.5821
#
#
#
# Elastic Compliance Matrix: (Units=1/GPa)
#
#
# Indices 1 2 3 4 5 6 
#
# 1 0.015795 -0.006288 -0.005698 -0.003856 -0.003601 0.003502
# 2 -0.006288 0.011678 -0.003346 0.002779 0.003909 0.001858
# 3 -0.005698 -0.003346 0.027051 0.002578 0.008681 -0.001953
# 4 -0.003856 0.002779 0.002578 0.036245 0.008123 0.003330
# 5 -0.003601 0.003909 0.008681 0.008123 0.048868 -0.008954
# 6 0.003502 0.001858 -0.001953 0.003330 -0.008954 0.042445
#
#
# Mechanical properties :
#
#
# Convention : Reuss Voigt Hill
#
# Bulk Modulus (GPa) = 41.91078 62.36622 52.13850
# Shear Modulus (GPa) = 22.65519 26.99684 24.82602
#
# Velocity S-wave (km/s) = 3.27035 3.56999 3.42345
# Velocity P-wave (km/s) = 5.83488 6.81435 6.34355
#
# Compressibility (1/GPa) = 0.02386021
#
# Stress axis : x y z
#
# Youngs Moduli (GPa) = 63.30953 85.62761 36.96788
#
# Poissons Ratio (x) = 0.53839 0.21066
# Poissons Ratio (y) = 0.39806 0.12370
# Poissons Ratio (z) = 0.36077 0.28652
#
# Static dielectric constant tensor:
#      x y z
#    x 1.763750 0.006320 -0.008350 
#    y 0.006320 1.753230 -0.007210 
#    z -0.008350 -0.007210 1.765570 
# 
# From -- ./inp_files/447443.got.cif
#   From: 2010.05.17/outbox.cif.g08.bks.cpg/sg2_224_cif.got.tgz:447443.got - 2010.06.03 11:33:40.
