data_PCOD9023494
_publ_section_title
;
Structure prediction by ZEFSAII (Michael W. Deem and Ramdas Pophale) SiO2 
 PCOD9023494
Probable space group: P -1
;
_chemical_formula_sum "Si O2"
_cell_formula_units_Z 16
_cell_length_a 14.200649
_cell_length_b 9.487953
_cell_length_c 11.595109
_cell_angle_alpha 135.048458
_cell_angle_beta 104.079533
_cell_angle_gamma 109.882447
_cell_volume 711.150575
_symmetry_space_group_name_H-M "P -1"
_symmetry_group_IT_number 2
_symmetry_cell_setting 'triclinic'
loop_
_space_group_symop_operation_xyz
x,y,z
-x,-y,-z
loop_
_atom_site_type_symbol
_atom_site_label
_atom_site_fract_x
_atom_site_fract_y
_atom_site_fract_z
Si Si1 0.133856 0.218143 0.805853
Si Si2 0.614060 0.343279 0.284594
Si Si3 0.448890 0.727800 0.261867
Si Si4 0.176968 0.303810 0.231414
Si Si5 0.747815 0.175427 0.530924
Si Si6 0.376128 0.280781 0.167801
Si Si7 0.165777 0.079864 0.479886
Si Si8 0.857981 0.193048 0.333410
O O1 0.142006 0.136956 0.633024
O O2 0.121607 0.012229 0.768468
O O3 0.294721 0.547655 0.059025
O O4 0.997141 0.147522 0.750152
O O5 0.735534 0.486255 0.504572
O O6 0.504266 0.348698 0.301341
O O7 0.713548 0.602158 0.365409
O O8 0.500000 0.000000 0.000000
O O9 0.438151 0.529504 0.233934
O O10 0.500000 0.000000 0.500000
O O11 0.573957 0.877239 0.291968
O O12 0.213003 0.531894 0.280333
O O13 0.263478 0.234267 0.184732
O O14 0.000000 0.000000 0.000000
O O15 0.829982 0.229925 0.473173
O O16 0.790744 0.084893 0.590557
O O17 0.277177 0.976709 0.888468
O O18 0.000000 0.500000 0.500000
#
# Coordination Sequence:
#
# PCOD9023494 Si02
#       8
#     2   2   2   2   2   2   2   2
#     4   9  23  40  65  97 140 177 227 286 347 414
#     4  12  28  45  74 107 141 184 242 296 353 416
#     4  11  22  41  69  98 136 179 233 281 352 417
#     4  12  28  49  70 103 147 188 233 289 367 432
#     4  11  23  44  72 103 132 189 237 289 349 427
#     4  11  24  44  68 100 140 184 232 292 352 421
#     4  10  23  45  67 101 136 177 235 293 340 413
#     4  10  22  39  70 102 138 181 236 289 357 417
#
# _framework density 22.498749
#
# number of rings (size 3 to 8) (size 9 to 14) (size 15 to 20)
#    0.000    1.250    2.500    1.875   10.500    1.500 
#    4.500    1.250    0.000    0.000    0.000    0.000 
#    0.000    0.000    0.000    0.000    0.000    0.000 
#
# Total GULP energy -89291.990584 kJ/mol
# GULP energy per Si atom -5580.749411 kJ/mol
# Density = 2.244754 g / cm^3
# Si number density = 22.498749 Si / 1000 Ang^3
#
#
#
# Elastic Constant Matrix: (Units=GPa)
#
#
# Indices 1 2 3 4 5 6 
#
# 1 117.3326 30.2772 45.6096 12.8915 32.8436 -8.4303
# 2 30.2772 82.9498 40.7352 18.9747 22.1287 -0.0482
# 3 45.6096 40.7352 96.9660 15.2472 39.6161 -13.5991
# 4 12.8915 18.9747 15.2472 37.9858 8.1161 8.2577
# 5 32.8436 22.1287 39.6161 8.1161 43.0608 -1.6050
# 6 -8.4303 -0.0482 -13.5991 8.2577 -1.6050 35.8142
#
#
#
# Elastic Compliance Matrix: (Units=1/GPa)
#
#
# Indices 1 2 3 4 5 6 
#
# 1 0.011631 -0.001316 -0.001865 -0.001710 -0.006077 0.002150
# 2 -0.001316 0.016687 -0.004804 -0.005275 -0.002194 -0.000994
# 3 -0.001865 -0.004804 0.020655 -0.003915 -0.014088 0.007669
# 4 -0.001710 -0.005275 -0.003915 0.032940 0.001057 -0.009444
# 5 -0.006077 -0.002194 -0.014088 0.001057 0.041554 -0.005164
# 6 0.002150 -0.000994 0.007669 -0.009444 -0.005164 0.033285
#
#
# Mechanical properties :
#
#
# Convention : Reuss Voigt Hill
#
# Bulk Modulus (GPa) = 30.30094 58.94358 44.62226
# Shear Modulus (GPa) = 27.21494 35.41393 31.31443
#
# Velocity S-wave (km/s) = 3.48173 3.97172 3.73477
# Velocity P-wave (km/s) = 5.44613 6.87664 6.20277
#
# Compressibility (1/GPa) = 0.03300227
#
# Stress axis : x y z
#
# Youngs Moduli (GPa) = 85.98034 59.92798 48.41393
#
# Poissons Ratio (x) = 0.07886 0.09028
# Poissons Ratio (y) = 0.11314 0.23260
# Poissons Ratio (z) = 0.16033 0.28792
#
# Static dielectric constant tensor:
#      x y z
#    x 1.941920 -0.008900 0.058690 
#    y -0.008900 1.836530 -0.041380 
#    z 0.058690 -0.041380 1.953910 
# 
# From -- ./inp_files/448218.got.cif
#   From: 2010.05.17/outbox.cif.g08.bks.cpg/sg2_225_cif.got.tgz:448218.got - 2010.06.03 11:33:40.
