data_PCOD9023199
_publ_section_title
;
Structure prediction by ZEFSAII (Michael W. Deem and Ramdas Pophale) SiO2 
 PCOD9023199
Probable space group: P -1
;
_chemical_formula_sum "Si O2"
_cell_formula_units_Z 12
_cell_length_a 15.642789
_cell_length_b 15.842595
_cell_length_c 7.943403
_cell_angle_alpha 44.702066
_cell_angle_beta 44.440441
_cell_angle_gamma 18.212400
_cell_volume 425.983889
_symmetry_space_group_name_H-M "P -1"
_symmetry_group_IT_number 2
_symmetry_cell_setting 'triclinic'
loop_
_space_group_symop_operation_xyz
x,y,z
-x,-y,-z
loop_
_atom_site_type_symbol
_atom_site_label
_atom_site_fract_x
_atom_site_fract_y
_atom_site_fract_z
Si Si1 0.140607 0.726584 0.928764
Si Si2 0.395925 0.778321 0.806359
Si Si3 0.707705 0.798261 0.836758
Si Si4 0.269635 0.342205 0.309403
Si Si5 0.652329 0.217707 0.507963
Si Si6 0.032192 0.676566 0.744107
O O1 0.247730 0.739049 0.642532
O O2 0.358606 0.530299 0.056238
O O3 0.180017 0.553647 0.063739
O O4 0.835997 0.021129 0.007582
O O5 0.548915 0.772460 0.624599
O O6 0.267955 0.866268 0.681750
O O7 0.567444 0.878743 0.746602
O O8 0.904071 0.741653 0.652912
O O9 0.902870 0.509687 0.002150
O O10 0.500000 0.000000 0.000000
O O11 0.000000 0.500000 0.500000
O O12 0.325271 0.484049 0.590712
O O13 0.813232 0.963545 0.724193
#
# Coordination Sequence:
#
# PCOD9023199 Si02
#       6
#     2   2   2   2   2   2
#     4  10  23  41  64 103 140 177 225 290 338 412
#     4  10  22  39  66  99 141 179 219 290 337 407
#     4  11  24  49  69 101 137 185 235 284 338 418
#     4  10  25  44  70 103 138 181 231 287 353 398
#     4  12  21  42  69 103 135 182 231 275 350 411
#     4  11  25  40  73  96 132 182 234 280 334 417
#
# _framework density 28.170079999999999
#
# number of rings (size 3 to 8) (size 9 to 14) (size 15 to 20)
#    1.000    0.333    1.667    4.000    2.333    3.333 
#    0.000    1.667    0.000    0.000    0.000    0.000 
#    0.000    0.000    0.000    0.000    0.000    0.000 
#
# Total GULP energy -67153.209289 kJ/mol
# GULP energy per Si atom -5596.100774 kJ/mol
# Density = 2.810596 g / cm^3
# Si number density = 28.170080 Si / 1000 Ang^3
#
#
#
# Elastic Constant Matrix: (Units=GPa)
#
#
# Indices 1 2 3 4 5 6 
#
# 1 166.9291 31.0780 48.6295 10.7259 -38.4682 9.4053
# 2 31.0780 124.4637 44.3238 18.4016 -16.4259 -18.9845
# 3 48.6295 44.3238 99.3781 -4.7783 -51.1146 14.5665
# 4 10.7259 18.4016 -4.7783 62.8747 -3.3556 0.6829
# 5 -38.4682 -16.4259 -51.1146 -3.3556 65.0368 6.2298
# 6 9.4053 -18.9845 14.5665 0.6829 6.2298 31.5950
#
#
#
# Elastic Compliance Matrix: (Units=1/GPa)
#
#
# Indices 1 2 3 4 5 6 
#
# 1 0.007635 -0.001898 -0.000023 -0.000468 0.004402 -0.004260
# 2 -0.001898 0.016635 -0.015707 -0.006574 -0.011542 0.020220
# 3 -0.000023 -0.015707 0.037036 0.009299 0.028708 -0.032367
# 4 -0.000468 -0.006574 0.009299 0.019113 0.007311 -0.009953
# 5 0.004402 -0.011542 0.028708 0.007311 0.040849 -0.029693
# 6 -0.004260 0.020220 -0.032367 -0.009953 -0.029693 0.066061
#
#
# Mechanical properties :
#
#
# Convention : Reuss Voigt Hill
#
# Bulk Modulus (GPa) = 38.38726 70.98149 54.68437
# Shear Modulus (GPa) = 21.61985 49.68393 35.65189
#
# Velocity S-wave (km/s) = 2.77334 4.20421 3.56138
# Velocity P-wave (km/s) = 4.88997 6.98709 6.03039
#
# Compressibility (1/GPa) = 0.02605031
#
# Stress axis : x y z
#
# Youngs Moduli (GPa) = 130.96987 60.11542 27.00040
#
# Poissons Ratio (x) = 0.11409 0.00063
# Poissons Ratio (y) = 0.24856 0.42409
# Poissons Ratio (z) = 0.00307 0.94422
#
# Static dielectric constant tensor:
#      x y z
#    x 2.266820 -0.063820 0.134810 
#    y -0.063820 2.125490 -0.104260 
#    z 0.134810 -0.104260 2.354740 
# 
# From -- ./inp_files/314562.got.cif
#   From: 2010.05.17/outbox.cif.g08.bks.cpg/sg2_158_cif.got.tgz:314562.got - 2010.06.03 11:33:40.
