data_PCOD9023224
_publ_section_title
;
Structure prediction by ZEFSAII (Michael W. Deem and Ramdas Pophale) SiO2 
 PCOD9023224
Probable space group: P -1
;
_chemical_formula_sum "Si O2"
_cell_formula_units_Z 14
_cell_length_a 13.220272
_cell_length_b 9.438388
_cell_length_c 7.774545
_cell_angle_alpha 53.510949
_cell_angle_beta 132.986814
_cell_angle_gamma 112.928088
_cell_volume 570.315839
_symmetry_space_group_name_H-M "P -1"
_symmetry_group_IT_number 2
_symmetry_cell_setting 'triclinic'
loop_
_space_group_symop_operation_xyz
x,y,z
-x,-y,-z
loop_
_atom_site_type_symbol
_atom_site_label
_atom_site_fract_x
_atom_site_fract_y
_atom_site_fract_z
Si Si1 0.484513 0.481876 0.202169
Si Si2 0.834558 0.584969 0.116250
Si Si3 0.161716 0.066076 0.905444
Si Si4 0.264005 0.714776 0.209246
Si Si5 0.390193 0.148415 0.820838
Si Si6 0.143304 0.336193 0.278908
Si Si7 0.913822 0.227002 0.362279
O O1 0.327257 0.441966 0.089003
O O2 0.580638 0.331215 0.514367
O O3 0.529397 0.671587 0.185717
O O4 0.500000 0.500000 0.000000
O O5 0.911756 0.630980 0.997374
O O6 0.841464 0.754561 0.119820
O O7 0.886180 0.383006 0.356618
O O8 0.294020 0.103341 0.906154
O O9 0.999232 0.061530 0.660124
O O10 0.200815 0.867128 0.149682
O O11 0.201640 0.520803 0.280905
O O12 0.218482 0.782408 0.912986
O O13 0.269642 0.195455 0.511268
O O14 0.500000 0.000000 0.000000
O O15 0.032416 0.281907 0.326464
#
# Coordination Sequence:
#
# PCOD9023224 Si02
#       7
#     2   2   2   2   2   2   2
#     4  11  24  43  61  93 129 166 205 257 320 363
#     4  11  22  39  68  89 126 168 205 257 313 367
#     4  11  23  40  64  99 125 159 210 263 306 367
#     4  10  22  39  67  87 126 162 208 255 307 369
#     4  10  23  39  63  90 130 163 208 257 306 372
#     4   9  22  42  64  89 123 168 210 247 313 376
#     4  10  22  45  65  90 125 168 209 252 312 374
#
# _framework density 24.547803999999999
#
# number of rings (size 3 to 8) (size 9 to 14) (size 15 to 20)
#    0.000    1.714    1.429    2.571    6.000    4.571 
#    2.571    2.857    0.000    0.000    0.000    0.000 
#    0.000    0.000    0.000    0.000    0.000    0.000 
#
# Total GULP energy -78083.982868 kJ/mol
# GULP energy per Si atom -5577.427348 kJ/mol
# Density = 2.449193 g / cm^3
# Si number density = 24.547804 Si / 1000 Ang^3
#
#
#
# Elastic Constant Matrix: (Units=GPa)
#
#
# Indices 1 2 3 4 5 6 
#
# 1 71.1690 28.2548 33.9307 -6.6967 25.1094 -11.0796
# 2 28.2548 152.5667 57.5668 -25.0862 32.1229 -19.8514
# 3 33.9307 57.5668 154.6535 -39.5721 59.6395 -17.8793
# 4 -6.6967 -25.0862 -39.5721 39.1976 -10.1821 13.8335
# 5 25.1094 32.1229 59.6395 -10.1821 41.6644 -10.7710
# 6 -11.0796 -19.8514 -17.8793 13.8335 -10.7710 34.9081
#
#
#
# Elastic Compliance Matrix: (Units=1/GPa)
#
#
# Indices 1 2 3 4 5 6 
#
# 1 0.018249 -0.001187 0.000591 -0.000621 -0.010449 0.002442
# 2 -0.001187 0.008529 -0.000200 0.003325 -0.004317 0.001722
# 3 0.000591 -0.000200 0.019503 0.014252 -0.025531 -0.003463
# 4 -0.000621 0.003325 0.014252 0.042331 -0.015493 -0.012562
# 5 -0.010449 -0.004317 -0.025531 -0.015493 0.068571 0.008449
# 6 0.002442 0.001722 -0.003463 -0.012562 0.008449 0.036212
#
#
# Mechanical properties :
#
#
# Convention : Reuss Voigt Hill
#
# Bulk Modulus (GPa) = 22.37663 68.65485 45.51574
# Shear Modulus (GPa) = 23.82264 40.39650 32.10957
#
# Velocity S-wave (km/s) = 3.11860 4.06103 3.62061
# Velocity P-wave (km/s) = 4.70137 7.07233 6.00503
#
# Compressibility (1/GPa) = 0.04468948
#
# Stress axis : x y z
#
# Youngs Moduli (GPa) = 54.79798 117.24059 51.27407
#
# Poissons Ratio (x) = 0.13916 -0.03029
# Poissons Ratio (y) = 0.06504 0.01024
# Poissons Ratio (z) = -0.03238 0.02343
#
# Static dielectric constant tensor:
#      x y z
#    x 1.973140 0.011470 -0.068450 
#    y 0.011470 2.027240 0.008760 
#    z -0.068450 0.008760 2.117340 
# 
# From -- ./inp_files/291954.got.cif
#   From: 2010.05.17/outbox.cif.g08.bks.cpg/sg2_146_cif.got.tgz:291954.got - 2010.06.03 11:33:40.
