data_PCOD9023158
_publ_section_title
;
Structure prediction by ZEFSAII (Michael W. Deem and Ramdas Pophale) SiO2 
 PCOD9023158
Probable space group: P -1
;
_chemical_formula_sum "Si O2"
_cell_formula_units_Z 14
_cell_length_a 7.930869
_cell_length_b 11.545075
_cell_length_c 7.066761
_cell_angle_alpha 79.032482
_cell_angle_beta 109.018880
_cell_angle_gamma 123.208503
_cell_volume 511.766162
_symmetry_space_group_name_H-M "P -1"
_symmetry_group_IT_number 2
_symmetry_cell_setting 'triclinic'
loop_
_space_group_symop_operation_xyz
x,y,z
-x,-y,-z
loop_
_atom_site_type_symbol
_atom_site_label
_atom_site_fract_x
_atom_site_fract_y
_atom_site_fract_z
Si Si1 0.743021 0.879496 0.633474
Si Si2 0.679981 0.378492 0.458761
Si Si3 0.206313 0.010784 0.792495
Si Si4 0.318402 0.552900 0.124072
Si Si5 0.227985 0.849461 0.335509
Si Si6 0.784796 0.633634 0.170681
Si Si7 0.352510 0.816759 0.967095
O O1 0.565035 0.721870 0.653590
O O2 0.772048 0.898229 0.410547
O O3 0.680844 0.992895 0.622397
O O4 0.966337 0.929868 0.791772
O O5 0.700776 0.432517 0.664866
O O6 0.748843 0.265776 0.507740
O O7 0.788721 0.513206 0.328772
O O8 0.394438 0.106903 0.974752
O O9 0.256831 0.891618 0.793762
O O10 0.560990 0.611379 0.143748
O O11 0.258801 0.655110 0.968335
O O12 0.196543 0.404362 0.026889
O O13 0.315008 0.842987 0.163470
O O14 0.978495 0.780758 0.249517
#
# Coordination Sequence:
#
# PCOD9023158 Si02
#       7
#     2   2   2   2   2   2   2
#     4  11  23  42  66 101 133 169 227 276 333 409
#     4  11  24  44  68 100 133 181 219 280 336 398
#     4  10  22  39  66  96 129 180 212 275 345 388
#     4  10  23  45  64  94 134 176 231 271 326 408
#     4  11  24  41  64 100 135 170 227 275 329 409
#     4  11  25  43  69  94 137 180 220 279 336 393
#     4  10  22  41  65  96 136 173 220 282 334 393
#
# _framework density 27.356247
#
# number of rings (size 3 to 8) (size 9 to 14) (size 15 to 20)
#    0.000    1.429    2.857    2.143    4.000    6.286 
#    2.571    0.000    0.000    0.000    0.000    0.000 
#    0.000    0.000    0.000    0.000    0.000    0.000 
#
# Total GULP energy -78474.626418 kJ/mol
# GULP energy per Si atom -5605.330458 kJ/mol
# Density = 2.729398 g / cm^3
# Si number density = 27.356247 Si / 1000 Ang^3
#
#
#
# Elastic Constant Matrix: (Units=GPa)
#
#
# Indices 1 2 3 4 5 6 
#
# 1 83.7693 6.9795 31.7295 13.3434 16.3418 -3.1445
# 2 6.9795 119.3314 39.6577 2.1659 -9.1756 -7.7614
# 3 31.7295 39.6577 71.6005 -11.7914 -4.8879 -10.5931
# 4 13.3434 2.1659 -11.7914 36.4978 -10.5386 2.3833
# 5 16.3418 -9.1756 -4.8879 -10.5386 44.4670 12.5711
# 6 -3.1445 -7.7614 -10.5931 2.3833 12.5711 51.8943
#
#
#
# Elastic Compliance Matrix: (Units=1/GPa)
#
#
# Indices 1 2 3 4 5 6 
#
# 1 0.023748 0.003305 -0.015980 -0.018613 -0.015115 0.003188
# 2 0.003305 0.011005 -0.008362 -0.004960 -0.001226 0.000664
# 3 -0.015980 -0.008362 0.029699 0.019393 0.011995 0.000047
# 4 -0.018613 -0.004960 0.019393 0.047017 0.020517 -0.005040
# 5 -0.015115 -0.001226 0.011995 0.020517 0.036345 -0.008397
# 6 0.003188 0.000664 0.000047 -0.005040 -0.008397 0.021838
#
#
# Mechanical properties :
#
#
# Convention : Reuss Voigt Hill
#
# Bulk Modulus (GPa) = 44.68808 47.93720 46.31264
# Shear Modulus (GPa) = 22.81189 39.66079 31.23634
#
# Velocity S-wave (km/s) = 2.89083 3.81174 3.38277
# Velocity P-wave (km/s) = 5.24534 6.07732 5.67660
#
# Compressibility (1/GPa) = 0.02237733
#
# Stress axis : x y z
#
# Youngs Moduli (GPa) = 42.10894 90.87108 33.67152
#
# Poissons Ratio (x) = -0.30029 0.53806
# Poissons Ratio (y) = -0.13915 0.28156
# Poissons Ratio (z) = 0.67288 0.75985
#
# Static dielectric constant tensor:
#      x y z
#    x 2.163070 0.004630 0.044020 
#    y 0.004630 2.025890 -0.007870 
#    z 0.044020 -0.007870 2.178560 
# 
# From -- ./inp_files/178291.got.cif
#   From: 2010.05.17/outbox.cif.g08.bks.cpg/sg2_90_cif.got.tgz:178291.got - 2010.06.03 11:33:40.
