data_PCOD9023446
_publ_section_title
;
Structure prediction by ZEFSAII (Michael W. Deem and Ramdas Pophale) SiO2 
 PCOD9023446
Probable space group: P -1
;
_chemical_formula_sum "Si O2"
_cell_formula_units_Z 14
_cell_length_a 10.855545
_cell_length_b 14.832987
_cell_length_c 13.835459
_cell_angle_alpha 29.266003
_cell_angle_beta 53.313497
_cell_angle_gamma 34.714522
_cell_volume 560.028733
_symmetry_space_group_name_H-M "P -1"
_symmetry_group_IT_number 2
_symmetry_cell_setting 'triclinic'
loop_
_space_group_symop_operation_xyz
x,y,z
-x,-y,-z
loop_
_atom_site_type_symbol
_atom_site_label
_atom_site_fract_x
_atom_site_fract_y
_atom_site_fract_z
Si Si1 0.223342 0.215712 0.416565
Si Si2 0.048150 0.616738 0.963694
Si Si3 0.727974 0.378712 0.687755
Si Si4 0.507773 0.941352 0.164986
Si Si5 0.018505 0.945339 0.310180
Si Si6 0.771499 0.329784 0.333089
Si Si7 0.048258 0.305639 0.741825
O O1 0.075394 0.491186 0.296469
O O2 0.161889 0.059995 0.613022
O O3 0.500000 0.000000 0.500000
O O4 0.150636 0.343510 0.223874
O O5 0.178918 0.533606 0.879249
O O6 0.761975 0.862871 0.863230
O O7 0.091535 0.764076 0.868897
O O8 0.654956 0.624027 0.426394
O O9 0.851987 0.136242 0.775592
O O10 0.481042 0.528346 0.705222
O O11 0.904802 0.271006 0.792316
O O12 0.666814 0.956030 0.126886
O O13 0.500000 0.000000 0.000000
O O14 0.201966 0.698257 0.537259
O O15 0.000000 0.000000 0.500000
O O16 0.000000 0.500000 0.500000
#
# Coordination Sequence:
#
# PCOD9023446 Si02
#       7
#     2   2   2   2   2   2   2
#     4  12  27  46  70 103 145 186 235 295 363 420
#     4  11  25  46  72 107 139 186 239 296 352 420
#     4  11  21  42  69 106 146 188 232 292 356 420
#     4  11  19  39  73 102 139 183 239 282 347 417
#     4  11  23  44  74 102 138 191 239 285 356 417
#     4  10  22  39  69 105 145 186 230 297 353 417
#     4  10  22  41  71 101 141 188 227 290 356 406
#
# _framework density 24.998716999999999
#
# number of rings (size 3 to 8) (size 9 to 14) (size 15 to 20)
#    0.000    1.143    7.143    0.429    4.000    1.143 
#    0.000    5.000    0.000    0.000    0.000    0.000 
#    0.000    0.000    0.000    0.000    0.000    0.000 
#
# Total GULP energy -78342.112182 kJ/mol
# GULP energy per Si atom -5595.865156 kJ/mol
# Density = 2.494182 g / cm^3
# Si number density = 24.998717 Si / 1000 Ang^3
#
#
#
# Elastic Constant Matrix: (Units=GPa)
#
#
# Indices 1 2 3 4 5 6 
#
# 1 151.7334 74.8842 23.6405 -9.2878 13.5213 -19.5539
# 2 74.8842 142.0991 33.1646 13.1444 13.9272 -39.9305
# 3 23.6405 33.1646 93.9917 18.0404 8.4535 -2.6860
# 4 -9.2878 13.1444 18.0404 45.8909 3.4216 6.5572
# 5 13.5213 13.9272 8.4535 3.4216 57.4451 -10.6102
# 6 -19.5539 -39.9305 -2.6860 6.5572 -10.6102 45.4414
#
#
#
# Elastic Compliance Matrix: (Units=1/GPa)
#
#
# Indices 1 2 3 4 5 6 
#
# 1 0.009709 -0.005599 -0.001243 0.004409 -0.001333 -0.001763
# 2 -0.005599 0.013995 -0.002147 -0.005876 0.000575 0.010744
# 3 -0.001243 -0.002147 0.012595 -0.004327 -0.001021 -0.001291
# 4 0.004409 -0.005876 -0.004327 0.027358 -0.002075 -0.007954
# 5 -0.001333 0.000575 -0.001021 -0.002075 0.018694 0.004536
# 6 -0.001763 0.010744 -0.001291 -0.007954 0.004536 0.032819
#
#
# Mechanical properties :
#
#
# Convention : Reuss Voigt Hill
#
# Bulk Modulus (GPa) = 54.58096 72.35588 63.46842
# Shear Modulus (GPa) = 35.90537 46.83112 41.36824
#
# Velocity S-wave (km/s) = 3.79395 4.33291 4.07235
# Velocity P-wave (km/s) = 6.40882 7.35111 6.89608
#
# Compressibility (1/GPa) = 0.01832141
#
# Stress axis : x y z
#
# Youngs Moduli (GPa) = 102.99935 71.45347 79.39710
#
# Poissons Ratio (x) = 0.40005 0.09869
# Poissons Ratio (y) = 0.57667 0.17045
# Poissons Ratio (z) = 0.12803 0.15340
#
# Static dielectric constant tensor:
#      x y z
#    x 2.028130 -0.032480 -0.113890 
#    y -0.032480 1.860240 -0.039860 
#    z -0.113890 -0.039860 1.951130 
# 
# From -- ./inp_files/298250.got.cif
#   From: 2010.05.17/outbox.cif.g08.bks.cpg/sg2_150_cif.got.tgz:298250.got - 2010.06.03 11:33:40.
