data_PCOD9023061
_publ_section_title
;
Structure prediction by ZEFSAII (Michael W. Deem and Ramdas Pophale) SiO2 
 PCOD9023061
Probable space group: P -1
;
_chemical_formula_sum "Si O2"
_cell_formula_units_Z 16
_cell_length_a 14.465888
_cell_length_b 9.232219
_cell_length_c 14.829041
_cell_angle_alpha 150.148879
_cell_angle_beta 48.228100
_cell_angle_gamma 129.991929
_cell_volume 723.864769
_symmetry_space_group_name_H-M "P -1"
_symmetry_group_IT_number 2
_symmetry_cell_setting 'triclinic'
loop_
_space_group_symop_operation_xyz
x,y,z
-x,-y,-z
loop_
_atom_site_type_symbol
_atom_site_label
_atom_site_fract_x
_atom_site_fract_y
_atom_site_fract_z
Si Si1 0.783396 0.636081 0.739898
Si Si2 0.953639 0.086200 0.979085
Si Si3 0.864106 0.035868 0.367405
Si Si4 0.698133 0.574075 0.573811
Si Si5 0.495367 0.396397 0.048659
Si Si6 0.457876 0.692322 0.713924
Si Si7 0.631808 0.932282 0.343073
Si Si8 0.185775 0.395775 0.676976
O O1 0.784358 0.723070 0.680627
O O2 0.635291 0.526689 0.788203
O O3 0.825610 0.875373 0.917599
O O4 0.866424 0.383659 0.563779
O O5 0.046361 0.037879 0.810667
O O6 0.919328 0.409031 0.172052
O O7 0.000000 0.000000 0.000000
O O8 0.723918 0.925197 0.362135
O O9 0.874691 0.874661 0.367198
O O10 0.553463 0.631400 0.698505
O O11 0.758119 0.681470 0.497183
O O12 0.689927 0.217393 0.397537
O O13 0.609092 0.614137 0.139258
O O14 0.500000 0.500000 0.000000
O O15 0.488490 0.045353 0.870525
O O16 0.500000 0.500000 0.500000
O O17 0.306893 0.583004 0.753761
O O18 0.500000 0.000000 0.500000
#
# Coordination Sequence:
#
# PCOD9023061 Si02
#       8
#     2   2   2   2   2   2   2   2
#     4  11  25  45  67 102 132 178 228 275 335 408
#     4  12  26  48  70  93 132 181 237 278 331 395
#     4  11  25  43  72  97 137 178 223 277 336 403
#     4  10  22  42  68  98 143 179 212 274 349 401
#     4  12  24  37  68 100 139 171 231 270 339 404
#     4  10  22  39  65  99 140 179 217 273 344 401
#     4  11  21  42  67 102 138 174 219 277 340 406
#     4  11  23  43  67  99 134 177 226 276 338 389
#
# _framework density 22.103576
#
# number of rings (size 3 to 8) (size 9 to 14) (size 15 to 20)
#    0.000    1.000    3.750    4.500    5.250    1.500 
#    0.000    3.750    0.000    0.000    0.000    0.000 
#    0.000    0.000    0.000    0.000    0.000    0.000 
#
# Total GULP energy -89352.780777 kJ/mol
# GULP energy per Si atom -5584.548799 kJ/mol
# Density = 2.205327 g / cm^3
# Si number density = 22.103576 Si / 1000 Ang^3
#
#
#
# Elastic Constant Matrix: (Units=GPa)
#
#
# Indices 1 2 3 4 5 6 
#
# 1 91.1620 26.9185 14.8007 14.9567 -5.8929 -32.0579
# 2 26.9185 76.0149 12.8448 -5.8558 -4.0204 -35.1016
# 3 14.8007 12.8448 66.6326 7.7377 -10.5383 -10.8244
# 4 14.9567 -5.8558 7.7377 31.4044 4.8001 0.4533
# 5 -5.8929 -4.0204 -10.5383 4.8001 46.8608 3.9794
# 6 -32.0579 -35.1016 -10.8244 0.4533 3.9794 36.8121
#
#
#
# Elastic Compliance Matrix: (Units=1/GPa)
#
#
# Indices 1 2 3 4 5 6 
#
# 1 0.018110 0.000423 -0.000160 -0.009019 0.001839 0.016039
# 2 0.000423 0.024208 -0.001652 0.004487 -0.000653 0.022981
# 3 -0.000160 -0.001652 0.017052 -0.005078 0.003944 0.002936
# 4 -0.009019 0.004487 -0.005078 0.039135 -0.005479 -0.004958
# 5 0.001839 -0.000653 0.003944 -0.005479 0.022987 -0.000278
# 6 0.016039 0.022981 0.002936 -0.004958 -0.000278 0.064000
#
#
# Mechanical properties :
#
#
# Convention : Reuss Voigt Hill
#
# Bulk Modulus (GPa) = 17.67044 38.10419 27.88732
# Shear Modulus (GPa) = 24.13906 34.96516 29.55211
#
# Velocity S-wave (km/s) = 3.30826 3.98160 3.66044
# Velocity P-wave (km/s) = 4.75442 6.19789 5.52351
#
# Compressibility (1/GPa) = 0.05659168
#
# Stress axis : x y z
#
# Youngs Moduli (GPa) = 55.21945 41.30905 58.64415
#
# Poissons Ratio (x) = -0.01748 0.00940
# Poissons Ratio (y) = -0.02336 0.09686
# Poissons Ratio (z) = 0.00885 0.06823
#
# Static dielectric constant tensor:
#      x y z
#    x 2.028670 -0.051000 0.199840 
#    y -0.051000 1.915810 -0.061670 
#    z 0.199840 -0.061670 2.019390 
# 
# From -- ./inp_files/306910.got.cif
#   From: 2010.05.17/outbox.cif.g08.bks.cpg/sg2_154_cif.got.tgz:306910.got - 2010.06.03 11:33:40.
