data_PCOD9023942
_publ_section_title
;
Structure prediction by ZEFSAII (Michael W. Deem and Ramdas Pophale) SiO2 
 PCOD9023942
Probable space group: P -1
;
_chemical_formula_sum "Si O2"
_cell_formula_units_Z 16
_cell_length_a 10.056360
_cell_length_b 10.402140
_cell_length_c 18.994329
_cell_angle_alpha 128.587672
_cell_angle_beta 33.894529
_cell_angle_gamma 139.115487
_cell_volume 725.222545
_symmetry_space_group_name_H-M "P -1"
_symmetry_group_IT_number 2
_symmetry_cell_setting 'triclinic'
loop_
_space_group_symop_operation_xyz
x,y,z
-x,-y,-z
loop_
_atom_site_type_symbol
_atom_site_label
_atom_site_fract_x
_atom_site_fract_y
_atom_site_fract_z
Si Si1 0.965704 0.612797 0.965743
Si Si2 0.375307 0.723460 0.264448
Si Si3 0.800123 0.765567 0.210584
Si Si4 0.369508 0.381695 0.089600
Si Si5 0.690989 0.967268 0.068747
Si Si6 0.900213 0.811910 0.528124
Si Si7 0.674159 0.536864 0.314333
Si Si8 0.156090 0.960166 0.248573
O O1 0.174100 0.561248 0.822057
O O2 0.046638 0.812785 0.957855
O O3 0.960564 0.675167 0.069399
O O4 0.646500 0.435427 0.030834
O O5 0.610222 0.784788 0.243014
O O6 0.246305 0.495300 0.221602
O O7 0.530340 0.853972 0.171477
O O8 0.134818 0.759253 0.405558
O O9 0.585117 0.614168 0.312740
O O10 0.040314 0.941082 0.213665
O O11 0.500000 0.500000 0.000000
O O12 0.214167 0.155850 0.059627
O O13 0.461174 0.989105 0.133151
O O14 0.592653 0.621819 0.578352
O O15 0.000000 0.000000 0.500000
O O16 0.856144 0.878454 0.646674
O O17 0.925151 0.741658 0.307599
#
# Coordination Sequence:
#
# PCOD9023942 Si02
#       8
#     2   2   2   2   2   2   2   2
#     4  11  19  38  66  92 126 163 204 259 312 355
#     4  10  22  41  62  89 129 165 204 249 314 363
#     4   9  23  40  58  93 128 164 197 254 320 368
#     4   9  20  36  58  90 129 153 198 256 309 363
#     4  11  20  39  67  96 122 158 214 262 294 368
#     4  12  23  43  67  89 122 164 214 255 301 366
#     4  10  22  40  62  92 127 159 207 256 304 363
#     4  10  22  41  60  96 121 159 213 252 302 368
#
# _framework density 22.062194000000002
#
# number of rings (size 3 to 8) (size 9 to 14) (size 15 to 20)
#    0.750    1.000    3.750    0.375    0.000    6.500 
#    4.500    3.750    0.000    0.000    0.000    0.000 
#    0.000    0.000    0.000    0.000    0.000    0.000 
#
# Total GULP energy -89239.662877 kJ/mol
# GULP energy per Si atom -5577.478930 kJ/mol
# Density = 2.201198 g / cm^3
# Si number density = 22.062194 Si / 1000 Ang^3
#
#
#
# Elastic Constant Matrix: (Units=GPa)
#
#
# Indices 1 2 3 4 5 6 
#
# 1 72.9976 9.5168 25.7589 22.0908 -7.7434 6.4421
# 2 9.5168 86.4546 26.8583 7.6997 -10.7680 10.2486
# 3 25.7589 26.8583 85.8704 21.0794 -22.5510 -0.7720
# 4 22.0908 7.6997 21.0794 48.2310 -3.0782 3.7248
# 5 -7.7434 -10.7680 -22.5510 -3.0782 32.2213 4.4244
# 6 6.4421 10.2486 -0.7720 3.7248 4.4244 27.2724
#
#
#
# Elastic Compliance Matrix: (Units=1/GPa)
#
#
# Indices 1 2 3 4 5 6 
#
# 1 0.017192 0.000359 -0.003324 -0.006069 0.001862 -0.003763
# 2 0.000359 0.013724 -0.003662 -0.000122 0.002894 -0.005798
# 3 -0.003324 -0.003662 0.017559 -0.005098 0.009531 0.001809
# 4 -0.006069 -0.000122 -0.005098 0.025749 -0.002361 -0.001799
# 5 0.001862 0.002894 0.009531 -0.002361 0.039912 -0.007410
# 6 -0.003763 -0.005798 0.001809 -0.001799 -0.007410 0.041234
#
#
# Mechanical properties :
#
#
# Convention : Reuss Voigt Hill
#
# Bulk Modulus (GPa) = 28.39411 41.06562 34.72986
# Shear Modulus (GPa) = 27.72160 33.75750 30.73955
#
# Velocity S-wave (km/s) = 3.54859 3.91590 3.73676
# Velocity P-wave (km/s) = 5.44866 6.25297 5.86462
#
# Compressibility (1/GPa) = 0.03521858
#
# Stress axis : x y z
#
# Youngs Moduli (GPa) = 58.16797 72.86685 56.95117
#
# Poissons Ratio (x) = -0.02614 0.18932
# Poissons Ratio (y) = -0.02087 0.20857
# Poissons Ratio (z) = 0.19337 0.26686
#
# Static dielectric constant tensor:
#      x y z
#    x 1.880060 -0.032250 0.045780 
#    y -0.032250 1.858570 -0.001830 
#    z 0.045780 -0.001830 1.788210 
# 
# From -- ./inp_files/594962.got.cif
#   From: 2010.05.17/outbox.cif.g08.bks.cpg/sg2_298_cif.got.tgz:594962.got - 2010.06.03 11:33:40.
