data_PCOD9023341
_publ_section_title
;
Structure prediction by ZEFSAII (Michael W. Deem and Ramdas Pophale) SiO2 
 PCOD9023341
Probable space group: P -1
;
_chemical_formula_sum "Si O2"
_cell_formula_units_Z 16
_cell_length_a 9.077404
_cell_length_b 5.687614
_cell_length_c 15.803960
_cell_angle_alpha 60.756522
_cell_angle_beta 76.315700
_cell_angle_gamma 60.813862
_cell_volume 621.558471
_symmetry_space_group_name_H-M "P -1"
_symmetry_group_IT_number 2
_symmetry_cell_setting 'triclinic'
loop_
_space_group_symop_operation_xyz
x,y,z
-x,-y,-z
loop_
_atom_site_type_symbol
_atom_site_label
_atom_site_fract_x
_atom_site_fract_y
_atom_site_fract_z
Si Si1 0.008664 0.113818 0.781684
Si Si2 0.849237 0.682328 0.817791
Si Si3 0.283548 0.642185 0.443191
Si Si4 0.484701 0.767301 0.250592
Si Si5 0.309651 0.180043 0.666083
Si Si6 0.792968 0.279367 0.018806
Si Si7 0.543914 0.274313 0.928027
Si Si8 0.639078 0.853905 0.584382
O O1 0.158826 0.090374 0.703367
O O2 0.912011 0.457947 0.768607
O O3 0.087975 0.943504 0.889130
O O4 0.919263 0.930046 0.779688
O O5 0.650488 0.886314 0.798143
O O6 0.870366 0.493446 0.933508
O O7 0.437558 0.614805 0.363605
O O8 0.282093 0.450214 0.558657
O O9 0.223203 0.469921 0.410776
O O10 0.259960 0.955755 0.433474
O O11 0.667976 0.733113 0.255652
O O12 0.463617 0.659391 0.181249
O O13 0.493193 0.918263 0.662536
O O14 0.613519 0.449335 0.059337
O O15 0.726845 0.182007 0.959961
O O16 0.500000 0.000000 0.000000
O O17 0.500000 0.000000 0.500000
#
# Coordination Sequence:
#
# PCOD9023341 Si02
#       8
#     2   2   2   2   2   2   2   2
#     4  12  29  46  72 100 143 190 237 279 346 420
#     4  12  28  48  66 103 145 191 229 281 355 426
#     4  10  22  39  68 103 137 176 226 291 351 403
#     4  11  23  44  75 102 143 180 233 293 354 410
#     4  10  23  43  71 106 133 180 243 290 337 410
#     4  11  26  45  70 102 143 185 231 288 355 419
#     4  11  23  41  73 113 136 169 238 306 346 398
#     4   9  17  33  59  96 130 163 213 282 341 386
#
# _framework density 25.741744000000001
#
# number of rings (size 3 to 8) (size 9 to 14) (size 15 to 20)
#    0.000    1.250    1.250    5.625    7.000    6.000 
#    0.000    1.250    0.000    0.000    0.000    0.000 
#    0.000    0.000    0.000    0.000    0.000    0.000 
#
# Total GULP energy -89119.245219 kJ/mol
# GULP energy per Si atom -5569.952826 kJ/mol
# Density = 2.568315 g / cm^3
# Si number density = 25.741744 Si / 1000 Ang^3
#
#
#
# Elastic Constant Matrix: (Units=GPa)
#
#
# Indices 1 2 3 4 5 6 
#
# 1 39.4454 49.4082 16.3675 2.2912 -3.3621 17.6456
# 2 49.4082 161.6543 31.4584 -1.6032 -1.9443 33.6738
# 3 16.3675 31.4584 120.8130 -10.2238 -12.8022 10.6054
# 4 2.2912 -1.6032 -10.2238 43.2482 12.6459 3.3425
# 5 -3.3621 -1.9443 -12.8022 12.6459 18.3377 -2.0496
# 6 17.6456 33.6738 10.6054 3.3425 -2.0496 42.1153
#
#
#
# Elastic Compliance Matrix: (Units=1/GPa)
#
#
# Indices 1 2 3 4 5 6 
#
# 1 0.045691 -0.011785 -0.001928 -0.005107 0.008362 -0.008423
# 2 -0.011785 0.010754 -0.001084 0.002126 -0.003661 -0.003735
# 3 -0.001928 -0.001084 0.009522 0.000704 0.005638 -0.000505
# 4 -0.005107 0.002126 0.000704 0.030125 -0.021349 -0.003167
# 5 0.008362 -0.003661 0.005638 -0.021349 0.074708 0.003334
# 6 -0.008423 -0.003735 -0.000505 -0.003167 0.003334 0.030800
#
#
# Mechanical properties :
#
#
# Convention : Reuss Voigt Hill
#
# Bulk Modulus (GPa) = 27.49334 57.37567 42.43450
# Shear Modulus (GPa) = 20.54921 35.71883 28.13402
#
# Velocity S-wave (km/s) = 2.82846 3.72907 3.30954
# Velocity P-wave (km/s) = 4.62283 6.39364 5.57894
#
# Compressibility (1/GPa) = 0.03637244
#
# Stress axis : x y z
#
# Youngs Moduli (GPa) = 21.88627 92.98840 105.02097
#
# Poissons Ratio (x) = 1.09590 0.20249
# Poissons Ratio (y) = 0.25794 0.11381
# Poissons Ratio (z) = 0.04220 0.10077
#
# Static dielectric constant tensor:
#      x y z
#    x 2.051790 0.056960 0.028120 
#    y 0.056960 2.281050 0.014050 
#    z 0.028120 0.014050 2.091490 
# 
# From -- ./inp_files/552367.got.cif
#   From: 2010.05.17/outbox.cif.g08.bks.cpg/sg2_277_cif.got.tgz:552367.got - 2010.06.03 11:33:40.
