data_PCOD9023536
_publ_section_title
;
Structure prediction by ZEFSAII (Michael W. Deem and Ramdas Pophale) SiO2 
 PCOD9023536
Probable space group: P -1
;
_chemical_formula_sum "Si O2"
_cell_formula_units_Z 12
_cell_length_a 5.608398
_cell_length_b 10.455285
_cell_length_c 19.089382
_cell_angle_alpha 30.796248
_cell_angle_beta 125.684354
_cell_angle_gamma 116.343550
_cell_volume 461.048476
_symmetry_space_group_name_H-M "P -1"
_symmetry_group_IT_number 2
_symmetry_cell_setting 'triclinic'
loop_
_space_group_symop_operation_xyz
x,y,z
-x,-y,-z
loop_
_atom_site_type_symbol
_atom_site_label
_atom_site_fract_x
_atom_site_fract_y
_atom_site_fract_z
Si Si1 0.023924 0.234670 0.319917
Si Si2 0.872744 0.109359 0.854607
Si Si3 0.628059 0.460469 0.425234
Si Si4 0.981376 0.894245 0.261731
Si Si5 0.374516 0.705937 0.654388
Si Si6 0.614411 0.213301 0.138830
O O1 0.806490 0.391204 0.265854
O O2 0.797608 0.120484 0.283299
O O3 0.299388 0.609342 0.299104
O O4 0.266154 0.358502 0.256080
O O5 0.103391 0.116566 0.828223
O O6 0.656508 0.925024 0.869337
O O7 0.000000 0.000000 0.000000
O O8 0.802206 0.694614 0.363964
O O9 0.710031 0.368501 0.403822
O O10 0.693748 0.234313 0.598499
O O11 0.253429 0.006536 0.500238
O O12 0.865711 0.163951 0.145349
O O13 0.500000 0.500000 0.000000
#
# Coordination Sequence:
#
# PCOD9023536 Si02
#       6
#     2   2   2   2   2   2
#     4  10  23  41  63 106 136 182 229 294 356 428
#     4  11  27  44  69 102 138 189 238 295 361 434
#     4  10  22  42  71 102 133 186 231 305 354 428
#     4  10  23  45  69  99 136 180 244 290 365 426
#     4  10  22  39  71 100 140 176 236 293 358 422
#     4  11  26  44  67  96 140 190 236 293 363 427
#
# _framework density 26.027633999999999
#
# number of rings (size 3 to 8) (size 9 to 14) (size 15 to 20)
#    0.000    1.667    1.667    0.500    7.000    6.000 
#    0.000    0.000    0.000    0.000    0.000    0.000 
#    0.000    0.000    0.000    0.000    0.000    0.000 
#
# Total GULP energy -66948.186536 kJ/mol
# GULP energy per Si atom -5579.015545 kJ/mol
# Density = 2.596839 g / cm^3
# Si number density = 26.027634 Si / 1000 Ang^3
#
#
#
# Elastic Constant Matrix: (Units=GPa)
#
#
# Indices 1 2 3 4 5 6 
#
# 1 124.0433 55.0850 47.7708 0.7329 1.6097 -28.8147
# 2 55.0850 127.0483 34.1479 22.2349 -4.0236 -6.4957
# 3 47.7708 34.1479 86.0252 10.5698 11.5176 -17.0507
# 4 0.7329 22.2349 10.5698 44.4539 -12.5920 2.2059
# 5 1.6097 -4.0236 11.5176 -12.5920 23.5072 -4.3902
# 6 -28.8147 -6.4957 -17.0507 2.2059 -4.3902 70.0226
#
#
#
# Elastic Compliance Matrix: (Units=1/GPa)
#
#
# Indices 1 2 3 4 5 6 
#
# 1 0.013127 -0.004578 -0.005872 0.004503 0.004293 0.003675
# 2 -0.004578 0.011077 -0.001440 -0.005069 0.000004 -0.001047
# 3 -0.005872 -0.001440 0.018243 -0.007078 -0.012323 0.001342
# 4 0.004503 -0.005069 -0.007078 0.032169 0.019499 -0.000132
# 5 0.004293 0.000004 -0.012323 0.019499 0.059077 0.001856
# 6 0.003675 -0.001047 0.001342 -0.000132 0.001856 0.016144
#
#
# Mechanical properties :
#
#
# Convention : Reuss Voigt Hill
#
# Bulk Modulus (GPa) = 53.57183 67.90268 60.73725
# Shear Modulus (GPa) = 27.80271 40.93762 34.37017
#
# Velocity S-wave (km/s) = 3.27188 3.97022 3.63785
# Velocity P-wave (km/s) = 5.90770 6.86747 6.40559
#
# Compressibility (1/GPa) = 0.01866653
#
# Stress axis : x y z
#
# Youngs Moduli (GPa) = 76.17672 90.28041 54.81602
#
# Poissons Ratio (x) = 0.41327 0.32191
# Poissons Ratio (y) = 0.34870 0.07894
# Poissons Ratio (z) = 0.44735 0.13001
#
# Static dielectric constant tensor:
#      x y z
#    x 2.407210 0.103990 -0.030860 
#    y 0.103990 2.105920 0.002680 
#    z -0.030860 0.002680 2.073180 
# 
# From -- ./inp_files/33969.got.cif
#   From: 2010.05.17/outbox.cif.g08.bks.cpg/sg2_17_cif.got.tgz:33969.got - 2010.06.03 11:33:40.
