data_PCOD9023734
_publ_section_title
;
Structure prediction by ZEFSAII (Michael W. Deem and Ramdas Pophale) SiO2 
 PCOD9023734
Probable space group: P -1
;
_chemical_formula_sum "Si O2"
_cell_formula_units_Z 16
_cell_length_a 9.121223
_cell_length_b 6.680056
_cell_length_c 17.697276
_cell_angle_alpha 78.874236
_cell_angle_beta 90.000106
_cell_angle_gamma 46.944070
_cell_volume 759.929270
_symmetry_space_group_name_H-M "P -1"
_symmetry_group_IT_number 2
_symmetry_cell_setting 'triclinic'
loop_
_space_group_symop_operation_xyz
x,y,z
-x,-y,-z
loop_
_atom_site_type_symbol
_atom_site_label
_atom_site_fract_x
_atom_site_fract_y
_atom_site_fract_z
Si Si1 0.419463 0.005798 0.418857
Si Si2 0.074737 0.005799 0.418856
Si Si3 0.609041 0.935425 0.172132
Si Si4 0.300858 0.553888 0.325225
Si Si5 0.645254 0.553886 0.325227
Si Si6 0.360362 0.432702 0.917621
Si Si7 0.706942 0.432698 0.917621
Si Si8 0.044468 0.064578 0.827870
O O1 0.220326 0.059347 0.424771
O O2 0.365063 0.257755 0.351834
O O3 0.500000 0.000000 0.500000
O O4 0.581857 0.713984 0.393897
O O5 0.877180 0.257757 0.351833
O O6 0.204150 0.713993 0.393893
O O7 0.000000 0.000000 0.500000
O O8 0.607232 0.762966 0.247642
O O9 0.616335 0.809988 0.101510
O O10 0.806030 0.887937 0.184143
O O11 0.414484 0.272526 0.148654
O O12 0.495894 0.508211 0.314101
O O13 0.129806 0.762958 0.247637
O O14 0.569444 0.361114 0.916882
O O15 0.187012 0.727478 0.851346
O O16 0.295177 0.499995 0.000001
O O17 0.926330 0.190009 0.898493
#
# Coordination Sequence:
#
# PCOD9023734 Si02
#       8
#     2   2   2   2   2   2   2   2
#     4  11  24  41  63  91 121 156 198 243 294 351
#     4  11  24  41  63  91 121 156 198 243 294 351
#     4  11  23  38  60  89 118 154 199 244 295 352
#     4  11  24  41  61  87 120 157 198 244 294 350
#     4  11  24  41  61  87 120 157 198 244 294 350
#     4  10  22  40  61  87 120 157 197 243 296 353
#     4  10  22  40  61  87 120 157 197 243 296 353
#     4  11  23  38  60  89 118 154 199 244 295 352
#
# _framework density 21.054592
#
# number of rings (size 3 to 8) (size 9 to 14) (size 15 to 20)
#    0.000    1.250    0.000    5.250    0.000   13.500 
#    0.000    0.000    0.000    0.000    0.000    0.000 
#    0.000    0.000    0.000    0.000    0.000    0.000 
#
# Total GULP energy -89583.455067 kJ/mol
# GULP energy per Si atom -5598.965942 kJ/mol
# Density = 2.100667 g / cm^3
# Si number density = 21.054592 Si / 1000 Ang^3
#
#
#
# Elastic Constant Matrix: (Units=GPa)
#
#
# Indices 1 2 3 4 5 6 
#
# 1 75.6119 39.5366 4.1659 8.1778 -0.6400 -1.0456
# 2 39.5366 62.2646 -12.8933 0.6814 -0.6662 2.1823
# 3 4.1659 -12.8933 59.6631 -0.1830 -0.4501 1.1047
# 4 8.1778 0.6814 -0.1830 28.6239 0.6933 0.6757
# 5 -0.6400 -0.6662 -0.4501 0.6933 41.2987 1.9876
# 6 -1.0456 2.1823 1.1047 0.6757 1.9876 26.9501
#
#
#
# Elastic Compliance Matrix: (Units=1/GPa)
#
#
# Indices 1 2 3 4 5 6 
#
# 1 0.022024 -0.015006 -0.004844 -0.006024 0.000031 0.002417
# 2 -0.015006 0.027109 0.006979 0.003753 0.000371 -0.003185
# 3 -0.004844 0.006979 0.018643 0.001367 0.000293 -0.001573
# 4 -0.006024 0.003753 0.001367 0.036625 -0.000562 -0.001470
# 5 0.000031 0.000371 0.000293 -0.000562 0.024321 -0.001820
# 6 0.002417 -0.003185 -0.001573 -0.001470 -0.001820 0.037693
#
#
# Mechanical properties :
#
#
# Convention : Reuss Voigt Hill
#
# Bulk Modulus (GPa) = 23.78990 28.79534 26.29262
# Shear Modulus (GPa) = 24.25223 30.48989 27.37106
#
# Velocity S-wave (km/s) = 3.39761 3.80957 3.60947
# Velocity P-wave (km/s) = 5.16869 5.74949 5.46681
#
# Compressibility (1/GPa) = 0.04203464
#
# Stress axis : x y z
#
# Youngs Moduli (GPa) = 45.40482 36.88820 53.64005
#
# Poissons Ratio (x) = 0.55355 0.25982
# Poissons Ratio (y) = 0.68136 -0.37437
# Poissons Ratio (z) = 0.21993 -0.25746
#
# Static dielectric constant tensor:
#      x y z
#    x 1.690980 -0.002750 0.000490 
#    y -0.002750 1.734860 0.015520 
#    z 0.000490 0.015520 1.782090 
# 
# From -- ./inp_files/47287.got.cif
#   From: 2010.05.17/outbox.cif.g08.bks.cpg/sg2_24_cif.got.tgz:47287.got - 2010.06.03 11:33:40.
