data_PCOD9023517
_publ_section_title
;
Structure prediction by ZEFSAII (Michael W. Deem and Ramdas Pophale) SiO2 
 PCOD9023517
Probable space group: P -1
;
_chemical_formula_sum "Si O2"
_cell_formula_units_Z 14
_cell_length_a 30.165556
_cell_length_b 30.863385
_cell_length_c 12.434571
_cell_angle_alpha 160.729339
_cell_angle_beta 19.835175
_cell_angle_gamma 170.690259
_cell_volume 608.960203
_symmetry_space_group_name_H-M "P -1"
_symmetry_group_IT_number 2
_symmetry_cell_setting 'triclinic'
loop_
_space_group_symop_operation_xyz
x,y,z
-x,-y,-z
loop_
_atom_site_type_symbol
_atom_site_label
_atom_site_fract_x
_atom_site_fract_y
_atom_site_fract_z
Si Si1 0.059278 0.329566 0.677079
Si Si2 0.326552 0.664537 0.062037
Si Si3 0.415931 0.577846 0.089654
Si Si4 0.869913 0.212504 0.213250
Si Si5 0.419033 0.288579 0.737959
Si Si6 0.901904 0.017114 0.851608
Si Si7 0.234173 0.708293 0.861853
O O1 0.309358 0.554757 0.547747
O O2 0.859074 0.026506 0.409515
O O3 0.865614 0.282821 0.983958
O O4 0.210244 0.472766 0.782557
O O5 0.244246 0.741710 0.401386
O O6 0.165283 0.486160 0.121712
O O7 0.652747 0.952142 0.015864
O O8 0.588741 0.708540 0.109613
O O9 0.310819 0.634524 0.467932
O O10 0.612952 0.728596 0.891661
O O11 0.143955 0.247057 0.926244
O O12 0.878772 0.134910 0.117945
O O13 0.500000 0.500000 0.000000
O O14 0.000000 0.000000 0.500000
O O15 0.000000 0.500000 0.000000
O O16 0.500000 0.000000 0.000000
#
# Coordination Sequence:
#
# PCOD9023517 Si02
#       7
#     2   2   2   2   2   2   2
#     4  12  23  43  68 104 134 181 229 274 352 418
#     4  10  22  39  70  95 134 170 219 285 344 403
#     4  12  25  46  70  99 138 177 225 293 344 395
#     4  10  22  43  63  99 132 172 226 283 341 391
#     4  12  27  45  66  98 142 182 226 278 341 426
#     4  12  27  45  70  96 134 184 236 278 336 408
#     4  12  22  41  71 102 139 172 221 283 342 412
#
# _framework density 22.990006000000001
#
# number of rings (size 3 to 8) (size 9 to 14) (size 15 to 20)
#    0.000    0.571    2.857    5.143    0.000    6.857 
#    0.000    0.000    0.000    0.000    0.000    0.000 
#    0.000    0.000    0.000    0.000    0.000    0.000 
#
# Total GULP energy -78425.948015 kJ/mol
# GULP energy per Si atom -5601.853430 kJ/mol
# Density = 2.293768 g / cm^3
# Si number density = 22.990006 Si / 1000 Ang^3
#
#
#
# Elastic Constant Matrix: (Units=GPa)
#
#
# Indices 1 2 3 4 5 6 
#
# 1 68.9834 4.5014 11.6427 11.2150 5.7805 1.7640
# 2 4.5014 125.7920 19.7633 6.7829 8.5761 9.6726
# 3 11.6427 19.7633 61.2372 -1.1943 14.9687 8.5659
# 4 11.2150 6.7829 -1.1943 40.7436 3.2583 17.6237
# 5 5.7805 8.5761 14.9687 3.2583 25.8354 13.3048
# 6 1.7640 9.6726 8.5659 17.6237 13.3048 40.9773
#
#
#
# Elastic Compliance Matrix: (Units=1/GPa)
#
#
# Indices 1 2 3 4 5 6 
#
# 1 0.016079 0.000144 -0.002967 -0.005733 -0.002904 0.003303
# 2 0.000144 0.008512 -0.002474 -0.001151 -0.000915 -0.000706
# 3 -0.002967 -0.002474 0.020418 0.003404 -0.009833 -0.001828
# 4 -0.005733 -0.001151 0.003404 0.032813 0.003508 -0.015445
# 5 -0.002904 -0.000915 -0.009833 0.003508 0.053384 -0.016445
# 6 0.003303 -0.000706 -0.001828 -0.015445 -0.016445 0.036792
#
#
# Mechanical properties :
#
#
# Convention : Reuss Voigt Hill
#
# Bulk Modulus (GPa) = 29.05857 36.42527 32.74192
# Shear Modulus (GPa) = 26.30684 36.18494 31.24589
#
# Velocity S-wave (km/s) = 3.38638 3.97160 3.69061
# Velocity P-wave (km/s) = 5.28746 6.07534 5.69504
#
# Compressibility (1/GPa) = 0.03441325
#
# Stress axis : x y z
#
# Youngs Moduli (GPa) = 62.19451 117.48144 48.97573
#
# Poissons Ratio (x) = -0.01692 0.14533
# Poissons Ratio (y) = -0.00896 0.12119
# Poissons Ratio (z) = 0.18456 0.29070
#
# Static dielectric constant tensor:
#      x y z
#    x 1.965970 -0.053450 0.039740 
#    y -0.053450 1.842790 -0.039080 
#    z 0.039740 -0.039080 1.919660 
# 
# From -- ./inp_files/477842.got.cif
#   From: 2010.05.17/outbox.cif.g08.bks.cpg/sg2_239_cif.got.tgz:477842.got - 2010.06.03 11:33:40.
