data_PCOD9023039
_publ_section_title
;
Structure prediction by ZEFSAII (Michael W. Deem and Ramdas Pophale) SiO2 
 PCOD9023039
Probable space group: P -1
;
_chemical_formula_sum "Si O2"
_cell_formula_units_Z 16
_cell_length_a 7.770038
_cell_length_b 11.143248
_cell_length_c 14.850217
_cell_angle_alpha 131.899818
_cell_angle_beta 113.388404
_cell_angle_gamma 43.230409
_cell_volume 645.291057
_symmetry_space_group_name_H-M "P -1"
_symmetry_group_IT_number 2
_symmetry_cell_setting 'triclinic'
loop_
_space_group_symop_operation_xyz
x,y,z
-x,-y,-z
loop_
_atom_site_type_symbol
_atom_site_label
_atom_site_fract_x
_atom_site_fract_y
_atom_site_fract_z
Si Si1 0.726502 0.967168 0.983599
Si Si2 0.212113 0.660991 0.440300
Si Si3 0.125518 0.499003 0.882349
Si Si4 0.589231 0.049410 0.795443
Si Si5 0.636507 0.555772 0.810828
Si Si6 0.672280 0.043464 0.433527
Si Si7 0.401423 0.374934 0.690147
Si Si8 0.052548 0.662169 0.602714
O O1 0.986367 0.754428 0.977348
O O2 0.716472 0.934057 0.859056
O O3 0.500000 0.000000 0.000000
O O4 0.623213 0.207488 0.092412
O O5 0.365650 0.451404 0.302472
O O6 0.306604 0.787311 0.512924
O O7 0.185763 0.631466 0.522729
O O8 0.937792 0.826381 0.417735
O O9 0.382109 0.313441 0.899361
O O10 0.246811 0.412509 0.764065
O O11 0.893900 0.509280 0.862919
O O12 0.421149 0.006702 0.694316
O O13 0.813744 0.919968 0.702547
O O14 0.625780 0.376703 0.754061
O O15 0.497595 0.168103 0.548074
O O16 0.219216 0.572432 0.681583
O O17 0.000000 0.500000 0.500000
#
# Coordination Sequence:
#
# PCOD9023039 Si02
#       8
#     2   2   2   2   2   2   2   2
#     4  10  25  44  69  96 131 176 231 275 329 396
#     4  10  22  40  62  99 136 171 219 279 338 397
#     4  11  23  45  69  95 138 175 223 283 327 397
#     4  12  24  42  70 101 129 179 223 269 345 395
#     4  10  23  42  69  94 132 181 224 273 333 397
#     4  10  22  39  65  98 134 173 221 275 336 411
#     4  11  23  41  68  99 137 178 214 279 344 393
#     4  12  24  38  66 101 140 173 221 272 342 414
#
# _framework density 24.795013000000001
#
# number of rings (size 3 to 8) (size 9 to 14) (size 15 to 20)
#    0.000    1.250    3.750    1.500    1.750    7.500 
#    0.000    0.625    2.750    0.000    0.000    0.000 
#    0.000    0.000    0.000    0.000    0.000    0.000 
#
# Total GULP energy -89393.785940 kJ/mol
# GULP energy per Si atom -5587.111621 kJ/mol
# Density = 2.473858 g / cm^3
# Si number density = 24.795013 Si / 1000 Ang^3
#
#
#
# Elastic Constant Matrix: (Units=GPa)
#
#
# Indices 1 2 3 4 5 6 
#
# 1 82.0978 18.8328 14.5808 -1.3026 -15.1004 13.9506
# 2 18.8328 96.9244 17.1981 20.5840 1.1326 -10.1721
# 3 14.5808 17.1981 92.8010 17.6482 -16.5830 -2.2964
# 4 -1.3026 20.5840 17.6482 38.1457 -4.9766 -9.4859
# 5 -15.1004 1.1326 -16.5830 -4.9766 32.8232 2.8517
# 6 13.9506 -10.1721 -2.2964 -9.4859 2.8517 31.7299
#
#
#
# Elastic Compliance Matrix: (Units=1/GPa)
#
#
# Indices 1 2 3 4 5 6 
#
# 1 0.016469 -0.004561 -0.000906 0.002344 0.008398 -0.008822
# 2 -0.004561 0.013286 -0.001270 -0.006151 -0.004543 0.004742
# 3 -0.000906 -0.001270 0.013058 -0.004918 0.005569 -0.001035
# 4 0.002344 -0.006151 -0.004918 0.033944 0.003390 0.006485
# 5 0.008398 -0.004543 0.005569 0.003390 0.038438 -0.007187
# 6 -0.008822 0.004742 -0.001035 0.006485 -0.007187 0.039425
#
#
# Mechanical properties :
#
#
# Convention : Reuss Voigt Hill
#
# Bulk Modulus (GPa) = 34.08484 41.44963 37.76724
# Shear Modulus (GPa) = 28.10967 35.28720 31.69843
#
# Velocity S-wave (km/s) = 3.37067 3.77657 3.57938
# Velocity P-wave (km/s) = 5.37820 5.98079 5.68748
#
# Compressibility (1/GPa) = 0.02933855
#
# Stress axis : x y z
#
# Youngs Moduli (GPa) = 60.72074 75.26711 76.58048
#
# Poissons Ratio (x) = 0.34331 0.06936
# Poissons Ratio (y) = 0.27696 0.09728
# Poissons Ratio (z) = 0.05500 0.09561
#
# Static dielectric constant tensor:
#      x y z
#    x 2.021600 -0.058940 0.018360 
#    y -0.058940 2.027740 0.077130 
#    z 0.018360 0.077130 2.007350 
# 
# From -- ./inp_files/500859.got.cif
#   From: 2010.05.17/outbox.cif.g08.bks.cpg/sg2_251_cif.got.tgz:500859.got - 2010.06.03 11:33:40.
