data_PCOD9023485
_publ_section_title
;
Structure prediction by ZEFSAII (Michael W. Deem and Ramdas Pophale) SiO2 
 PCOD9023485
Probable space group: P -1
;
_chemical_formula_sum "Si O2"
_cell_formula_units_Z 16
_cell_length_a 20.654244
_cell_length_b 9.039946
_cell_length_c 14.833129
_cell_angle_alpha 123.026532
_cell_angle_beta 20.269799
_cell_angle_gamma 112.199039
_cell_volume 714.519231
_symmetry_space_group_name_H-M "P -1"
_symmetry_group_IT_number 2
_symmetry_cell_setting 'triclinic'
loop_
_space_group_symop_operation_xyz
x,y,z
-x,-y,-z
loop_
_atom_site_type_symbol
_atom_site_label
_atom_site_fract_x
_atom_site_fract_y
_atom_site_fract_z
Si Si1 0.020559 0.514077 0.263368
Si Si2 0.279818 0.926516 0.838135
Si Si3 0.437615 0.330208 0.001967
Si Si4 0.778202 0.652674 0.884121
Si Si5 0.402468 0.244401 0.478180
Si Si6 0.943821 0.318054 0.906390
Si Si7 0.587533 0.935448 0.763131
Si Si8 0.150700 0.088440 0.868878
O O1 0.206812 0.439975 0.068321
O O2 0.059097 0.648680 0.185664
O O3 0.789979 0.625439 0.644885
O O4 0.029349 0.313686 0.141653
O O5 0.464832 0.772346 0.609952
O O6 0.295821 0.958319 0.720295
O O7 0.102019 0.857545 0.059045
O O8 0.224938 0.137083 0.025288
O O9 0.406246 0.323585 0.933702
O O10 0.500000 0.500000 0.000000
O O11 0.595557 0.127423 0.775084
O O12 0.000000 0.500000 0.500000
O O13 0.526730 0.133131 0.188265
O O14 0.277696 0.123580 0.633681
O O15 0.236714 0.472386 0.753167
O O16 0.184274 0.253434 0.594448
O O17 0.500000 0.000000 0.000000
O O18 0.000000 0.000000 0.000000
#
# Coordination Sequence:
#
# PCOD9023485 Si02
#       8
#     2   2   2   2   2   2   2   2
#     4   9  21  42  61  95 136 173 219 279 331 400
#     4  11  22  42  71  98 134 180 230 276 334 406
#     4  11  23  41  65  95 131 172 230 275 336 401
#     4   9  20  40  64  90 129 173 218 277 327 387
#     4  11  24  45  66  97 138 180 228 279 330 402
#     4  11  24  43  66  99 138 176 221 277 342 404
#     4  12  25  45  67  97 140 178 221 281 343 402
#     4  10  22  39  70 100 131 175 227 276 335 390
#
# _framework density 22.392679000000001
#
# number of rings (size 3 to 8) (size 9 to 14) (size 15 to 20)
#    0.000    1.500    2.500    1.875    7.000    1.000 
#    2.250    3.125    0.000    0.000    0.000    0.000 
#    0.000    0.000    0.000    0.000    0.000    0.000 
#
# Total GULP energy -89290.211941 kJ/mol
# GULP energy per Si atom -5580.638246 kJ/mol
# Density = 2.234171 g / cm^3
# Si number density = 22.392679 Si / 1000 Ang^3
#
#
#
# Elastic Constant Matrix: (Units=GPa)
#
#
# Indices 1 2 3 4 5 6 
#
# 1 150.3782 44.0918 25.2412 11.2721 7.3325 -4.3485
# 2 44.0918 70.1349 2.5718 8.0959 0.3426 -8.6898
# 3 25.2412 2.5718 57.2427 20.9987 1.6535 1.3848
# 4 11.2721 8.0959 20.9987 34.5959 -6.4269 -6.4712
# 5 7.3325 0.3426 1.6535 -6.4269 30.5155 5.4920
# 6 -4.3485 -8.6898 1.3848 -6.4712 5.4920 33.5773
#
#
#
# Elastic Compliance Matrix: (Units=1/GPa)
#
#
# Indices 1 2 3 4 5 6 
#
# 1 0.008971 -0.005501 -0.003799 0.000376 -0.001858 0.000271
# 2 -0.005501 0.018453 0.002906 -0.003754 -0.000425 0.003290
# 3 -0.003799 0.002906 0.024992 -0.015825 -0.003214 -0.003295
# 4 0.000376 -0.003754 -0.015825 0.042052 0.008506 0.006443
# 5 -0.001858 -0.000425 -0.003214 0.008506 0.035991 -0.004465
# 6 0.000271 0.003290 -0.003295 0.006443 -0.004465 0.032776
#
#
# Mechanical properties :
#
#
# Convention : Reuss Voigt Hill
#
# Bulk Modulus (GPa) = 25.23514 46.84059 36.03786
# Shear Modulus (GPa) = 26.42260 33.46117 29.94188
#
# Velocity S-wave (km/s) = 3.43879 3.86980 3.66064
# Velocity P-wave (km/s) = 5.20201 6.39768 5.83058
#
# Compressibility (1/GPa) = 0.03962729
#
# Stress axis : x y z
#
# Youngs Moduli (GPa) = 111.47248 54.19167 40.01290
#
# Poissons Ratio (x) = 0.29812 0.15203
# Poissons Ratio (y) = 0.61323 -0.11629
# Poissons Ratio (z) = 0.42354 -0.15750
#
# Static dielectric constant tensor:
#      x y z
#    x 1.925000 -0.013220 -0.017840 
#    y -0.013220 1.774800 0.009140 
#    z -0.017840 0.009140 1.920010 
# 
# From -- ./inp_files/329058.got.cif
#   From: 2010.05.17/outbox.cif.g08.bks.cpg/sg2_165_cif.got.tgz:329058.got - 2010.06.03 11:33:40.
