data_PCOD9023065
_publ_section_title
;
Structure prediction by ZEFSAII (Michael W. Deem and Ramdas Pophale) SiO2 
 PCOD9023065
Probable space group: P -1
;
_chemical_formula_sum "Si O2"
_cell_formula_units_Z 16
_cell_length_a 7.745134
_cell_length_b 8.031445
_cell_length_c 20.371687
_cell_angle_alpha 121.478109
_cell_angle_beta 40.379924
_cell_angle_gamma 106.288606
_cell_volume 684.194049
_symmetry_space_group_name_H-M "P -1"
_symmetry_group_IT_number 2
_symmetry_cell_setting 'triclinic'
loop_
_space_group_symop_operation_xyz
x,y,z
-x,-y,-z
loop_
_atom_site_type_symbol
_atom_site_label
_atom_site_fract_x
_atom_site_fract_y
_atom_site_fract_z
Si Si1 0.223476 0.366588 0.451947
Si Si2 0.961657 0.614907 0.938633
Si Si3 0.139721 0.546069 0.297051
Si Si4 0.570828 0.177333 0.924041
Si Si5 0.733849 0.059451 0.634157
Si Si6 0.835179 0.293615 0.241995
Si Si7 0.369485 0.778645 0.927265
Si Si8 0.129457 0.139866 0.790542
O O1 0.090795 0.397245 0.568796
O O2 0.525835 0.402239 0.369759
O O3 0.000000 0.500000 0.500000
O O4 0.267405 0.139521 0.366480
O O5 0.097218 0.684899 0.848640
O O6 0.070576 0.743993 0.989416
O O7 0.638498 0.667822 0.027698
O O8 0.063519 0.379607 0.873279
O O9 0.022302 0.419934 0.251170
O O10 0.233775 0.749632 0.294787
O O11 0.418824 0.397436 0.206665
O O12 0.441618 0.981673 0.922818
O O13 0.582063 0.232935 0.010301
O O14 0.891405 0.134451 0.804441
O O15 0.457742 0.099956 0.678964
O O16 0.000000 0.000000 0.500000
O O17 0.892192 0.061952 0.202163
#
# Coordination Sequence:
#
# PCOD9023065 Si02
#       8
#     2   2   2   2   2   2   2   2
#     4  10  22  39  66 100 130 173 228 273 339 414
#     4  12  24  43  71  98 136 184 227 275 342 402
#     4  11  19  43  65  93 135 177 216 277 340 393
#     4  11  23  43  64 103 137 174 234 282 330 400
#     4   9  21  40  67  93 132 174 211 278 340 392
#     4  11  23  43  67  99 136 177 225 281 339 401
#     4  11  22  42  70  95 141 181 220 285 340 393
#     4  11  23  42  67  98 137 173 225 284 327 403
#
# _framework density 23.385176999999999
#
# number of rings (size 3 to 8) (size 9 to 14) (size 15 to 20)
#    0.000    1.250    3.750    2.625    1.750    0.500 
#    2.250    3.125    0.000    0.000    0.000    0.000 
#    0.000    0.000    0.000    0.000    0.000    0.000 
#
# Total GULP energy -89293.398756 kJ/mol
# GULP energy per Si atom -5580.837422 kJ/mol
# Density = 2.333195 g / cm^3
# Si number density = 23.385177 Si / 1000 Ang^3
#
#
#
# Elastic Constant Matrix: (Units=GPa)
#
#
# Indices 1 2 3 4 5 6 
#
# 1 170.5993 65.8185 52.3737 10.5427 -38.0860 16.9487
# 2 65.8185 99.4764 24.2164 24.7301 -6.4168 15.4386
# 3 52.3737 24.2164 70.7519 6.9589 -25.2973 -8.9818
# 4 10.5427 24.7301 6.9589 36.6337 4.3390 -3.6567
# 5 -38.0860 -6.4168 -25.2973 4.3390 50.3804 -0.4050
# 6 16.9487 15.4386 -8.9818 -3.6567 -0.4050 31.7206
#
#
#
# Elastic Compliance Matrix: (Units=1/GPa)
#
#
# Indices 1 2 3 4 5 6 
#
# 1 0.010972 -0.004911 -0.005297 0.000088 0.004962 -0.004898
# 2 -0.004911 0.017870 -0.003290 -0.010583 -0.002244 -0.008254
# 3 -0.005297 -0.003290 0.023271 -0.000446 0.007389 0.011064
# 4 0.000088 -0.010583 -0.000446 0.035942 -0.004529 0.009063
# 5 0.004962 -0.002244 0.007389 -0.004529 0.027418 0.000361
# 6 -0.004898 -0.008254 0.011064 0.009063 0.000361 0.042342
#
#
# Mechanical properties :
#
#
# Convention : Reuss Voigt Hill
#
# Bulk Modulus (GPa) = 39.81384 69.51611 54.66498
# Shear Modulus (GPa) = 25.88205 36.97489 31.42847
#
# Velocity S-wave (km/s) = 3.33043 3.98065 3.66997
# Velocity P-wave (km/s) = 5.64369 7.13572 6.43311
#
# Compressibility (1/GPa) = 0.02511690
#
# Stress axis : x y z
#
# Youngs Moduli (GPa) = 91.14356 55.95834 42.97121
#
# Poissons Ratio (x) = 0.27483 0.22762
# Poissons Ratio (y) = 0.44764 0.14137
# Poissons Ratio (z) = 0.48279 0.18410
#
# Static dielectric constant tensor:
#      x y z
#    x 1.938200 0.044280 -0.017780 
#    y 0.044280 1.950540 -0.020230 
#    z -0.017780 -0.020230 1.938310 
# 
# From -- ./inp_files/587503.got.cif
#   From: 2010.05.17/outbox.cif.g08.bks.cpg/sg2_294_cif.got.tgz:587503.got - 2010.06.03 11:33:40.
