data_PCOD9023212
_publ_section_title
;
Structure prediction by ZEFSAII (Michael W. Deem and Ramdas Pophale) SiO2 
 PCOD9023212
Probable space group: P -1
;
_chemical_formula_sum "Si O2"
_cell_formula_units_Z 12
_cell_length_a 11.207782
_cell_length_b 9.191565
_cell_length_c 9.574522
_cell_angle_alpha 133.969819
_cell_angle_beta 93.797276
_cell_angle_gamma 115.209422
_cell_volume 533.906937
_symmetry_space_group_name_H-M "P -1"
_symmetry_group_IT_number 2
_symmetry_cell_setting 'triclinic'
loop_
_space_group_symop_operation_xyz
x,y,z
-x,-y,-z
loop_
_atom_site_type_symbol
_atom_site_label
_atom_site_fract_x
_atom_site_fract_y
_atom_site_fract_z
Si Si1 0.662909 0.168339 0.527835
Si Si2 0.991899 0.447979 0.627303
Si Si3 0.046947 0.356488 0.995545
Si Si4 0.633162 0.523384 0.607327
Si Si5 0.834662 0.764086 0.515470
Si Si6 0.528673 0.605610 0.227703
O O1 0.809262 0.203534 0.492119
O O2 0.601892 0.250870 0.456650
O O3 0.766496 0.417080 0.811232
O O4 0.558761 0.880992 0.400385
O O5 0.000000 0.500000 0.500000
O O6 0.029390 0.684431 0.884365
O O7 0.105341 0.387013 0.629057
O O8 0.000000 0.500000 0.000000
O O9 0.978316 0.082599 0.737716
O O10 0.500000 0.500000 0.500000
O O11 0.780623 0.690973 0.625811
O O12 0.615478 0.597656 0.810781
O O13 0.686425 0.682528 0.360283
O O14 0.500000 0.500000 0.000000
#
# Coordination Sequence:
#
# PCOD9023212 Si02
#       6
#     2   2   2   2   2   2
#     4  10  22  42  65  97 130 161 226 260 335 373
#     4  10  22  39  67 103 130 162 212 282 325 383
#     4  10  22  39  68 100 129 168 205 287 327 378
#     4  10  23  43  66  90 132 180 216 258 316 400
#     4  11  21  46  68  99 131 168 224 262 340 384
#     4  11  25  43  65  95 131 179 218 266 313 396
#
# _framework density 22.475828
#
# number of rings (size 3 to 8) (size 9 to 14) (size 15 to 20)
#    1.000    0.667    3.333    0.500    0.000    9.333 
#    6.000    1.667    0.000    0.000    0.000    0.000 
#    0.000    0.000    0.000    0.000    0.000    0.000 
#
# Total GULP energy -66875.121443 kJ/mol
# GULP energy per Si atom -5572.926787 kJ/mol
# Density = 2.242467 g / cm^3
# Si number density = 22.475828 Si / 1000 Ang^3
#
#
#
# Elastic Constant Matrix: (Units=GPa)
#
#
# Indices 1 2 3 4 5 6 
#
# 1 96.3142 17.7652 11.2190 0.0208 16.8263 -30.7314
# 2 17.7652 104.1408 18.8467 -16.9411 18.2559 -5.3514
# 3 11.2190 18.8467 85.1833 -13.5587 1.0311 -4.2194
# 4 0.0208 -16.9411 -13.5587 38.5240 0.4014 -2.9991
# 5 16.8263 18.2559 1.0311 0.4014 22.0740 -4.0164
# 6 -30.7314 -5.3514 -4.2194 -2.9991 -4.0164 51.6034
#
#
#
# Elastic Compliance Matrix: (Units=1/GPa)
#
#
# Indices 1 2 3 4 5 6 
#
# 1 0.014788 -0.000149 -0.001379 0.000160 -0.009644 0.007937
# 2 -0.000149 0.012596 -0.001811 0.005052 -0.010208 0.000569
# 3 -0.001379 -0.001811 0.012918 0.003763 0.001954 0.000418
# 4 0.000160 0.005052 0.003763 0.029731 -0.004599 0.002297
# 5 -0.009644 -0.010208 0.001954 -0.004599 0.060690 -0.002186
# 6 0.007937 0.000569 0.000418 0.002297 -0.002186 0.024162
#
#
# Mechanical properties :
#
#
# Convention : Reuss Voigt Hill
#
# Bulk Modulus (GPa) = 29.74154 42.36668 36.05411
# Shear Modulus (GPa) = 28.93999 38.29414 33.61706
#
# Velocity S-wave (km/s) = 3.59221 4.13218 3.87162
# Velocity P-wave (km/s) = 5.51967 6.45425 6.00517
#
# Compressibility (1/GPa) = 0.03362301
#
# Stress axis : x y z
#
# Youngs Moduli (GPa) = 67.62180 79.38969 77.41260
#
# Poissons Ratio (x) = 0.01180 0.10679
# Poissons Ratio (y) = 0.01005 0.14022
# Poissons Ratio (z) = 0.09328 0.14380
#
# Static dielectric constant tensor:
#      x y z
#    x 2.008830 0.070720 -0.003930 
#    y 0.070720 1.913350 -0.014420 
#    z -0.003930 -0.014420 1.851070 
# 
# From -- ./inp_files/241542.got.cif
#   From: 2010.05.17/outbox.cif.g08.bks.cpg/sg2_121_cif.got.tgz:241542.got - 2010.06.03 11:33:40.
