data_PCOD9023124
_publ_section_title
;
Structure prediction by ZEFSAII (Michael W. Deem and Ramdas Pophale) SiO2 
 PCOD9023124
Probable space group: P -1
;
_chemical_formula_sum "Si O2"
_cell_formula_units_Z 16
_cell_length_a 18.113849
_cell_length_b 5.963359
_cell_length_c 7.942841
_cell_angle_alpha 62.541028
_cell_angle_beta 110.865968
_cell_angle_gamma 121.911922
_cell_volume 639.016921
_symmetry_space_group_name_H-M "P -1"
_symmetry_group_IT_number 2
_symmetry_cell_setting 'triclinic'
loop_
_space_group_symop_operation_xyz
x,y,z
-x,-y,-z
loop_
_atom_site_type_symbol
_atom_site_label
_atom_site_fract_x
_atom_site_fract_y
_atom_site_fract_z
Si Si1 0.867737 0.194226 0.548932
Si Si2 0.431284 0.260509 0.407234
Si Si3 0.420128 0.687102 0.718496
Si Si4 0.301207 0.318819 0.041680
Si Si5 0.975767 0.867493 0.842066
Si Si6 0.148375 0.305934 0.758228
Si Si7 0.737895 0.662979 0.487772
Si Si8 0.182543 0.694236 0.156709
O O1 0.897236 0.485569 0.373747
O O2 0.850453 0.235628 0.715187
O O3 0.925834 0.022996 0.649265
O O4 0.776711 0.981747 0.465418
O O5 0.500000 0.500000 0.500000
O O6 0.481209 0.244144 0.279449
O O7 0.348107 0.303579 0.257920
O O8 0.406689 0.965982 0.581992
O O9 0.361071 0.467843 0.605344
O O10 0.378548 0.538880 0.911217
O O11 0.250363 0.998668 0.036587
O O12 0.216281 0.386128 0.942017
O O13 0.908766 0.541567 0.910626
O O14 0.072998 0.987032 0.802050
O O15 0.000000 0.000000 0.000000
O O16 0.209265 0.353577 0.629642
O O17 0.758738 0.469740 0.701550
#
# Coordination Sequence:
#
# PCOD9023124 Si02
#       8
#     2   2   2   2   2   2   2   2
#     4  10  22  39  66  93 132 179 228 280 336 390
#     4  11  25  45  72 101 136 173 217 282 338 405
#     4  10  23  44  68 101 134 171 222 270 342 407
#     4  11  23  44  70  98 140 177 222 275 342 399
#     4  11  24  41  60  95 134 182 233 276 336 384
#     4  10  23  40  62  96 131 178 230 278 330 400
#     4   9  20  40  66  94 128 176 221 276 339 393
#     4  10  22  41  65  93 136 176 222 282 326 395
#
# _framework density 25.038461999999999
#
# number of rings (size 3 to 8) (size 9 to 14) (size 15 to 20)
#    0.000    1.750    1.250    1.500    1.750   10.000 
#    0.000    7.500    0.000    0.000    0.000    0.000 
#    0.000    0.000    0.000    0.000    0.000    0.000 
#
# Total GULP energy -89448.424665 kJ/mol
# GULP energy per Si atom -5590.526542 kJ/mol
# Density = 2.498147 g / cm^3
# Si number density = 25.038462 Si / 1000 Ang^3
#
#
#
# Elastic Constant Matrix: (Units=GPa)
#
#
# Indices 1 2 3 4 5 6 
#
# 1 91.2907 -1.2264 25.4900 -11.2400 8.3385 16.5156
# 2 -1.2264 142.8332 47.7878 -8.5029 4.2656 15.8326
# 3 25.4900 47.7878 123.2085 -21.8149 18.8136 13.0169
# 4 -11.2400 -8.5029 -21.8149 52.5732 6.7936 -3.3154
# 5 8.3385 4.2656 18.8136 6.7936 33.6297 -2.5174
# 6 16.5156 15.8326 13.0169 -3.3154 -2.5174 25.7095
#
#
#
# Elastic Compliance Matrix: (Units=1/GPa)
#
#
# Indices 1 2 3 4 5 6 
#
# 1 0.013781 0.001944 -0.001558 0.002544 -0.004004 -0.009325
# 2 0.001944 0.008645 -0.003156 0.000221 -0.000229 -0.004969
# 3 -0.001558 -0.003156 0.011938 0.004828 -0.007104 -0.003172
# 4 0.002544 0.000221 0.004828 0.022514 -0.008065 -0.002100
# 5 -0.004004 -0.000229 -0.007104 -0.008065 0.037027 0.008896
# 6 -0.009325 -0.004969 -0.003172 -0.002100 0.008896 0.050153
#
#
# Mechanical properties :
#
#
# Convention : Reuss Voigt Hill
#
# Bulk Modulus (GPa) = 34.69424 55.71500 45.20462
# Shear Modulus (GPa) = 31.40609 41.40121 36.40365
#
# Velocity S-wave (km/s) = 3.54547 4.07074 3.81715
# Velocity P-wave (km/s) = 5.53597 6.66293 6.12542
#
# Compressibility (1/GPa) = 0.02882323
#
# Stress axis : x y z
#
# Youngs Moduli (GPa) = 72.56258 115.67972 83.76858
#
# Poissons Ratio (x) = -0.22493 0.13054
# Poissons Ratio (y) = -0.14109 0.26439
# Poissons Ratio (z) = 0.11308 0.36510
#
# Static dielectric constant tensor:
#      x y z
#    x 2.048560 -0.005370 -0.029080 
#    y -0.005370 1.968030 -0.007420 
#    z -0.029080 -0.007420 2.072420 
# 
# From -- ./inp_files/340158.got.cif
#   From: 2010.05.17/outbox.cif.g08.bks.cpg/sg2_171_cif.got.tgz:340158.got - 2010.06.03 11:33:40.
