data_PCOD9023268
_publ_section_title
;
Structure prediction by ZEFSAII (Michael W. Deem and Ramdas Pophale) SiO2 
 PCOD9023268
Probable space group: P -1
;
_chemical_formula_sum "Si O2"
_cell_formula_units_Z 16
_cell_length_a 10.552166
_cell_length_b 9.299523
_cell_length_c 18.735267
_cell_angle_alpha 127.982726
_cell_angle_beta 28.549305
_cell_angle_gamma 136.129374
_cell_volume 608.045873
_symmetry_space_group_name_H-M "P -1"
_symmetry_group_IT_number 2
_symmetry_cell_setting 'triclinic'
loop_
_space_group_symop_operation_xyz
x,y,z
-x,-y,-z
loop_
_atom_site_type_symbol
_atom_site_label
_atom_site_fract_x
_atom_site_fract_y
_atom_site_fract_z
Si Si1 0.957156 0.759308 0.080200
Si Si2 0.152720 0.537252 0.079620
Si Si3 0.172030 0.084740 0.169510
Si Si4 0.689312 0.300059 0.610321
Si Si5 0.249623 0.170277 0.979650
Si Si6 0.713349 0.261860 0.427258
Si Si7 0.056348 0.687883 0.316218
Si Si8 0.112278 0.004792 0.562830
O O1 0.011913 0.603240 0.953714
O O2 0.604907 0.687134 0.215669
O O3 0.036773 0.827724 0.144628
O O4 0.168647 0.007899 0.035573
O O5 0.477681 0.734931 0.960147
O O6 0.206924 0.370684 0.050628
O O7 0.987499 0.604116 0.241732
O O8 0.961841 0.184087 0.273829
O O9 0.116247 0.086613 0.284717
O O10 0.593359 0.205065 0.549583
O O11 0.000000 0.500000 0.500000
O O12 0.793415 0.163057 0.562895
O O13 0.597675 0.247435 0.820972
O O14 0.000000 0.000000 0.000000
O O15 0.437065 0.167381 0.481956
O O16 0.865178 0.503424 0.407916
O O17 0.004188 0.884603 0.399680
#
# Coordination Sequence:
#
# PCOD9023268 Si02
#       8
#     2   2   2   2   2   2   2   2
#     4  11  20  39  69  98 124 167 238 273 314 387
#     4  11  23  39  68  99 126 176 223 278 324 397
#     4  11  19  41  69  94 130 172 233 271 320 395
#     4  11  23  42  71  97 127 176 232 274 317 398
#     4  10  22  39  67  95 128 174 227 275 323 396
#     4  11  21  42  68  95 129 182 223 267 327 407
#     4  12  24  41  65 102 139 170 217 278 346 393
#     4  11  24  41  64  99 137 178 213 275 345 388
#
# _framework density 26.313804000000001
#
# number of rings (size 3 to 8) (size 9 to 14) (size 15 to 20)
#    0.000    1.000    5.000    3.750    1.750    0.500 
#    0.000    3.750    0.000    0.000    0.000    0.000 
#    0.000    0.000    0.000    0.000    0.000    0.000 
#
# Total GULP energy -89272.477839 kJ/mol
# GULP energy per Si atom -5579.529865 kJ/mol
# Density = 2.625391 g / cm^3
# Si number density = 26.313804 Si / 1000 Ang^3
#
#
#
# Elastic Constant Matrix: (Units=GPa)
#
#
# Indices 1 2 3 4 5 6 
#
# 1 72.5732 22.2446 -7.5859 7.5930 0.2196 -1.0470
# 2 22.2446 113.1969 23.3386 -8.5658 0.5213 12.7385
# 3 -7.5859 23.3386 43.8016 0.9181 14.7629 -3.0264
# 4 7.5930 -8.5658 0.9181 49.2553 16.0914 6.8603
# 5 0.2196 0.5213 14.7629 16.0914 36.1828 9.3602
# 6 -1.0470 12.7385 -3.0264 6.8603 9.3602 45.1284
#
#
#
# Elastic Compliance Matrix: (Units=1/GPa)
#
#
# Indices 1 2 3 4 5 6 
#
# 1 0.016471 -0.005209 0.006622 -0.003340 -0.002078 0.003235
# 2 -0.005209 0.012594 -0.009371 0.002656 0.003921 -0.005521
# 3 0.006622 -0.009371 0.035253 0.001045 -0.016958 0.008521
# 4 -0.003340 0.002656 0.001045 0.025190 -0.011054 -0.002294
# 5 -0.002078 0.003921 -0.016958 -0.011054 0.041831 -0.009288
# 6 0.003235 -0.005521 0.008521 -0.002294 -0.009288 0.026639
#
#
# Mechanical properties :
#
#
# Convention : Reuss Voigt Hill
#
# Bulk Modulus (GPa) = 20.66088 33.95180 27.30634
# Shear Modulus (GPa) = 26.31178 38.88493 32.59835
#
# Velocity S-wave (km/s) = 3.16559 3.84831 3.52352
# Velocity P-wave (km/s) = 4.60761 5.71635 5.19166
#
# Compressibility (1/GPa) = 0.04840065
#
# Stress axis : x y z
#
# Youngs Moduli (GPa) = 60.71454 79.40116 28.36656
#
# Poissons Ratio (x) = 0.41362 -0.18785
# Poissons Ratio (y) = 0.31628 0.26583
# Poissons Ratio (z) = -0.40206 0.74410
#
# Static dielectric constant tensor:
#      x y z
#    x 1.519480 0.056860 -0.421790 
#    y 0.056860 2.198400 0.110220 
#    z -0.421790 0.110220 1.693890 
# 
# From -- ./inp_files/559277.got.cif
#   From: 2010.05.17/outbox.cif.g08.bks.cpg/sg2_280_cif.got.tgz:559277.got - 2010.06.03 11:33:40.
