data_PCOD9023605
_publ_section_title
;
Structure prediction by ZEFSAII (Michael W. Deem and Ramdas Pophale) SiO2 
 PCOD9023605
Probable space group: P -1
;
_chemical_formula_sum "Si O2"
_cell_formula_units_Z 16
_cell_length_a 6.000620
_cell_length_b 32.210401
_cell_length_c 7.617438
_cell_angle_alpha 133.556419
_cell_angle_beta 73.274039
_cell_angle_gamma 133.561032
_cell_volume 722.463096
_symmetry_space_group_name_H-M "P -1"
_symmetry_group_IT_number 2
_symmetry_cell_setting 'triclinic'
loop_
_space_group_symop_operation_xyz
x,y,z
-x,-y,-z
loop_
_atom_site_type_symbol
_atom_site_label
_atom_site_fract_x
_atom_site_fract_y
_atom_site_fract_z
Si Si1 0.559976 0.813058 0.696918
Si Si2 0.379200 0.054200 0.025738
Si Si3 0.091527 0.377449 0.337487
Si Si4 0.653067 0.333256 0.814162
Si Si5 0.778626 0.096184 0.405176
Si Si6 0.590630 0.716890 0.630610
Si Si7 0.100027 0.250346 0.983212
Si Si8 0.196093 0.482538 0.311301
O O1 0.285955 0.722800 0.413653
O O2 0.650851 0.795096 0.802097
O O3 0.868514 0.858325 0.627930
O O4 0.496559 0.868989 0.884463
O O5 0.389617 0.992872 0.759071
O O6 0.570707 0.084157 0.253915
O O7 0.000000 0.000000 0.000000
O O8 0.179385 0.424824 0.276247
O O9 0.421882 0.434942 0.548079
O O10 0.785418 0.355132 0.431108
O O11 0.986569 0.293938 0.085378
O O12 0.411239 0.310402 0.643144
O O13 0.442634 0.300693 0.945134
O O14 0.982047 0.426966 0.030696
O O15 0.853071 0.157640 0.709112
O O16 0.818101 0.736316 0.791205
O O17 0.000000 0.500000 0.500000
#
# Coordination Sequence:
#
# PCOD9023605 Si02
#       8
#     2   2   2   2   2   2   2   2
#     4   8  19  35  58  86 118 158 197 245 288 357
#     4   9  17  34  58  93 120 149 205 241 285 360
#     4  11  23  36  64  88 118 162 201 252 302 356
#     4   9  20  40  62  81 121 162 191 252 302 341
#     4   9  19  33  62  88 117 164 191 242 305 342
#     4  10  22  40  57  93 122 155 207 250 290 357
#     4  11  21  40  60  89 124 156 201 248 296 363
#     4  11  21  41  62  87 121 157 205 253 300 359
#
# _framework density 22.146460999999999
#
# number of rings (size 3 to 8) (size 9 to 14) (size 15 to 20)
#    0.750    1.500    2.500    0.000    1.750    2.500 
#    2.250    3.125    0.000    7.500    0.000    0.000 
#    0.000    0.000    0.000    0.000    0.000    0.000 
#
# Total GULP energy -89208.826984 kJ/mol
# GULP energy per Si atom -5575.551687 kJ/mol
# Density = 2.209605 g / cm^3
# Si number density = 22.146461 Si / 1000 Ang^3
#
#
#
# Elastic Constant Matrix: (Units=GPa)
#
#
# Indices 1 2 3 4 5 6 
#
# 1 49.6388 7.7715 33.2296 8.4047 3.7652 -7.8817
# 2 7.7715 51.6567 24.8839 -4.1648 -13.1691 -12.2852
# 3 33.2296 24.8839 140.3366 11.9051 12.0979 -14.8626
# 4 8.4047 -4.1648 11.9051 23.3535 -7.2213 0.2029
# 5 3.7652 -13.1691 12.0979 -7.2213 19.7363 8.7766
# 6 -7.8817 -12.2852 -14.8626 0.2029 8.7766 40.2472
#
#
#
# Elastic Compliance Matrix: (Units=1/GPa)
#
#
# Indices 1 2 3 4 5 6 
#
# 1 0.027600 -0.008008 -0.001402 -0.016493 -0.018723 0.006609
# 2 -0.008008 0.041716 -0.013380 0.033301 0.052109 -0.005307
# 3 -0.001402 -0.013380 0.014389 -0.017631 -0.027015 0.006935
# 4 -0.016493 0.033301 -0.017631 0.087131 0.075370 -0.016451
# 5 -0.018723 0.052109 -0.027015 0.075370 0.146517 -0.030068
# 6 0.006609 -0.005307 0.006935 -0.016451 -0.030068 0.033722
#
#
# Mechanical properties :
#
#
# Convention : Reuss Voigt Hill
#
# Bulk Modulus (GPa) = 26.22949 41.48911 33.85930
# Shear Modulus (GPa) = 12.21409 28.38386 20.29897
#
# Velocity S-wave (km/s) = 2.35098 3.58389 3.03079
# Velocity P-wave (km/s) = 4.38621 5.99169 5.25067
#
# Compressibility (1/GPa) = 0.03812503
#
# Stress axis : x y z
#
# Youngs Moduli (GPa) = 36.23185 23.97167 69.49617
#
# Poissons Ratio (x) = 0.19196 0.09745
# Poissons Ratio (y) = 0.29014 0.92986
# Poissons Ratio (z) = 0.05081 0.32074
#
# Static dielectric constant tensor:
#      x y z
#    x 1.863830 -0.008570 -0.005900 
#    y -0.008570 1.843840 0.025180 
#    z -0.005900 0.025180 1.835440 
# 
# From -- ./inp_files/143293.got.cif
#   From: 2010.05.17/outbox.cif.g08.bks.cpg/sg2_72_cif.got.tgz:143293.got - 2010.06.03 11:33:40.
