data_PCOD9023845
_publ_section_title
;
Structure prediction by ZEFSAII (Michael W. Deem and Ramdas Pophale) SiO2 
 PCOD9023845
Probable space group: P -1
;
_chemical_formula_sum "Si O2"
_cell_formula_units_Z 13
_cell_length_a 20.762211
_cell_length_b 11.298594
_cell_length_c 14.733810
_cell_angle_alpha 142.115776
_cell_angle_beta 20.054665
_cell_angle_gamma 151.165538
_cell_volume 559.656874
_symmetry_space_group_name_H-M "P -1"
_symmetry_group_IT_number 2
_symmetry_cell_setting 'triclinic'
loop_
_space_group_symop_operation_xyz
x,y,z
-x,-y,-z
loop_
_atom_site_type_symbol
_atom_site_label
_atom_site_fract_x
_atom_site_fract_y
_atom_site_fract_z
Si Si1 0.466514 0.853663 0.862619
Si Si2 0.252852 0.704246 0.737311
Si Si3 0.937538 0.266813 0.382588
Si Si4 0.500000 0.500000 0.000000
Si Si5 0.311464 0.739981 0.471727
Si Si6 0.567693 0.528342 0.219325
Si Si7 0.268681 0.097272 0.209666
O O1 0.383129 0.581529 0.827353
O O2 0.723796 0.021298 0.571386
O O3 0.500000 0.000000 0.000000
O O4 0.286400 0.877586 0.061389
O O5 0.212362 0.704342 0.683259
O O6 0.438856 0.647091 0.474880
O O7 0.412656 0.993160 0.729734
O O8 0.000000 0.500000 0.000000
O O9 0.842035 0.263717 0.407832
O O10 0.000000 0.500000 0.500000
O O11 0.181680 0.300945 0.066743
O O12 0.324145 0.520424 0.306851
O O13 0.442174 0.277434 0.007623
O O14 0.380707 0.275462 0.256831
O O15 0.000000 0.000000 0.500000
#
# Coordination Sequence:
#
# PCOD9023845 Si02
#       7
#     2   2   2   1   2   2   2
#     4  10  22  40  62 107 146 188 230 296 373 440
#     4  11  28  55  71 105 153 202 256 300 367 459
#     4  12  23  45  72 110 155 180 244 317 372 444
#     4  12  22  42  76 112 136 186 244 314 374 414
#     4  11  27  46  79 109 145 196 254 304 377 442
#     4  11  25  43  68 100 144 200 240 299 377 433
#     4  11  24  37  67 109 146 183 243 299 369 433
#
# _framework density 23.228518000000001
#
# number of rings (size 3 to 8) (size 9 to 14) (size 15 to 20)
#    0.000    0.923    6.154    0.000    4.308    6.769 
#    0.000    1.538    0.000    0.000    0.000    0.000 
#    0.000    0.000    0.000    0.000    0.000    0.000 
#
# Total GULP energy -72452.553512 kJ/mol
# GULP energy per Si atom -5573.273347 kJ/mol
# Density = 2.317565 g / cm^3
# Si number density = 23.228518 Si / 1000 Ang^3
#
#
#
# Elastic Constant Matrix: (Units=GPa)
#
#
# Indices 1 2 3 4 5 6 
#
# 1 101.0221 9.7599 14.0828 -9.7400 4.5935 -10.5101
# 2 9.7599 23.0804 8.6303 -10.7631 0.6715 -16.5920
# 3 14.0828 8.6303 151.3573 -21.4393 -8.8210 -10.2426
# 4 -9.7400 -10.7631 -21.4393 38.8465 -5.1594 -2.4988
# 5 4.5935 0.6715 -8.8210 -5.1594 31.3408 -2.8556
# 6 -10.5101 -16.5920 -10.2426 -2.4988 -2.8556 38.9878
#
#
#
# Elastic Compliance Matrix: (Units=1/GPa)
#
#
# Indices 1 2 3 4 5 6 
#
# 1 0.010593 -0.002125 -0.000570 0.001708 -0.001221 0.001821
# 2 -0.002125 0.082661 0.002244 0.026949 0.007019 0.037436
# 3 -0.000570 0.002244 0.007731 0.005420 0.003416 0.003430
# 4 0.001708 0.026949 0.005420 0.038829 0.008591 0.016471
# 5 -0.001221 0.007019 0.003416 0.008591 0.034919 0.006664
# 6 0.001821 0.037436 0.003430 0.016471 0.006664 0.044516
#
#
# Mechanical properties :
#
#
# Convention : Reuss Voigt Hill
#
# Bulk Modulus (GPa) = 9.99176 37.82288 23.90732
# Shear Modulus (GPa) = 19.72287 38.03414 28.87851
#
# Velocity S-wave (km/s) = 2.91706 4.05086 3.52978
# Velocity P-wave (km/s) = 3.95683 6.18042 5.18913
#
# Compressibility (1/GPa) = 0.10008251
#
# Stress axis : x y z
#
# Youngs Moduli (GPa) = 94.39947 12.09758 129.35134
#
# Poissons Ratio (x) = 0.02571 0.07379
# Poissons Ratio (y) = 0.20060 -0.29027
# Poissons Ratio (z) = 0.05385 -0.02715
#
# Static dielectric constant tensor:
#      x y z
#    x 2.022180 -0.008980 0.042190 
#    y -0.008980 1.869350 0.012340 
#    z 0.042190 0.012340 1.929360 
# 
# From -- ./inp_files/396686.got.cif
#   From: 2010.05.17/outbox.cif.g08.bks.cpg/sg2_199_cif.got.tgz:396686.got - 2010.06.03 11:33:40.
