data_PCOD9023115
_publ_section_title
;
Structure prediction by ZEFSAII (Michael W. Deem and Ramdas Pophale) SiO2 
 PCOD9023115
Probable space group: P -1
;
_chemical_formula_sum "Si O2"
_cell_formula_units_Z 16
_cell_length_a 16.964993
_cell_length_b 18.570557
_cell_length_c 6.200677
_cell_angle_alpha 61.554640
_cell_angle_beta 60.097178
_cell_angle_gamma 23.004560
_cell_volume 660.931189
_symmetry_space_group_name_H-M "P -1"
_symmetry_group_IT_number 2
_symmetry_cell_setting 'triclinic'
loop_
_space_group_symop_operation_xyz
x,y,z
-x,-y,-z
loop_
_atom_site_type_symbol
_atom_site_label
_atom_site_fract_x
_atom_site_fract_y
_atom_site_fract_z
Si Si1 0.603801 0.312248 0.898010
Si Si2 0.954655 0.799195 0.659586
Si Si3 0.979669 0.931803 0.758379
Si Si4 0.646614 0.596642 0.130299
Si Si5 0.495511 0.128348 0.812028
Si Si6 0.780544 0.591763 0.590913
Si Si7 0.756373 0.346356 0.833043
Si Si8 0.859517 0.651722 0.787475
O O1 0.450482 0.439332 0.129033
O O2 0.792330 0.097392 0.945054
O O3 0.481440 0.383447 0.748477
O O4 0.702688 0.322278 0.760827
O O5 0.128029 0.602032 0.807344
O O6 0.058303 0.749250 0.371939
O O7 0.933027 0.894150 0.716297
O O8 0.738950 0.927494 0.748722
O O9 0.000000 0.000000 0.500000
O O10 0.172289 0.754999 0.898572
O O11 0.546941 0.749845 0.183672
O O12 0.670281 0.606584 0.837182
O O13 0.377936 0.233850 0.596318
O O14 0.370430 0.160555 0.072683
O O15 0.837508 0.603680 0.695524
O O16 0.990665 0.402005 0.447231
O O17 0.000000 0.500000 0.000000
#
# Coordination Sequence:
#
# PCOD9023115 Si02
#       8
#     2   2   2   2   2   2   2   2
#     4  11  24  44  64  87 127 167 218 266 330 369
#     4  12  26  41  62  93 132 163 217 267 319 382
#     4  12  25  43  64  89 120 167 219 271 320 383
#     4  11  24  39  61  95 125 169 213 266 319 376
#     4  10  22  39  66  92 128 171 205 258 319 375
#     4   9  19  37  66  95 127 165 208 254 310 380
#     4  11  27  42  61  92 125 168 218 271 321 386
#     4   8  16  37  66  98 125 163 209 248 309 381
#
# _framework density 24.208269000000001
#
# number of rings (size 3 to 8) (size 9 to 14) (size 15 to 20)
#    0.000    1.500    3.750    0.375    3.500    3.000 
#    0.000    0.625    0.000   25.500    0.000    0.000 
#    0.000    0.000    0.000    0.000    0.000    0.000 
#
# Total GULP energy -89400.812196 kJ/mol
# GULP energy per Si atom -5587.550762 kJ/mol
# Density = 2.415317 g / cm^3
# Si number density = 24.208269 Si / 1000 Ang^3
#
#
#
# Elastic Constant Matrix: (Units=GPa)
#
#
# Indices 1 2 3 4 5 6 
#
# 1 117.9880 14.3395 10.6527 3.0128 17.1401 -15.1160
# 2 14.3395 118.0580 13.4992 27.4417 4.4045 -15.4908
# 3 10.6527 13.4992 84.6551 1.2193 6.1890 -7.8475
# 4 3.0128 27.4417 1.2193 32.2327 2.2317 6.2045
# 5 17.1401 4.4045 6.1890 2.2317 20.6798 2.2490
# 6 -15.1160 -15.4908 -7.8475 6.2045 2.2490 44.9435
#
#
#
# Elastic Compliance Matrix: (Units=1/GPa)
#
#
# Indices 1 2 3 4 5 6 
#
# 1 0.010322 -0.000152 -0.000253 -0.000979 -0.008771 0.003949
# 2 -0.000152 0.011968 -0.001112 -0.011085 -0.001490 0.005485
# 3 -0.000253 -0.001112 0.012443 0.000392 -0.003518 0.001826
# 4 -0.000979 -0.011085 0.000392 0.042480 -0.000450 -0.009924
# 5 -0.008771 -0.001490 -0.003518 -0.000450 0.057796 -0.006908
# 6 0.003949 0.005485 0.001826 -0.009924 -0.006908 0.027503
#
#
# Mechanical properties :
#
#
# Convention : Reuss Voigt Hill
#
# Bulk Modulus (GPa) = 31.54791 44.18711 37.86751
# Shear Modulus (GPa) = 28.39091 38.38516 33.38804
#
# Velocity S-wave (km/s) = 3.42830 3.98631 3.71779
# Velocity P-wave (km/s) = 5.36014 6.28332 5.84000
#
# Compressibility (1/GPa) = 0.03169782
#
# Stress axis : x y z
#
# Youngs Moduli (GPa) = 96.88214 83.55579 80.36856
#
# Poissons Ratio (x) = 0.01269 0.02035
# Poissons Ratio (y) = 0.01471 0.08939
# Poissons Ratio (z) = 0.02454 0.09294
#
# Static dielectric constant tensor:
#      x y z
#    x 1.962820 -0.012750 -0.045170 
#    y -0.012750 1.954270 0.064880 
#    z -0.045170 0.064880 1.932740 
# 
# From -- ./inp_files/55666.got.cif
#   From: 2010.05.17/outbox.cif.g08.bks.cpg/sg2_28_cif.got.tgz:55666.got - 2010.06.03 11:33:40.
