data_PCOD9023959
_publ_section_title
;
Structure prediction by ZEFSAII (Michael W. Deem and Ramdas Pophale) SiO2 
 PCOD9023959
Probable space group: P -1
;
_chemical_formula_sum "Si O2"
_cell_formula_units_Z 10
_cell_length_a 16.463901
_cell_length_b 9.706029
_cell_length_c 12.333489
_cell_angle_alpha 150.724200
_cell_angle_beta 155.493473
_cell_angle_gamma 37.519343
_cell_volume 399.774929
_symmetry_space_group_name_H-M "P -1"
_symmetry_group_IT_number 2
_symmetry_cell_setting 'triclinic'
loop_
_space_group_symop_operation_xyz
x,y,z
-x,-y,-z
loop_
_atom_site_type_symbol
_atom_site_label
_atom_site_fract_x
_atom_site_fract_y
_atom_site_fract_z
Si Si1 0.696584 0.512961 0.849019
Si Si2 0.677912 0.457699 0.315599
Si Si3 0.027067 0.169811 0.447397
Si Si4 0.700469 0.857595 0.426991
Si Si5 0.264898 0.625160 0.429496
O O1 0.497925 0.686413 0.743277
O O2 0.771057 0.559544 0.848683
O O3 0.644625 0.183446 0.572842
O O4 0.860502 0.583439 0.182668
O O5 0.697987 0.741281 0.465411
O O6 0.754393 0.493181 0.554747
O O7 0.803848 0.224401 0.242667
O O8 0.457191 0.338693 0.962047
O O9 0.092330 0.173100 0.404018
O O10 0.127886 0.893620 0.430938
#
# Coordination Sequence:
#
# PCOD9023959 Si02
#       5
#     2   2   2   2   2
#     4  10  22  40  66  87 124 163 198 249 307 352
#     4  11  23  42  64  89 126 159 202 250 303 356
#     4  11  22  43  64  90 122 161 200 254 300 357
#     4  10  24  44  60  90 125 163 198 249 303 361
#     4  10  22  40  62  93 122 159 200 252 303 357
#
# _framework density 25.014074000000001
#
# number of rings (size 3 to 8) (size 9 to 14) (size 15 to 20)
#    0.000    1.600    2.000    1.800    5.600    2.400 
#    7.200    0.000    0.000    0.000    0.000    0.000 
#    0.000    0.000    0.000    0.000    0.000    0.000 
#
# Total GULP energy -55986.782554 kJ/mol
# GULP energy per Si atom -5598.678255 kJ/mol
# Density = 2.495714 g / cm^3
# Si number density = 25.014074 Si / 1000 Ang^3
#
#
#
# Elastic Constant Matrix: (Units=GPa)
#
#
# Indices 1 2 3 4 5 6 
#
# 1 147.7130 50.6709 24.5381 14.3542 15.7224 18.9243
# 2 50.6709 107.3351 5.6669 11.1448 15.8114 8.2919
# 3 24.5381 5.6669 33.8265 4.0368 8.2913 10.9069
# 4 14.3542 11.1448 4.0368 23.8139 -0.5642 8.6822
# 5 15.7224 15.8114 8.2913 -0.5642 16.7238 -2.2684
# 6 18.9243 8.2919 10.9069 8.6822 -2.2684 49.5918
#
#
#
# Elastic Compliance Matrix: (Units=1/GPa)
#
#
# Indices 1 2 3 4 5 6 
#
# 1 0.009573 -0.003241 -0.004476 -0.002935 -0.004059 -0.001798
# 2 -0.003241 0.012918 0.004052 -0.004485 -0.011538 -0.001557
# 3 -0.004476 0.004052 0.040290 -0.003546 -0.020825 -0.008162
# 4 -0.002935 -0.004485 -0.003546 0.048670 0.009663 -0.005429
# 5 -0.004059 -0.011538 -0.020825 0.009663 0.086571 0.010326
# 6 -0.001798 -0.001557 -0.008162 -0.005429 0.010326 0.024329
#
#
# Mechanical properties :
#
#
# Convention : Reuss Voigt Hill
#
# Bulk Modulus (GPa) = 18.03378 50.06960 34.05169
# Shear Modulus (GPa) = 20.14785 31.89249 26.02017
#
# Velocity S-wave (km/s) = 2.84114 3.57456 3.22874
# Velocity P-wave (km/s) = 4.24121 6.09070 5.24807
#
# Compressibility (1/GPa) = 0.05545149
#
# Stress axis : x y z
#
# Youngs Moduli (GPa) = 104.46000 77.40904 24.81977
#
# Poissons Ratio (x) = 0.25091 0.11110
# Poissons Ratio (y) = 0.33859 -0.10058
# Poissons Ratio (z) = 0.46760 -0.31369
#
# Static dielectric constant tensor:
#      x y z
#    x 1.982080 -0.013310 0.015940 
#    y -0.013310 1.942700 0.002510 
#    z 0.015940 0.002510 1.956470 
# 
# From -- ./inp_files/15113.got.cif
#   From: 2010.05.17/outbox.cif.g08.bks.cpg/sg2_8_cif.got.tgz:15113.got - 2010.06.03 11:33:40.
