data_PCOD9023931
_publ_section_title
;
Structure prediction by ZEFSAII (Michael W. Deem and Ramdas Pophale) SiO2 
 PCOD9023931
Probable space group: P -1
;
_chemical_formula_sum "Si O2"
_cell_formula_units_Z 16
_cell_length_a 22.226113
_cell_length_b 6.822209
_cell_length_c 7.159980
_cell_angle_alpha 97.288992
_cell_angle_beta 57.685351
_cell_angle_gamma 62.670692
_cell_volume 707.847229
_symmetry_space_group_name_H-M "P -1"
_symmetry_group_IT_number 2
_symmetry_cell_setting 'triclinic'
loop_
_space_group_symop_operation_xyz
x,y,z
-x,-y,-z
loop_
_atom_site_type_symbol
_atom_site_label
_atom_site_fract_x
_atom_site_fract_y
_atom_site_fract_z
Si Si1 0.371163 0.752722 0.873986
Si Si2 0.055711 0.991868 0.659605
Si Si3 0.296053 0.428426 0.537551
Si Si4 0.744068 0.749196 0.103679
Si Si5 0.889012 0.053137 0.025003
Si Si6 0.523395 0.777999 0.576305
Si Si7 0.942029 0.536274 0.778290
Si Si8 0.260547 0.602454 0.194067
O O1 0.437508 0.820004 0.826200
O O2 0.433480 0.471676 0.650284
O O3 0.308305 0.733672 0.114734
O O4 0.305465 0.971764 0.858435
O O5 0.088737 0.892669 0.803630
O O6 0.007368 0.287895 0.764013
O O7 0.151580 0.822189 0.372852
O O8 0.972266 0.989132 0.750722
O O9 0.398375 0.300954 0.415749
O O10 0.282923 0.474782 0.345180
O O11 0.216168 0.702944 0.800921
O O12 0.274802 0.254540 0.647090
O O13 0.851974 0.575849 0.870989
O O14 0.709386 0.616520 0.031534
O O15 0.902306 0.797370 0.977034
O O16 0.500000 0.000000 0.500000
O O17 0.000000 0.500000 0.500000
#
# Coordination Sequence:
#
# PCOD9023931 Si02
#       8
#     2   2   2   2   2   2   2   2
#     4  11  23  43  71  99 131 170 215 275 325 393
#     4  10  22  40  62  91 131 171 213 272 319 373
#     4  11  23  45  69  92 133 181 209 269 343 382
#     4  12  24  44  66  95 139 170 219 278 323 390
#     4  10  22  42  61  91 130 170 221 265 317 391
#     4  11  22  44  75  98 130 172 214 270 336 391
#     4  12  24  35  63  95 124 178 222 265 327 382
#     4  11  25  44  65  98 135 170 224 272 322 393
#
# _framework density 22.603746000000001
#
# number of rings (size 3 to 8) (size 9 to 14) (size 15 to 20)
#    0.000    1.000    3.750    2.625    1.750    1.500 
#    9.000    2.500    0.000    0.000    0.000    0.000 
#    0.000    0.000    0.000    0.000    0.000    0.000 
#
# Total GULP energy -89325.161645 kJ/mol
# GULP energy per Si atom -5582.822603 kJ/mol
# Density = 2.255230 g / cm^3
# Si number density = 22.603746 Si / 1000 Ang^3
#
#
#
# Elastic Constant Matrix: (Units=GPa)
#
#
# Indices 1 2 3 4 5 6 
#
# 1 95.1395 42.8846 34.9519 -10.4108 -31.8292 -11.1247
# 2 42.8846 149.2405 42.2048 -7.2627 -4.9685 -21.2548
# 3 34.9519 42.2048 73.8196 -13.8067 -30.8229 -2.6488
# 4 -10.4108 -7.2627 -13.8067 47.9886 5.4053 -6.2780
# 5 -31.8292 -4.9685 -30.8229 5.4053 35.0324 3.2379
# 6 -11.1247 -21.2548 -2.6488 -6.2780 3.2379 34.9092
#
#
#
# Elastic Compliance Matrix: (Units=1/GPa)
#
#
# Indices 1 2 3 4 5 6 
#
# 1 0.018063 -0.004706 0.001507 0.002010 0.016591 0.001828
# 2 -0.004706 0.010754 -0.008001 0.000177 -0.010319 0.005430
# 3 0.001507 -0.008001 0.028459 0.003985 0.025014 -0.003835
# 4 0.002010 0.000177 0.003985 0.022957 0.001348 0.005054
# 5 0.016591 -0.010319 0.025014 0.001348 0.064402 -0.004829
# 6 0.001828 0.005430 -0.003835 0.005054 -0.004829 0.033600
#
#
# Mechanical properties :
#
#
# Convention : Reuss Voigt Hill
#
# Bulk Modulus (GPa) = 28.67258 62.03137 45.35197
# Shear Modulus (GPa) = 23.55607 36.79660 30.17633
#
# Velocity S-wave (km/s) = 3.23171 4.03910 3.65775
# Velocity P-wave (km/s) = 5.16117 7.01819 6.16006
#
# Compressibility (1/GPa) = 0.03487652
#
# Stress axis : x y z
#
# Youngs Moduli (GPa) = 55.36296 92.98922 35.13790
#
# Poissons Ratio (x) = 0.43762 -0.05296
# Poissons Ratio (y) = 0.26054 0.28113
# Poissons Ratio (z) = -0.08345 0.74399
#
# Static dielectric constant tensor:
#      x y z
#    x 1.879470 0.024800 -0.025800 
#    y 0.024800 1.866470 -0.031520 
#    z -0.025800 -0.031520 1.910860 
# 
# From -- ./inp_files/55377.got.cif
#   From: 2010.05.17/outbox.cif.g08.bks.cpg/sg2_28_cif.got.tgz:55377.got - 2010.06.03 11:33:40.
