data_PCOD9023300
_publ_section_title
;
Structure prediction by ZEFSAII (Michael W. Deem and Ramdas Pophale) SiO2 
 PCOD9023300
Probable space group: P -1
;
_chemical_formula_sum "Si O2"
_cell_formula_units_Z 11
_cell_length_a 5.662234
_cell_length_b 10.004410
_cell_length_c 16.303683
_cell_angle_alpha 37.329998
_cell_angle_beta 91.781325
_cell_angle_gamma 117.731776
_cell_volume 384.393249
_symmetry_space_group_name_H-M "P -1"
_symmetry_group_IT_number 2
_symmetry_cell_setting 'triclinic'
loop_
_space_group_symop_operation_xyz
x,y,z
-x,-y,-z
loop_
_atom_site_type_symbol
_atom_site_label
_atom_site_fract_x
_atom_site_fract_y
_atom_site_fract_z
Si Si1 0.986178 0.010760 0.735251
Si Si2 0.825563 0.076486 0.386544
Si Si3 0.774727 0.610781 0.214480
Si Si4 0.758060 0.493209 0.092645
Si Si5 0.000000 0.500000 0.500000
Si Si6 0.723220 0.392611 0.733263
O O1 0.574170 0.773091 0.837772
O O2 0.091729 0.033510 0.632431
O O3 0.116986 0.329152 0.616338
O O4 0.020973 0.810706 0.885568
O O5 0.843744 0.317538 0.218614
O O6 0.063154 0.285355 0.365505
O O7 0.460937 0.749709 0.577101
O O8 0.679334 0.575397 0.134462
O O9 0.651997 0.751716 0.187789
O O10 0.155517 0.764919 0.154146
O O11 0.834503 0.448186 0.613146
#
# Coordination Sequence:
#
# PCOD9023300 Si02
#       6
#     2   2   2   2   1   2
#     4  11  22  41  65  95 136 166 224 272 335 388
#     4  11  20  39  68  92 125 177 225 269 317 403
#     4  11  21  40  68  96 129 173 227 265 329 390
#     4  10  22  39  67  98 125 173 225 278 318 392
#     4  12  24  42  62 102 134 174 214 276 344 392
#     4  11  23  39  66  94 132 172 222 272 322 401
#
# _framework density 28.616529
#
# number of rings (size 3 to 8) (size 9 to 14) (size 15 to 20)
#    0.000    1.091    3.636    5.455    0.000    0.727 
#    3.273    4.545    0.000    0.000    0.000    0.000 
#    0.000    0.000    0.000    0.000    0.000    0.000 
#
# Total GULP energy -61322.367502 kJ/mol
# GULP energy per Si atom -5574.760682 kJ/mol
# Density = 2.855140 g / cm^3
# Si number density = 28.616529 Si / 1000 Ang^3
#
#
#
# Elastic Constant Matrix: (Units=GPa)
#
#
# Indices 1 2 3 4 5 6 
#
# 1 137.2665 49.4965 37.3161 -5.9240 14.9918 -31.9768
# 2 49.4965 128.4634 48.5966 16.6976 -11.1892 -31.0382
# 3 37.3161 48.5966 167.1500 17.7230 40.9949 -8.6133
# 4 -5.9240 16.6976 17.7230 40.3657 1.0566 -7.5466
# 5 14.9918 -11.1892 40.9949 1.0566 42.6644 3.8692
# 6 -31.9768 -31.0382 -8.6133 -7.5466 3.8692 66.5337
#
#
#
# Elastic Compliance Matrix: (Units=1/GPa)
#
#
# Indices 1 2 3 4 5 6 
#
# 1 0.010384 -0.003960 -0.000185 0.004097 -0.004963 0.003873
# 2 -0.003960 0.012927 -0.004564 -0.003676 0.009023 0.002595
# 3 -0.000185 -0.004564 0.010250 -0.002455 -0.010871 -0.000537
# 4 0.004097 -0.003676 -0.002455 0.028607 -0.001047 0.003242
# 5 -0.004963 0.009023 -0.010871 -0.001047 0.038195 -0.001923
# 6 0.003873 0.002595 -0.000537 0.003242 -0.001923 0.018512
#
#
# Mechanical properties :
#
#
# Convention : Reuss Voigt Hill
#
# Bulk Modulus (GPa) = 61.94278 78.18870 70.06574
# Shear Modulus (GPa) = 35.29240 49.74413 42.51827
#
# Velocity S-wave (km/s) = 3.51563 4.17382 3.85878
# Velocity P-wave (km/s) = 6.17838 7.11406 6.66267
#
# Compressibility (1/GPa) = 0.01614393
#
# Stress axis : x y z
#
# Youngs Moduli (GPa) = 96.29864 77.35581 97.56527
#
# Poissons Ratio (x) = 0.30636 0.01800
# Poissons Ratio (y) = 0.38138 0.44526
# Poissons Ratio (z) = 0.01777 0.35303
#
# Static dielectric constant tensor:
#      x y z
#    x -1.122540 0.946550 -1.563200 
#    y 0.946550 1.968460 0.338310 
#    z -1.563200 0.338310 1.557250 
# 
# From -- ./inp_files/88787.got.cif
#   From: 2010.05.17/outbox.cif.g08.bks.cpg/sg2_45_cif.got.tgz:88787.got - 2010.06.03 11:33:40.
