data_PCOD9023432
_publ_section_title
;
Structure prediction by ZEFSAII (Michael W. Deem and Ramdas Pophale) SiO2 
 PCOD9023432
Probable space group: P -1
;
_chemical_formula_sum "Si O2"
_cell_formula_units_Z 14
_cell_length_a 9.536338
_cell_length_b 9.047371
_cell_length_c 8.950133
_cell_angle_alpha 108.992311
_cell_angle_beta 66.906575
_cell_angle_gamma 106.926763
_cell_volume 659.685047
_symmetry_space_group_name_H-M "P -1"
_symmetry_group_IT_number 2
_symmetry_cell_setting 'triclinic'
loop_
_space_group_symop_operation_xyz
x,y,z
-x,-y,-z
loop_
_atom_site_type_symbol
_atom_site_label
_atom_site_fract_x
_atom_site_fract_y
_atom_site_fract_z
Si Si1 0.382544 0.121150 0.603534
Si Si2 0.855697 0.849859 0.542326
Si Si3 0.030948 0.584977 0.261957
Si Si4 0.386024 0.412735 0.892760
Si Si5 0.207702 0.658604 0.923721
Si Si6 0.133796 0.917496 0.847091
Si Si7 0.145561 0.309900 0.217872
O O1 0.292774 0.140439 0.494021
O O2 0.445654 0.287841 0.717146
O O3 0.500000 0.000000 0.500000
O O4 0.245710 0.037483 0.739980
O O5 0.793280 0.797564 0.718231
O O6 0.928463 0.697797 0.414106
O O7 0.000000 0.000000 0.500000
O O8 0.127740 0.493814 0.304643
O O9 0.922061 0.454172 0.160135
O O10 0.145477 0.681207 0.123412
O O11 0.337180 0.552009 0.858669
O O12 0.500000 0.500000 0.000000
O O13 0.238872 0.323046 0.025294
O O14 0.230561 0.828886 0.891551
O O15 0.031798 0.781716 0.745488
O O16 0.000000 0.000000 0.000000
#
# Coordination Sequence:
#
# PCOD9023432 Si02
#       7
#     2   2   2   2   2   2   2
#     4  12  27  46  65 102 147 178 221 291 352 394
#     4  12  23  39  66 102 137 175 221 285 343 399
#     4   9  18  36  62  96 130 156 220 282 329 386
#     4  11  24  47  67  93 135 188 228 272 339 420
#     4   9  19  36  67  92 117 177 222 271 326 401
#     4  11  20  41  72  98 129 174 228 282 337 406
#     4  10  22  39  69 101 125 170 234 280 328 409
#
# _framework density 21.222251
#
# number of rings (size 3 to 8) (size 9 to 14) (size 15 to 20)
#    0.000    1.429    4.286    2.143    0.000    3.429 
#    5.143    2.857    0.000    0.000    0.000    0.000 
#    0.000    0.000    0.000    0.000    0.000    0.000 
#
# Total GULP energy -77978.854091 kJ/mol
# GULP energy per Si atom -5569.918149 kJ/mol
# Density = 2.117395 g / cm^3
# Si number density = 21.222251 Si / 1000 Ang^3
#
#
#
# Elastic Constant Matrix: (Units=GPa)
#
#
# Indices 1 2 3 4 5 6 
#
# 1 99.1385 42.4672 26.4786 8.6931 15.6157 -31.2576
# 2 42.4672 73.5157 20.1985 -12.2098 21.2380 -40.1981
# 3 26.4786 20.1985 50.5005 12.3771 -4.0046 -25.5823
# 4 8.6931 -12.2098 12.3771 29.7546 -12.2508 2.5914
# 5 15.6157 21.2380 -4.0046 -12.2508 32.0833 -3.5395
# 6 -31.2576 -40.1981 -25.5823 2.5914 -3.5395 45.4410
#
#
#
# Elastic Compliance Matrix: (Units=1/GPa)
#
#
# Indices 1 2 3 4 5 6 
#
# 1 0.016915 -0.005534 -0.001964 -0.010217 -0.008100 0.005586
# 2 -0.005534 0.038737 -0.002342 0.009231 -0.016703 0.027315
# 3 -0.001964 -0.002342 0.034222 -0.014876 0.002964 0.016923
# 4 -0.010217 0.009231 -0.014876 0.054240 0.016721 -0.009028
# 5 -0.008100 -0.016703 0.002964 0.016721 0.051197 -0.015644
# 6 0.005586 0.027315 0.016923 -0.009028 -0.015644 0.058836
#
#
# Mechanical properties :
#
#
# Convention : Reuss Voigt Hill
#
# Bulk Modulus (GPa) = 14.24622 44.60482 29.42552
# Shear Modulus (GPa) = 16.82234 30.38982 23.60608
#
# Velocity S-wave (km/s) = 2.81850 3.78826 3.33877
# Velocity P-wave (km/s) = 4.16166 6.34020 5.36272
#
# Compressibility (1/GPa) = 0.07019404
#
# Stress axis : x y z
#
# Youngs Moduli (GPa) = 59.11911 25.81509 29.22118
#
# Poissons Ratio (x) = 0.14287 0.05739
# Poissons Ratio (y) = 0.32719 0.06842
# Poissons Ratio (z) = 0.11611 0.06045
#
# Static dielectric constant tensor:
#      x y z
#    x 1.866850 -0.050190 0.069280 
#    y -0.050190 1.929160 0.006680 
#    z 0.069280 0.006680 1.848090 
# 
# From -- ./inp_files/159574.got.cif
#   From: 2010.05.17/outbox.cif.g08.bks.cpg/sg2_80_cif.got.tgz:159574.got - 2010.06.03 11:33:40.
