data_PCOD9023235
_publ_section_title
;
Structure prediction by ZEFSAII (Michael W. Deem and Ramdas Pophale) SiO2 
 PCOD9023235
Probable space group: P -1
;
_chemical_formula_sum "Si O2"
_cell_formula_units_Z 16
_cell_length_a 9.040748
_cell_length_b 5.317818
_cell_length_c 21.594457
_cell_angle_alpha 130.532157
_cell_angle_beta 88.451352
_cell_angle_gamma 96.625939
_cell_volume 782.219542
_symmetry_space_group_name_H-M "P -1"
_symmetry_group_IT_number 2
_symmetry_cell_setting 'triclinic'
loop_
_space_group_symop_operation_xyz
x,y,z
-x,-y,-z
loop_
_atom_site_type_symbol
_atom_site_label
_atom_site_fract_x
_atom_site_fract_y
_atom_site_fract_z
Si Si1 0.428974 0.558626 0.101442
Si Si2 0.659985 0.920791 0.070524
Si Si3 0.904642 0.265845 0.513269
Si Si4 0.004318 0.759645 0.689653
Si Si5 0.215367 0.086757 0.180551
Si Si6 0.007609 0.103692 0.945823
Si Si7 0.508482 0.521472 0.224364
Si Si8 0.798732 0.777718 0.338003
O O1 0.579014 0.642331 0.073168
O O2 0.463224 0.710137 0.193869
O O3 0.295504 0.762212 0.115549
O O4 0.366618 0.190235 0.018357
O O5 0.832772 0.975049 0.092480
O O6 0.577632 0.230710 0.139432
O O7 0.886542 0.516035 0.609811
O O8 0.000000 0.500000 0.500000
O O9 0.784765 0.036139 0.436391
O O10 0.000000 0.000000 0.500000
O O11 0.905953 0.934165 0.767318
O O12 0.115428 0.525464 0.685070
O O13 0.099872 0.021376 0.684581
O O14 0.352489 0.378229 0.234491
O O15 0.122032 0.122535 0.125446
O O16 0.000000 0.500000 0.000000
O O17 0.000000 0.000000 0.000000
O O18 0.637200 0.668152 0.292502
#
# Coordination Sequence:
#
# PCOD9023235 Si02
#       8
#     2   2   2   2   2   2   2   2
#     4  10  22  40  59  80 120 162 203 250 300 367
#     4  10  22  40  60  82 111 164 211 245 306 353
#     4   8  16  36  62  92 120 154 198 246 299 359
#     4  10  22  40  66  95 122 157 203 257 301 359
#     4  11  25  39  59  92 124 160 204 259 314 351
#     4  12  26  41  62  87 118 155 206 260 305 351
#     4  11  24  38  60  86 124 163 206 247 307 368
#     4  10  22  39  67  92 123 161 204 246 302 372
#
# _framework density 20.454615
#
# number of rings (size 3 to 8) (size 9 to 14) (size 15 to 20)
#    0.000    1.750    1.250    1.875    8.750    0.000 
#    0.000    0.625    0.000    0.750    0.000    0.000 
#    0.000    0.000    0.000    0.000    0.000    0.000 
#
# Total GULP energy -89133.723761 kJ/mol
# GULP energy per Si atom -5570.857735 kJ/mol
# Density = 2.040806 g / cm^3
# Si number density = 20.454615 Si / 1000 Ang^3
#
#
#
# Elastic Constant Matrix: (Units=GPa)
#
#
# Indices 1 2 3 4 5 6 
#
# 1 107.9287 17.6303 30.3940 -7.0687 24.6380 4.9102
# 2 17.6303 83.7369 6.4608 -13.4112 2.9199 -1.4912
# 3 30.3940 6.4608 93.3021 -10.8257 39.8316 0.1862
# 4 -7.0687 -13.4112 -10.8257 23.2381 -3.2666 5.4729
# 5 24.6380 2.9199 39.8316 -3.2666 40.2024 1.6773
# 6 4.9102 -1.4912 0.1862 5.4729 1.6773 17.6652
#
#
#
# Elastic Compliance Matrix: (Units=1/GPa)
#
#
# Indices 1 2 3 4 5 6 
#
# 1 0.011403 -0.001880 -0.000961 0.001947 -0.005600 -0.003390
# 2 -0.001880 0.013503 0.000370 0.007634 0.000457 -0.000750
# 3 -0.000961 0.000370 0.019569 0.006511 -0.018290 -0.000188
# 4 0.001947 0.007634 0.006511 0.054534 -0.003076 -0.016569
# 5 -0.005600 0.000457 -0.018290 -0.003076 0.046213 -0.001647
# 6 -0.003390 -0.000750 -0.000188 -0.016569 -0.001647 0.062779
#
#
# Mechanical properties :
#
#
# Convention : Reuss Voigt Hill
#
# Bulk Modulus (GPa) = 25.29567 43.77085 34.53326
# Shear Modulus (GPa) = 22.11207 31.58666 26.84936
#
# Velocity S-wave (km/s) = 3.29147 3.93393 3.62696
# Velocity P-wave (km/s) = 5.18060 6.48690 5.87020
#
# Compressibility (1/GPa) = 0.03953245
#
# Stress axis : x y z
#
# Youngs Moduli (GPa) = 87.69430 74.05860 51.10058
#
# Poissons Ratio (x) = 0.13923 0.04911
# Poissons Ratio (y) = 0.16486 -0.01889
# Poissons Ratio (z) = 0.08429 -0.02738
#
# Static dielectric constant tensor:
#      x y z
#    x 1.691970 -0.041530 0.050040 
#    y -0.041530 2.018010 0.020200 
#    z 0.050040 0.020200 1.750800 
# 
# From -- ./inp_files/52231.got.cif
#   From: 2010.05.17/outbox.cif.g08.bks.cpg/sg2_27_cif.got.tgz:52231.got - 2010.06.03 11:33:40.
