data_PCOD9023683
_publ_section_title
;
Structure prediction by ZEFSAII (Michael W. Deem and Ramdas Pophale) SiO2 
 PCOD9023683
Probable space group: P -1
;
_chemical_formula_sum "Si O2"
_cell_formula_units_Z 14
_cell_length_a 18.266378
_cell_length_b 10.592610
_cell_length_c 13.301898
_cell_angle_alpha 41.142733
_cell_angle_beta 146.921984
_cell_angle_gamma 115.483890
_cell_volume 766.269405
_symmetry_space_group_name_H-M "P -1"
_symmetry_group_IT_number 2
_symmetry_cell_setting 'triclinic'
loop_
_space_group_symop_operation_xyz
x,y,z
-x,-y,-z
loop_
_atom_site_type_symbol
_atom_site_label
_atom_site_fract_x
_atom_site_fract_y
_atom_site_fract_z
Si Si1 0.261172 0.121613 0.387486
Si Si2 0.387330 0.255960 0.266670
Si Si3 0.451316 0.148384 0.753157
Si Si4 0.862386 0.448142 0.372216
Si Si5 0.584691 0.728760 0.043937
Si Si6 0.389065 0.557841 0.557922
Si Si7 0.983515 0.055923 0.067284
O O1 0.300541 0.239547 0.274543
O O2 0.289107 0.196866 0.483606
O O3 0.093093 0.152719 0.159200
O O4 0.410683 0.848497 0.717009
O O5 0.501778 0.341577 0.374671
O O6 0.500000 0.000000 0.500000
O O7 0.249728 0.436107 0.923576
O O8 0.433656 0.382727 0.621210
O O9 0.500000 0.000000 0.000000
O O10 0.580496 0.956569 0.937964
O O11 0.737724 0.571593 0.246637
O O12 0.000000 0.500000 0.500000
O O13 0.945770 0.177111 0.647745
O O14 0.582153 0.590982 0.218785
O O15 0.201258 0.762832 0.223745
O O16 0.000000 0.000000 0.000000
#
# Coordination Sequence:
#
# PCOD9023683 Si02
#       7
#     2   2   2   2   2   2   2
#     4  10  22  40  60  91 119 162 207 252 299 365
#     4  12  23  37  61  91 125 160 206 249 312 367
#     4   8  19  40  66  87 114 163 217 248 293 360
#     4  12  24  38  60  90 131 157 200 260 311 365
#     4   9  20  40  64  85 117 163 206 251 296 363
#     4  11  22  39  65  90 121 163 205 254 301 368
#     4  12  24  36  61  93 127 160 200 250 319 359
#
# _framework density 18.270337000000001
#
# number of rings (size 3 to 8) (size 9 to 14) (size 15 to 20)
#    0.857    0.571    2.857    3.429    0.000    2.286 
#    0.000    0.000    0.000    1.714    0.000    0.000 
#    0.000    0.000    0.000    0.000    0.000    0.000 
#
# Total GULP energy -78039.397824 kJ/mol
# GULP energy per Si atom -5574.242702 kJ/mol
# Density = 1.822875 g / cm^3
# Si number density = 18.270337 Si / 1000 Ang^3
#
#
#
# Elastic Constant Matrix: (Units=GPa)
#
#
# Indices 1 2 3 4 5 6 
#
# 1 50.8767 43.6485 33.9240 6.4370 -13.6472 13.1958
# 2 43.6485 165.8867 65.2707 18.3495 0.4245 11.0967
# 3 33.9240 65.2707 127.4965 -0.6204 -9.1841 11.5117
# 4 6.4370 18.3495 -0.6204 33.9585 -1.6322 4.8779
# 5 -13.6472 0.4245 -9.1841 -1.6322 31.9080 4.3641
# 6 13.1958 11.0967 11.5117 4.8779 4.3641 28.5119
#
#
#
# Elastic Compliance Matrix: (Units=1/GPa)
#
#
# Indices 1 2 3 4 5 6 
#
# 1 0.036765 -0.007340 -0.003418 -0.000045 0.016937 -0.015364
# 2 -0.007340 0.009733 -0.003641 -0.004545 -0.004906 0.002607
# 3 -0.003418 -0.003641 0.011006 0.003261 0.002242 -0.002346
# 4 -0.000045 -0.004545 0.003261 0.032955 0.003444 -0.005692
# 5 0.016937 -0.004906 0.002242 0.003444 0.041352 -0.013754
# 6 -0.015364 0.002607 -0.002346 -0.005692 -0.013754 0.045195
#
#
# Mechanical properties :
#
#
# Convention : Reuss Voigt Hill
#
# Bulk Modulus (GPa) = 34.83421 69.99403 52.41412
# Shear Modulus (GPa) = 23.21582 32.30347 27.75965
#
# Velocity S-wave (km/s) = 3.56853 4.20942 3.90216
# Velocity P-wave (km/s) = 6.00721 7.87521 7.00377
#
# Compressibility (1/GPa) = 0.02870741
#
# Stress axis : x y z
#
# Youngs Moduli (GPa) = 27.19979 102.74642 90.86201
#
# Poissons Ratio (x) = 0.75411 0.31055
# Poissons Ratio (y) = 0.19963 0.33079
# Poissons Ratio (z) = 0.09297 0.37405
#
# Static dielectric constant tensor:
#      x y z
#    x 1.626720 -0.030310 -0.021520 
#    y -0.030310 1.645710 -0.004260 
#    z -0.021520 -0.004260 1.651140 
# 
# From -- ./inp_files/227868.got.cif
#   From: 2010.05.17/outbox.cif.g08.bks.cpg/sg2_114_cif.got.tgz:227868.got - 2010.06.03 11:33:40.
