data_PCOD9023827
_publ_section_title
;
Structure prediction by ZEFSAII (Michael W. Deem and Ramdas Pophale) SiO2 
 PCOD9023827
Probable space group: P -1
;
_chemical_formula_sum "Si O2"
_cell_formula_units_Z 14
_cell_length_a 10.113048
_cell_length_b 5.496507
_cell_length_c 17.105174
_cell_angle_alpha 98.758714
_cell_angle_beta 38.868038
_cell_angle_gamma 82.846429
_cell_volume 542.522993
_symmetry_space_group_name_H-M "P -1"
_symmetry_group_IT_number 2
_symmetry_cell_setting 'triclinic'
loop_
_space_group_symop_operation_xyz
x,y,z
-x,-y,-z
loop_
_atom_site_type_symbol
_atom_site_label
_atom_site_fract_x
_atom_site_fract_y
_atom_site_fract_z
Si Si1 0.574226 0.115970 0.747597
Si Si2 0.242772 0.901337 0.813908
Si Si3 0.557232 0.344352 0.607223
Si Si4 0.033346 0.364841 0.392404
Si Si5 0.996287 0.494736 0.752455
Si Si6 0.140355 0.574137 0.009437
Si Si7 0.263068 0.893547 0.633787
O O1 0.650186 0.142910 0.625974
O O2 0.394302 0.973294 0.811589
O O3 0.792263 0.940004 0.687977
O O4 0.410780 0.410105 0.866430
O O5 0.329977 0.582362 0.754265
O O6 0.333179 0.953209 0.689868
O O7 0.977491 0.103895 0.936968
O O8 0.531443 0.258706 0.527323
O O9 0.768120 0.431878 0.500065
O O10 0.000000 0.500000 0.500000
O O11 0.129285 0.442773 0.272088
O O12 0.107904 0.720356 0.712339
O O13 0.901239 0.499486 0.885801
O O14 0.127268 0.174141 0.669082
O O15 0.000000 0.500000 0.000000
#
# Coordination Sequence:
#
# PCOD9023827 Si02
#       7
#     2   2   2   2   2   2   2
#     4  11  23  41  64  95 130 180 224 269 333 395
#     4  10  22  40  61  98 128 173 215 280 332 398
#     4  11  23  38  67  98 129 177 216 281 342 396
#     4  11  22  43  66  96 136 170 229 273 334 402
#     4  10  23  45  67  99 135 181 219 280 328 396
#     4   9  22  44  65  95 133 175 225 274 330 401
#     4  10  23  40  68  99 138 168 220 282 346 397
#
# _framework density 25.805356
#
# number of rings (size 3 to 8) (size 9 to 14) (size 15 to 20)
#    0.000    1.714    1.429    1.714    8.000    2.857 
#    7.714    0.000    0.000   15.429    0.000    0.000 
#    0.000    0.000    0.000    0.000    0.000    0.000 
#
# Total GULP energy -77990.338489 kJ/mol
# GULP energy per Si atom -5570.738463 kJ/mol
# Density = 2.574662 g / cm^3
# Si number density = 25.805356 Si / 1000 Ang^3
#
#
#
# Elastic Constant Matrix: (Units=GPa)
#
#
# Indices 1 2 3 4 5 6 
#
# 1 79.6279 19.3080 21.9344 3.8568 15.2785 -25.5839
# 2 19.3080 123.3482 33.1289 7.5078 6.5469 -41.3642
# 3 21.9344 33.1289 102.7444 14.9347 6.0263 -6.6644
# 4 3.8568 7.5078 14.9347 58.0587 -17.7851 -2.1422
# 5 15.2785 6.5469 6.0263 -17.7851 35.6812 -5.8518
# 6 -25.5839 -41.3642 -6.6644 -2.1422 -5.8518 49.0439
#
#
#
# Elastic Compliance Matrix: (Units=1/GPa)
#
#
# Indices 1 2 3 4 5 6 
#
# 1 0.017323 0.001620 -0.002874 -0.002413 -0.006944 0.009079
# 2 0.001620 0.012504 -0.003516 -0.000727 -0.000991 0.010764
# 3 -0.002874 -0.003516 0.011870 -0.003224 -0.002271 -0.003263
# 4 -0.002413 -0.000727 -0.003224 0.022245 0.012831 0.000193
# 5 -0.006944 -0.000991 -0.002271 0.012831 0.038014 0.000329
# 6 0.009079 0.010764 -0.003263 0.000193 0.000329 0.033808
#
#
# Mechanical properties :
#
#
# Convention : Reuss Voigt Hill
#
# Bulk Modulus (GPa) = 31.09562 50.49591 40.79576
# Shear Modulus (GPa) = 32.04645 43.98004 38.01325
#
# Velocity S-wave (km/s) = 3.52782 4.13279 3.84223
# Velocity P-wave (km/s) = 5.35446 6.51028 5.96045
#
# Compressibility (1/GPa) = 0.03215887
#
# Stress axis : x y z
#
# Youngs Moduli (GPa) = 57.72574 79.97355 84.24437
#
# Poissons Ratio (x) = -0.12957 0.24210
# Poissons Ratio (y) = -0.09352 0.29618
# Poissons Ratio (z) = 0.16589 0.28117
#
# Static dielectric constant tensor:
#      x y z
#    x 2.131570 0.067910 0.132220 
#    y 0.067910 2.138410 0.040630 
#    z 0.132220 0.040630 2.147810 
# 
# From -- ./inp_files/564147.got.cif
#   From: 2010.05.17/outbox.cif.g08.bks.cpg/sg2_283_cif.got.tgz:564147.got - 2010.06.03 11:33:40.
