data_PCOD9023463
_publ_section_title
;
Structure prediction by ZEFSAII (Michael W. Deem and Ramdas Pophale) SiO2 
 PCOD9023463
Probable space group: P -1
;
_chemical_formula_sum "Si O2"
_cell_formula_units_Z 16
_cell_length_a 20.380123
_cell_length_b 14.279354
_cell_length_c 10.724066
_cell_angle_alpha 30.197203
_cell_angle_beta 149.481616
_cell_angle_gamma 152.614515
_cell_volume 659.713966
_symmetry_space_group_name_H-M "P -1"
_symmetry_group_IT_number 2
_symmetry_cell_setting 'triclinic'
loop_
_space_group_symop_operation_xyz
x,y,z
-x,-y,-z
loop_
_atom_site_type_symbol
_atom_site_label
_atom_site_fract_x
_atom_site_fract_y
_atom_site_fract_z
Si Si1 0.180565 0.083321 0.223020
Si Si2 0.582646 0.904427 0.585768
Si Si3 0.973223 0.422764 0.400088
Si Si4 0.450987 0.031704 0.015824
Si Si5 0.063281 0.858352 0.710192
Si Si6 0.290985 0.259949 0.459173
Si Si7 0.258541 0.739341 0.345763
Si Si8 0.202712 0.523971 0.164480
O O1 0.307088 0.159428 0.229666
O O2 0.256923 0.263471 0.253537
O O3 0.145956 0.844559 0.485946
O O4 0.000000 0.000000 0.000000
O O5 0.562767 0.055653 0.279735
O O6 0.401042 0.730421 0.532187
O O7 0.667431 0.058833 0.664794
O O8 0.134043 0.518375 0.477074
O O9 0.000000 0.500000 0.500000
O O10 0.897340 0.517050 0.077571
O O11 0.297004 0.779593 0.063110
O O12 0.500000 0.000000 0.000000
O O13 0.434313 0.237714 0.742304
O O14 0.905509 0.611050 0.738823
O O15 0.147462 0.007243 0.556269
O O16 0.176231 0.826351 0.019621
O O17 0.000000 0.000000 0.500000
O O18 0.300255 0.428655 0.383319
#
# Coordination Sequence:
#
# PCOD9023463 Si02
#       8
#     2   2   2   2   2   2   2   2
#     4  12  25  42  66  97 134 174 224 281 329 401
#     4  11  23  42  61  94 137 175 218 272 338 398
#     4  11  20  40  66  97 127 171 224 270 325 398
#     4  12  23  42  63  93 133 171 221 271 329 399
#     4   9  20  38  67 100 127 168 222 275 327 397
#     4  11  22  41  66  98 126 173 217 271 335 386
#     4  10  22  39  69  95 130 181 219 270 343 393
#     4  10  23  40  65  98 131 168 222 276 325 398
#
# _framework density 24.252935999999998
#
# number of rings (size 3 to 8) (size 9 to 14) (size 15 to 20)
#    0.000    1.250    5.000    0.750    3.500    2.000 
#    0.000    0.625    0.000    0.000    0.000    0.000 
#    0.000    0.000    0.000    0.000    0.000    0.000 
#
# Total GULP energy -89198.392271 kJ/mol
# GULP energy per Si atom -5574.899517 kJ/mol
# Density = 2.419773 g / cm^3
# Si number density = 24.252936 Si / 1000 Ang^3
#
#
#
# Elastic Constant Matrix: (Units=GPa)
#
#
# Indices 1 2 3 4 5 6 
#
# 1 162.9891 21.6665 35.9392 16.6226 17.4626 11.1333
# 2 21.6665 58.0878 1.3715 10.8949 3.2207 12.6219
# 3 35.9392 1.3715 76.6170 17.1757 25.8449 -9.5727
# 4 16.6226 10.8949 17.1757 31.4476 0.4282 -1.7184
# 5 17.4626 3.2207 25.8449 0.4282 42.5580 -0.8152
# 6 11.1333 12.6219 -9.5727 -1.7184 -0.8152 54.2707
#
#
#
# Elastic Compliance Matrix: (Units=1/GPa)
#
#
# Indices 1 2 3 4 5 6 
#
# 1 0.007448 -0.001954 -0.002872 -0.001765 -0.001178 -0.001653
# 2 -0.001954 0.020334 0.002489 -0.007568 -0.002252 -0.004163
# 3 -0.002872 0.002489 0.021025 -0.010494 -0.011611 0.003212
# 4 -0.001765 -0.007568 -0.010494 0.041078 0.007289 0.001681
# 5 -0.001178 -0.002252 -0.011611 0.007289 0.031118 -0.000585
# 6 -0.001653 -0.004163 0.003212 0.001681 -0.000585 0.020345
#
#
# Mechanical properties :
#
#
# Convention : Reuss Voigt Hill
#
# Bulk Modulus (GPa) = 22.65953 46.18314 34.42134
# Shear Modulus (GPa) = 31.10749 41.56971 36.33860
#
# Velocity S-wave (km/s) = 3.58526 4.14455 3.87501
# Velocity P-wave (km/s) = 5.14802 6.47971 5.85187
#
# Compressibility (1/GPa) = 0.04413153
#
# Stress axis : x y z
#
# Youngs Moduli (GPa) = 134.27063 49.17787 47.56231
#
# Poissons Ratio (x) = 0.09612 0.13660
# Poissons Ratio (y) = 0.26243 -0.11837
# Poissons Ratio (z) = 0.38564 -0.12239
#
# Static dielectric constant tensor:
#      x y z
#    x 2.143400 0.204150 0.006880 
#    y 0.204150 2.030940 0.017890 
#    z 0.006880 0.017890 1.991480 
# 
# From -- ./inp_files/471701.got.cif
#   From: 2010.05.17/outbox.cif.g08.bks.cpg/sg2_236_cif.got.tgz:471701.got - 2010.06.03 11:33:40.
