data_PCOD9023064
_publ_section_title
;
Structure prediction by ZEFSAII (Michael W. Deem and Ramdas Pophale) SiO2 
 PCOD9023064
Probable space group: P -1
;
_chemical_formula_sum "Si O2"
_cell_formula_units_Z 14
_cell_length_a 11.910227
_cell_length_b 12.097655
_cell_length_c 15.036312
_cell_angle_alpha 151.340428
_cell_angle_beta 44.776872
_cell_angle_gamma 140.564856
_cell_volume 656.341119
_symmetry_space_group_name_H-M "P -1"
_symmetry_group_IT_number 2
_symmetry_cell_setting 'triclinic'
loop_
_space_group_symop_operation_xyz
x,y,z
-x,-y,-z
loop_
_atom_site_type_symbol
_atom_site_label
_atom_site_fract_x
_atom_site_fract_y
_atom_site_fract_z
Si Si1 0.764136 0.254873 0.366640
Si Si2 0.833796 0.819213 0.240254
Si Si3 0.826555 0.344204 0.588797
Si Si4 0.764662 0.954482 0.780533
Si Si5 0.376543 0.663674 0.863993
Si Si6 0.293090 0.316292 0.983034
Si Si7 0.679201 0.473599 0.396508
O O1 0.711399 0.276609 0.514006
O O2 0.671341 0.306919 0.369674
O O3 0.961523 0.488293 0.422851
O O4 0.757190 0.974217 0.162411
O O5 0.717700 0.607652 0.227471
O O6 0.770179 0.711566 0.102064
O O7 0.803229 0.072905 0.448090
O O8 0.042880 0.889275 0.175018
O O9 0.784253 0.531175 0.806214
O O10 0.591915 0.778562 0.815631
O O11 0.803803 0.767956 0.559778
O O12 0.687090 0.141410 0.915022
O O13 0.296866 0.634345 0.787442
O O14 0.500000 0.500000 0.000000
O O15 0.500000 0.500000 0.500000
#
# Coordination Sequence:
#
# PCOD9023064 Si02
#       7
#     2   2   2   2   2   2   2
#     4  10  22  44  69  97 130 175 226 274 333 407
#     4  11  24  44  67 102 135 176 230 280 341 407
#     4  10  23  45  70  96 130 179 225 284 336 395
#     4  10  22  42  63  95 136 181 227 265 343 402
#     4  10  24  40  65  99 139 180 217 284 332 403
#     4  11  27  43  66 102 131 175 228 284 346 398
#     4  10  22  39  66 100 129 175 222 266 339 402
#
# _framework density 21.330373000000002
#
# number of rings (size 3 to 8) (size 9 to 14) (size 15 to 20)
#    0.000    1.714    1.429    0.857    2.000   13.143 
#    0.000    0.000    0.000    0.000    0.000    0.000 
#    0.000    0.000    0.000    0.000    0.000    0.000 
#
# Total GULP energy -78034.714177 kJ/mol
# GULP energy per Si atom -5573.908156 kJ/mol
# Density = 2.128182 g / cm^3
# Si number density = 21.330373 Si / 1000 Ang^3
#
#
#
# Elastic Constant Matrix: (Units=GPa)
#
#
# Indices 1 2 3 4 5 6 
#
# 1 116.1138 58.3977 10.6695 16.4708 6.6177 -14.4208
# 2 58.3977 65.9807 2.6502 60.5104 24.1623 -3.5833
# 3 10.6695 2.6502 87.8198 43.8292 21.2671 -17.6155
# 4 16.4708 60.5104 43.8292 14.4219 -15.5087 -7.3804
# 5 6.6177 24.1623 21.2671 -15.5087 -5.2577 -1.1129
# 6 -14.4208 -3.5833 -17.6155 -7.3804 -1.1129 29.4770
#
#
#
# Elastic Compliance Matrix: (Units=1/GPa)
#
#
# Indices 1 2 3 4 5 6 
#
# 1 0.013948 -0.008115 0.002648 0.000571 -0.012216 0.007101
# 2 -0.008115 0.013167 -0.006604 -0.000502 0.026219 -0.005452
# 3 0.002648 -0.006604 0.010236 0.002677 0.004912 0.007466
# 4 0.000571 -0.000502 0.002677 0.017713 -0.043980 0.004593
# 5 -0.012216 0.026219 0.004912 -0.043980 0.066290 -0.008362
# 6 0.007101 -0.005452 0.007466 0.004593 -0.008362 0.042032
#
#
# Mechanical properties :
#
#
# Convention : Reuss Voigt Hill
#
# Bulk Modulus (GPa) = 75.70781 45.92766 60.81773
# Shear Modulus (GPa) = 26.05110 20.94136 23.49623
#
# Velocity S-wave (km/s) = 3.49852 3.13671 3.32254
# Velocity P-wave (km/s) = 7.20344 5.89041 6.57976
#
# Compressibility (1/GPa) = 0.01320868
#
# Stress axis : x y z
#
# Youngs Moduli (GPa) = 71.69663 75.94765 97.69202
#
# Poissons Ratio (x) = 0.61635 -0.25870
# Poissons Ratio (y) = 0.58185 0.64513
# Poissons Ratio (z) = -0.18986 0.50154
#
# Static dielectric constant tensor:
#      x y z
#    x 1.757380 -0.048690 0.069180 
#    y -0.048690 1.737780 0.028610 
#    z 0.069180 0.028610 1.838870 
# 
# From -- ./inp_files/432633.got.cif
#   From: 2010.05.17/outbox.cif.g08.bks.cpg/sg2_217_cif.got.tgz:432633.got - 2010.06.03 11:33:40.
