data_PCOD9023272
_publ_section_title
;
Structure prediction by ZEFSAII (Michael W. Deem and Ramdas Pophale) SiO2 
 PCOD9023272
Probable space group: P -1
;
_chemical_formula_sum "Si O2"
_cell_formula_units_Z 16
_cell_length_a 27.710972
_cell_length_b 12.886546
_cell_length_c 5.453184
_cell_angle_alpha 51.316600
_cell_angle_beta 130.934821
_cell_angle_gamma 149.183580
_cell_volume 743.801322
_symmetry_space_group_name_H-M "P -1"
_symmetry_group_IT_number 2
_symmetry_cell_setting 'triclinic'
loop_
_space_group_symop_operation_xyz
x,y,z
-x,-y,-z
loop_
_atom_site_type_symbol
_atom_site_label
_atom_site_fract_x
_atom_site_fract_y
_atom_site_fract_z
Si Si1 0.919092 0.680429 0.112255
Si Si2 0.184118 0.560141 0.358445
Si Si3 0.334034 0.034244 0.167556
Si Si4 0.680750 0.712885 0.104383
Si Si5 0.722909 0.558838 0.081720
Si Si6 0.517347 0.184562 0.797096
Si Si7 0.481271 0.343991 0.844821
Si Si8 0.131357 0.106391 0.273601
O O1 0.861687 0.536589 0.377593
O O2 0.890673 0.563554 0.937176
O O3 0.893996 0.797592 0.809283
O O4 0.035159 0.864978 0.285626
O O5 0.260793 0.559297 0.569254
O O6 0.244697 0.792207 0.208572
O O7 0.432082 0.109517 0.455486
O O8 0.312101 0.118417 0.156994
O O9 0.371926 0.168606 0.851008
O O10 0.691884 0.633951 0.027996
O O11 0.772613 0.816717 0.423611
O O12 0.566694 0.501231 0.102765
O O13 0.634427 0.395321 0.833208
O O14 0.830526 0.771363 0.033299
O O15 0.497050 0.230103 0.919590
O O16 0.500000 0.000000 0.000000
O O17 0.500000 0.500000 0.500000
#
# Coordination Sequence:
#
# PCOD9023272 Si02
#       8
#     2   2   2   2   2   2   2   2
#     4  10  24  43  70  98 131 168 229 284 341 386
#     4  11  24  45  67  99 133 176 218 281 338 402
#     4  12  26  41  64  92 138 175 217 271 334 399
#     4  11  23  40  63  96 126 171 224 266 331 392
#     4  10  22  39  67  95 130 168 227 267 329 395
#     4  11  23  41  62  98 132 174 215 270 332 397
#     4  11  25  41  64  93 135 175 220 269 323 401
#     4  10  22  39  70  96 127 167 224 284 329 391
#
# _framework density 21.511119999999998
#
# number of rings (size 3 to 8) (size 9 to 14) (size 15 to 20)
#    0.000    1.250    3.750    1.125    7.000    2.000 
#    0.000    1.250    0.000    0.000    0.000    0.000 
#    0.000    0.000    0.000    0.000    0.000    0.000 
#
# Total GULP energy -89186.721068 kJ/mol
# GULP energy per Si atom -5574.170067 kJ/mol
# Density = 2.146216 g / cm^3
# Si number density = 21.511120 Si / 1000 Ang^3
#
#
#
# Elastic Constant Matrix: (Units=GPa)
#
#
# Indices 1 2 3 4 5 6 
#
# 1 56.7816 40.1405 17.9904 -14.6923 9.4853 -14.7785
# 2 40.1405 179.0445 54.3126 -12.5424 -4.4599 -11.6603
# 3 17.9904 54.3126 86.9158 -2.8563 0.8720 -7.5992
# 4 -14.6923 -12.5424 -2.8563 33.1200 -7.5410 8.1341
# 5 9.4853 -4.4599 0.8720 -7.5410 27.6658 -2.2948
# 6 -14.7785 -11.6603 -7.5992 8.1341 -2.2948 38.2222
#
#
#
# Elastic Compliance Matrix: (Units=1/GPa)
#
#
# Indices 1 2 3 4 5 6 
#
# 1 0.025971 -0.004644 -0.001622 0.006355 -0.007330 0.006510
# 2 -0.004644 0.008030 -0.004065 0.001467 0.003393 -0.000263
# 3 -0.001622 -0.004065 0.014452 -0.001523 -0.000864 0.001278
# 4 0.006355 0.001467 -0.001523 0.036318 0.007618 -0.004670
# 5 -0.007330 0.003393 -0.000864 0.007618 0.041217 -0.001117
# 6 0.006510 -0.000263 0.001278 -0.004670 -0.001117 0.029781
#
#
# Mechanical properties :
#
#
# Convention : Reuss Voigt Hill
#
# Bulk Modulus (GPa) = 35.98400 60.84765 48.41583
# Shear Modulus (GPa) = 26.92601 33.82150 30.37375
#
# Velocity S-wave (km/s) = 3.54181 3.96950 3.76174
# Velocity P-wave (km/s) = 5.78708 7.02547 6.43613
#
# Compressibility (1/GPa) = 0.02779013
#
# Stress axis : x y z
#
# Youngs Moduli (GPa) = 38.50398 124.53776 69.19535
#
# Poissons Ratio (x) = 0.57834 0.11225
# Poissons Ratio (y) = 0.17881 0.28129
# Poissons Ratio (z) = 0.06246 0.50627
#
# Static dielectric constant tensor:
#      x y z
#    x 1.850050 0.025330 -0.030640 
#    y 0.025330 1.753240 0.027180 
#    z -0.030640 0.027180 1.891490 
# 
# From -- ./inp_files/124346.got.cif
#   From: 2010.05.17/outbox.cif.g08.bks.cpg/sg2_63_cif.got.tgz:124346.got - 2010.06.03 11:33:40.
