data_PCOD9023372
_publ_section_title
;
Structure prediction by ZEFSAII (Michael W. Deem and Ramdas Pophale) SiO2 
 PCOD9023372
Probable space group: P -1
;
_chemical_formula_sum "Si O2"
_cell_formula_units_Z 14
_cell_length_a 11.098754
_cell_length_b 15.571136
_cell_length_c 8.793092
_cell_angle_alpha 145.106136
_cell_angle_beta 117.220254
_cell_angle_gamma 47.486821
_cell_volume 623.657545
_symmetry_space_group_name_H-M "P -1"
_symmetry_group_IT_number 2
_symmetry_cell_setting 'triclinic'
loop_
_space_group_symop_operation_xyz
x,y,z
-x,-y,-z
loop_
_atom_site_type_symbol
_atom_site_label
_atom_site_fract_x
_atom_site_fract_y
_atom_site_fract_z
Si Si1 0.830986 0.560798 0.186149
Si Si2 0.622822 0.426848 0.825589
Si Si3 0.729541 0.118286 0.215389
Si Si4 0.064803 0.994732 0.361402
Si Si5 0.174205 0.257290 0.866051
Si Si6 0.563479 0.970904 0.738603
Si Si7 0.370930 0.776603 0.016907
O O1 0.812724 0.640254 0.121183
O O2 0.685574 0.748051 0.464553
O O3 0.779962 0.420729 0.959846
O O4 0.032423 0.427181 0.140720
O O5 0.656088 0.246345 0.506852
O O6 0.500000 0.500000 0.000000
O O7 0.539002 0.582035 0.871488
O O8 0.927168 0.007074 0.191796
O O9 0.690856 0.227478 0.192377
O O10 0.642556 0.015127 0.987928
O O11 0.090829 0.157807 0.610853
O O12 0.241380 0.827126 0.149875
O O13 0.000000 0.000000 0.500000
O O14 0.359919 0.096192 0.805714
O O15 0.600162 0.063259 0.753017
#
# Coordination Sequence:
#
# PCOD9023372 Si02
#       7
#     2   2   2   2   2   2   2
#     4  11  21  39  67  96 133 179 230 274 331 417
#     4  12  23  41  67 103 135 172 225 289 342 400
#     4  10  23  44  64  99 133 178 223 276 346 400
#     4  12  23  41  67 103 135 172 225 289 342 400
#     4  11  21  39  67  96 133 179 230 274 331 417
#     4  10  22  42  68  95 127 177 233 278 328 397
#     4  10  22  39  68  93 132 175 229 268 343 403
#
# _framework density 22.448215999999999
#
# number of rings (size 3 to 8) (size 9 to 14) (size 15 to 20)
#    0.857    0.286    4.286    3.000    0.000    0.000 
#    2.571    2.857    0.000    1.714    0.000    0.000 
#    0.000    0.000    0.000    0.000    0.000    0.000 
#
# Total GULP energy -77998.828426 kJ/mol
# GULP energy per Si atom -5571.344888 kJ/mol
# Density = 2.239712 g / cm^3
# Si number density = 22.448216 Si / 1000 Ang^3
#
#
#
# Elastic Constant Matrix: (Units=GPa)
#
#
# Indices 1 2 3 4 5 6 
#
# 1 107.6872 31.0811 43.5189 -4.0580 -8.6858 -26.3703
# 2 31.0811 76.4885 36.8090 11.5747 -0.5571 -31.9697
# 3 43.5189 36.8090 125.5842 10.6366 -7.6290 -31.3151
# 4 -4.0580 11.5747 10.6366 24.9997 -10.8947 -13.4006
# 5 -8.6858 -0.5571 -7.6290 -10.8947 35.3962 0.2982
# 6 -26.3703 -31.9697 -31.3151 -13.4006 0.2982 49.8389
#
#
#
# Elastic Compliance Matrix: (Units=1/GPa)
#
#
# Indices 1 2 3 4 5 6 
#
# 1 0.013823 -0.003203 -0.002816 0.011007 0.006069 0.006414
# 2 -0.003203 0.019658 -0.002367 -0.005557 -0.002764 0.007950
# 3 -0.002816 -0.002367 0.010639 -0.001732 0.001005 0.003205
# 4 0.011007 -0.005557 -0.001732 0.064516 0.021943 0.018387
# 5 0.006069 -0.002764 0.001005 0.021943 0.036602 0.007750
# 6 0.006414 0.007950 0.003205 0.018387 0.007750 0.035469
#
#
# Mechanical properties :
#
#
# Convention : Reuss Voigt Hill
#
# Bulk Modulus (GPa) = 36.56304 59.17531 47.86918
# Shear Modulus (GPa) = 24.20190 35.27036 29.73613
#
# Velocity S-wave (km/s) = 3.28704 3.96812 3.64353
# Velocity P-wave (km/s) = 5.54340 6.88569 6.25068
#
# Compressibility (1/GPa) = 0.02735002
#
# Stress axis : x y z
#
# Youngs Moduli (GPa) = 72.34129 50.86954 93.99213
#
# Poissons Ratio (x) = 0.16293 0.26467
# Poissons Ratio (y) = 0.23170 0.22245
# Poissons Ratio (z) = 0.20370 0.12039
#
# Static dielectric constant tensor:
#      x y z
#    x 1.840120 -0.038210 -0.008120 
#    y -0.038210 1.871520 0.009620 
#    z -0.008120 0.009620 1.864610 
# 
# From -- ./inp_files/280260.got.cif
#   From: 2010.05.17/outbox.cif.g08.bks.cpg/sg2_141_cif.got.tgz:280260.got - 2010.06.03 11:33:40.
