data_PCOD9023579
_publ_section_title
;
Structure prediction by ZEFSAII (Michael W. Deem and Ramdas Pophale) SiO2 
 PCOD9023579
Probable space group: P -1
;
_chemical_formula_sum "Si O2"
_cell_formula_units_Z 14
_cell_length_a 18.439784
_cell_length_b 11.546322
_cell_length_c 8.074565
_cell_angle_alpha 123.453206
_cell_angle_beta 34.055848
_cell_angle_gamma 139.662067
_cell_volume 607.708634
_symmetry_space_group_name_H-M "P -1"
_symmetry_group_IT_number 2
_symmetry_cell_setting 'triclinic'
loop_
_space_group_symop_operation_xyz
x,y,z
-x,-y,-z
loop_
_atom_site_type_symbol
_atom_site_label
_atom_site_fract_x
_atom_site_fract_y
_atom_site_fract_z
Si Si1 0.152306 0.409257 0.336613
Si Si2 0.310861 0.867397 0.831161
Si Si3 0.546416 0.948898 0.713341
Si Si4 0.879727 0.995958 0.593307
Si Si5 0.103997 0.669226 0.775959
Si Si6 0.221394 0.375736 0.559060
Si Si7 0.417485 0.583808 0.671805
O O1 0.081055 0.514053 0.591053
O O2 0.236612 0.423092 0.369130
O O3 0.006802 0.189949 0.407963
O O4 0.271930 0.505339 0.025639
O O5 0.363414 0.832817 0.873242
O O6 0.172799 0.684779 0.844464
O O7 0.500000 0.000000 0.500000
O O8 0.246944 0.980282 0.064551
O O9 0.564949 0.800499 0.584461
O O10 0.722398 0.133933 0.459434
O O11 0.500000 0.000000 0.000000
O O12 0.785012 0.796375 0.538378
O O13 0.000000 0.000000 0.500000
O O14 0.955500 0.677754 0.085104
O O15 0.359479 0.532853 0.549464
O O16 0.500000 0.500000 0.500000
#
# Coordination Sequence:
#
# PCOD9023579 Si02
#       7
#     2   2   2   2   2   2   2
#     4  11  24  44  74 105 141 182 243 296 348 432
#     4  10  22  39  74 102 136 186 240 286 355 420
#     4  11  25  45  66 100 144 185 233 298 354 419
#     4  10  22  42  71 108 142 181 239 293 353 424
#     4  11  22  45  74 102 138 185 242 289 360 425
#     4  11  26  46  75 102 143 190 234 298 360 424
#     4  12  30  47  68 108 145 187 243 297 361 425
#
# _framework density 23.037357
#
# number of rings (size 3 to 8) (size 9 to 14) (size 15 to 20)
#    0.000    1.143    4.286    1.286    6.000    4.000 
#    0.000    0.000    0.000    0.000    0.000    0.000 
#    0.000    0.000    0.000    0.000    0.000    0.000 
#
# Total GULP energy -78080.359668 kJ/mol
# GULP energy per Si atom -5577.168548 kJ/mol
# Density = 2.298492 g / cm^3
# Si number density = 23.037357 Si / 1000 Ang^3
#
#
#
# Elastic Constant Matrix: (Units=GPa)
#
#
# Indices 1 2 3 4 5 6 
#
# 1 31.4194 -12.7174 -14.5225 6.2446 5.5525 -0.2566
# 2 -12.7174 128.2717 5.2226 27.3110 11.3687 -18.7110
# 3 -14.5225 5.2226 71.3093 8.4042 2.7637 -15.1312
# 4 6.2446 27.3110 8.4042 47.2426 -7.1021 0.2708
# 5 5.5525 11.3687 2.7637 -7.1021 37.3894 9.0411
# 6 -0.2566 -18.7110 -15.1312 0.2708 9.0411 28.8982
#
#
#
# Elastic Compliance Matrix: (Units=1/GPa)
#
#
# Indices 1 2 3 4 5 6 
#
# 1 0.060763 0.018532 0.022605 -0.027432 -0.029746 0.033938
# 2 0.018532 0.017757 0.009980 -0.017269 -0.017625 0.022564
# 3 0.022605 0.009980 0.025995 -0.016185 -0.017662 0.025951
# 4 -0.027432 -0.017269 -0.016185 0.041612 0.025241 -0.028187
# 5 -0.029746 -0.017625 -0.017662 0.025241 0.051646 -0.037319
# 6 0.033938 0.022564 0.025951 -0.028187 -0.037319 0.075043
#
#
# Mechanical properties :
#
#
# Convention : Reuss Voigt Hill
#
# Bulk Modulus (GPa) = 4.83685 20.77398 12.80541
# Shear Modulus (GPa) = 20.87685 39.57387 30.22536
#
# Velocity S-wave (km/s) = 3.01361 4.14915 3.62610
# Velocity P-wave (km/s) = 3.77005 5.65606 4.80647
#
# Compressibility (1/GPa) = 0.20674629
#
# Stress axis : x y z
#
# Youngs Moduli (GPa) = 16.45749 56.31479 38.46946
#
# Poissons Ratio (x) = -1.04360 -0.86959
# Poissons Ratio (y) = -0.30498 -0.38391
# Poissons Ratio (z) = -0.37201 -0.56201
#
# Static dielectric constant tensor:
#      x y z
#    x 2.149890 -0.038180 0.046540 
#    y -0.038180 2.181240 -0.102230 
#    z 0.046540 -0.102230 1.890210 
# 
# From -- ./inp_files/346323.got.cif
#   From: 2010.05.17/outbox.cif.g08.bks.cpg/sg2_174_cif.got.tgz:346323.got - 2010.06.03 11:33:40.
