data_PCOD9023520
_publ_section_title
;
Structure prediction by ZEFSAII (Michael W. Deem and Ramdas Pophale) SiO2 
 PCOD9023520
Probable space group: P -1
;
_chemical_formula_sum "Si O2"
_cell_formula_units_Z 14
_cell_length_a 13.991685
_cell_length_b 6.913453
_cell_length_c 8.834299
_cell_angle_alpha 57.302213
_cell_angle_beta 58.656428
_cell_angle_gamma 86.321988
_cell_volume 585.560653
_symmetry_space_group_name_H-M "P -1"
_symmetry_group_IT_number 2
_symmetry_cell_setting 'triclinic'
loop_
_space_group_symop_operation_xyz
x,y,z
-x,-y,-z
loop_
_atom_site_type_symbol
_atom_site_label
_atom_site_fract_x
_atom_site_fract_y
_atom_site_fract_z
Si Si1 0.824238 0.351568 0.108112
Si Si2 0.588946 0.159110 0.236790
Si Si3 0.219694 0.199391 0.530718
Si Si4 0.922012 0.542149 0.262458
Si Si5 0.563426 0.352165 0.860032
Si Si6 0.132921 0.004601 0.373945
Si Si7 0.343637 0.081732 0.986239
O O1 0.702523 0.351340 0.134033
O O2 0.871162 0.523847 0.140848
O O3 0.792327 0.074084 0.304282
O O4 0.937137 0.395547 0.888260
O O5 0.538708 0.289200 0.086659
O O6 0.500000 0.000000 0.500000
O O7 0.636903 0.969184 0.181978
O O8 0.123567 0.282196 0.669266
O O9 0.344407 0.396275 0.365393
O O10 0.196486 0.185501 0.376856
O O11 0.873017 0.271069 0.477535
O O12 0.629485 0.148523 0.855161
O O13 0.552821 0.702281 0.121018
O O14 0.213098 0.082485 0.128098
O O15 0.000000 0.000000 0.500000
#
# Coordination Sequence:
#
# PCOD9023520 Si02
#       7
#     2   2   2   2   2   2   2
#     4  10  24  40  63  99 133 173 222 269 341 396
#     4  10  22  39  70  96 131 174 221 281 334 388
#     4  11  23  40  71  94 126 185 220 269 336 403
#     4  10  22  44  64  90 141 177 213 283 326 396
#     4   9  21  41  72  91 128 180 216 272 337 385
#     4  11  25  39  68 102 128 174 232 270 328 402
#     4   9  21  43  66  96 137 171 222 276 328 399
#
# _framework density 23.908712000000001
#
# number of rings (size 3 to 8) (size 9 to 14) (size 15 to 20)
#    0.857    1.143    1.429    0.429   10.000    1.143 
#    0.000    0.714    0.000    0.000    0.000    0.000 
#    0.000    0.000    0.000    0.000    0.000    0.000 
#
# Total GULP energy -78244.949129 kJ/mol
# GULP energy per Si atom -5588.924938 kJ/mol
# Density = 2.385429 g / cm^3
# Si number density = 23.908712 Si / 1000 Ang^3
#
#
#
# Elastic Constant Matrix: (Units=GPa)
#
#
# Indices 1 2 3 4 5 6 
#
# 1 86.3342 13.0906 38.9145 1.7082 -25.7673 0.0745
# 2 13.0906 80.0554 30.8118 3.9911 -4.4272 -5.1841
# 3 38.9145 30.8118 144.8236 11.5359 -35.8697 -2.6526
# 4 1.7082 3.9911 11.5359 44.7743 -1.1196 -8.7175
# 5 -25.7673 -4.4272 -35.8697 -1.1196 39.2630 -6.9038
# 6 0.0745 -5.1841 -2.6526 -8.7175 -6.9038 34.2810
#
#
#
# Elastic Compliance Matrix: (Units=1/GPa)
#
#
# Indices 1 2 3 4 5 6 
#
# 1 0.015052 -0.001272 -0.001688 0.000472 0.008465 0.001469
# 2 -0.001272 0.013861 -0.003003 -0.000172 -0.001762 0.001468
# 3 -0.001688 -0.003003 0.010161 -0.001792 0.008050 0.001501
# 4 0.000472 -0.000172 -0.001792 0.023973 0.000393 0.006010
# 5 0.008465 -0.001762 0.008050 0.000393 0.039673 0.008428
# 6 0.001469 0.001468 0.001501 0.006010 0.008428 0.032731
#
#
# Mechanical properties :
#
#
# Convention : Reuss Voigt Hill
#
# Bulk Modulus (GPa) = 36.83417 52.98299 44.90858
# Shear Modulus (GPa) = 31.96350 38.89009 35.42680
#
# Velocity S-wave (km/s) = 3.66033 4.03750 3.85353
# Velocity P-wave (km/s) = 5.77093 6.62901 6.21480
#
# Compressibility (1/GPa) = 0.02714870
#
# Stress axis : x y z
#
# Youngs Moduli (GPa) = 66.43443 72.14296 98.41067
#
# Poissons Ratio (x) = 0.09176 0.16614
# Poissons Ratio (y) = 0.08450 0.29555
# Poissons Ratio (z) = 0.11216 0.21666
#
# Static dielectric constant tensor:
#      x y z
#    x 1.998190 -0.055200 -0.001340 
#    y -0.055200 1.959670 0.006360 
#    z -0.001340 0.006360 1.906070 
# 
# From -- ./inp_files/288432.got.cif
#   From: 2010.05.17/outbox.cif.g08.bks.cpg/sg2_145_cif.got.tgz:288432.got - 2010.06.03 11:33:40.
