data_PCOD9023004
_publ_section_title
;
Structure prediction by ZEFSAII (Michael W. Deem and Ramdas Pophale) SiO2 
 PCOD9023004
Probable space group: P -1
;
_chemical_formula_sum "Si O2"
_cell_formula_units_Z 16
_cell_length_a 9.028204
_cell_length_b 16.128714
_cell_length_c 11.784129
_cell_angle_alpha 53.076256
_cell_angle_beta 147.307832
_cell_angle_gamma 128.237283
_cell_volume 714.950887
_symmetry_space_group_name_H-M "P -1"
_symmetry_group_IT_number 2
_symmetry_cell_setting 'triclinic'
loop_
_space_group_symop_operation_xyz
x,y,z
-x,-y,-z
loop_
_atom_site_type_symbol
_atom_site_label
_atom_site_fract_x
_atom_site_fract_y
_atom_site_fract_z
Si Si1 0.845905 0.898899 0.060098
Si Si2 0.742968 0.918997 0.245455
Si Si3 0.335135 0.466272 0.566177
Si Si4 0.644574 0.673401 0.727327
Si Si5 0.884335 0.442767 0.854718
Si Si6 0.074537 0.701508 0.443384
Si Si7 0.797379 0.201430 0.309861
Si Si8 0.840817 0.163804 0.132107
O O1 0.807579 0.928846 0.142844
O O2 0.996255 0.800363 0.246307
O O3 0.532272 0.857100 0.840435
O O4 0.000000 0.000000 0.000000
O O5 0.984424 0.872116 0.491396
O O6 0.765842 0.036503 0.212314
O O7 0.425294 0.840640 0.119619
O O8 0.513787 0.587254 0.615432
O O9 0.548512 0.403094 0.700932
O O10 0.118918 0.481819 0.317132
O O11 0.187128 0.405289 0.633002
O O12 0.367531 0.680161 0.610875
O O13 0.830720 0.794040 0.722584
O O14 0.904002 0.629572 0.980874
O O15 0.000000 0.500000 0.000000
O O16 0.106815 0.729600 0.574268
O O17 0.811964 0.240188 0.157004
#
# Coordination Sequence:
#
# PCOD9023004 Si02
#       8
#     2   2   2   2   2   2   2   2
#     4  10  24  42  66  96 133 177 227 275 337 404
#     4   9  21  42  63  92 130 174 225 284 324 406
#     4  10  23  44  68  95 137 180 223 273 339 394
#     4  11  25  40  66 103 137 175 225 279 328 404
#     4   9  22  41  69  96 128 174 225 279 321 400
#     4  11  26  42  67  99 139 178 220 279 339 399
#     4  10  23  39  67  92 126 181 220 276 338 399
#     4  10  22  39  65  96 130 170 227 275 338 393
#
# _framework density 22.379159000000001
#
# number of rings (size 3 to 8) (size 9 to 14) (size 15 to 20)
#    0.000    2.000    0.000    0.750   14.000    3.500 
#    0.000    0.000    0.000    0.000    0.000    0.000 
#    0.000    0.000    0.000    0.000    0.000    0.000 
#
# Total GULP energy -89125.425743 kJ/mol
# GULP energy per Si atom -5570.339109 kJ/mol
# Density = 2.232822 g / cm^3
# Si number density = 22.379159 Si / 1000 Ang^3
#
#
#
# Elastic Constant Matrix: (Units=GPa)
#
#
# Indices 1 2 3 4 5 6 
#
# 1 59.8717 25.2347 30.7798 -8.7799 29.3918 7.3024
# 2 25.2347 89.1950 41.7959 7.0803 4.1910 10.3419
# 3 30.7798 41.7959 124.0129 -3.1028 19.0353 -1.1163
# 4 -8.7799 7.0803 -3.1028 26.5042 -6.4801 5.2912
# 5 29.3918 4.1910 19.0353 -6.4801 45.8741 5.4189
# 6 7.3024 10.3419 -1.1163 5.2912 5.4189 42.4393
#
#
#
# Elastic Compliance Matrix: (Units=1/GPa)
#
#
# Indices 1 2 3 4 5 6 
#
# 1 0.030533 -0.007054 -0.002497 0.008194 -0.016426 -0.002525
# 2 -0.007054 0.015810 -0.004421 -0.005462 0.004450 -0.002642
# 3 -0.002497 -0.004421 0.010598 0.000562 -0.002556 0.002042
# 4 0.008194 -0.005462 0.000562 0.043565 0.001846 -0.005731
# 5 -0.016426 0.004450 -0.002556 0.001846 0.033574 -0.002842
# 6 -0.002525 -0.002642 0.002042 -0.005731 -0.002842 0.025773
#
#
# Mechanical properties :
#
#
# Convention : Reuss Voigt Hill
#
# Bulk Modulus (GPa) = 34.48735 52.07782 43.28258
# Shear Modulus (GPa) = 25.32141 34.64815 29.98478
#
# Velocity S-wave (km/s) = 3.36739 3.93903 3.66437
# Velocity P-wave (km/s) = 5.52838 6.63394 6.10623
#
# Compressibility (1/GPa) = 0.02899614
#
# Stress axis : x y z
#
# Youngs Moduli (GPa) = 32.75179 63.25283 94.35562
#
# Poissons Ratio (x) = 0.44618 0.23562
# Poissons Ratio (y) = 0.23103 0.41715
# Poissons Ratio (z) = 0.08179 0.27964
#
# Static dielectric constant tensor:
#      x y z
#    x 1.861810 0.050600 -0.005830 
#    y 0.050600 1.958400 0.016710 
#    z -0.005830 0.016710 1.874050 
# 
# From -- ./inp_files/47423.got.cif
#   From: 2010.05.17/outbox.cif.g08.bks.cpg/sg2_24_cif.got.tgz:47423.got - 2010.06.03 11:33:40.
