data_PCOD9023033
_publ_section_title
;
Structure prediction by ZEFSAII (Michael W. Deem and Ramdas Pophale) SiO2 
 PCOD9023033
Probable space group: P -1
;
_chemical_formula_sum "Si O2"
_cell_formula_units_Z 14
_cell_length_a 15.073931
_cell_length_b 8.228278
_cell_length_c 6.611150
_cell_angle_alpha 54.292976
_cell_angle_beta 90.111038
_cell_angle_gamma 94.572084
_cell_volume 662.721204
_symmetry_space_group_name_H-M "P -1"
_symmetry_group_IT_number 2
_symmetry_cell_setting 'triclinic'
loop_
_space_group_symop_operation_xyz
x,y,z
-x,-y,-z
loop_
_atom_site_type_symbol
_atom_site_label
_atom_site_fract_x
_atom_site_fract_y
_atom_site_fract_z
Si Si1 0.999738 0.487348 0.273332
Si Si2 0.883748 0.238937 0.172255
Si Si3 0.285824 0.174467 0.057460
Si Si4 0.160075 0.222210 0.374951
Si Si5 0.332026 0.403051 0.502576
Si Si6 0.591709 0.920456 0.494662
Si Si7 0.294205 0.808277 0.024415
O O1 0.076950 0.348198 0.312184
O O2 0.000000 0.500000 0.500000
O O3 0.908417 0.380562 0.261639
O O4 0.032971 0.701354 0.019380
O O5 0.870152 0.008551 0.402965
O O6 0.794739 0.283392 0.022915
O O7 0.200584 0.227204 0.145936
O O8 0.354240 0.120467 0.271563
O O9 0.269144 0.979315 0.055943
O O10 0.323296 0.351574 0.776974
O O11 0.240531 0.301499 0.469499
O O12 0.337937 0.634652 0.271381
O O13 0.409363 0.285065 0.486919
O O14 0.500000 0.000000 0.500000
O O15 0.643791 0.084330 0.227435
#
# Coordination Sequence:
#
# PCOD9023033 Si02
#       7
#     2   2   2   2   2   2   2
#     4  11  27  41  61  93 130 167 215 274 315 371
#     4  11  23  43  60  94 125 168 219 262 316 374
#     4  10  22  40  68  94 124 174 207 265 319 383
#     4  11  22  42  64  91 128 166 219 265 317 377
#     4  10  22  39  65  98 127 169 216 258 320 380
#     4  10  23  44  66  97 133 165 211 265 316 382
#     4  11  22  42  66  96 130 169 219 258 318 386
#
# _framework density 21.125022000000001
#
# number of rings (size 3 to 8) (size 9 to 14) (size 15 to 20)
#    0.000    1.429    5.714    0.429    2.000    9.143 
#    0.000    1.429    0.000    0.000    0.000    0.000 
#    0.000    0.000    0.000    0.000    0.000    0.000 
#
# Total GULP energy -78234.157825 kJ/mol
# GULP energy per Si atom -5588.154130 kJ/mol
# Density = 2.107694 g / cm^3
# Si number density = 21.125022 Si / 1000 Ang^3
#
#
#
# Elastic Constant Matrix: (Units=GPa)
#
#
# Indices 1 2 3 4 5 6 
#
# 1 71.6777 35.0293 28.5283 10.5547 4.1761 -33.9681
# 2 35.0293 61.3455 62.5516 14.5970 -4.2636 -22.6653
# 3 28.5283 62.5516 169.5971 16.1546 -1.5594 -18.4912
# 4 10.5547 14.5970 16.1546 43.5234 -4.9694 2.0054
# 5 4.1761 -4.2636 -1.5594 -4.9694 18.8354 -2.4735
# 6 -33.9681 -22.6653 -18.4912 2.0054 -2.4735 28.7947
#
#
#
# Elastic Compliance Matrix: (Units=1/GPa)
#
#
# Indices 1 2 3 4 5 6 
#
# 1 0.037305 -0.005443 0.001067 -0.010262 -0.006798 0.040540
# 2 -0.005443 0.040593 -0.011040 -0.007971 0.009986 0.019854
# 3 0.001067 -0.011040 0.009646 -0.000324 -0.002207 -0.001404
# 4 -0.010262 -0.007971 -0.000324 0.029835 0.005666 -0.020179
# 5 -0.006798 0.009986 -0.002207 0.005666 0.058573 0.003060
# 6 0.040540 0.019854 -0.001404 -0.020179 0.003060 0.098947
#
#
# Mechanical properties :
#
#
# Convention : Reuss Voigt Hill
#
# Bulk Modulus (GPa) = 17.63272 61.64874 39.64073
# Shear Modulus (GPa) = 15.40192 29.99810 22.70001
#
# Velocity S-wave (km/s) = 2.70309 3.77241 3.28160
# Velocity P-wave (km/s) = 4.25525 6.94413 5.75883
#
# Compressibility (1/GPa) = 0.05671274
#
# Stress axis : x y z
#
# Youngs Moduli (GPa) = 26.80573 24.63507 103.66768
#
# Poissons Ratio (x) = 0.13408 -0.11063
# Poissons Ratio (y) = 0.14590 1.14451
# Poissons Ratio (z) = -0.02861 0.27198
#
# Static dielectric constant tensor:
#      x y z
#    x 1.767220 0.006590 0.019760 
#    y 0.006590 1.769730 -0.023520 
#    z 0.019760 -0.023520 1.786140 
# 
# From -- ./inp_files/43196.got.cif
#   From: 2010.05.17/outbox.cif.g08.bks.cpg/sg2_22_cif.got.tgz:43196.got - 2010.06.03 11:33:40.
