data_PCOD9023396
_publ_section_title
;
Structure prediction by ZEFSAII (Michael W. Deem and Ramdas Pophale) SiO2 
 PCOD9023396
Probable space group: P -1
;
_chemical_formula_sum "Si O2"
_cell_formula_units_Z 16
_cell_length_a 17.845544
_cell_length_b 9.652024
_cell_length_c 11.531378
_cell_angle_alpha 53.526641
_cell_angle_beta 135.645129
_cell_angle_gamma 148.046176
_cell_volume 734.481032
_symmetry_space_group_name_H-M "P -1"
_symmetry_group_IT_number 2
_symmetry_cell_setting 'triclinic'
loop_
_space_group_symop_operation_xyz
x,y,z
-x,-y,-z
loop_
_atom_site_type_symbol
_atom_site_label
_atom_site_fract_x
_atom_site_fract_y
_atom_site_fract_z
Si Si1 0.084058 0.700558 0.223875
Si Si2 0.274095 0.731529 0.040521
Si Si3 0.964116 0.626697 0.475620
Si Si4 0.601285 0.024122 0.698685
Si Si5 0.400255 0.257683 0.847862
Si Si6 0.467420 0.652388 0.287501
Si Si7 0.766781 0.916362 0.595605
Si Si8 0.333164 0.481018 0.804581
O O1 0.059522 0.486775 0.368485
O O2 0.242330 0.878748 0.231188
O O3 0.915838 0.533921 0.055947
O O4 0.125147 0.892170 0.271726
O O5 0.320494 0.973562 0.919600
O O6 0.327183 0.784703 0.207513
O O7 0.385002 0.720635 0.109651
O O8 0.806163 0.548643 0.310858
O O9 0.000000 0.500000 0.500000
O O10 0.116856 0.933259 0.462180
O O11 0.500000 0.000000 0.500000
O O12 0.473357 0.740247 0.755094
O O13 0.447729 0.349064 0.722363
O O14 0.286841 0.259561 0.786210
O O15 0.573445 0.465973 0.003516
O O16 0.618264 0.871338 0.431739
O O17 0.328715 0.373309 0.336063
#
# Coordination Sequence:
#
# PCOD9023396 Si02
#       8
#     2   2   2   2   2   2   2   2
#     4  11  22  42  65  97 130 172 219 268 334 387
#     4  11  25  39  65 102 132 170 223 274 321 393
#     4  10  22  39  68  97 129 169 224 266 325 393
#     4  11  21  41  68  95 129 175 213 268 327 392
#     4  10  23  41  67  94 135 174 220 268 332 388
#     4  11  23  44  66  96 130 174 223 271 328 392
#     4  10  24  42  66  95 129 172 221 270 330 391
#     4  10  22  43  66 100 129 177 217 269 329 395
#
# _framework density 21.784088000000001
#
# number of rings (size 3 to 8) (size 9 to 14) (size 15 to 20)
#    0.000    1.500    1.250    3.000    8.750    1.500 
#    9.000    1.250    0.000    0.000    0.000    0.000 
#    0.000    0.000    0.000    0.000    0.000    0.000 
#
# Total GULP energy -89339.219284 kJ/mol
# GULP energy per Si atom -5583.701205 kJ/mol
# Density = 2.173451 g / cm^3
# Si number density = 21.784088 Si / 1000 Ang^3
#
#
#
# Elastic Constant Matrix: (Units=GPa)
#
#
# Indices 1 2 3 4 5 6 
#
# 1 82.0109 33.2064 18.4173 0.5633 23.6305 13.2293
# 2 33.2064 103.5237 34.1311 11.2297 7.7665 20.4629
# 3 18.4173 34.1311 91.2780 14.8086 14.1972 4.6957
# 4 0.5633 11.2297 14.8086 24.7432 6.1718 2.1394
# 5 23.6305 7.7665 14.1972 6.1718 41.0443 -3.5495
# 6 13.2293 20.4629 4.6957 2.1394 -3.5495 31.4308
#
#
#
# Elastic Compliance Matrix: (Units=1/GPa)
#
#
# Indices 1 2 3 4 5 6 
#
# 1 0.018103 -0.003959 -0.001029 0.005217 -0.010660 -0.006447
# 2 -0.003959 0.013683 -0.003536 -0.003683 0.000917 -0.006359
# 3 -0.001029 -0.003536 0.013826 -0.006082 -0.002537 0.000797
# 4 0.005217 -0.003683 -0.006082 0.047775 -0.007647 -0.003005
# 5 -0.010660 0.000917 -0.002537 -0.007647 0.033092 0.008526
# 6 -0.006447 -0.006359 0.000797 -0.003005 0.008526 0.039718
#
#
# Mechanical properties :
#
#
# Convention : Reuss Voigt Hill
#
# Bulk Modulus (GPa) = 35.00900 49.81358 42.41129
# Shear Modulus (GPa) = 25.93808 32.18084 29.05946
#
# Velocity S-wave (km/s) = 3.45438 3.84769 3.65633
# Velocity P-wave (km/s) = 5.65828 6.53117 6.11033
#
# Compressibility (1/GPa) = 0.02856409
#
# Stress axis : x y z
#
# Youngs Moduli (GPa) = 55.23834 73.08348 72.32934
#
# Poissons Ratio (x) = 0.28937 0.07442
# Poissons Ratio (y) = 0.21871 0.25572
# Poissons Ratio (z) = 0.05684 0.25839
#
# Static dielectric constant tensor:
#      x y z
#    x 1.855540 -0.044920 -0.020780 
#    y -0.044920 1.801660 -0.005430 
#    z -0.020780 -0.005430 1.856990 
# 
# From -- ./inp_files/462010.got.cif
#   From: 2010.05.17/outbox.cif.g08.bks.cpg/sg2_232_cif.got.tgz:462010.got - 2010.06.03 11:33:40.
