data_PCOD9023935
_publ_section_title
;
Structure prediction by ZEFSAII (Michael W. Deem and Ramdas Pophale) SiO2 
 PCOD9023935
Probable space group: P -1
;
_chemical_formula_sum "Si O2"
_cell_formula_units_Z 14
_cell_length_a 5.026870
_cell_length_b 18.246186
_cell_length_c 15.490865
_cell_angle_alpha 157.229428
_cell_angle_beta 81.761697
_cell_angle_gamma 88.403600
_cell_volume 494.509086
_symmetry_space_group_name_H-M "P -1"
_symmetry_group_IT_number 2
_symmetry_cell_setting 'triclinic'
loop_
_space_group_symop_operation_xyz
x,y,z
-x,-y,-z
loop_
_atom_site_type_symbol
_atom_site_label
_atom_site_fract_x
_atom_site_fract_y
_atom_site_fract_z
Si Si1 0.621860 0.998369 0.119452
Si Si2 0.438974 0.619483 0.543081
Si Si3 0.617810 0.227248 0.893331
Si Si4 0.413758 0.305573 0.808825
Si Si5 0.018276 0.097762 0.338996
Si Si6 0.185254 0.420179 0.774806
Si Si7 0.905804 0.596528 0.758596
O O1 0.626174 0.138617 0.191513
O O2 0.299964 0.009135 0.165418
O O3 0.734945 0.100269 0.304842
O O4 0.841282 0.758911 0.858306
O O5 0.500000 0.500000 0.500000
O O6 0.188384 0.580550 0.462208
O O7 0.747927 0.503292 0.351498
O O8 0.606562 0.165515 0.726118
O O9 0.882705 0.059340 0.754413
O O10 0.087938 0.403245 0.970351
O O11 0.647354 0.445952 0.122451
O O12 0.385004 0.247194 0.648046
O O13 0.500000 0.500000 0.000000
O O14 0.033569 0.309145 0.600451
O O15 0.682844 0.721321 0.981416
#
# Coordination Sequence:
#
# PCOD9023935 Si02
#       7
#     2   2   2   2   2   2   2
#     4  11  26  44  66 107 136 172 234 275 332 408
#     4  12  27  46  74 105 136 183 222 265 348 415
#     4  10  23  40  67  94 130 177 230 274 343 396
#     4   9  21  39  60  93 129 179 224 275 342 397
#     4  11  25  40  67  99 131 175 229 281 329 393
#     4  10  22  40  62  91 136 176 225 284 335 388
#     4  11  25  45  71 102 141 177 220 290 333 393
#
# _framework density 28.310904000000001
#
# number of rings (size 3 to 8) (size 9 to 14) (size 15 to 20)
#    0.000    1.429    0.000    3.857   14.000    1.714 
#    0.000    6.429    0.000    0.000    0.000    0.000 
#    0.000    0.000    0.000    0.000    0.000    0.000 
#
# Total GULP energy -78498.122864 kJ/mol
# GULP energy per Si atom -5607.008776 kJ/mol
# Density = 2.824647 g / cm^3
# Si number density = 28.310904 Si / 1000 Ang^3
#
#
#
# Elastic Constant Matrix: (Units=GPa)
#
#
# Indices 1 2 3 4 5 6 
#
# 1 126.1321 41.7522 14.0264 -2.5876 3.2330 6.0042
# 2 41.7522 173.8511 18.6996 30.5565 4.4319 0.0431
# 3 14.0264 18.6996 76.6635 28.7962 11.0794 10.9789
# 4 -2.5876 30.5565 28.7962 65.3675 0.8151 7.8387
# 5 3.2330 4.4319 11.0794 0.8151 43.4249 8.5179
# 6 6.0042 0.0431 10.9789 7.8387 8.5179 33.7268
#
#
#
# Elastic Compliance Matrix: (Units=1/GPa)
#
#
# Indices 1 2 3 4 5 6 
#
# 1 0.009054 -0.002425 -0.001803 0.002484 0.000316 -0.001679
# 2 -0.002425 0.006972 -0.000042 -0.003500 -0.000736 0.001436
# 3 -0.001803 -0.000042 0.016965 -0.007164 -0.003537 -0.002643
# 4 0.002484 -0.003500 -0.007164 0.020576 0.002294 -0.003467
# 5 0.000316 -0.000736 -0.003537 0.002294 0.025071 -0.005769
# 6 -0.001679 0.001436 -0.002643 -0.003467 -0.005769 0.033070
#
#
# Mechanical properties :
#
#
# Convention : Reuss Voigt Hill
#
# Bulk Modulus (GPa) = 40.89612 58.40035 49.64823
# Shear Modulus (GPa) = 38.94145 48.64841 43.79493
#
# Velocity S-wave (km/s) = 3.71279 4.14981 3.93737
# Velocity P-wave (km/s) = 5.73205 6.60562 6.18428
#
# Compressibility (1/GPa) = 0.02445220
#
# Stress axis : x y z
#
# Youngs Moduli (GPa) = 110.44731 143.42260 58.94560
#
# Poissons Ratio (x) = 0.34775 0.10629
# Poissons Ratio (y) = 0.26779 0.00245
# Poissons Ratio (z) = 0.19917 0.00597
#
# Static dielectric constant tensor:
#      x y z
#    x 2.141040 -0.054710 0.011150 
#    y -0.054710 2.324750 -0.013330 
#    z 0.011150 -0.013330 2.182620 
# 
# From -- ./inp_files/484628.got.cif
#   From: 2010.05.17/outbox.cif.g08.bks.cpg/sg2_243_cif.got.tgz:484628.got - 2010.06.03 11:33:40.
