data_PCOD9023806
_publ_section_title
;
Structure prediction by ZEFSAII (Michael W. Deem and Ramdas Pophale) SiO2 
 PCOD9023806
Probable space group: P -1
;
_chemical_formula_sum "Si O2"
_cell_formula_units_Z 14
_cell_length_a 11.883516
_cell_length_b 11.054957
_cell_length_c 18.480853
_cell_angle_alpha 30.608248
_cell_angle_beta 34.562504
_cell_angle_gamma 26.313412
_cell_volume 533.223921
_symmetry_space_group_name_H-M "P -1"
_symmetry_group_IT_number 2
_symmetry_cell_setting 'triclinic'
loop_
_space_group_symop_operation_xyz
x,y,z
-x,-y,-z
loop_
_atom_site_type_symbol
_atom_site_label
_atom_site_fract_x
_atom_site_fract_y
_atom_site_fract_z
Si Si1 0.086875 0.051943 0.663616
Si Si2 0.863397 0.951493 0.657594
Si Si3 0.018685 0.339342 0.847300
Si Si4 0.322834 0.369713 0.783173
Si Si5 0.071645 0.514038 0.340230
Si Si6 0.492574 0.668839 0.154166
Si Si7 0.575488 0.418172 0.087311
O O1 0.081339 0.234318 0.504463
O O2 0.069899 0.233331 0.650796
O O3 0.814337 0.120934 0.779314
O O4 0.348922 0.694282 0.718041
O O5 0.824392 0.717129 0.766575
O O6 0.078651 0.734771 0.716666
O O7 0.594908 0.265654 0.665742
O O8 0.000000 0.000000 0.500000
O O9 0.076615 0.318340 0.742944
O O10 0.248810 0.229609 0.835760
O O11 0.887136 0.207148 0.017803
O O12 0.369732 0.261246 0.896669
O O13 0.368612 0.379565 0.242193
O O14 0.544377 0.630960 0.060841
O O15 0.500000 0.500000 0.000000
#
# Coordination Sequence:
#
# PCOD9023806 Si02
#       7
#     2   2   2   2   2   2   2
#     4  10  23  41  64  98 123 166 209 264 319 362
#     4  10  22  40  61  94 129 166 206 254 312 375
#     4   9  22  40  64  94 129 168 209 257 311 379
#     4  10  23  39  62  97 123 163 206 256 320 368
#     4   9  20  41  65  92 127 166 214 262 310 371
#     4  11  23  41  68  92 131 161 209 264 313 378
#     4   9  20  45  63  91 125 172 212 255 309 374
#
# _framework density 26.255386999999999
#
# number of rings (size 3 to 8) (size 9 to 14) (size 15 to 20)
#    0.857    1.429    0.000    1.286    4.000    5.714 
#   12.857    4.286    0.000    0.000    0.000    0.000 
#    0.000    0.000    0.000    0.000    0.000    0.000 
#
# Total GULP energy -78137.969576 kJ/mol
# GULP energy per Si atom -5581.283541 kJ/mol
# Density = 2.619563 g / cm^3
# Si number density = 26.255387 Si / 1000 Ang^3
#
#
#
# Elastic Constant Matrix: (Units=GPa)
#
#
# Indices 1 2 3 4 5 6 
#
# 1 168.8350 13.5813 52.6663 1.5337 43.8624 -18.9891
# 2 13.5813 106.0091 31.7371 17.6255 9.2818 -10.1230
# 3 52.6663 31.7371 156.2493 2.2879 19.2873 1.7493
# 4 1.5337 17.6255 2.2879 41.9728 -3.8185 4.3315
# 5 43.8624 9.2818 19.2873 -3.8185 44.6776 6.6612
# 6 -18.9891 -10.1230 1.7493 4.3315 6.6612 25.6927
#
#
#
# Elastic Compliance Matrix: (Units=1/GPa)
#
#
# Indices 1 2 3 4 5 6 
#
# 1 0.011609 0.002497 -0.002906 -0.003928 -0.013056 0.013809
# 2 0.002497 0.012454 -0.002653 -0.006703 -0.005897 0.009592
# 3 -0.002906 -0.002653 0.007854 0.001286 0.000740 -0.004136
# 4 -0.003928 -0.006703 0.001286 0.028865 0.009076 -0.012851
# 5 -0.013056 -0.005897 0.000740 0.009076 0.040467 -0.024046
# 6 0.013809 0.009592 -0.004136 -0.012851 -0.024046 0.061590
#
#
# Mechanical properties :
#
#
# Convention : Reuss Voigt Hill
#
# Bulk Modulus (GPa) = 38.76612 69.67365 54.21989
# Shear Modulus (GPa) = 28.15936 44.67586 36.41761
#
# Velocity S-wave (km/s) = 3.27848 4.12951 3.72836
# Velocity P-wave (km/s) = 5.39707 7.02365 6.26338
#
# Compressibility (1/GPa) = 0.02579572
#
# Stress axis : x y z
#
# Youngs Moduli (GPa) = 86.13773 80.29446 127.31609
#
# Poissons Ratio (x) = -0.20053 0.36995
# Poissons Ratio (y) = -0.21513 0.33774
# Poissons Ratio (z) = 0.25030 0.21300
#
# Static dielectric constant tensor:
#      x y z
#    x 2.228120 0.161770 0.004960 
#    y 0.161770 2.173870 -0.027350 
#    z 0.004960 -0.027350 1.969630 
# 
# From -- ./inp_files/518739.got.cif
#   From: 2010.05.17/outbox.cif.g08.bks.cpg/sg2_260_cif.got.tgz:518739.got - 2010.06.03 11:33:40.
