data_PCOD9023351
_publ_section_title
;
Structure prediction by ZEFSAII (Michael W. Deem and Ramdas Pophale) SiO2 
 PCOD9023351
Probable space group: P -1
;
_chemical_formula_sum "Si O2"
_cell_formula_units_Z 16
_cell_length_a 5.139155
_cell_length_b 21.475065
_cell_length_c 18.212596
_cell_angle_alpha 28.483873
_cell_angle_beta 50.318212
_cell_angle_gamma 59.117536
_cell_volume 731.414803
_symmetry_space_group_name_H-M "P -1"
_symmetry_group_IT_number 2
_symmetry_cell_setting 'triclinic'
loop_
_space_group_symop_operation_xyz
x,y,z
-x,-y,-z
loop_
_atom_site_type_symbol
_atom_site_label
_atom_site_fract_x
_atom_site_fract_y
_atom_site_fract_z
Si Si1 0.975035 0.420925 0.990377
Si Si2 0.299275 0.087479 0.394509
Si Si3 0.085107 0.732409 0.452284
Si Si4 0.657491 0.313296 0.012066
Si Si5 0.797572 0.665646 0.377106
Si Si6 0.163683 0.907658 0.124602
Si Si7 0.045672 0.542776 0.325815
Si Si8 0.773121 0.692622 0.708013
O O1 0.972362 0.574840 0.820970
O O2 0.922514 0.365833 0.973587
O O3 0.631526 0.359451 0.158024
O O4 0.315793 0.385298 0.002939
O O5 0.537122 0.164405 0.210370
O O6 0.162173 0.191497 0.365565
O O7 0.500000 0.000000 0.500000
O O8 0.000000 0.000000 0.500000
O O9 0.495005 0.748663 0.366452
O O10 0.990693 0.843227 0.297974
O O11 0.031088 0.583947 0.582352
O O12 0.892896 0.732330 0.563699
O O13 0.785569 0.344625 0.875158
O O14 0.754261 0.530685 0.572062
O O15 0.142382 0.765845 0.230513
O O16 0.790821 0.614832 0.347454
O O17 0.500000 0.000000 0.000000
O O18 0.000000 0.000000 0.000000
#
# Coordination Sequence:
#
# PCOD9023351 Si02
#       8
#     2   2   2   2   2   2   2   2
#     4  10  22  40  68 104 130 162 216 281 343 387
#     4  11  25  47  63  91 136 182 222 268 325 399
#     4  11  21  43  70 102 134 174 228 280 338 408
#     4  11  22  44  68  96 135 171 221 277 328 410
#     4  10  22  42  68 101 140 172 215 291 334 403
#     4  11  23  46  66  90 135 180 229 275 321 393
#     4  10  22  39  68 105 133 174 218 280 358 395
#     4  10  22  41  70 102 133 176 218 282 336 401
#
# _framework density 21.875412000000001
#
# number of rings (size 3 to 8) (size 9 to 14) (size 15 to 20)
#    0.000    1.500    2.500    2.625    0.000    5.500 
#   18.000    0.000    0.000    0.000    0.000    0.000 
#    0.000    0.000    0.000    0.000    0.000    0.000 
#
# Total GULP energy -89219.987124 kJ/mol
# GULP energy per Si atom -5576.249195 kJ/mol
# Density = 2.182562 g / cm^3
# Si number density = 21.875412 Si / 1000 Ang^3
#
#
#
# Elastic Constant Matrix: (Units=GPa)
#
#
# Indices 1 2 3 4 5 6 
#
# 1 82.4237 25.4617 39.9639 7.7267 10.4655 26.1112
# 2 25.4617 64.5088 69.4014 19.7871 1.8355 27.7771
# 3 39.9639 69.4014 177.1116 17.4158 27.8852 30.7890
# 4 7.7267 19.7871 17.4158 40.4573 14.8947 -1.3881
# 5 10.4655 1.8355 27.8852 14.8947 31.3464 -8.3108
# 6 26.1112 27.7771 30.7890 -1.3881 -8.3108 28.0163
#
#
#
# Elastic Compliance Matrix: (Units=1/GPa)
#
#
# Indices 1 2 3 4 5 6 
#
# 1 0.022504 0.004189 0.001708 -0.001981 -0.016848 -0.032100
# 2 0.004189 0.054302 -0.014080 -0.026235 0.009619 -0.040715
# 3 0.001708 -0.014080 0.014439 0.006689 -0.018027 -0.008516
# 4 -0.001981 -0.026235 0.006689 0.042865 -0.019668 0.016796
# 5 -0.016848 0.009619 -0.018027 -0.019668 0.074861 0.047209
# 6 -0.032100 -0.040715 -0.008516 0.016796 0.047209 0.130174
#
#
# Mechanical properties :
#
#
# Convention : Reuss Voigt Hill
#
# Bulk Modulus (GPa) = 13.35491 65.96646 39.66069
# Shear Modulus (GPa) = 13.14162 32.57847 22.86004
#
# Velocity S-wave (km/s) = 2.45368 3.86330 3.23617
# Velocity P-wave (km/s) = 3.76107 7.07962 5.66863
#
# Compressibility (1/GPa) = 0.07487880
#
# Stress axis : x y z
#
# Youngs Moduli (GPa) = 44.43637 18.41559 69.25724
#
# Poissons Ratio (x) = -0.07714 -0.11832
# Poissons Ratio (y) = -0.18613 0.97515
# Poissons Ratio (z) = -0.07592 0.25929
#
# Static dielectric constant tensor:
#      x y z
#    x 1.890370 0.003890 -0.043750 
#    y 0.003890 1.808380 -0.008950 
#    z -0.043750 -0.008950 1.838720 
# 
# From -- ./inp_files/550986.got.cif
#   From: 2010.05.17/outbox.cif.g08.bks.cpg/sg2_276_cif.got.tgz:550986.got - 2010.06.03 11:33:40.
