data_PCOD9023556
_publ_section_title
;
Structure prediction by ZEFSAII (Michael W. Deem and Ramdas Pophale) SiO2 
 PCOD9023556
Probable space group: P -1
;
_chemical_formula_sum "Si O2"
_cell_formula_units_Z 16
_cell_length_a 9.604961
_cell_length_b 14.575409
_cell_length_c 5.549677
_cell_angle_alpha 111.804169
_cell_angle_beta 95.461246
_cell_angle_gamma 93.127686
_cell_volume 714.670853
_symmetry_space_group_name_H-M "P -1"
_symmetry_group_IT_number 2
_symmetry_cell_setting 'triclinic'
loop_
_space_group_symop_operation_xyz
x,y,z
-x,-y,-z
loop_
_atom_site_type_symbol
_atom_site_label
_atom_site_fract_x
_atom_site_fract_y
_atom_site_fract_z
Si Si1 0.815478 0.214028 0.941408
Si Si2 0.362248 0.072042 0.796818
Si Si3 0.123978 0.424064 0.663929
Si Si4 0.037791 0.057853 0.813696
Si Si5 0.028414 0.386096 0.107440
Si Si6 0.432483 0.533951 0.772017
Si Si7 0.442829 0.867004 0.508856
Si Si8 0.428684 0.749377 0.790559
O O1 0.689508 0.157955 0.713218
O O2 0.945114 0.149625 0.900302
O O3 0.734762 0.230342 0.192701
O O4 0.881846 0.321044 0.968562
O O5 0.204138 0.085002 0.849761
O O6 0.410718 0.088768 0.542793
O O7 0.395093 0.959493 0.746507
O O8 0.464555 0.159060 0.015857
O O9 0.086934 0.359486 0.354751
O O10 0.271315 0.487361 0.703337
O O11 0.002898 0.499395 0.751621
O O12 0.125004 0.373474 0.878178
O O13 0.000000 0.000000 0.500000
O O14 0.000000 0.000000 0.000000
O O15 0.500000 0.500000 0.500000
O O16 0.444618 0.652500 0.851656
O O17 0.500000 0.500000 0.000000
O O18 0.460156 0.759766 0.524175
#
# Coordination Sequence:
#
# PCOD9023556 Si02
#       8
#     2   2   2   2   2   2   2   2
#     4  11  24  42  72 105 135 188 241 289 352 423
#     4  10  23  43  69 107 145 187 238 289 363 421
#     4  10  22  43  65  98 139 167 231 283 357 401
#     4  12  27  45  68 102 147 186 226 289 354 416
#     4  10  22  39  71  98 128 182 220 291 336 422
#     4  12  28  47  73 103 145 188 237 302 362 422
#     4  10  22  42  74 102 143 188 241 294 350 427
#     4  11  25  44  74 103 139 192 248 292 353 439
#
# _framework density 22.387930000000001
#
# number of rings (size 3 to 8) (size 9 to 14) (size 15 to 20)
#    0.000    1.250    2.500    1.875    7.000    3.000 
#    0.000    0.000    0.000    0.000    0.000    0.000 
#    0.000    0.000    0.000    0.000    0.000    0.000 
#
# Total GULP energy -89189.224359 kJ/mol
# GULP energy per Si atom -5574.326522 kJ/mol
# Density = 2.233697 g / cm^3
# Si number density = 22.387930 Si / 1000 Ang^3
#
#
#
# Elastic Constant Matrix: (Units=GPa)
#
#
# Indices 1 2 3 4 5 6 
#
# 1 127.6839 52.3482 40.2891 -14.1614 -11.5775 22.1778
# 2 52.3482 110.3478 44.6141 -17.8441 -7.6921 20.1455
# 3 40.2891 44.6141 112.8450 -17.7007 -7.3568 6.2747
# 4 -14.1614 -17.8441 -17.7007 32.2703 9.8966 1.0176
# 5 -11.5775 -7.6921 -7.3568 9.8966 26.6528 2.0338
# 6 22.1778 20.1455 6.2747 1.0176 2.0338 38.2558
#
#
#
# Elastic Compliance Matrix: (Units=1/GPa)
#
#
# Indices 1 2 3 4 5 6 
#
# 1 0.010974 -0.003142 -0.002036 0.001114 0.003233 -0.004575
# 2 -0.003142 0.013479 -0.003230 0.004335 0.000397 -0.004883
# 3 -0.002036 -0.003230 0.011366 0.003546 -0.000067 0.000926
# 4 0.001114 0.004335 0.003546 0.039519 -0.011659 -0.003942
# 5 0.003233 0.000397 -0.000067 -0.011659 0.043661 -0.004084
# 6 -0.004575 -0.004883 0.000926 -0.003942 -0.004084 0.031533
#
#
# Mechanical properties :
#
#
# Convention : Reuss Voigt Hill
#
# Bulk Modulus (GPa) = 52.62247 69.48661 61.05454
# Shear Modulus (GPa) = 28.78826 33.67747 31.23287
#
# Velocity S-wave (km/s) = 3.58981 3.88270 3.73912
# Velocity P-wave (km/s) = 6.38265 7.15579 6.78025
#
# Compressibility (1/GPa) = 0.01900329
#
# Stress axis : x y z
#
# Youngs Moduli (GPa) = 91.12644 74.19089 87.98253
#
# Poissons Ratio (x) = 0.23311 0.17911
# Poissons Ratio (y) = 0.28632 0.28416
# Poissons Ratio (z) = 0.18551 0.23962
#
# Static dielectric constant tensor:
#      x y z
#    x 1.784310 -0.016820 -0.039400 
#    y -0.016820 1.899080 -0.091350 
#    z -0.039400 -0.091350 2.073240 
# 
# From -- ./inp_files/39893.got.cif
#   From: 2010.05.17/outbox.cif.g08.bks.cpg/sg2_20_cif.got.tgz:39893.got - 2010.06.03 11:33:40.
