data_PCOD9023344
_publ_section_title
;
Structure prediction by ZEFSAII (Michael W. Deem and Ramdas Pophale) SiO2 
 PCOD9023344
Probable space group: P -1
;
_chemical_formula_sum "Si O2"
_cell_formula_units_Z 12
_cell_length_a 23.172209
_cell_length_b 5.241853
_cell_length_c 13.310771
_cell_angle_alpha 82.341912
_cell_angle_beta 28.702127
_cell_angle_gamma 60.615679
_cell_volume 476.447504
_symmetry_space_group_name_H-M "P -1"
_symmetry_group_IT_number 2
_symmetry_cell_setting 'triclinic'
loop_
_space_group_symop_operation_xyz
x,y,z
-x,-y,-z
loop_
_atom_site_type_symbol
_atom_site_label
_atom_site_fract_x
_atom_site_fract_y
_atom_site_fract_z
Si Si1 0.308097 0.855028 0.211246
Si Si2 0.818103 0.923988 0.816543
Si Si3 0.065458 0.755453 0.596456
Si Si4 0.870946 0.619114 0.284528
Si Si5 0.223818 0.696032 0.646884
Si Si6 0.515147 0.245017 0.409084
O O1 0.154152 0.886047 0.467314
O O2 0.334307 0.775710 0.055179
O O3 0.223853 0.281344 0.339850
O O4 0.500000 0.500000 0.000000
O O5 0.000000 0.500000 0.500000
O O6 0.897882 0.029142 0.754079
O O7 0.716190 0.924835 0.057067
O O8 0.012442 0.715204 0.786511
O O9 0.715828 0.667060 0.483021
O O10 0.779685 0.045597 0.430172
O O11 0.000000 0.500000 0.000000
O O12 0.347972 0.538523 0.564370
O O13 0.000000 0.000000 0.000000
O O14 0.500000 0.500000 0.500000
O O15 0.500000 0.000000 0.500000
#
# Coordination Sequence:
#
# PCOD9023344 Si02
#       6
#     2   2   2   2   2   2
#     4  11  25  47  69 104 135 188 249 306 359 435
#     4  10  27  51  75 106 154 202 248 305 377 451
#     4  11  24  43  73  96 141 193 243 294 371 439
#     4  10  22  39  68 103 139 182 240 289 369 432
#     4  10  23  42  69 101 149 185 239 296 373 429
#     4  12  29  48  76 115 151 193 251 313 375 443
#
# _framework density 25.186406000000002
#
# number of rings (size 3 to 8) (size 9 to 14) (size 15 to 20)
#    0.000    1.333    0.000    3.000   14.000    5.333 
#    0.000    0.000    0.000    0.000    0.000    0.000 
#    0.000    0.000    0.000    0.000    0.000    0.000 
#
# Total GULP energy -67112.281817 kJ/mol
# GULP energy per Si atom -5592.690151 kJ/mol
# Density = 2.512908 g / cm^3
# Si number density = 25.186406 Si / 1000 Ang^3
#
#
#
# Elastic Constant Matrix: (Units=GPa)
#
#
# Indices 1 2 3 4 5 6 
#
# 1 206.6097 49.6175 48.1200 -10.5936 -13.0150 -0.8684
# 2 49.6175 115.9865 29.4259 -33.9511 3.8663 23.6769
# 3 48.1200 29.4259 125.6251 -13.2513 12.1271 -0.6541
# 4 -10.5936 -33.9511 -13.2513 39.2891 -11.4596 -2.6559
# 5 -13.0150 3.8663 12.1271 -11.4596 44.9549 -8.4552
# 6 -0.8684 23.6769 -0.6541 -2.6559 -8.4552 54.5096
#
#
#
# Elastic Compliance Matrix: (Units=1/GPa)
#
#
# Indices 1 2 3 4 5 6 
#
# 1 0.006103 -0.002642 -0.002018 -0.000409 0.002740 0.001625
# 2 -0.002642 0.014468 -0.001252 0.010987 0.000039 -0.005800
# 3 -0.002018 -0.001252 0.009374 0.000742 -0.002773 0.000230
# 4 -0.000409 0.010987 0.000742 0.037279 0.007915 -0.001726
# 5 0.002740 0.000039 -0.002773 0.007915 0.026649 0.004513
# 6 0.001625 -0.005800 0.000230 -0.001726 0.004513 0.021509
#
#
# Mechanical properties :
#
#
# Convention : Reuss Voigt Hill
#
# Bulk Modulus (GPa) = 55.18372 78.06088 66.62230
# Shear Modulus (GPa) = 37.52472 49.15458 43.33965
#
# Velocity S-wave (km/s) = 3.86408 4.42252 4.15270
# Velocity P-wave (km/s) = 6.47038 7.55902 7.03579
#
# Compressibility (1/GPa) = 0.01812129
#
# Stress axis : x y z
#
# Youngs Moduli (GPa) = 163.85629 69.11700 106.68200
#
# Poissons Ratio (x) = 0.18258 0.21529
# Poissons Ratio (y) = 0.43283 0.13358
# Poissons Ratio (z) = 0.33068 0.08654
#
# Static dielectric constant tensor:
#      x y z
#    x 2.268640 0.120990 0.199580 
#    y 0.120990 2.077380 0.137730 
#    z 0.199580 0.137730 2.155600 
# 
# From -- ./inp_files/60549.got.cif
#   From: 2010.05.17/outbox.cif.g08.bks.cpg/sg2_31_cif.got.tgz:60549.got - 2010.06.03 11:33:40.
