data_PCOD9023976
_publ_section_title
;
Structure prediction by ZEFSAII (Michael W. Deem and Ramdas Pophale) SiO2 
 PCOD9023976
Probable space group: P -1
;
_chemical_formula_sum "Si O2"
_cell_formula_units_Z 14
_cell_length_a 22.948937
_cell_length_b 20.699826
_cell_length_c 9.521409
_cell_angle_alpha 29.231802
_cell_angle_beta 32.006441
_cell_angle_gamma 19.196536
_cell_volume 718.211730
_symmetry_space_group_name_H-M "P -1"
_symmetry_group_IT_number 2
_symmetry_cell_setting 'triclinic'
loop_
_space_group_symop_operation_xyz
x,y,z
-x,-y,-z
loop_
_atom_site_type_symbol
_atom_site_label
_atom_site_fract_x
_atom_site_fract_y
_atom_site_fract_z
Si Si1 0.279884 0.876971 0.392730
Si Si2 0.653172 0.081516 0.266371
Si Si3 0.206203 0.805840 0.408970
Si Si4 0.130157 0.648845 0.659256
Si Si5 0.493722 0.356494 0.340977
Si Si6 0.152545 0.384191 0.295158
Si Si7 0.474557 0.177757 0.188462
O O1 0.299404 0.741856 0.491335
O O2 0.395797 0.751309 0.534279
O O3 0.365230 0.917764 0.053076
O O4 0.069124 0.101251 0.432450
O O5 0.593873 0.171492 0.372687
O O6 0.485010 0.232603 0.215920
O O7 0.757748 0.842003 0.498597
O O8 0.759457 0.102973 0.938197
O O9 0.226248 0.653176 0.570526
O O10 0.000000 0.000000 0.500000
O O11 0.286877 0.505643 0.494633
O O12 0.096395 0.530399 0.003095
O O13 0.500000 0.500000 0.000000
O O14 0.291171 0.350617 0.153068
O O15 0.000000 0.500000 0.500000
O O16 0.500000 0.000000 0.500000
#
# Coordination Sequence:
#
# PCOD9023976 Si02
#       7
#     2   2   2   2   2   2   2
#     4  10  22  41  65  92 130 165 214 270 310 371
#     4  10  22  40  62  93 132 166 209 264 315 378
#     4   9  18  38  65  92 121 163 217 266 305 360
#     4  11  22  40  65  95 126 170 214 259 320 378
#     4  12  25  43  61  92 136 172 211 256 322 385
#     4  11  21  39  68  98 124 161 217 267 318 376
#     4   9  18  38  64  90 122 162 209 266 309 362
#
# _framework density 19.492858999999999
#
# number of rings (size 3 to 8) (size 9 to 14) (size 15 to 20)
#    0.000    1.714    2.857    3.429    0.000    2.857 
#    2.571    0.714    0.000    0.000    0.000    0.000 
#    0.000    0.000    0.000    0.000    0.000    0.000 
#
# Total GULP energy -77953.970236 kJ/mol
# GULP energy per Si atom -5568.140731 kJ/mol
# Density = 1.944849 g / cm^3
# Si number density = 19.492859 Si / 1000 Ang^3
#
#
#
# Elastic Constant Matrix: (Units=GPa)
#
#
# Indices 1 2 3 4 5 6 
#
# 1 91.8706 43.9486 28.1039 6.3427 6.4358 7.9770
# 2 43.9486 116.0876 37.5394 16.6732 1.2046 5.4443
# 3 28.1039 37.5394 112.6943 3.0606 -5.9683 3.7578
# 4 6.3427 16.6732 3.0606 39.0370 -0.8808 -1.9216
# 5 6.4358 1.2046 -5.9683 -0.8808 32.0893 0.5619
# 6 7.9770 5.4443 3.7578 -1.9216 0.5619 31.9772
#
#
#
# Elastic Compliance Matrix: (Units=1/GPa)
#
#
# Indices 1 2 3 4 5 6 
#
# 1 0.014116 -0.004457 -0.002102 -0.000416 -0.003023 -0.002488
# 2 -0.004457 0.011808 -0.002689 -0.004153 -0.000149 -0.000829
# 3 -0.002102 -0.002689 0.010414 0.000718 0.002483 -0.000242
# 4 -0.000416 -0.004153 0.000718 0.027542 0.001087 0.002362
# 5 -0.003023 -0.000149 0.002483 0.001087 0.032267 -0.000014
# 6 -0.002488 -0.000829 -0.000242 0.002362 -0.000014 0.032205
#
#
# Mechanical properties :
#
#
# Convention : Reuss Voigt Hill
#
# Bulk Modulus (GPa) = 56.04636 59.98179 58.01407
# Shear Modulus (GPa) = 32.72370 34.69142 33.70756
#
# Velocity S-wave (km/s) = 4.10170 4.22322 4.16291
# Velocity P-wave (km/s) = 7.15868 7.39045 7.27549
#
# Compressibility (1/GPa) = 0.01784237
#
# Stress axis : x y z
#
# Youngs Moduli (GPa) = 70.84053 84.68872 96.02843
#
# Poissons Ratio (x) = 0.37744 0.20181
# Poissons Ratio (y) = 0.31572 0.25825
# Poissons Ratio (z) = 0.14888 0.22776
#
# Static dielectric constant tensor:
#      x y z
#    x 1.493920 -0.227880 -0.013930 
#    y -0.227880 1.472840 0.025790 
#    z -0.013930 0.025790 1.634060 
# 
# From -- ./inp_files/169871.got.cif
#   From: 2010.05.17/outbox.cif.g08.bks.cpg/sg2_85_cif.got.tgz:169871.got - 2010.06.03 11:33:40.
