data_PCOD9023645
_publ_section_title
;
Structure prediction by ZEFSAII (Michael W. Deem and Ramdas Pophale) SiO2 
 PCOD9023645
Probable space group: P -1
;
_chemical_formula_sum "Si O2"
_cell_formula_units_Z 13
_cell_length_a 12.520846
_cell_length_b 9.393882
_cell_length_c 7.617387
_cell_angle_alpha 49.072015
_cell_angle_beta 105.725553
_cell_angle_gamma 127.910893
_cell_volume 520.913094
_symmetry_space_group_name_H-M "P -1"
_symmetry_group_IT_number 2
_symmetry_cell_setting 'triclinic'
loop_
_space_group_symop_operation_xyz
x,y,z
-x,-y,-z
loop_
_atom_site_type_symbol
_atom_site_label
_atom_site_fract_x
_atom_site_fract_y
_atom_site_fract_z
Si Si1 0.001872 0.186829 0.733681
Si Si2 0.140883 0.792444 0.838436
Si Si3 0.520550 0.105519 0.630566
Si Si4 0.310043 0.650115 0.132792
Si Si5 0.618071 0.684320 0.536757
Si Si6 0.000000 0.000000 0.500000
Si Si7 0.801923 0.284710 0.468171
O O1 0.016070 0.133563 0.583040
O O2 0.121492 0.451007 0.639905
O O3 0.860411 0.165430 0.697972
O O4 0.000000 0.000000 0.000000
O O5 0.154942 0.718173 0.709538
O O6 0.268245 0.067808 0.703051
O O7 0.016457 0.811883 0.770357
O O8 0.176528 0.649820 0.088055
O O9 0.610348 0.250099 0.728584
O O10 0.456143 0.240587 0.430779
O O11 0.637267 0.142771 0.525831
O O12 0.410227 0.845321 0.872360
O O13 0.299146 0.414806 0.277736
O O14 0.500000 0.500000 0.500000
#
# Coordination Sequence:
#
# PCOD9023645 Si02
#       7
#     2   2   2   2   2   1   2
#     4  10  24  45  64  93 129 167 221 263 322 381
#     4  10  22  40  59  92 129 161 216 261 314 382
#     4   9  19  36  59  87 126 163 204 261 314 372
#     4   9  19  35  60  92 119 166 214 245 316 387
#     4   9  19  35  58  90 125 157 211 263 302 381
#     4  10  24  42  68  94 124 170 218 268 312 384
#     4  10  23  42  59  92 131 164 206 275 314 377
#
# _framework density 24.956178000000001
#
# number of rings (size 3 to 8) (size 9 to 14) (size 15 to 20)
#    0.000    2.462    0.000    0.923    6.462    6.154 
#    0.000    4.615    0.000    0.000    0.000    0.000 
#    0.000    0.000    0.000    0.000    0.000    0.000 
#
# Total GULP energy -72374.355093 kJ/mol
# GULP energy per Si atom -5567.258084 kJ/mol
# Density = 2.489938 g / cm^3
# Si number density = 24.956178 Si / 1000 Ang^3
#
#
#
# Elastic Constant Matrix: (Units=GPa)
#
#
# Indices 1 2 3 4 5 6 
#
# 1 133.0363 22.9708 52.9351 -21.3953 48.3152 -16.2724
# 2 22.9708 123.7724 25.7585 -21.5738 3.9614 -29.5917
# 3 52.9351 25.7585 131.6020 -21.7779 56.5433 -16.1293
# 4 -21.3953 -21.5738 -21.7779 44.9275 -15.2587 -2.1870
# 5 48.3152 3.9614 56.5433 -15.2587 59.4527 -0.5168
# 6 -16.2724 -29.5917 -16.1293 -2.1870 -0.5168 45.2707
#
#
#
# Elastic Compliance Matrix: (Units=1/GPa)
#
#
# Indices 1 2 3 4 5 6 
#
# 1 0.011672 -0.000529 0.000126 0.002538 -0.008884 0.003915
# 2 -0.000529 0.010951 -0.001151 0.005557 0.002281 0.006852
# 3 0.000126 -0.001151 0.014239 0.002218 -0.012961 0.004325
# 4 0.002538 0.005557 0.002218 0.028500 0.002831 0.006744
# 5 -0.008884 0.002281 -0.012961 0.002831 0.036891 -0.005762
# 6 0.003915 0.006852 0.004325 0.006744 -0.005762 0.029777
#
#
# Mechanical properties :
#
#
# Convention : Reuss Voigt Hill
#
# Bulk Modulus (GPa) = 29.62765 65.74882 47.68824
# Shear Modulus (GPa) = 34.15524 49.04662 41.60093
#
# Velocity S-wave (km/s) = 3.70348 4.43799 4.08727
# Velocity P-wave (km/s) = 5.49412 7.25699 6.43620
#
# Compressibility (1/GPa) = 0.03375225
#
# Stress axis : x y z
#
# Youngs Moduli (GPa) = 85.67756 91.31610 70.22787
#
# Poissons Ratio (x) = 0.04835 -0.00884
# Poissons Ratio (y) = 0.04536 0.08085
# Poissons Ratio (z) = -0.01078 0.10513
#
# Static dielectric constant tensor:
#      x y z
#    x 2.099220 0.091940 0.054630 
#    y 0.091940 1.892160 -0.192110 
#    z 0.054630 -0.192110 1.636180 
# 
# From -- ./inp_files/214862.got.cif
#   From: 2010.05.17/outbox.cif.g08.bks.cpg/sg2_108_cif.got.tgz:214862.got - 2010.06.03 11:33:40.
