data_PCOD9023311
_publ_section_title
;
Structure prediction by ZEFSAII (Michael W. Deem and Ramdas Pophale) SiO2 
 PCOD9023311
Probable space group: P -1
;
_chemical_formula_sum "Si O2"
_cell_formula_units_Z 16
_cell_length_a 9.419822
_cell_length_b 13.780538
_cell_length_c 7.766050
_cell_angle_alpha 89.340689
_cell_angle_beta 46.115538
_cell_angle_gamma 113.090949
_cell_volume 604.246687
_symmetry_space_group_name_H-M "P -1"
_symmetry_group_IT_number 2
_symmetry_cell_setting 'triclinic'
loop_
_space_group_symop_operation_xyz
x,y,z
-x,-y,-z
loop_
_atom_site_type_symbol
_atom_site_label
_atom_site_fract_x
_atom_site_fract_y
_atom_site_fract_z
Si Si1 0.755664 0.934141 0.815034
Si Si2 0.832067 0.519618 0.253431
Si Si3 0.425166 0.781359 0.650798
Si Si4 0.798796 0.373920 0.807844
Si Si5 0.692241 0.683079 0.432047
Si Si6 0.498322 0.005979 0.244214
Si Si7 0.667217 0.684549 0.859192
Si Si8 0.128226 0.736907 0.580148
O O1 0.697490 0.805121 0.890302
O O2 0.561929 0.933426 0.857280
O O3 0.714985 0.991950 0.015387
O O4 0.000000 0.000000 0.500000
O O5 0.855152 0.643631 0.218332
O O6 0.567866 0.421337 0.416400
O O7 0.939713 0.525880 0.351586
O O8 0.000000 0.500000 0.000000
O O9 0.673126 0.792433 0.408272
O O10 0.258102 0.721234 0.628603
O O11 0.452929 0.903761 0.648469
O O12 0.322289 0.706005 0.915548
O O13 0.818828 0.303291 0.640305
O O14 0.614014 0.407274 0.908585
O O15 0.738085 0.690869 0.598796
O O16 0.260611 0.876938 0.457886
O O17 0.845818 0.673268 0.826436
#
# Coordination Sequence:
#
# PCOD9023311 Si02
#       8
#     2   2   2   2   2   2   2   2
#     4  11  20  34  63  93 123 171 227 262 312 379
#     4  11  20  39  74  96 123 164 214 267 326 397
#     4  11  24  43  62  98 134 169 221 262 318 386
#     4  11  22  43  66  92 127 171 209 265 333 376
#     4  10  22  39  67  99 125 168 212 262 332 387
#     4  11  21  38  60  90 132 178 215 263 318 367
#     4  11  20  37  62  94 125 171 219 259 318 381
#     4  12  24  41  64  94 137 171 216 273 305 377
#
# _framework density 26.479253
#
# number of rings (size 3 to 8) (size 9 to 14) (size 15 to 20)
#    0.000    1.000    8.750    1.125    0.000    0.000 
#    2.250    1.250    0.000    2.250    0.000    0.000 
#    0.000    0.000    0.000    0.000    0.000    0.000 
#
# Total GULP energy -89388.518081 kJ/mol
# GULP energy per Si atom -5586.782380 kJ/mol
# Density = 2.641899 g / cm^3
# Si number density = 26.479253 Si / 1000 Ang^3
#
#
#
# Elastic Constant Matrix: (Units=GPa)
#
#
# Indices 1 2 3 4 5 6 
#
# 1 148.2734 14.3087 56.4849 24.1061 -19.7696 16.1999
# 2 14.3087 135.4126 52.4708 38.0790 2.8869 10.2174
# 3 56.4849 52.4708 103.7603 36.6116 -27.6567 -10.0558
# 4 24.1061 38.0790 36.6116 55.1200 -9.0421 5.0661
# 5 -19.7696 2.8869 -27.6567 -9.0421 43.3340 10.0816
# 6 16.1999 10.2174 -10.0558 5.0661 10.0816 42.8168
#
#
#
# Elastic Compliance Matrix: (Units=1/GPa)
#
#
# Indices 1 2 3 4 5 6 
#
# 1 0.009959 0.002033 -0.006351 -0.000723 0.001609 -0.006038
# 2 0.002033 0.011458 -0.006719 -0.004724 -0.004293 -0.003512
# 3 -0.006351 -0.006719 0.021703 -0.006374 0.008229 0.007920
# 4 -0.000723 -0.004724 -0.006374 0.026695 0.002374 -0.003814
# 5 0.001609 -0.004293 0.008229 0.002374 0.031064 -0.005247
# 6 -0.006038 -0.003512 0.007920 -0.003814 -0.005247 0.030025
#
#
# Mechanical properties :
#
#
# Convention : Reuss Voigt Hill
#
# Bulk Modulus (GPa) = 47.51434 70.44169 58.97801
# Shear Modulus (GPa) = 31.25110 45.86629 38.55870
#
# Velocity S-wave (km/s) = 3.43915 4.16644 3.82014
# Velocity P-wave (km/s) = 5.80975 7.05733 6.46371
#
# Compressibility (1/GPa) = 0.02104628
#
# Stress axis : x y z
#
# Youngs Moduli (GPa) = 100.40884 87.27244 46.07707
#
# Poissons Ratio (x) = -0.17744 0.29264
# Poissons Ratio (y) = -0.20415 0.30960
# Poissons Ratio (z) = 0.63772 0.58639
#
# Static dielectric constant tensor:
#      x y z
#    x 2.131930 0.016010 0.079700 
#    y 0.016010 2.181390 -0.023210 
#    z 0.079700 -0.023210 2.204920 
# 
# From -- ./inp_files/207557.got.cif
#   From: 2010.05.17/outbox.cif.g08.bks.cpg/sg2_104_cif.got.tgz:207557.got - 2010.06.03 11:33:40.
