data_PCOD9023176
_publ_section_title
;
Structure prediction by ZEFSAII (Michael W. Deem and Ramdas Pophale) SiO2 
 PCOD9023176
Probable space group: P -1
;
_chemical_formula_sum "Si O2"
_cell_formula_units_Z 14
_cell_length_a 9.058797
_cell_length_b 7.561878
_cell_length_c 10.556380
_cell_angle_alpha 63.197932
_cell_angle_beta 101.988233
_cell_angle_gamma 109.176284
_cell_volume 608.102804
_symmetry_space_group_name_H-M "P -1"
_symmetry_group_IT_number 2
_symmetry_cell_setting 'triclinic'
loop_
_space_group_symop_operation_xyz
x,y,z
-x,-y,-z
loop_
_atom_site_type_symbol
_atom_site_label
_atom_site_fract_x
_atom_site_fract_y
_atom_site_fract_z
Si Si1 0.583365 0.175787 0.358464
Si Si2 0.626410 0.594081 0.388494
Si Si3 0.683929 0.668267 0.816699
Si Si4 0.834394 0.979890 0.540472
Si Si5 0.466904 0.213812 0.903328
Si Si6 0.127113 0.217530 0.946575
Si Si7 0.030555 0.306494 0.635674
O O1 0.629208 0.399374 0.361925
O O2 0.453556 0.211517 0.223609
O O3 0.500000 0.000000 0.500000
O O4 0.737317 0.095321 0.394125
O O5 0.500000 0.500000 0.500000
O O6 0.553265 0.760318 0.257466
O O7 0.808215 0.708302 0.398141
O O8 0.744957 0.758152 0.658208
O O9 0.595801 0.426139 0.891008
O O10 0.828155 0.703814 0.928558
O O11 0.000000 0.000000 0.500000
O O12 0.883785 0.117810 0.633456
O O13 0.297990 0.210009 0.931015
O O14 0.500000 0.000000 0.000000
O O15 0.061230 0.331073 0.783949
O O16 0.000000 0.000000 0.000000
O O17 0.000000 0.500000 0.500000
#
# Coordination Sequence:
#
# PCOD9023176 Si02
#       7
#     2   2   2   2   2   2   2
#     4   9  20  38  62  97 128 177 225 272 345 402
#     4  10  22  39  66  97 132 174 227 279 337 413
#     4  10  22  46  70  96 138 187 234 280 346 423
#     4  11  23  41  68 106 141 178 230 293 346 412
#     4  10  24  44  65 100 137 177 228 279 346 415
#     4  11  23  46  69  96 137 181 231 287 342 413
#     4  11  23  42  67  99 136 177 229 286 354 405
#
# _framework density 23.022423
#
# number of rings (size 3 to 8) (size 9 to 14) (size 15 to 20)
#    0.000    1.714    2.857    0.429    6.000    3.429 
#    2.571    0.714    0.000    0.000    0.000    0.000 
#    0.000    0.000    0.000    0.000    0.000    0.000 
#
# Total GULP energy -77993.509326 kJ/mol
# GULP energy per Si atom -5570.964952 kJ/mol
# Density = 2.297002 g / cm^3
# Si number density = 23.022423 Si / 1000 Ang^3
#
#
#
# Elastic Constant Matrix: (Units=GPa)
#
#
# Indices 1 2 3 4 5 6 
#
# 1 65.5072 23.7144 35.5303 -9.9386 3.7630 16.2210
# 2 23.7144 111.6222 47.8612 -16.6930 15.7853 40.7711
# 3 35.5303 47.8612 175.0253 -23.6492 23.2123 5.5311
# 4 -9.9386 -16.6930 -23.6492 49.0154 8.7180 3.9281
# 5 3.7630 15.7853 23.2123 8.7180 45.1115 -4.6878
# 6 16.2210 40.7711 5.5311 3.9281 -4.6878 42.6724
#
#
#
# Elastic Compliance Matrix: (Units=1/GPa)
#
#
# Indices 1 2 3 4 5 6 
#
# 1 0.019439 0.001405 -0.003230 0.003957 -0.002142 -0.008913
# 2 0.001405 0.020666 -0.002594 0.009637 -0.010157 -0.021946
# 3 -0.003230 -0.002594 0.007774 0.002595 -0.003104 0.002118
# 4 0.003957 0.009637 0.002595 0.029122 -0.012232 -0.015072
# 5 -0.002142 -0.010157 -0.003104 -0.012232 0.031472 0.015504
# 6 -0.008913 -0.021946 0.002118 -0.015072 0.015504 0.050607
#
#
# Mechanical properties :
#
#
# Convention : Reuss Voigt Hill
#
# Bulk Modulus (GPa) = 25.61346 62.92959 44.27153
# Shear Modulus (GPa) = 27.63499 43.69646 35.66572
#
# Velocity S-wave (km/s) = 3.46837 4.36133 3.94022
# Velocity P-wave (km/s) = 5.21431 7.26326 6.32234
#
# Compressibility (1/GPa) = 0.03904198
#
# Stress axis : x y z
#
# Youngs Moduli (GPa) = 51.44262 48.38899 128.63744
#
# Poissons Ratio (x) = -0.06800 0.41550
# Poissons Ratio (y) = -0.07229 0.33365
# Poissons Ratio (z) = 0.16616 0.12551
#
# Static dielectric constant tensor:
#      x y z
#    x 1.913590 0.012160 -0.025610 
#    y 0.012160 1.975300 0.109330 
#    z -0.025610 0.109330 1.949490 
# 
# From -- ./inp_files/174046.got.cif
#   From: 2010.05.17/outbox.cif.g08.bks.cpg/sg2_88_cif.got.tgz:174046.got - 2010.06.03 11:33:40.
