data_PCOD9023325
_publ_section_title
;
Structure prediction by ZEFSAII (Michael W. Deem and Ramdas Pophale) SiO2 
 PCOD9023325
Probable space group: P -1
;
_chemical_formula_sum "Si O2"
_cell_formula_units_Z 14
_cell_length_a 12.020427
_cell_length_b 16.020150
_cell_length_c 5.403071
_cell_angle_alpha 107.030429
_cell_angle_beta 102.858312
_cell_angle_gamma 41.138537
_cell_volume 654.483531
_symmetry_space_group_name_H-M "P -1"
_symmetry_group_IT_number 2
_symmetry_cell_setting 'triclinic'
loop_
_space_group_symop_operation_xyz
x,y,z
-x,-y,-z
loop_
_atom_site_type_symbol
_atom_site_label
_atom_site_fract_x
_atom_site_fract_y
_atom_site_fract_z
Si Si1 0.090251 0.872895 0.208900
Si Si2 0.245369 0.939481 0.042232
Si Si3 0.793897 0.621644 0.990492
Si Si4 0.339901 0.597709 0.824103
Si Si5 0.682830 0.586196 0.398672
Si Si6 0.519549 0.930630 0.200215
Si Si7 0.648217 0.263258 0.411235
O O1 0.143625 0.938073 0.186956
O O2 0.161408 0.834542 0.486279
O O3 0.200263 0.737287 0.006815
O O4 0.897959 0.957187 0.140654
O O5 0.359734 0.955894 0.176097
O O6 0.368903 0.800972 0.855258
O O7 0.737532 0.596496 0.177518
O O8 0.689344 0.773004 0.110752
O O9 0.742943 0.607329 0.686813
O O10 0.000000 0.500000 0.000000
O O11 0.265673 0.544771 0.677432
O O12 0.395302 0.622096 0.636242
O O13 0.500000 0.500000 0.000000
O O14 0.478852 0.693655 0.401395
O O15 0.500000 0.000000 0.500000
O O16 0.500000 0.000000 0.000000
#
# Coordination Sequence:
#
# PCOD9023325 Si02
#       7
#     2   2   2   2   2   2   2
#     4  10  22  39  68 100 147 178 233 283 357 439
#     4  10  23  43  66 102 134 189 233 293 359 426
#     4  12  28  50  75 104 139 189 251 305 367 422
#     4  11  23  37  61 109 142 183 225 277 351 438
#     4  12  24  43  75 100 143 187 227 292 362 436
#     4  12  28  50  77 103 141 193 251 308 360 427
#     4  11  21  39  68 100 143 181 229 275 360 441
#
# _framework density 21.390912
#
# number of rings (size 3 to 8) (size 9 to 14) (size 15 to 20)
#    0.000    0.857    2.857    3.857    4.000    2.286 
#    0.000    0.000    0.000    0.000    0.000    0.000 
#    0.000    0.000    0.000    0.000    0.000    0.000 
#
# Total GULP energy -78112.631009 kJ/mol
# GULP energy per Si atom -5579.473643 kJ/mol
# Density = 2.134223 g / cm^3
# Si number density = 21.390912 Si / 1000 Ang^3
#
#
#
# Elastic Constant Matrix: (Units=GPa)
#
#
# Indices 1 2 3 4 5 6 
#
# 1 111.2806 74.9848 56.1678 6.4150 -0.6230 10.8043
# 2 74.9848 125.1803 60.0415 3.9790 13.4265 -3.5091
# 3 56.1678 60.0415 145.6152 10.1524 17.0788 14.3621
# 4 6.4150 3.9790 10.1524 47.6712 4.2225 1.2890
# 5 -0.6230 13.4265 17.0788 4.2225 47.8878 2.6505
# 6 10.8043 -3.5091 14.3621 1.2890 2.6505 36.0259
#
#
#
# Elastic Compliance Matrix: (Units=1/GPa)
#
#
# Indices 1 2 3 4 5 6 
#
# 1 0.017560 -0.009853 -0.002594 -0.001224 0.004327 -0.005467
# 2 -0.009853 0.015851 -0.002914 0.000812 -0.003932 0.005921
# 3 -0.002594 -0.002914 0.009748 -0.001184 -0.002413 -0.003172
# 4 -0.001224 0.000812 -0.001184 0.021472 -0.001730 0.000277
# 5 0.004327 -0.003932 -0.002413 -0.001730 0.023185 -0.002362
# 6 -0.005467 0.005921 -0.003172 0.000277 -0.002362 0.031403
#
#
# Mechanical properties :
#
#
# Convention : Reuss Voigt Hill
#
# Bulk Modulus (GPa) = 80.40973 84.94045 82.67509
# Shear Modulus (GPa) = 32.44931 39.04245 35.74588
#
# Velocity S-wave (km/s) = 3.89905 4.27686 4.09232
# Velocity P-wave (km/s) = 7.61199 8.01146 7.81428
#
# Compressibility (1/GPa) = 0.01243631
#
# Stress axis : x y z
#
# Youngs Moduli (GPa) = 56.94600 63.08930 102.58496
#
# Poissons Ratio (x) = 0.62164 0.26607
# Poissons Ratio (y) = 0.56111 0.29897
# Poissons Ratio (z) = 0.14770 0.18386
#
# Static dielectric constant tensor:
#      x y z
#    x 1.749850 -0.018310 -0.020630 
#    y -0.018310 1.860250 0.022890 
#    z -0.020630 0.022890 1.834800 
# 
# From -- ./inp_files/78456.got.cif
#   From: 2010.05.17/outbox.cif.g08.bks.cpg/sg2_40_cif.got.tgz:78456.got - 2010.06.03 11:33:40.
