data_PCOD9023123
_publ_section_title
;
Structure prediction by ZEFSAII (Michael W. Deem and Ramdas Pophale) SiO2 
 PCOD9023123
Probable space group: P -1
;
_chemical_formula_sum "Si O2"
_cell_formula_units_Z 16
_cell_length_a 14.869192
_cell_length_b 5.094567
_cell_length_c 16.845400
_cell_angle_alpha 68.686596
_cell_angle_beta 143.055737
_cell_angle_gamma 118.453947
_cell_volume 673.957025
_symmetry_space_group_name_H-M "P -1"
_symmetry_group_IT_number 2
_symmetry_cell_setting 'triclinic'
loop_
_space_group_symop_operation_xyz
x,y,z
-x,-y,-z
loop_
_atom_site_type_symbol
_atom_site_label
_atom_site_fract_x
_atom_site_fract_y
_atom_site_fract_z
Si Si1 0.886495 0.183747 0.924923
Si Si2 0.152903 0.240879 0.621210
Si Si3 0.038429 0.109188 0.716099
Si Si4 0.470881 0.166833 0.832519
Si Si5 0.845652 0.493414 0.571426
Si Si6 0.398417 0.958807 0.353960
Si Si7 0.685710 0.813052 0.972226
Si Si8 0.540062 0.610879 0.372080
O O1 0.784163 0.225391 0.772211
O O2 0.764378 0.021073 0.928341
O O3 0.000000 0.500000 0.000000
O O4 0.000000 0.000000 0.000000
O O5 0.102257 0.328782 0.661027
O O6 0.299815 0.121924 0.755302
O O7 0.197788 0.483177 0.555458
O O8 0.000000 0.000000 0.500000
O O9 0.896592 0.202548 0.643971
O O10 0.172084 0.154560 0.870436
O O11 0.982515 0.781884 0.672168
O O12 0.596652 0.474673 0.918994
O O13 0.434333 0.209621 0.710453
O O14 0.555466 0.919518 0.915562
O O15 0.694029 0.518611 0.507332
O O16 0.404264 0.294168 0.299892
O O17 0.500000 0.000000 0.500000
O O18 0.494794 0.810701 0.381689
#
# Coordination Sequence:
#
# PCOD9023123 Si02
#       8
#     2   2   2   2   2   2   2   2
#     4  12  26  46  70  95 136 181 224 285 354 414
#     4   9  22  41  67  99 137 174 220 274 338 387
#     4  11  23  40  61  99 140 170 228 273 321 408
#     4  11  22  42  69  93 131 182 220 266 328 404
#     4  10  22  39  66  93 131 180 214 275 336 387
#     4  12  25  43  68 100 131 165 228 290 340 412
#     4  12  25  43  67  94 132 179 230 269 337 408
#     4  11  21  42  67  92 128 169 219 271 338 403
#
# _framework density 23.740383999999999
#
# number of rings (size 3 to 8) (size 9 to 14) (size 15 to 20)
#    0.000    1.000    2.500    3.750    0.000   11.000 
#    0.000    0.000    0.000    0.000    0.000    0.000 
#    0.000    0.000    0.000    0.000    0.000    0.000 
#
# Total GULP energy -89426.543007 kJ/mol
# GULP energy per Si atom -5589.158938 kJ/mol
# Density = 2.368635 g / cm^3
# Si number density = 23.740384 Si / 1000 Ang^3
#
#
#
# Elastic Constant Matrix: (Units=GPa)
#
#
# Indices 1 2 3 4 5 6 
#
# 1 92.2465 45.3139 61.6871 3.3659 23.6116 -43.7418
# 2 45.3139 79.6066 22.2819 6.8241 4.8752 -37.8197
# 3 61.6871 22.2819 169.5529 -4.8480 4.6272 -19.5534
# 4 3.3659 6.8241 -4.8480 41.1502 -14.5799 8.9053
# 5 23.6116 4.8752 4.6272 -14.5799 56.8177 -11.4123
# 6 -43.7418 -37.8197 -19.5534 8.9053 -11.4123 42.8441
#
#
#
# Elastic Compliance Matrix: (Units=1/GPa)
#
#
# Indices 1 2 3 4 5 6 
#
# 1 0.036362 -0.000765 -0.009537 -0.015060 -0.011683 0.032113
# 2 -0.000765 0.024676 -0.000614 -0.008820 0.000547 0.022700
# 3 -0.009537 -0.000614 0.008755 0.004408 0.003157 -0.006358
# 4 -0.015060 -0.008820 0.004408 0.037003 0.010944 -0.025926
# 5 -0.011683 0.000547 0.003157 0.010944 0.023765 -0.005949
# 6 0.032113 0.022700 -0.006358 -0.025926 -0.005949 0.077067
#
#
# Mechanical properties :
#
#
# Convention : Reuss Voigt Hill
#
# Bulk Modulus (GPa) = 20.85050 66.66354 43.75702
# Shear Modulus (GPa) = 20.37108 42.30394 31.33751
#
# Velocity S-wave (km/s) = 2.93247 4.22588 3.63713
# Velocity P-wave (km/s) = 4.50196 7.20777 6.00914
#
# Compressibility (1/GPa) = 0.04796048
#
# Stress axis : x y z
#
# Youngs Moduli (GPa) = 27.50161 40.52506 114.22210
#
# Poissons Ratio (x) = 0.03102 1.08932
# Poissons Ratio (y) = 0.02105 0.07009
# Poissons Ratio (z) = 0.26228 0.02487
#
# Static dielectric constant tensor:
#      x y z
#    x 1.918180 0.106190 -0.011180 
#    y 0.106190 1.907300 -0.031320 
#    z -0.011180 -0.031320 1.839100 
# 
# From -- ./inp_files/571687.got.cif
#   From: 2010.05.17/outbox.cif.g08.bks.cpg/sg2_286_cif.got.tgz:571687.got - 2010.06.03 11:33:40.
