data_PCOD9023159
_publ_section_title
;
Structure prediction by ZEFSAII (Michael W. Deem and Ramdas Pophale) SiO2 
 PCOD9023159
Probable space group: P -1
;
_chemical_formula_sum "Si O2"
_cell_formula_units_Z 16
_cell_length_a 21.858079
_cell_length_b 12.369288
_cell_length_c 7.717952
_cell_angle_alpha 59.523155
_cell_angle_beta 131.266397
_cell_angle_gamma 155.464299
_cell_volume 621.859725
_symmetry_space_group_name_H-M "P -1"
_symmetry_group_IT_number 2
_symmetry_cell_setting 'triclinic'
loop_
_space_group_symop_operation_xyz
x,y,z
-x,-y,-z
loop_
_atom_site_type_symbol
_atom_site_label
_atom_site_fract_x
_atom_site_fract_y
_atom_site_fract_z
Si Si1 0.021178 0.144548 0.265547
Si Si2 0.696741 0.816481 0.133688
Si Si3 0.757249 0.265980 0.519679
Si Si4 0.873692 0.691842 0.298739
Si Si5 0.492865 0.824152 0.087824
Si Si6 0.323242 0.912428 0.103409
Si Si7 0.006904 0.657625 0.157931
Si Si8 0.665687 0.790857 0.475685
O O1 0.833460 0.938885 0.160717
O O2 0.991527 0.976097 0.242022
O O3 0.146010 0.295718 0.543002
O O4 0.078623 0.345635 0.107448
O O5 0.728524 0.820684 0.387428
O O6 0.500000 0.500000 0.000000
O O7 0.701228 0.973035 0.995591
O O8 0.887469 0.558811 0.466373
O O9 0.686860 0.170158 0.663694
O O10 0.871771 0.293729 0.715379
O O11 0.601890 0.041831 0.266194
O O12 0.716449 0.477474 0.038637
O O13 0.581355 0.809512 0.262006
O O14 0.506840 0.881578 0.863884
O O15 0.171919 0.665088 0.880589
O O16 0.150908 0.932874 0.309977
O O17 0.500000 0.500000 0.500000
#
# Coordination Sequence:
#
# PCOD9023159 Si02
#       8
#     2   2   2   2   2   2   2   2
#     4  11  22  40  67  90 132 170 212 263 323 389
#     4  11  22  38  65 100 129 163 214 273 327 382
#     4  11  22  40  68  92 123 171 212 267 324 377
#     4  11  23  41  62  91 132 176 210 258 327 387
#     4  10  24  40  62  96 128 169 215 266 324 385
#     4  11  22  40  66  98 128 161 223 273 319 387
#     4  11  21  41  67  97 122 167 218 272 326 374
#     4  10  22  39  66  96 130 163 211 276 326 380
#
# _framework density 25.729274
#
# number of rings (size 3 to 8) (size 9 to 14) (size 15 to 20)
#    0.000    1.250    2.500    4.500    1.750    6.000 
#    0.000    0.000    2.750    3.000    0.000    0.000 
#    0.000    0.000    0.000    0.000    0.000    0.000 
#
# Total GULP energy -89129.438603 kJ/mol
# GULP energy per Si atom -5570.589913 kJ/mol
# Density = 2.567071 g / cm^3
# Si number density = 25.729274 Si / 1000 Ang^3
#
#
#
# Elastic Constant Matrix: (Units=GPa)
#
#
# Indices 1 2 3 4 5 6 
#
# 1 85.7273 45.4526 20.9114 -10.2143 4.4208 -22.1689
# 2 45.4526 164.4163 46.3776 8.0681 -8.1363 -29.4483
# 3 20.9114 46.3776 95.1224 0.1652 -7.3645 -16.7629
# 4 -10.2143 8.0681 0.1652 47.8050 -12.8772 0.3182
# 5 4.4208 -8.1363 -7.3645 -12.8772 31.8290 -10.8614
# 6 -22.1689 -29.4483 -16.7629 0.3182 -10.8614 41.2605
#
#
#
# Elastic Compliance Matrix: (Units=1/GPa)
#
#
# Indices 1 2 3 4 5 6 
#
# 1 0.015500 -0.003191 -0.000804 0.003926 0.000414 0.005803
# 2 -0.003191 0.008649 -0.002542 -0.001366 0.002951 0.004213
# 3 -0.000804 -0.002542 0.013014 0.001388 0.004470 0.004207
# 4 0.003926 -0.001366 0.001388 0.024920 0.011012 0.004405
# 5 0.000414 0.002951 0.004470 0.011012 0.042837 0.015336
# 6 0.005803 0.004213 0.004207 0.004405 0.015336 0.036073
#
#
# Mechanical properties :
#
#
# Convention : Reuss Voigt Hill
#
# Bulk Modulus (GPa) = 41.51311 63.41658 52.46485
# Shear Modulus (GPa) = 30.84578 39.68053 35.26316
#
# Velocity S-wave (km/s) = 3.46621 3.93139 3.70610
# Velocity P-wave (km/s) = 5.67354 6.73119 6.22487
#
# Compressibility (1/GPa) = 0.02408878
#
# Stress axis : x y z
#
# Youngs Moduli (GPa) = 64.51690 115.62071 76.84061
#
# Poissons Ratio (x) = 0.36895 0.06177
# Poissons Ratio (y) = 0.20588 0.19534
# Poissons Ratio (z) = 0.05186 0.29392
#
# Static dielectric constant tensor:
#      x y z
#    x 2.412940 0.560860 0.779180 
#    y 0.560860 3.167710 1.534410 
#    z 0.779180 1.534410 4.301930 
# 
# From -- ./inp_files/358768.got.cif
#   From: 2010.05.17/outbox.cif.g08.bks.cpg/sg2_180_cif.got.tgz:358768.got - 2010.06.03 11:33:40.
