data_PCOD9023741
_publ_section_title
;
Structure prediction by ZEFSAII (Michael W. Deem and Ramdas Pophale) SiO2 
 PCOD9023741
Probable space group: P -1
;
_chemical_formula_sum "Si O2"
_cell_formula_units_Z 10
_cell_length_a 21.200291
_cell_length_b 15.739679
_cell_length_c 15.894123
_cell_angle_alpha 17.557558
_cell_angle_beta 20.543270
_cell_angle_gamma 17.207736
_cell_volume 453.312541
_symmetry_space_group_name_H-M "P -1"
_symmetry_group_IT_number 2
_symmetry_cell_setting 'triclinic'
loop_
_space_group_symop_operation_xyz
x,y,z
-x,-y,-z
loop_
_atom_site_type_symbol
_atom_site_label
_atom_site_fract_x
_atom_site_fract_y
_atom_site_fract_z
Si Si1 0.889683 0.146871 0.908435
Si Si2 0.655319 0.162944 0.439460
Si Si3 0.563510 0.407416 0.864093
Si Si4 0.352770 0.241131 0.032683
Si Si5 0.845716 0.688760 0.263768
O O1 0.913545 0.868150 0.370368
O O2 0.645812 0.482582 0.919472
O O3 0.859455 0.886688 0.139552
O O4 0.000000 0.000000 0.000000
O O5 0.529240 0.390297 0.299629
O O6 0.567678 0.972865 0.776878
O O7 0.647460 0.424926 0.268568
O O8 0.703462 0.542070 0.597953
O O9 0.723265 0.990930 0.060427
O O10 0.094896 0.390230 0.204565
O O11 0.500000 0.000000 0.000000
#
# Coordination Sequence:
#
# PCOD9023741 Si02
#       5
#     2   2   2   2   2
#     4   9  20  37  60  88 123 159 188 227 289 357
#     4  10  22  40  61  88 118 156 197 233 288 358
#     4  11  22  38  60  91 125 151 186 242 293 345
#     4  11  23  43  63  82 113 158 202 245 290 343
#     4  11  22  38  59  89 118 154 198 241 286 343
#
# _framework density 22.059835
#
# number of rings (size 3 to 8) (size 9 to 14) (size 15 to 20)
#    0.000    1.600    0.000    5.400    0.000    3.200 
#    0.000   23.000    0.000    0.000    0.000    0.000 
#    0.000    0.000    0.000    0.000    0.000    0.000 
#
# Total GULP energy -55904.575045 kJ/mol
# GULP energy per Si atom -5590.457504 kJ/mol
# Density = 2.200963 g / cm^3
# Si number density = 22.059835 Si / 1000 Ang^3
#
#
#
# Elastic Constant Matrix: (Units=GPa)
#
#
# Indices 1 2 3 4 5 6 
#
# 1 87.4767 47.6081 14.8532 15.8538 10.5021 -15.5384
# 2 47.6081 128.2166 19.2308 16.1901 27.4820 -7.1043
# 3 14.8532 19.2308 74.2610 -9.2051 13.8590 -6.1610
# 4 15.8538 16.1901 -9.2051 31.2313 -4.5835 8.2171
# 5 10.5021 27.4820 13.8590 -4.5835 30.4471 0.1636
# 6 -15.5384 -7.1043 -6.1610 8.2171 0.1636 28.1503
#
#
#
# Elastic Compliance Matrix: (Units=1/GPa)
#
#
# Indices 1 2 3 4 5 6 
#
# 1 0.018691 -0.003411 -0.002581 -0.012382 -0.004125 0.012530
# 2 -0.003411 0.012774 -0.001260 -0.007765 -0.010967 0.003395
# 3 -0.002581 -0.001260 0.015852 0.006007 -0.004284 -0.000001
# 4 -0.012382 -0.007765 0.006007 0.052564 0.016581 -0.022920
# 5 -0.004125 -0.010967 -0.004284 0.016581 0.048672 -0.011105
# 6 0.012530 0.003395 -0.000001 -0.022920 -0.011105 0.050051
#
#
# Mechanical properties :
#
#
# Convention : Reuss Voigt Hill
#
# Bulk Modulus (GPa) = 30.47418 50.37092 40.42255
# Shear Modulus (GPa) = 22.31678 31.84991 27.08334
#
# Velocity S-wave (km/s) = 3.18409 3.80385 3.50769
# Velocity P-wave (km/s) = 5.23089 6.49429 5.89652
#
# Compressibility (1/GPa) = 0.03281466
#
# Stress axis : x y z
#
# Youngs Moduli (GPa) = 53.50061 78.28282 63.08168
#
# Poissons Ratio (x) = 0.26704 0.16279
# Poissons Ratio (y) = 0.18251 0.07947
# Poissons Ratio (z) = 0.13807 0.09862
#
# Static dielectric constant tensor:
#      x y z
#    x 1.856700 -0.046660 0.010010 
#    y -0.046660 1.772080 -0.007020 
#    z 0.010010 -0.007020 1.806550 
# 
# From -- ./inp_files/5479.got.cif
#   From: 2010.05.17/outbox.cif.g08.bks.cpg/sg2_3_cif.got.tgz:5479.got - 2010.06.03 11:33:40.
