data_PCOD9023277
_publ_section_title
;
Structure prediction by ZEFSAII (Michael W. Deem and Ramdas Pophale) SiO2 
 PCOD9023277
Probable space group: P -1
;
_chemical_formula_sum "Si O2"
_cell_formula_units_Z 16
_cell_length_a 26.977409
_cell_length_b 10.999124
_cell_length_c 5.168047
_cell_angle_alpha 79.781289
_cell_angle_beta 116.909676
_cell_angle_gamma 150.015029
_cell_volume 598.962881
_symmetry_space_group_name_H-M "P -1"
_symmetry_group_IT_number 2
_symmetry_cell_setting 'triclinic'
loop_
_space_group_symop_operation_xyz
x,y,z
-x,-y,-z
loop_
_atom_site_type_symbol
_atom_site_label
_atom_site_fract_x
_atom_site_fract_y
_atom_site_fract_z
Si Si1 0.254166 0.865860 0.538877
Si Si2 0.694017 0.847641 0.818703
Si Si3 0.529990 0.948289 0.390169
Si Si4 0.106295 0.787270 0.499383
Si Si5 0.286983 0.531199 0.696965
Si Si6 0.112541 0.350498 0.635529
Si Si7 0.952289 0.073417 0.875178
Si Si8 0.522717 0.681056 0.778702
O O1 0.187730 0.849930 0.520557
O O2 0.184642 0.613269 0.594866
O O3 0.246608 0.901036 0.216660
O O4 0.401545 0.146601 0.843886
O O5 0.589459 0.688643 0.829525
O O6 0.622320 0.635759 0.497369
O O7 0.799093 0.972917 0.148693
O O8 0.548369 0.857125 0.614374
O O9 0.500000 0.000000 0.500000
O O10 0.650834 0.233230 0.408830
O O11 0.408030 0.696341 0.012862
O O12 0.059694 0.802309 0.198800
O O13 0.000000 0.500000 0.500000
O O14 0.212856 0.441743 0.798184
O O15 0.182042 0.249914 0.395165
O O16 0.051450 0.246821 0.810153
O O17 0.004933 0.124178 0.247150
#
# Coordination Sequence:
#
# PCOD9023277 Si02
#       8
#     2   2   2   2   2   2   2   2
#     4  11  23  39  70  97 139 180 227 285 346 424
#     4  10  22  39  67  95 137 180 224 288 337 425
#     4  11  25  43  73  99 140 181 233 301 352 421
#     4  11  23  41  63 101 140 177 228 276 350 407
#     4  11  27  47  69 104 136 186 241 292 358 415
#     4  12  27  46  75 102 143 189 238 290 352 417
#     4  12  28  46  74 105 143 191 234 295 344 425
#     4  10  22  42  64  98 132 175 232 283 352 407
#
# _framework density 26.712838000000001
#
# number of rings (size 3 to 8) (size 9 to 14) (size 15 to 20)
#    0.000    1.000    1.250    4.125    8.750    3.000 
#    0.000    0.000    0.000    0.000    0.000    0.000 
#    0.000    0.000    0.000    0.000    0.000    0.000 
#
# Total GULP energy -89619.240596 kJ/mol
# GULP energy per Si atom -5601.202537 kJ/mol
# Density = 2.665204 g / cm^3
# Si number density = 26.712838 Si / 1000 Ang^3
#
#
#
# Elastic Constant Matrix: (Units=GPa)
#
#
# Indices 1 2 3 4 5 6 
#
# 1 84.3511 20.1143 11.8271 4.2099 12.9232 6.2501
# 2 20.1143 128.0577 3.7257 15.2023 10.2499 5.0050
# 3 11.8271 3.7257 95.2171 10.2075 15.4937 9.6438
# 4 4.2099 15.2023 10.2075 49.2629 -5.8046 4.8025
# 5 12.9232 10.2499 15.4937 -5.8046 33.9569 -7.0076
# 6 6.2501 5.0050 9.6438 4.8025 -7.0076 41.8975
#
#
#
# Elastic Compliance Matrix: (Units=1/GPa)
#
#
# Indices 1 2 3 4 5 6 
#
# 1 0.013270 -0.001455 -0.000411 -0.000961 -0.005094 -0.002453
# 2 -0.001455 0.008669 0.000799 -0.002975 -0.003183 -0.001194
# 3 -0.000411 0.000799 0.012393 -0.003251 -0.007058 -0.003695
# 4 -0.000961 -0.002975 -0.003251 0.022775 0.006586 -0.000262
# 5 -0.005094 -0.003183 -0.007058 0.006586 0.038436 0.008438
# 6 -0.002453 -0.001194 -0.003695 -0.000262 0.008438 0.026668
#
#
# Mechanical properties :
#
#
# Convention : Reuss Voigt Hill
#
# Bulk Modulus (GPa) = 31.05678 42.10666 36.58172
# Shear Modulus (GPa) = 37.01607 43.15406 40.08507
#
# Velocity S-wave (km/s) = 3.72654 4.02366 3.87795
# Velocity P-wave (km/s) = 5.49250 6.11420 5.81167
#
# Compressibility (1/GPa) = 0.03219909
#
# Stress axis : x y z
#
# Youngs Moduli (GPa) = 75.35854 115.35620 80.68929
#
# Poissons Ratio (x) = 0.16781 0.03316
# Poissons Ratio (y) = 0.10962 -0.06449
# Poissons Ratio (z) = 0.03097 -0.09219
#
# Static dielectric constant tensor:
#      x y z
#    x 2.101170 0.032560 -0.115250 
#    y 0.032560 2.194340 -0.048960 
#    z -0.115250 -0.048960 2.174140 
# 
# From -- ./inp_files/95518.got.cif
#   From: 2010.05.17/outbox.cif.g08.bks.cpg/sg2_48_cif.got.tgz:95518.got - 2010.06.03 11:33:40.
