data_PCOD9023391
_publ_section_title
;
Structure prediction by ZEFSAII (Michael W. Deem and Ramdas Pophale) SiO2 
 PCOD9023391
Probable space group: P -1
;
_chemical_formula_sum "Si O2"
_cell_formula_units_Z 14
_cell_length_a 25.563923
_cell_length_b 9.139800
_cell_length_c 9.005470
_cell_angle_alpha 132.449602
_cell_angle_beta 24.392583
_cell_angle_gamma 140.728960
_cell_volume 546.389116
_symmetry_space_group_name_H-M "P -1"
_symmetry_group_IT_number 2
_symmetry_cell_setting 'triclinic'
loop_
_space_group_symop_operation_xyz
x,y,z
-x,-y,-z
loop_
_atom_site_type_symbol
_atom_site_label
_atom_site_fract_x
_atom_site_fract_y
_atom_site_fract_z
Si Si1 0.589504 0.181757 0.263114
Si Si2 0.368915 0.962963 0.465989
Si Si3 0.925315 0.644208 0.500971
Si Si4 0.333821 0.346422 0.660848
Si Si5 0.803435 0.133177 0.843575
Si Si6 0.173664 0.183483 0.655096
Si Si7 0.878569 0.542808 0.248352
O O1 0.532997 0.043046 0.158273
O O2 0.552519 0.384800 0.490048
O O3 0.500000 0.000000 0.500000
O O4 0.757806 0.279207 0.952970
O O5 0.380421 0.176529 0.493338
O O6 0.260591 0.705459 0.502964
O O7 0.281124 0.932098 0.825858
O O8 0.937928 0.735390 0.358555
O O9 0.030503 0.759176 0.450637
O O10 0.771540 0.615386 0.928193
O O11 0.982332 0.470207 0.184103
O O12 0.250840 0.232528 0.645533
O O13 0.762469 0.919896 0.697430
O O14 0.187228 0.402255 0.686255
O O15 0.000000 0.000000 0.000000
#
# Coordination Sequence:
#
# PCOD9023391 Si02
#       7
#     2   2   2   2   2   2   2
#     4  10  23  46  67  91 129 173 218 267 320 375
#     4  10  23  46  67  91 127 176 223 259 315 379
#     4  10  22  39  68  96 131 168 212 261 334 378
#     4  12  24  39  69  98 129 165 221 268 319 384
#     4  10  22  42  66  92 134 174 205 266 325 385
#     4  12  25  37  60 101 138 164 210 258 329 390
#     4  10  24  41  64  93 141 168 208 265 327 388
#
# _framework density 25.622765999999999
#
# number of rings (size 3 to 8) (size 9 to 14) (size 15 to 20)
#    0.000    1.429    1.429    3.857    8.000    4.000 
#    0.000   10.714    0.000    0.000    0.000    0.000 
#    0.000    0.000    0.000    0.000    0.000    0.000 
#
# Total GULP energy -78069.296876 kJ/mol
# GULP energy per Si atom -5576.378348 kJ/mol
# Density = 2.556445 g / cm^3
# Si number density = 25.622766 Si / 1000 Ang^3
#
#
#
# Elastic Constant Matrix: (Units=GPa)
#
#
# Indices 1 2 3 4 5 6 
#
# 1 189.1599 51.6273 23.2503 5.4328 -28.4084 2.5289
# 2 51.6273 102.1937 9.2381 -10.6766 -11.2970 -15.2073
# 3 23.2503 9.2381 64.2259 6.5633 21.9605 2.6361
# 4 5.4328 -10.6766 6.5633 26.5759 11.3943 1.4318
# 5 -28.4084 -11.2970 21.9605 11.3943 37.9139 5.8681
# 6 2.5289 -15.2073 2.6361 1.4318 5.8681 58.1438
#
#
#
# Elastic Compliance Matrix: (Units=1/GPa)
#
#
# Indices 1 2 3 4 5 6 
#
# 1 0.008916 -0.003743 -0.005762 -0.006596 0.011207 -0.002074
# 2 -0.003743 0.012857 -0.000998 0.006351 -0.000845 0.003500
# 3 -0.005762 -0.000998 0.024177 0.003213 -0.019709 0.000803
# 4 -0.006596 0.006351 0.003213 0.049214 -0.020107 0.002620
# 5 0.011207 -0.000845 -0.019709 -0.020107 0.052697 -0.004638
# 6 -0.002074 0.003500 0.000803 0.002620 -0.004638 0.018571
#
#
# Mechanical properties :
#
#
# Convention : Reuss Voigt Hill
#
# Bulk Modulus (GPa) = 40.08796 58.20122 49.14459
# Shear Modulus (GPa) = 25.54224 42.62430 34.08327
#
# Velocity S-wave (km/s) = 3.16073 4.08307 3.65114
# Velocity P-wave (km/s) = 5.38514 6.70765 6.08244
#
# Compressibility (1/GPa) = 0.02494515
#
# Stress axis : x y z
#
# Youngs Moduli (GPa) = 112.15183 77.77824 41.36116
#
# Poissons Ratio (x) = 0.29109 0.23833
# Poissons Ratio (y) = 0.41973 0.04128
# Poissons Ratio (z) = 0.64625 0.07763
#
# Static dielectric constant tensor:
#      x y z
#    x 2.115370 0.032490 -0.132710 
#    y 0.032490 2.194590 -0.103430 
#    z -0.132710 -0.103430 2.140160 
# 
# From -- ./inp_files/352386.got.cif
#   From: 2010.05.17/outbox.cif.g08.bks.cpg/sg2_177_cif.got.tgz:352386.got - 2010.06.03 11:33:40.
