data_PCOD9023130
_publ_section_title
;
Structure prediction by ZEFSAII (Michael W. Deem and Ramdas Pophale) SiO2 
 PCOD9023130
Probable space group: P -1
;
_chemical_formula_sum "Si O2"
_cell_formula_units_Z 14
_cell_length_a 11.840814
_cell_length_b 9.069411
_cell_length_c 17.802806
_cell_angle_alpha 83.600609
_cell_angle_beta 159.609988
_cell_angle_gamma 98.612109
_cell_volume 656.265137
_symmetry_space_group_name_H-M "P -1"
_symmetry_group_IT_number 2
_symmetry_cell_setting 'triclinic'
loop_
_space_group_symop_operation_xyz
x,y,z
-x,-y,-z
loop_
_atom_site_type_symbol
_atom_site_label
_atom_site_fract_x
_atom_site_fract_y
_atom_site_fract_z
Si Si1 0.608050 0.063249 0.939924
Si Si2 0.229278 0.803162 0.799869
Si Si3 0.199233 0.562869 0.267215
Si Si4 0.498662 0.625510 0.167942
Si Si5 0.828624 0.112786 0.698594
Si Si6 0.331686 0.444564 0.564059
Si Si7 0.858293 0.681633 0.233807
O O1 0.725536 0.133149 0.091054
O O2 0.548353 0.205724 0.846527
O O3 0.888884 0.975449 0.088245
O O4 0.310885 0.937656 0.784230
O O5 0.878077 0.713825 0.575251
O O6 0.510284 0.690174 0.973704
O O7 0.500000 0.500000 0.500000
O O8 0.189404 0.733300 0.276973
O O9 0.316513 0.549344 0.255316
O O10 0.850637 0.463899 0.068494
O O11 0.631875 0.539282 0.325027
O O12 0.744971 0.655661 0.250126
O O13 0.941563 0.164584 0.681109
O O14 0.500000 0.000000 0.500000
O O15 0.107703 0.562224 0.383715
#
# Coordination Sequence:
#
# PCOD9023130 Si02
#       7
#     2   2   2   2   2   2   2
#     4   9  20  38  61  89 124 162 206 261 300 366
#     4   9  19  37  65  90 121 162 217 254 302 357
#     4  12  24  41  66  93 123 169 211 258 307 368
#     4  11  25  41  62  96 133 162 205 256 322 377
#     4  11  22  39  68  94 119 158 221 261 304 361
#     4  12  23  39  64  96 131 165 204 260 316 376
#     4  10  22  39  66  94 123 164 210 265 300 368
#
# _framework density 21.332841999999999
#
# number of rings (size 3 to 8) (size 9 to 14) (size 15 to 20)
#    0.000    1.429    1.429    5.571    4.000    0.571 
#    0.000    0.714    0.000    0.000    0.000    0.000 
#    0.000    0.000    0.000    0.000    0.000    0.000 
#
# Total GULP energy -78126.005506 kJ/mol
# GULP energy per Si atom -5580.428965 kJ/mol
# Density = 2.128429 g / cm^3
# Si number density = 21.332842 Si / 1000 Ang^3
#
#
#
# Elastic Constant Matrix: (Units=GPa)
#
#
# Indices 1 2 3 4 5 6 
#
# 1 88.4080 20.2254 26.0073 2.2795 24.7058 12.2389
# 2 20.2254 107.1124 36.7564 -12.1899 17.3178 0.4731
# 3 26.0073 36.7564 53.6531 -7.3016 9.8382 6.9421
# 4 2.2795 -12.1899 -7.3016 26.1125 0.2775 18.7565
# 5 24.7058 17.3178 9.8382 0.2775 33.2230 -5.7780
# 6 12.2389 0.4731 6.9421 18.7565 -5.7780 36.2495
#
#
#
# Elastic Compliance Matrix: (Units=1/GPa)
#
#
# Indices 1 2 3 4 5 6 
#
# 1 0.017614 0.001205 -0.004874 0.004820 -0.014021 -0.009758
# 2 0.001205 0.013426 -0.007123 0.007043 -0.006523 -0.003902
# 3 -0.004874 -0.007123 0.030019 0.014073 -0.003737 -0.011888
# 4 0.004820 0.007043 0.014073 0.080947 -0.020726 -0.049602
# 5 -0.014021 -0.006523 -0.003737 -0.020726 0.049403 0.024133
# 6 -0.009758 -0.003902 -0.011888 -0.049602 0.024133 0.062721
#
#
# Mechanical properties :
#
#
# Convention : Reuss Voigt Hill
#
# Bulk Modulus (GPa) = 25.33194 46.12797 35.72995
# Shear Modulus (GPa) = 17.30871 30.19597 23.75234
#
# Velocity S-wave (km/s) = 2.85154 3.76635 3.34041
# Velocity P-wave (km/s) = 4.76887 6.37054 5.62698
#
# Compressibility (1/GPa) = 0.03947585
#
# Stress axis : x y z
#
# Youngs Moduli (GPa) = 56.77275 74.48283 33.31233
#
# Poissons Ratio (x) = -0.08977 0.16237
# Poissons Ratio (y) = -0.06842 0.23727
# Poissons Ratio (z) = 0.27672 0.53051
#
# Static dielectric constant tensor:
#      x y z
#    x 1.851520 -0.012250 0.019050 
#    y -0.012250 1.792970 -0.032420 
#    z 0.019050 -0.032420 1.752260 
# 
# From -- ./inp_files/153866.got.cif
#   From: 2010.05.17/outbox.cif.g08.bks.cpg/sg2_77_cif.got.tgz:153866.got - 2010.06.03 11:33:40.
