data_PCOD9023080
_publ_section_title
;
Structure prediction by ZEFSAII (Michael W. Deem and Ramdas Pophale) SiO2 
 PCOD9023080
Probable space group: P -1
;
_chemical_formula_sum "Si O2"
_cell_formula_units_Z 16
_cell_length_a 23.469157
_cell_length_b 21.120820
_cell_length_c 7.935848
_cell_angle_alpha 147.258452
_cell_angle_beta 32.816900
_cell_angle_gamma 162.166305
_cell_volume 632.575748
_symmetry_space_group_name_H-M "P -1"
_symmetry_group_IT_number 2
_symmetry_cell_setting 'triclinic'
loop_
_space_group_symop_operation_xyz
x,y,z
-x,-y,-z
loop_
_atom_site_type_symbol
_atom_site_label
_atom_site_fract_x
_atom_site_fract_y
_atom_site_fract_z
Si Si1 0.796017 0.001115 0.180845
Si Si2 0.805024 0.802406 0.948096
Si Si3 0.345568 0.743767 0.508460
Si Si4 0.183356 0.707493 0.128508
Si Si5 0.709114 0.080229 0.127305
Si Si6 0.059438 0.255904 0.792392
Si Si7 0.356388 0.693433 0.908251
Si Si8 0.614536 0.429114 0.781455
O O1 0.598408 0.780467 0.087817
O O2 0.814080 0.153199 0.527472
O O3 0.767821 0.896199 0.181370
O O4 0.967201 0.131604 0.919343
O O5 0.669069 0.610010 0.990305
O O6 0.850731 0.764273 0.587001
O O7 0.000000 0.000000 0.000000
O O8 0.557045 0.939453 0.342050
O O9 0.271981 0.547211 0.313156
O O10 0.234443 0.732926 0.639987
O O11 0.352844 0.820019 0.837958
O O12 0.224728 0.676862 0.129490
O O13 0.000000 0.500000 0.000000
O O14 0.565466 0.907390 0.946837
O O15 0.888078 0.163585 0.908743
O O16 0.231801 0.508922 0.944403
O O17 0.370161 0.625423 0.555826
#
# Coordination Sequence:
#
# PCOD9023080 Si02
#       8
#     2   2   2   2   2   2   2   2
#     4  12  25  46  74  98 145 191 235 301 353 413
#     4  11  28  47  73 100 138 186 250 299 346 419
#     4  10  22  39  66 103 144 175 228 285 348 433
#     4  11  25  41  70 109 147 188 236 284 361 433
#     4  11  22  41  69 107 146 184 225 294 358 425
#     4  11  26  48  69 107 144 185 240 292 357 424
#     4  10  24  40  71 103 145 180 232 284 358 427
#     4  10  22  46  69 102 135 186 238 286 356 421
#
# _framework density 25.293413000000001
#
# number of rings (size 3 to 8) (size 9 to 14) (size 15 to 20)
#    0.000    1.250    1.250    3.000   12.250    2.500 
#    0.000    0.625    0.000    0.000    0.000    0.000 
#    0.000    0.000    0.000    0.000    0.000    0.000 
#
# Total GULP energy -89343.844391 kJ/mol
# GULP energy per Si atom -5583.990274 kJ/mol
# Density = 2.523584 g / cm^3
# Si number density = 25.293413 Si / 1000 Ang^3
#
#
#
# Elastic Constant Matrix: (Units=GPa)
#
#
# Indices 1 2 3 4 5 6 
#
# 1 108.7132 20.0895 6.6779 14.6657 -16.2913 -21.0213
# 2 20.0895 94.3611 14.4780 4.7791 2.0090 -21.5330
# 3 6.6779 14.4780 64.5563 9.1837 -6.6005 -18.4496
# 4 14.6657 4.7791 9.1837 40.1577 -6.7022 0.4905
# 5 -16.2913 2.0090 -6.6005 -6.7022 44.7858 -0.8820
# 6 -21.0213 -21.5330 -18.4496 0.4905 -0.8820 62.2368
#
#
#
# Elastic Compliance Matrix: (Units=1/GPa)
#
#
# Indices 1 2 3 4 5 6 
#
# 1 0.011190 -0.001630 0.001148 -0.003557 0.003852 0.003638
# 2 -0.001630 0.011972 -0.001679 -0.000721 -0.001425 0.003079
# 3 0.001148 -0.001679 0.018083 -0.003974 0.002666 0.005236
# 4 -0.003557 -0.000721 -0.003974 0.027601 0.002228 -0.002815
# 5 0.003852 -0.001425 0.002666 0.002228 0.024558 0.001929
# 6 0.003638 0.003079 0.005236 -0.002815 0.001929 0.019964
#
#
# Mechanical properties :
#
#
# Convention : Reuss Voigt Hill
#
# Bulk Modulus (GPa) = 27.08513 38.90239 32.99376
# Shear Modulus (GPa) = 38.46222 44.52842 41.49532
#
# Velocity S-wave (km/s) = 3.90377 4.20035 4.05477
# Velocity P-wave (km/s) = 5.57233 6.24002 5.91560
#
# Compressibility (1/GPa) = 0.03692063
#
# Stress axis : x y z
#
# Youngs Moduli (GPa) = 89.36699 83.52974 55.30178
#
# Poissons Ratio (x) = 0.13615 -0.06347
# Poissons Ratio (y) = 0.14567 0.09288
# Poissons Ratio (z) = -0.10256 0.14028
#
# Static dielectric constant tensor:
#      x y z
#    x 2.194580 -0.124460 0.058220 
#    y -0.124460 2.043790 0.086560 
#    z 0.058220 0.086560 1.822460 
# 
# From -- ./inp_files/355311.got.cif
#   From: 2010.05.17/outbox.cif.g08.bks.cpg/sg2_178_cif.got.tgz:355311.got - 2010.06.03 11:33:40.
