data_PCOD9023554
_publ_section_title
;
Structure prediction by ZEFSAII (Michael W. Deem and Ramdas Pophale) SiO2 
 PCOD9023554
Probable space group: P -1
;
_chemical_formula_sum "Si O2"
_cell_formula_units_Z 15
_cell_length_a 8.320524
_cell_length_b 12.417283
_cell_length_c 17.465186
_cell_angle_alpha 29.996923
_cell_angle_beta 95.696551
_cell_angle_gamma 115.842173
_cell_volume 638.080252
_symmetry_space_group_name_H-M "P -1"
_symmetry_group_IT_number 2
_symmetry_cell_setting 'triclinic'
loop_
_space_group_symop_operation_xyz
x,y,z
-x,-y,-z
loop_
_atom_site_type_symbol
_atom_site_label
_atom_site_fract_x
_atom_site_fract_y
_atom_site_fract_z
Si Si1 0.522162 0.852528 0.160439
Si Si2 0.858604 0.232320 0.721747
Si Si3 0.000000 0.000000 0.000000
Si Si4 0.051182 0.386207 0.881678
Si Si5 0.842011 0.058082 0.533224
Si Si6 0.762426 0.267795 0.173820
Si Si7 0.622401 0.831469 0.824299
Si Si8 0.680300 0.735625 0.572865
O O1 0.323814 0.758497 0.263058
O O2 0.486914 0.587718 0.279289
O O3 0.500000 0.000000 0.000000
O O4 0.777077 0.094739 0.057804
O O5 0.000000 0.500000 0.500000
O O6 0.760094 0.956278 0.830990
O O7 0.961017 0.192207 0.822585
O O8 0.875679 0.734209 0.096201
O O9 0.086728 0.652951 0.681141
O O10 0.196184 0.537090 0.872322
O O11 0.068239 0.128784 0.508446
O O12 0.753381 0.020427 0.636935
O O13 0.672505 0.778447 0.637506
O O14 0.571889 0.176133 0.165972
O O15 0.685355 0.966223 0.387609
O O16 0.000000 0.500000 0.000000
O O17 0.500000 0.500000 0.000000
#
# Coordination Sequence:
#
# PCOD9023554 Si02
#       8
#     2   2   1   2   2   2   2   2
#     4  12  23  43  73 107 146 196 243 302 377 442
#     4  12  28  49  74 109 152 191 242 306 370 441
#     4  12  24  44  74 104 144 192 236 294 374 424
#     4  11  24  43  71 102 144 189 243 303 360 443
#     4  10  22  43  66 101 140 190 245 299 369 435
#     4  11  25  46  67 100 140 187 246 301 358 434
#     4  12  26  44  70  99 143 190 239 305 370 432
#     4  10  22  39  71  97 139 189 241 299 359 440
#
# _framework density 23.508015
#
# number of rings (size 3 to 8) (size 9 to 14) (size 15 to 20)
#    0.000    0.800    2.667    4.000    1.867    6.400 
#    0.000    2.000    0.000    0.000    0.000    0.000 
#    0.000    0.000    0.000    0.000    0.000    0.000 
#
# Total GULP energy -83565.416824 kJ/mol
# GULP energy per Si atom -5571.027788 kJ/mol
# Density = 2.345451 g / cm^3
# Si number density = 23.508015 Si / 1000 Ang^3
#
#
#
# Elastic Constant Matrix: (Units=GPa)
#
#
# Indices 1 2 3 4 5 6 
#
# 1 46.1155 22.7179 21.8005 4.0231 6.5049 1.9887
# 2 22.7179 142.9997 59.5346 -13.5842 7.8905 -7.7519
# 3 21.8005 59.5346 77.9811 -14.3282 13.0475 2.6815
# 4 4.0231 -13.5842 -14.3282 40.1180 -15.4536 11.8100
# 5 6.5049 7.8905 13.0475 -15.4536 40.6788 5.4295
# 6 1.9887 -7.7519 2.6815 11.8100 5.4295 43.4816
#
#
#
# Elastic Compliance Matrix: (Units=1/GPa)
#
#
# Indices 1 2 3 4 5 6 
#
# 1 0.027261 -0.001857 -0.006932 -0.008356 -0.005186 0.001767
# 2 -0.001857 0.010619 -0.007651 0.000653 0.000647 0.002192
# 3 -0.006932 -0.007651 0.022211 0.006666 -0.001459 -0.004045
# 4 -0.008356 0.000653 0.006666 0.037678 0.014989 -0.012018
# 5 -0.005186 0.000647 -0.001459 0.014989 0.032475 -0.007684
# 6 0.001767 0.002192 -0.004045 -0.012018 -0.007684 0.027781
#
#
# Mechanical properties :
#
#
# Convention : Reuss Voigt Hill
#
# Bulk Modulus (GPa) = 36.75083 52.80026 44.77554
# Shear Modulus (GPa) = 25.00331 35.72524 30.36428
#
# Velocity S-wave (km/s) = 3.26484 3.90257 3.59786
# Velocity P-wave (km/s) = 5.46621 6.54339 6.02891
#
# Compressibility (1/GPa) = 0.02721027
#
# Stress axis : x y z
#
# Youngs Moduli (GPa) = 36.68302 94.17458 45.02299
#
# Poissons Ratio (x) = 0.17486 0.31209
# Poissons Ratio (y) = 0.06811 0.34448
# Poissons Ratio (z) = 0.25428 0.72056
#
# Static dielectric constant tensor:
#      x y z
#    x 2.023230 -0.131590 -0.275310 
#    y -0.131590 1.901770 0.159080 
#    z -0.275310 0.159080 2.368470 
# 
# From -- ./inp_files/558863.got.cif
#   From: 2010.05.17/outbox.cif.g08.bks.cpg/sg2_280_cif.got.tgz:558863.got - 2010.06.03 11:33:40.
