data_PCOD9023095
_publ_section_title
;
Structure prediction by ZEFSAII (Michael W. Deem and Ramdas Pophale) SiO2 
 PCOD9023095
Probable space group: P -1
;
_chemical_formula_sum "Si O2"
_cell_formula_units_Z 16
_cell_length_a 5.476196
_cell_length_b 7.205528
_cell_length_c 19.111985
_cell_angle_alpha 96.490055
_cell_angle_beta 63.720156
_cell_angle_gamma 106.220432
_cell_volume 649.225591
_symmetry_space_group_name_H-M "P -1"
_symmetry_group_IT_number 2
_symmetry_cell_setting 'triclinic'
loop_
_space_group_symop_operation_xyz
x,y,z
-x,-y,-z
loop_
_atom_site_type_symbol
_atom_site_label
_atom_site_fract_x
_atom_site_fract_y
_atom_site_fract_z
Si Si1 0.261850 0.089458 0.970609
Si Si2 0.517926 0.163406 0.647576
Si Si3 0.944307 0.770234 0.495014
Si Si4 0.446592 0.806877 0.201433
Si Si5 0.159041 0.466671 0.715495
Si Si6 0.206273 0.512041 0.863667
Si Si7 0.305097 0.750939 0.583989
Si Si8 0.693994 0.254992 0.999738
O O1 0.436000 0.075590 0.878081
O O2 0.390990 0.277365 0.005966
O O3 0.947345 0.120674 0.985195
O O4 0.500000 0.000000 0.000000
O O5 0.851493 0.250693 0.595076
O O6 0.473973 0.089762 0.729948
O O7 0.384895 0.344586 0.664493
O O8 0.386390 0.979905 0.605980
O O9 0.095879 0.714039 0.542605
O O10 0.606873 0.700971 0.529920
O O11 0.000000 0.000000 0.500000
O O12 0.594169 0.632381 0.172052
O O13 0.118270 0.705358 0.241416
O O14 0.209129 0.584474 0.787248
O O15 0.158435 0.617275 0.660647
O O16 0.308128 0.662239 0.918695
O O17 0.905382 0.381952 0.921614
#
# Coordination Sequence:
#
# PCOD9023095 Si02
#       8
#     2   2   2   2   2   2   2   2
#     4  11  22  40  62  94 122 174 231 280 342 422
#     4  10  25  44  71  97 140 183 221 293 351 409
#     4  10  23  47  76 107 140 183 240 287 342 424
#     4  11  24  42  62  95 137 171 225 289 354 411
#     4  11  26  44  65 102 144 178 230 288 353 425
#     4  10  22  43  60  94 131 174 226 290 347 410
#     4  11  26  46  75 106 140 188 239 281 352 428
#     4  10  22  39  66  87 127 174 229 286 344 410
#
# _framework density 24.644742999999998
#
# number of rings (size 3 to 8) (size 9 to 14) (size 15 to 20)
#    0.000    1.500    2.500    1.500   10.500    2.500 
#    2.250    0.000    0.000    0.000    0.000    0.000 
#    0.000    0.000    0.000    0.000    0.000    0.000 
#
# Total GULP energy -89266.497383 kJ/mol
# GULP energy per Si atom -5579.156086 kJ/mol
# Density = 2.458865 g / cm^3
# Si number density = 24.644743 Si / 1000 Ang^3
#
#
#
# Elastic Constant Matrix: (Units=GPa)
#
#
# Indices 1 2 3 4 5 6 
#
# 1 152.3373 35.4833 54.9701 7.8884 -1.9098 6.2068
# 2 35.4833 68.9806 52.3253 -10.6584 9.7623 2.1177
# 3 54.9701 52.3253 160.7812 -9.9184 13.9152 -10.9340
# 4 7.8884 -10.6584 -9.9184 46.9423 -7.5876 9.8146
# 5 -1.9098 9.7623 13.9152 -7.5876 45.4902 1.0641
# 6 6.2068 2.1177 -10.9340 9.8146 1.0641 27.0504
#
#
#
# Elastic Compliance Matrix: (Units=1/GPa)
#
#
# Indices 1 2 3 4 5 6 
#
# 1 0.008257 -0.003001 -0.002215 -0.001911 0.001394 -0.001917
# 2 -0.003001 0.021734 -0.005914 0.004928 -0.002039 -0.005111
# 3 -0.002215 -0.005914 0.009380 -0.000326 -0.001863 0.004954
# 4 -0.001911 0.004928 -0.000326 0.025174 0.003379 -0.009346
# 5 0.001394 -0.002039 -0.001863 0.003379 0.023684 -0.003071
# 6 -0.001917 -0.005111 0.004954 -0.009346 -0.003071 0.043322
#
#
# Mechanical properties :
#
#
# Convention : Reuss Voigt Hill
#
# Bulk Modulus (GPa) = 58.44527 74.18406 66.31467
# Shear Modulus (GPa) = 31.34479 39.85127 35.59803
#
# Velocity S-wave (km/s) = 3.57019 4.02559 3.80471
# Velocity P-wave (km/s) = 6.38448 7.19541 6.80204
#
# Compressibility (1/GPa) = 0.01711002
#
# Stress axis : x y z
#
# Youngs Moduli (GPa) = 121.10501 46.01155 106.61064
#
# Poissons Ratio (x) = 0.13807 0.23619
# Poissons Ratio (y) = 0.36340 0.63052
# Poissons Ratio (z) = 0.26830 0.27212
#
# Static dielectric constant tensor:
#      x y z
#    x 2.148660 -0.094250 0.076570 
#    y -0.094250 2.074410 -0.065700 
#    z 0.076570 -0.065700 1.994490 
# 
# From -- ./inp_files/547207.got.cif
#   From: 2010.05.17/outbox.cif.g08.bks.cpg/sg2_274_cif.got.tgz:547207.got - 2010.06.03 11:33:40.
