data_PCOD9023259
_publ_section_title
;
Structure prediction by ZEFSAII (Michael W. Deem and Ramdas Pophale) SiO2 
 PCOD9023259
Probable space group: P -1
;
_chemical_formula_sum "Si O2"
_cell_formula_units_Z 14
_cell_length_a 9.680767
_cell_length_b 7.966620
_cell_length_c 11.419169
_cell_angle_alpha 108.867600
_cell_angle_beta 82.860535
_cell_angle_gamma 130.848022
_cell_volume 625.695020
_symmetry_space_group_name_H-M "P -1"
_symmetry_group_IT_number 2
_symmetry_cell_setting 'triclinic'
loop_
_space_group_symop_operation_xyz
x,y,z
-x,-y,-z
loop_
_atom_site_type_symbol
_atom_site_label
_atom_site_fract_x
_atom_site_fract_y
_atom_site_fract_z
Si Si1 0.190123 0.412354 0.935175
Si Si2 0.876106 0.332740 0.372826
Si Si3 0.517072 0.881019 0.084468
Si Si4 0.521007 0.959694 0.627910
Si Si5 0.910916 0.962701 0.326771
Si Si6 0.291890 0.247866 0.460178
Si Si7 0.920390 0.312212 0.120338
O O1 0.142526 0.213283 0.810711
O O2 0.133817 0.552803 0.910891
O O3 0.399424 0.613714 0.998552
O O4 0.062114 0.308517 0.038322
O O5 0.686148 0.281082 0.374947
O O6 0.990169 0.436040 0.265629
O O7 0.000000 0.500000 0.500000
O O8 0.828594 0.088918 0.346763
O O9 0.447690 0.893286 0.223465
O O10 0.735558 0.048061 0.105610
O O11 0.500000 0.000000 0.000000
O O12 0.670253 0.929222 0.604870
O O13 0.500000 0.000000 0.500000
O O14 0.813017 0.808298 0.419095
O O15 0.132488 0.168548 0.366162
O O16 0.500000 0.500000 0.500000
#
# Coordination Sequence:
#
# PCOD9023259 Si02
#       7
#     2   2   2   2   2   2   2
#     4  10  22  39  67  94 128 176 220 274 325 398
#     4  11  24  43  67  96 134 173 219 280 334 398
#     4   9  21  39  63  96 127 173 222 266 320 408
#     4  11  23  42  69  96 132 172 227 269 331 401
#     4  11  26  42  65 103 133 170 229 276 331 401
#     4  11  26  43  66  96 137 176 216 279 340 395
#     4   9  22  39  64  94 128 175 221 261 333 397
#
# _framework density 22.375118000000001
#
# number of rings (size 3 to 8) (size 9 to 14) (size 15 to 20)
#    0.000    1.714    1.429    0.857   18.000    0.571 
#    0.000    2.857    0.000    0.000    0.000    0.000 
#    0.000    0.000    0.000    0.000    0.000    0.000 
#
# Total GULP energy -78046.578479 kJ/mol
# GULP energy per Si atom -5574.755606 kJ/mol
# Density = 2.232419 g / cm^3
# Si number density = 22.375118 Si / 1000 Ang^3
#
#
#
# Elastic Constant Matrix: (Units=GPa)
#
#
# Indices 1 2 3 4 5 6 
#
# 1 59.7174 16.8349 20.9957 4.1946 -1.9412 10.5883
# 2 16.8349 86.4524 50.9597 8.2155 -3.6488 23.4691
# 3 20.9957 50.9597 171.5758 0.8018 1.7121 21.5474
# 4 4.1946 8.2155 0.8018 36.8752 5.2211 4.6465
# 5 -1.9412 -3.6488 1.7121 5.2211 35.3575 -2.3060
# 6 10.5883 23.4691 21.5474 4.6465 -2.3060 24.0873
#
#
#
# Elastic Compliance Matrix: (Units=1/GPa)
#
#
# Indices 1 2 3 4 5 6 
#
# 1 0.018623 -0.001252 -0.001209 -0.001219 0.000768 -0.005577
# 2 -0.001252 0.017651 -0.003463 -0.002280 0.001411 -0.012974
# 3 -0.001209 -0.003463 0.007397 0.001302 -0.001175 -0.003075
# 4 -0.001219 -0.002280 0.001302 0.029000 -0.004939 -0.004475
# 5 0.000768 0.001411 -0.001175 -0.004939 0.029460 0.003112
# 6 -0.005577 -0.012974 -0.003075 -0.004475 0.003112 0.060520
#
#
# Mechanical properties :
#
#
# Convention : Reuss Voigt Hill
#
# Bulk Modulus (GPa) = 31.42430 55.03623 43.23026
# Shear Modulus (GPa) = 27.01178 34.52769 30.76974
#
# Velocity S-wave (km/s) = 3.47828 3.93253 3.71236
# Velocity P-wave (km/s) = 5.49600 6.72831 6.14314
#
# Compressibility (1/GPa) = 0.03182251
#
# Stress axis : x y z
#
# Youngs Moduli (GPa) = 53.69775 56.65539 135.19701
#
# Poissons Ratio (x) = 0.07092 0.16341
# Poissons Ratio (y) = 0.06722 0.46822
# Poissons Ratio (z) = 0.06490 0.19621
#
# Static dielectric constant tensor:
#      x y z
#    x 1.825360 -0.031210 0.041800 
#    y -0.031210 1.873100 -0.005980 
#    z 0.041800 -0.005980 1.823170 
# 
# From -- ./inp_files/305780.got.cif
#   From: 2010.05.17/outbox.cif.g08.bks.cpg/sg2_153_cif.got.tgz:305780.got - 2010.06.03 11:33:40.
