data_PCOD9023279
_publ_section_title
;
Structure prediction by ZEFSAII (Michael W. Deem and Ramdas Pophale) SiO2 
 PCOD9023279
Probable space group: P -1
;
_chemical_formula_sum "Si O2"
_cell_formula_units_Z 16
_cell_length_a 11.148378
_cell_length_b 21.098716
_cell_length_c 9.777282
_cell_angle_alpha 140.039753
_cell_angle_beta 135.220816
_cell_angle_gamma 31.828162
_cell_volume 767.211942
_symmetry_space_group_name_H-M "P -1"
_symmetry_group_IT_number 2
_symmetry_cell_setting 'triclinic'
loop_
_space_group_symop_operation_xyz
x,y,z
-x,-y,-z
loop_
_atom_site_type_symbol
_atom_site_label
_atom_site_fract_x
_atom_site_fract_y
_atom_site_fract_z
Si Si1 0.193082 0.913220 0.401781
Si Si2 0.622529 0.867033 0.791687
Si Si3 0.520888 0.376335 0.836414
Si Si4 0.057817 0.210914 0.336904
Si Si5 0.130508 0.517314 0.243197
Si Si6 0.205306 0.965785 0.197001
Si Si7 0.461873 0.671939 0.927563
Si Si8 0.787200 0.608634 0.605021
O O1 0.423982 0.880921 0.578581
O O2 0.241228 0.777068 0.207505
O O3 0.129212 0.984305 0.322705
O O4 0.000000 0.000000 0.500000
O O5 0.803677 0.828627 0.758202
O O6 0.744280 0.741868 0.784415
O O7 0.500000 0.000000 0.000000
O O8 0.414178 0.369367 0.602920
O O9 0.500000 0.500000 0.000000
O O10 0.422659 0.390976 0.933422
O O11 0.013584 0.329480 0.578813
O O12 0.796755 0.272940 0.198738
O O13 0.208847 0.075418 0.325850
O O14 0.376591 0.438865 0.239428
O O15 0.176785 0.443936 0.301650
O O16 0.000000 0.500000 0.000000
O O17 0.421719 0.805727 0.094507
O O18 0.000000 0.000000 0.000000
O O19 0.000000 0.500000 0.500000
#
# Coordination Sequence:
#
# PCOD9023279 Si02
#       8
#     2   2   2   2   2   2   2   2
#     4  10  24  42  65  97 135 166 221 272 320 389
#     4  11  27  41  68 101 130 172 223 270 329 389
#     4  10  22  39  67  96 124 170 219 265 324 385
#     4  11  24  44  67  97 135 170 224 268 325 396
#     4  12  26  42  68  98 135 171 221 266 328 391
#     4   9  22  40  69  93 131 174 215 270 329 378
#     4  10  23  43  68  96 131 174 216 271 330 385
#     4  11  23  44  65  93 137 170 213 279 323 379
#
# _framework density 20.854733
#
# number of rings (size 3 to 8) (size 9 to 14) (size 15 to 20)
#    0.000    1.500    1.250    1.875   10.500    5.500 
#    0.000    0.000    0.000    0.000    0.000    0.000 
#    0.000    0.000    0.000    0.000    0.000    0.000 
#
# Total GULP energy -89282.277296 kJ/mol
# GULP energy per Si atom -5580.142331 kJ/mol
# Density = 2.080727 g / cm^3
# Si number density = 20.854733 Si / 1000 Ang^3
#
#
#
# Elastic Constant Matrix: (Units=GPa)
#
#
# Indices 1 2 3 4 5 6 
#
# 1 114.7223 67.4391 62.9380 19.8653 -17.2349 11.6130
# 2 67.4391 99.3311 66.8141 12.7071 1.8928 36.6397
# 3 62.9380 66.8141 143.1235 26.8570 -13.6241 24.0499
# 4 19.8653 12.7071 26.8570 57.4938 4.2534 3.5920
# 5 -17.2349 1.8928 -13.6241 4.2534 36.1499 4.7236
# 6 11.6130 36.6397 24.0499 3.5920 4.7236 55.2278
#
#
#
# Elastic Compliance Matrix: (Units=1/GPa)
#
#
# Indices 1 2 3 4 5 6 
#
# 1 0.018854 -0.013481 -0.001239 -0.003937 0.009038 0.005002
# 2 -0.013481 0.027870 -0.006434 0.002940 -0.009054 -0.012270
# 3 -0.001239 -0.006434 0.011877 -0.004003 0.004797 -0.000793
# 4 -0.003937 0.002940 -0.004003 0.020424 -0.005916 -0.000202
# 5 0.009038 -0.009054 0.004797 -0.005916 0.035027 -0.000594
# 6 0.005002 -0.012270 -0.000793 -0.000202 -0.000594 0.025604
#
#
# Mechanical properties :
#
#
# Convention : Reuss Voigt Hill
#
# Bulk Modulus (GPa) = 61.37746 83.50660 72.44203
# Shear Modulus (GPa) = 26.68148 40.44000 33.56074
#
# Velocity S-wave (km/s) = 3.58075 4.40833 4.01591
# Velocity P-wave (km/s) = 6.82572 8.12651 7.50435
#
# Compressibility (1/GPa) = 0.01629263
#
# Stress axis : x y z
#
# Youngs Moduli (GPa) = 53.03802 35.88057 84.19952
#
# Poissons Ratio (x) = 0.48370 0.10435
# Poissons Ratio (y) = 0.71499 0.54176
# Poissons Ratio (z) = 0.06573 0.23086
#
# Static dielectric constant tensor:
#      x y z
#    x 1.787260 -0.025010 -0.004270 
#    y -0.025010 1.781340 0.015730 
#    z -0.004270 0.015730 1.837010 
# 
# From -- ./inp_files/208680.got.cif
#   From: 2010.05.17/outbox.cif.g08.bks.cpg/sg2_105_cif.got.tgz:208680.got - 2010.06.03 11:33:40.
