data_PCOD9023369
_publ_section_title
;
Structure prediction by ZEFSAII (Michael W. Deem and Ramdas Pophale) SiO2 
 PCOD9023369
Probable space group: P -1
;
_chemical_formula_sum "Si O2"
_cell_formula_units_Z 16
_cell_length_a 7.912399
_cell_length_b 14.247575
_cell_length_c 12.103568
_cell_angle_alpha 28.301721
_cell_angle_beta 95.205220
_cell_angle_gamma 101.588321
_cell_volume 622.731087
_symmetry_space_group_name_H-M "P -1"
_symmetry_group_IT_number 2
_symmetry_cell_setting 'triclinic'
loop_
_space_group_symop_operation_xyz
x,y,z
-x,-y,-z
loop_
_atom_site_type_symbol
_atom_site_label
_atom_site_fract_x
_atom_site_fract_y
_atom_site_fract_z
Si Si1 0.356831 0.235269 0.021016
Si Si2 0.544956 0.668981 0.642931
Si Si3 0.713652 0.907927 0.609539
Si Si4 0.964605 0.302649 0.123242
Si Si5 0.604812 0.321560 0.737303
Si Si6 0.979972 0.029182 0.837705
Si Si7 0.624681 0.901601 0.206591
Si Si8 0.120294 0.447255 0.333998
O O1 0.390660 0.464158 0.835095
O O2 0.504178 0.260490 0.909828
O O3 0.368285 0.094836 0.271761
O O4 0.174700 0.145286 0.040722
O O5 0.583117 0.763052 0.667573
O O6 0.515061 0.834209 0.380871
O O7 0.724508 0.607270 0.676116
O O8 0.877313 0.806612 0.744473
O O9 0.793988 0.130454 0.331918
O O10 0.940581 0.385065 0.914616
O O11 0.000000 0.500000 0.000000
O O12 0.448472 0.310205 0.650231
O O13 0.788579 0.467655 0.632244
O O14 0.643324 0.106794 0.922985
O O15 0.176697 0.045434 0.792163
O O16 0.965685 0.249818 0.562390
O O17 0.000000 0.000000 0.000000
#
# Coordination Sequence:
#
# PCOD9023369 Si02
#       8
#     2   2   2   2   2   2   2   2
#     4  11  24  41  63  98 133 170 223 281 339 388
#     4  10  22  42  66  92 132 181 223 270 340 405
#     4  11  24  41  70  98 141 177 229 279 336 398
#     4  11  22  42  67 101 133 183 226 276 337 405
#     4  10  22  42  64  93 129 179 223 279 336 413
#     4  11  23  41  66  97 132 173 224 284 338 393
#     4  10  22  42  66  91 131 175 230 271 341 415
#     4  10  22  39  68  92 133 177 230 264 344 411
#
# _framework density 25.693272
#
# number of rings (size 3 to 8) (size 9 to 14) (size 15 to 20)
#    0.000    1.500    2.500    1.875    8.750    1.500 
#    4.500    3.750    0.000    0.000    0.000    0.000 
#    0.000    0.000    0.000    0.000    0.000    0.000 
#
# Total GULP energy -89344.931947 kJ/mol
# GULP energy per Si atom -5584.058247 kJ/mol
# Density = 2.563479 g / cm^3
# Si number density = 25.693272 Si / 1000 Ang^3
#
#
#
# Elastic Constant Matrix: (Units=GPa)
#
#
# Indices 1 2 3 4 5 6 
#
# 1 25.6151 16.2694 -2.4424 -18.3862 -20.4845 13.1741
# 2 16.2694 155.6594 38.4300 -5.8450 -18.9131 31.9102
# 3 -2.4424 38.4300 113.5449 12.7279 -29.2343 16.3424
# 4 -18.3862 -5.8450 12.7279 42.5221 11.5475 -10.4279
# 5 -20.4845 -18.9131 -29.2343 11.5475 38.6781 -3.6095
# 6 13.1741 31.9102 16.3424 -10.4279 -3.6095 39.5045
#
#
#
# Elastic Compliance Matrix: (Units=1/GPa)
#
#
# Indices 1 2 3 4 5 6 
#
# 1 0.177531 -0.002021 0.039269 0.020222 0.111236 -0.058315
# 2 -0.002021 0.008306 -0.001505 -0.001094 0.001662 -0.005549
# 3 0.039269 -0.001505 0.023077 -0.004976 0.037184 -0.019342
# 4 0.020222 -0.001094 -0.004976 0.035946 -0.003820 0.005338
# 5 0.111236 0.001662 0.037184 -0.003820 0.110652 -0.044719
# 6 -0.058315 -0.005549 -0.019342 0.005338 -0.044719 0.054568
#
#
# Mechanical properties :
#
#
# Convention : Reuss Voigt Hill
#
# Bulk Modulus (GPa) = 3.56635 44.37037 23.96836
# Shear Modulus (GPa) = 11.57246 40.31178 25.94212
#
# Velocity S-wave (km/s) = 2.12459 3.96531 3.18100
# Velocity P-wave (km/s) = 2.72205 6.18641 4.77918
#
# Compressibility (1/GPa) = 0.28039909
#
# Stress axis : x y z
#
# Youngs Moduli (GPa) = 5.63282 120.40096 43.33372
#
# Poissons Ratio (x) = 0.24330 -1.70167
# Poissons Ratio (y) = 0.01138 0.06523
# Poissons Ratio (z) = -0.22120 0.18125
#
# Static dielectric constant tensor:
#      x y z
#    x 2.208580 0.013180 0.208190 
#    y 0.013180 2.019800 0.010530 
#    z 0.208190 0.010530 2.166000 
# 
# From -- ./inp_files/297439.got.cif
#   From: 2010.05.17/outbox.cif.g08.bks.cpg/sg2_149_cif.got.tgz:297439.got - 2010.06.03 11:33:40.
