data_PCOD9023971
_publ_section_title
;
Structure prediction by ZEFSAII (Michael W. Deem and Ramdas Pophale) SiO2 
 PCOD9023971
Probable space group: P -1
;
_chemical_formula_sum "Si O2"
_cell_formula_units_Z 14
_cell_length_a 13.928101
_cell_length_b 10.207980
_cell_length_c 11.175339
_cell_angle_alpha 40.464182
_cell_angle_beta 79.044642
_cell_angle_gamma 48.629632
_cell_volume 593.127435
_symmetry_space_group_name_H-M "P -1"
_symmetry_group_IT_number 2
_symmetry_cell_setting 'triclinic'
loop_
_space_group_symop_operation_xyz
x,y,z
-x,-y,-z
loop_
_atom_site_type_symbol
_atom_site_label
_atom_site_fract_x
_atom_site_fract_y
_atom_site_fract_z
Si Si1 0.016917 0.532931 0.760437
Si Si2 0.703630 0.724799 0.000997
Si Si3 0.604970 0.323473 0.976981
Si Si4 0.346774 0.924692 0.434876
Si Si5 0.370743 0.460218 0.659256
Si Si6 0.951600 0.859370 0.141457
Si Si7 0.210142 0.388299 0.602465
O O1 0.084413 0.205753 0.924766
O O2 0.069662 0.582670 0.601206
O O3 0.117360 0.468048 0.889379
O O4 0.824674 0.820774 0.630772
O O5 0.653241 0.860531 0.782618
O O6 0.564880 0.076998 0.866785
O O7 0.699909 0.514869 0.215037
O O8 0.500980 0.618778 0.696817
O O9 0.500000 0.500000 0.000000
O O10 0.788094 0.115762 0.083654
O O11 0.646362 0.021860 0.141611
O O12 0.347509 0.737257 0.470781
O O13 0.283879 0.481278 0.557247
O O14 0.114341 0.512075 0.415640
O O15 0.000000 0.000000 0.000000
#
# Coordination Sequence:
#
# PCOD9023971 Si02
#       7
#     2   2   2   2   2   2   2
#     4  10  22  43  61  92 127 170 207 261 321 379
#     4  10  22  40  62  93 131 166 214 260 314 387
#     4  11  23  44  68  92 125 173 217 261 324 375
#     4  12  23  39  69  93 130 167 212 265 318 380
#     4  10  22  40  64  96 125 169 212 259 325 373
#     4  11  24  42  65  93 127 168 214 266 324 376
#     4  10  22  42  66  86 131 166 211 260 316 393
#
# _framework density 23.603695999999999
#
# number of rings (size 3 to 8) (size 9 to 14) (size 15 to 20)
#    0.000    1.429    0.000    7.714    4.000    2.286 
#    7.714    1.429    0.000    0.000    0.000    0.000 
#    0.000    0.000    0.000    0.000    0.000    0.000 
#
# Total GULP energy -78207.288378 kJ/mol
# GULP energy per Si atom -5586.234884 kJ/mol
# Density = 2.354997 g / cm^3
# Si number density = 23.603696 Si / 1000 Ang^3
#
#
#
# Elastic Constant Matrix: (Units=GPa)
#
#
# Indices 1 2 3 4 5 6 
#
# 1 70.8754 2.3705 4.7036 5.8728 8.4483 -11.9350
# 2 2.3705 76.3449 10.6543 -13.1120 4.6501 -2.9740
# 3 4.7036 10.6543 92.2757 15.5602 19.1084 -5.5512
# 4 5.8728 -13.1120 15.5602 29.4300 -5.4877 11.8524
# 5 8.4483 4.6501 19.1084 -5.4877 30.4366 1.5364
# 6 -11.9350 -2.9740 -5.5512 11.8524 1.5364 16.8435
#
#
#
# Elastic Compliance Matrix: (Units=1/GPa)
#
#
# Indices 1 2 3 4 5 6 
#
# 1 0.034815 -0.009077 0.021208 -0.059100 -0.036029 0.074930
# 2 -0.009077 0.018233 -0.011501 0.030641 0.013985 -0.029840
# 3 0.021208 -0.011501 0.035517 -0.066279 -0.042173 0.075188
# 4 -0.059100 0.030641 -0.066279 0.195401 0.098905 -0.204832
# 5 -0.036029 0.013985 -0.042173 0.098905 0.090826 -0.114842
# 6 0.074930 -0.029840 0.075188 -0.204832 -0.114842 0.286587
#
#
# Mechanical properties :
#
#
# Convention : Reuss Voigt Hill
#
# Bulk Modulus (GPa) = 11.13273 30.55030 20.84152
# Shear Modulus (GPa) = 7.24573 30.12653 18.68613
#
# Velocity S-wave (km/s) = 1.75397 3.57648 2.81670
# Velocity P-wave (km/s) = 2.97130 5.47960 4.40765
#
# Compressibility (1/GPa) = 0.08982522
#
# Stress axis : x y z
#
# Youngs Moduli (GPa) = 28.72327 54.84414 28.15568
#
# Poissons Ratio (x) = 0.49784 -0.59712
# Poissons Ratio (y) = 0.26073 0.32381
# Poissons Ratio (z) = -0.60916 0.63074
#
# Static dielectric constant tensor:
#      x y z
#    x 1.950030 0.112820 0.039510 
#    y 0.112820 2.163650 0.037590 
#    z 0.039510 0.037590 1.975950 
# 
# From -- ./inp_files/428476.got.cif
#   From: 2010.05.17/outbox.cif.g08.bks.cpg/sg2_215_cif.got.tgz:428476.got - 2010.06.03 11:33:40.
