data_PCOD9023603
_publ_section_title
;
Structure prediction by ZEFSAII (Michael W. Deem and Ramdas Pophale) SiO2 
 PCOD9023603
Probable space group: P -1
;
_chemical_formula_sum "Si O2"
_cell_formula_units_Z 16
_cell_length_a 8.516477
_cell_length_b 8.898887
_cell_length_c 21.094076
_cell_angle_alpha 63.789832
_cell_angle_beta 98.247485
_cell_angle_gamma 50.260230
_cell_volume 867.764469
_symmetry_space_group_name_H-M "P -1"
_symmetry_group_IT_number 2
_symmetry_cell_setting 'triclinic'
loop_
_space_group_symop_operation_xyz
x,y,z
-x,-y,-z
loop_
_atom_site_type_symbol
_atom_site_label
_atom_site_fract_x
_atom_site_fract_y
_atom_site_fract_z
Si Si1 0.398208 0.896501 0.006479
Si Si2 0.126338 0.754826 0.847442
Si Si3 0.234471 0.400719 0.720812
Si Si4 0.895944 0.351992 0.815041
Si Si5 0.272549 0.852085 0.139358
Si Si6 0.807869 0.687104 0.396358
Si Si7 0.798650 0.805698 0.723610
Si Si8 0.854461 0.883905 0.251508
O O1 0.634412 0.571152 0.071444
O O2 0.264577 0.953712 0.053795
O O3 0.500000 0.000000 0.000000
O O4 0.186497 0.066473 0.907610
O O5 0.919734 0.841287 0.771283
O O6 0.214065 0.864995 0.807168
O O7 0.975975 0.903561 0.877050
O O8 0.472992 0.304775 0.778651
O O9 0.168721 0.468208 0.630354
O O10 0.312319 0.136687 0.780244
O O11 0.983516 0.650310 0.701766
O O12 0.717959 0.355055 0.831024
O O13 0.833466 0.587727 0.792709
O O14 0.897384 0.343158 0.739664
O O15 0.875272 0.804312 0.340306
O O16 0.000000 0.500000 0.500000
O O17 0.507674 0.924899 0.355532
#
# Coordination Sequence:
#
# PCOD9023603 Si02
#       8
#     2   2   2   2   2   2   2   2
#     4  12  23  38  58  88 129 157 215 248 277 343
#     4  11  21  38  63  87 118 171 196 242 301 345
#     4   9  19  39  59  87 120 156 193 248 293 363
#     4  10  22  40  57  91 123 164 203 247 289 350
#     4  11  22  38  60  86 124 163 205 244 291 348
#     4  10  22  40  66  93 116 148 199 251 303 370
#     4  11  20  38  64  85 117 163 191 240 316 348
#     4   8  20  39  60  84 123 152 198 244 301 350
#
# _framework density 18.438182000000001
#
# number of rings (size 3 to 8) (size 9 to 14) (size 15 to 20)
#    0.750    1.000    3.750    1.125    1.750    3.000 
#    2.250    0.625    0.000    1.500    0.000    0.000 
#    0.000    0.000    0.000    0.000    0.000    0.000 
#
# Total GULP energy -89072.562980 kJ/mol
# GULP energy per Si atom -5567.035186 kJ/mol
# Density = 1.839622 g / cm^3
# Si number density = 18.438182 Si / 1000 Ang^3
#
#
#
# Elastic Constant Matrix: (Units=GPa)
#
#
# Indices 1 2 3 4 5 6 
#
# 1 114.1000 33.0448 32.7493 3.6391 1.4104 3.6631
# 2 33.0448 90.6238 37.6996 0.0299 3.1570 -12.6387
# 3 32.7493 37.6996 75.4469 11.6701 21.8597 -17.7650
# 4 3.6391 0.0299 11.6701 21.9653 -3.5147 1.3700
# 5 1.4104 3.1570 21.8597 -3.5147 21.6920 4.9208
# 6 3.6631 -12.6387 -17.7650 1.3700 4.9208 29.3720
#
#
#
# Elastic Compliance Matrix: (Units=1/GPa)
#
#
# Indices 1 2 3 4 5 6 
#
# 1 0.014688 -0.000411 -0.020739 0.014095 0.026755 -0.019692
# 2 -0.000411 0.016611 -0.016729 0.012206 0.017918 -0.006491
# 3 -0.020739 -0.016729 0.093626 -0.070013 -0.118973 0.075213
# 4 0.014095 0.012206 -0.070013 0.099722 0.097597 -0.059854
# 5 0.026755 0.017918 -0.118973 0.097597 0.201481 -0.105892
# 6 -0.019692 -0.006491 0.075213 -0.059854 -0.105892 0.099733
#
#
# Mechanical properties :
#
#
# Convention : Reuss Voigt Hill
#
# Bulk Modulus (GPa) = 20.33940 54.12867 37.23403
# Shear Modulus (GPa) = 8.09051 26.38432 17.23741
#
# Velocity S-wave (km/s) = 2.09701 3.78691 3.06089
# Velocity P-wave (km/s) = 4.11319 6.96717 5.72100
#
# Compressibility (1/GPa) = 0.04916566
#
# Stress axis : x y z
#
# Youngs Moduli (GPa) = 68.08347 60.20254 10.68075
#
# Poissons Ratio (x) = 0.02476 0.22151
# Poissons Ratio (y) = 0.02801 0.17868
# Poissons Ratio (z) = 1.41198 1.00715
#
# Static dielectric constant tensor:
#      x y z
#    x 1.667190 -0.013280 -0.032870 
#    y -0.013280 1.702990 0.020480 
#    z -0.032870 0.020480 1.628300 
# 
# From -- ./inp_files/197051.got.cif
#   From: 2010.05.17/outbox.cif.g08.bks.cpg/sg2_99_cif.got.tgz:197051.got - 2010.06.03 11:33:40.
