data_PCOD9023677
_publ_section_title
;
Structure prediction by ZEFSAII (Michael W. Deem and Ramdas Pophale) SiO2 
 PCOD9023677
Probable space group: P -1
;
_chemical_formula_sum "Si O2"
_cell_formula_units_Z 14
_cell_length_a 17.749478
_cell_length_b 6.106048
_cell_length_c 18.237494
_cell_angle_alpha 72.223075
_cell_angle_beta 19.201358
_cell_angle_gamma 70.283318
_cell_volume 611.394260
_symmetry_space_group_name_H-M "P -1"
_symmetry_group_IT_number 2
_symmetry_cell_setting 'triclinic'
loop_
_space_group_symop_operation_xyz
x,y,z
-x,-y,-z
loop_
_atom_site_type_symbol
_atom_site_label
_atom_site_fract_x
_atom_site_fract_y
_atom_site_fract_z
Si Si1 0.100039 0.027822 0.069763
Si Si2 0.155712 0.720073 0.583007
Si Si3 0.358329 0.849165 0.239381
Si Si4 0.581070 0.591993 0.301573
Si Si5 0.228447 0.582130 0.077884
Si Si6 0.685212 0.156567 0.340195
Si Si7 0.661152 0.254220 0.890945
O O1 0.953645 0.112395 0.268548
O O2 0.923195 0.014489 0.166740
O O3 0.252699 0.786113 0.977271
O O4 0.248856 0.228705 0.893931
O O5 0.196470 0.857866 0.457662
O O6 0.398428 0.586798 0.404801
O O7 0.983390 0.540887 0.740824
O O8 0.238539 0.825978 0.272868
O O9 0.548063 0.616438 0.100261
O O10 0.501642 0.063652 0.081085
O O11 0.712558 0.343705 0.232924
O O12 0.428852 0.699343 0.499731
O O13 0.184510 0.695231 0.187474
O O14 0.500000 0.000000 0.500000
O O15 0.500000 0.500000 0.000000
#
# Coordination Sequence:
#
# PCOD9023677 Si02
#       7
#     2   2   2   2   2   2   2
#     4  11  24  40  62  91 124 161 200 247 305 361
#     4  11  23  38  61  90 122 160 203 248 299 358
#     4  10  22  42  63  87 124 161 200 252 303 357
#     4  10  22  40  60  88 124 158 200 250 299 357
#     4  11  22  38  61  91 122 159 205 249 302 359
#     4  10  22  40  63  90 119 157 203 249 300 356
#     4   9  20  40  64  88 119 161 203 249 303 356
#
# _framework density 22.898482999999999
#
# number of rings (size 3 to 8) (size 9 to 14) (size 15 to 20)
#    0.000    1.714    0.000    3.857    0.000    8.000 
#    0.000   10.000    0.000    0.000    0.000    0.000 
#    0.000    0.000    0.000    0.000    0.000    0.000 
#
# Total GULP energy -78334.998988 kJ/mol
# GULP energy per Si atom -5595.357071 kJ/mol
# Density = 2.284637 g / cm^3
# Si number density = 22.898483 Si / 1000 Ang^3
#
#
#
# Elastic Constant Matrix: (Units=GPa)
#
#
# Indices 1 2 3 4 5 6 
#
# 1 116.3120 41.0654 12.3284 0.6189 -17.9917 -14.4140
# 2 41.0654 133.6165 24.9793 -9.2910 -0.9395 -33.2891
# 3 12.3284 24.9793 50.9046 -2.5978 11.1841 -14.7882
# 4 0.6189 -9.2910 -2.5978 29.5156 0.2330 9.6037
# 5 -17.9917 -0.9395 11.1841 0.2330 45.0026 -7.9992
# 6 -14.4140 -33.2891 -14.7882 9.6037 -7.9992 42.2369
#
#
#
# Elastic Compliance Matrix: (Units=1/GPa)
#
#
# Indices 1 2 3 4 5 6 
#
# 1 0.010790 -0.002427 -0.001932 -0.002028 0.005205 0.002540
# 2 -0.002427 0.010429 -0.002868 0.001002 0.001087 0.006366
# 3 -0.001932 -0.002868 0.024122 -0.000127 -0.006042 0.004410
# 4 -0.002028 0.001002 -0.000127 0.037133 -0.002527 -0.008869
# 5 0.005205 0.001087 -0.006042 -0.002527 0.026940 0.006194
# 6 0.002540 0.006366 0.004410 -0.008869 0.006194 0.034294
#
#
# Mechanical properties :
#
#
# Convention : Reuss Voigt Hill
#
# Bulk Modulus (GPa) = 32.37473 50.84215 41.60844
# Shear Modulus (GPa) = 29.68111 38.18166 33.93139
#
# Velocity S-wave (km/s) = 3.60419 4.08785 3.85362
# Velocity P-wave (km/s) = 5.61153 6.67324 6.16529
#
# Compressibility (1/GPa) = 0.03088829
#
# Stress axis : x y z
#
# Youngs Moduli (GPa) = 92.68051 95.88345 41.45546
#
# Poissons Ratio (x) = 0.23266 0.08007
# Poissons Ratio (y) = 0.22489 0.11891
# Poissons Ratio (z) = 0.17901 0.27504
#
# Static dielectric constant tensor:
#      x y z
#    x 1.870940 -0.011860 0.021250 
#    y -0.011860 1.843240 0.058000 
#    z 0.021250 0.058000 1.833880 
# 
# From -- ./inp_files/6702.got.cif
#   From: 2010.05.17/outbox.cif.g08.bks.cpg/sg2_4_cif.got.tgz:6702.got - 2010.06.03 11:33:40.
