data_PCOD9023895
_publ_section_title
;
Structure prediction by ZEFSAII (Michael W. Deem and Ramdas Pophale) SiO2 
 PCOD9023895
Probable space group: P -1
;
_chemical_formula_sum "Si O2"
_cell_formula_units_Z 16
_cell_length_a 6.843673
_cell_length_b 14.357269
_cell_length_c 24.396990
_cell_angle_alpha 160.381308
_cell_angle_beta 72.511926
_cell_angle_gamma 104.690425
_cell_volume 764.410429
_symmetry_space_group_name_H-M "P -1"
_symmetry_group_IT_number 2
_symmetry_cell_setting 'triclinic'
loop_
_space_group_symop_operation_xyz
x,y,z
-x,-y,-z
loop_
_atom_site_type_symbol
_atom_site_label
_atom_site_fract_x
_atom_site_fract_y
_atom_site_fract_z
Si Si1 0.259174 0.278873 0.414535
Si Si2 0.996484 0.598108 0.328682
Si Si3 0.612510 0.478322 0.891423
Si Si4 0.147798 0.094093 0.961103
Si Si5 0.083715 0.372509 0.314233
Si Si6 0.318915 0.980033 0.461117
Si Si7 0.500937 0.388177 0.345641
Si Si8 0.193124 0.668767 0.088691
O O1 0.400139 0.273347 0.345910
O O2 0.404005 0.336942 0.486749
O O3 0.082001 0.532896 0.572418
O O4 0.148614 0.999523 0.272014
O O5 0.014829 0.554608 0.367688
O O6 0.148257 0.824128 0.422040
O O7 0.073030 0.300392 0.130589
O O8 0.779569 0.726858 0.393213
O O9 0.617699 0.222144 0.707054
O O10 0.721461 0.393845 0.892434
O O11 0.740312 0.713843 0.984232
O O12 0.378914 0.585073 0.984629
O O13 0.318710 0.835393 0.815495
O O14 0.954346 0.946556 0.872056
O O15 0.313070 0.424481 0.339911
O O16 0.500000 0.000000 0.500000
O O17 0.000000 0.500000 0.000000
#
# Coordination Sequence:
#
# PCOD9023895 Si02
#       8
#     2   2   2   2   2   2   2   2
#     4  10  22  41  58  92 127 160 219 265 313 380
#     4  10  23  41  60  99 125 157 220 262 306 383
#     4  10  23  41  60  95 126 164 215 264 318 385
#     4  10  22  40  62  89 134 163 211 269 310 382
#     4  11  23  37  67  92 124 172 212 264 314 379
#     4  10  23  43  69  87 127 173 205 265 327 378
#     4  10  22  40  63  87 127 174 208 263 320 371
#     4  11  24  39  66  93 129 167 208 268 322 383
#
# _framework density 20.931163999999999
#
# number of rings (size 3 to 8) (size 9 to 14) (size 15 to 20)
#    0.000    1.750    1.250    1.500    1.750   11.500 
#    0.000    0.000    0.000    0.000    0.000    0.000 
#    0.000    0.000    0.000    0.000    0.000    0.000 
#
# Total GULP energy -89376.225640 kJ/mol
# GULP energy per Si atom -5586.014103 kJ/mol
# Density = 2.088352 g / cm^3
# Si number density = 20.931164 Si / 1000 Ang^3
#
#
#
# Elastic Constant Matrix: (Units=GPa)
#
#
# Indices 1 2 3 4 5 6 
#
# 1 88.7629 38.2216 46.7518 -9.5616 19.3527 -19.9517
# 2 38.2216 68.8366 41.7112 -14.8662 3.5998 -5.8181
# 3 46.7518 41.7112 94.0151 3.2400 12.0963 -3.9345
# 4 -9.5616 -14.8662 3.2400 24.3946 7.8253 1.2563
# 5 19.3527 3.5998 12.0963 7.8253 34.2479 3.5144
# 6 -19.9517 -5.8181 -3.9345 1.2563 3.5144 24.8186
#
#
#
# Elastic Compliance Matrix: (Units=1/GPa)
#
#
# Indices 1 2 3 4 5 6 
#
# 1 0.028634 -0.004011 -0.009718 0.014685 -0.017974 0.022340
# 2 -0.004011 0.026513 -0.010211 0.016121 -0.000664 0.000650
# 3 -0.009718 -0.010211 0.019741 -0.013376 0.003354 -0.006874
# 4 0.014685 0.016121 -0.013376 0.064522 -0.021368 0.013223
# 5 -0.017974 -0.000664 0.003354 -0.021368 0.045112 -0.019380
# 6 0.022340 0.000650 -0.006874 0.013223 -0.019380 0.059389
#
#
# Mechanical properties :
#
#
# Convention : Reuss Voigt Hill
#
# Bulk Modulus (GPa) = 37.02664 56.10931 46.56798
# Shear Modulus (GPa) = 16.62273 25.02088 20.82180
#
# Velocity S-wave (km/s) = 2.82114 3.46119 3.15743
# Velocity P-wave (km/s) = 5.32353 6.54507 5.96564
#
# Compressibility (1/GPa) = 0.02700758
#
# Stress axis : x y z
#
# Youngs Moduli (GPa) = 34.92409 37.71774 50.65512
#
# Poissons Ratio (x) = 0.15127 0.49227
# Poissons Ratio (y) = 0.14007 0.51725
# Poissons Ratio (z) = 0.33940 0.38515
#
# Static dielectric constant tensor:
#      x y z
#    x 1.733910 0.030510 -0.021220 
#    y 0.030510 1.735210 0.013100 
#    z -0.021220 0.013100 1.738570 
# 
# From -- ./inp_files/77937.got.cif
#   From: 2010.05.17/outbox.cif.g08.bks.cpg/sg2_39_cif.got.tgz:77937.got - 2010.06.03 11:33:40.
