data_PCOD9023101
_publ_section_title
;
Structure prediction by ZEFSAII (Michael W. Deem and Ramdas Pophale) SiO2 
 PCOD9023101
Probable space group: P -1
;
_chemical_formula_sum "Si O2"
_cell_formula_units_Z 16
_cell_length_a 12.792793
_cell_length_b 7.496177
_cell_length_c 15.659596
_cell_angle_alpha 88.530032
_cell_angle_beta 27.621180
_cell_angle_gamma 99.298071
_cell_volume 638.604108
_symmetry_space_group_name_H-M "P -1"
_symmetry_group_IT_number 2
_symmetry_cell_setting 'triclinic'
loop_
_space_group_symop_operation_xyz
x,y,z
-x,-y,-z
loop_
_atom_site_type_symbol
_atom_site_label
_atom_site_fract_x
_atom_site_fract_y
_atom_site_fract_z
Si Si1 0.776600 0.520277 0.790205
Si Si2 0.847347 0.063379 0.503087
Si Si3 0.271194 0.315406 0.634837
Si Si4 0.675507 0.640839 0.606494
Si Si5 0.182341 0.946175 0.806219
Si Si6 0.827811 0.341906 0.058950
Si Si7 0.946425 0.746372 0.813971
Si Si8 0.589996 0.265331 0.780218
O O1 0.887594 0.548413 0.804860
O O2 0.746958 0.343159 0.752144
O O3 0.925554 0.734109 0.639293
O O4 0.500000 0.500000 0.000000
O O5 0.625290 0.087397 0.712813
O O6 0.860198 0.098382 0.391305
O O7 0.838276 0.850726 0.526379
O O8 0.500000 0.500000 0.500000
O O9 0.271260 0.336841 0.532937
O O10 0.312799 0.135112 0.651498
O O11 0.014761 0.307796 0.858765
O O12 0.389025 0.608293 0.823555
O O13 0.689667 0.450656 0.641059
O O14 0.306984 0.851790 0.783350
O O15 0.045159 0.781303 0.836922
O O16 0.000000 0.000000 0.000000
O O17 0.000000 0.500000 0.000000
O O18 0.694780 0.781542 0.996102
#
# Coordination Sequence:
#
# PCOD9023101 Si02
#       8
#     2   2   2   2   2   2   2   2
#     4   8  18  42  70  92 128 167 210 270 323 389
#     4  10  23  41  68  93 129 169 211 265 329 380
#     4  11  23  43  60  89 130 169 225 272 310 383
#     4  12  26  41  61 102 130 168 218 271 316 387
#     4  10  22  39  66  89 127 176 212 262 327 371
#     4  11  24  42  62  90 132 170 220 269 318 381
#     4   9  20  41  65  94 127 169 217 264 321 384
#     4  11  23  40  71  94 130 171 214 261 335 383
#
# _framework density 25.054644
#
# number of rings (size 3 to 8) (size 9 to 14) (size 15 to 20)
#    0.750    1.000    2.500    1.125    5.250    3.000 
#    0.000    0.000    0.000    3.000    0.000    0.000 
#    0.000    0.000    0.000    0.000    0.000    0.000 
#
# Total GULP energy -89378.047236 kJ/mol
# GULP energy per Si atom -5586.127952 kJ/mol
# Density = 2.499762 g / cm^3
# Si number density = 25.054644 Si / 1000 Ang^3
#
#
#
# Elastic Constant Matrix: (Units=GPa)
#
#
# Indices 1 2 3 4 5 6 
#
# 1 104.4955 52.3130 27.0817 8.7203 29.0483 14.0278
# 2 52.3130 105.3783 22.1997 0.1841 13.1054 6.0966
# 3 27.0817 22.1997 123.5182 7.4785 12.1892 11.0630
# 4 8.7203 0.1841 7.4785 29.8942 11.2742 1.4339
# 5 29.0483 13.1054 12.1892 11.2742 43.3806 4.3891
# 6 14.0278 6.0966 11.0630 1.4339 4.3891 39.5253
#
#
#
# Elastic Compliance Matrix: (Units=1/GPa)
#
#
# Indices 1 2 3 4 5 6 
#
# 1 0.015773 -0.006437 -0.001171 -0.001230 -0.007626 -0.003386
# 2 -0.006437 0.012860 -0.001082 0.001983 0.000162 0.000514
# 3 -0.001171 -0.001082 0.008875 -0.001478 -0.000821 -0.001757
# 4 -0.001230 0.001983 -0.001478 0.037611 -0.009155 0.000196
# 5 -0.007626 0.000162 -0.000821 -0.009155 0.030736 -0.000170
# 6 -0.003386 0.000514 -0.001757 0.000196 -0.000170 0.026926
#
#
# Mechanical properties :
#
#
# Convention : Reuss Voigt Hill
#
# Bulk Modulus (GPa) = 49.68335 59.62010 54.65173
# Shear Modulus (GPa) = 31.87349 38.01320 34.94334
#
# Velocity S-wave (km/s) = 3.57060 3.89937 3.73860
# Velocity P-wave (km/s) = 6.07223 6.64237 6.36369
#
# Compressibility (1/GPa) = 0.02012747
#
# Stress axis : x y z
#
# Youngs Moduli (GPa) = 63.40004 77.76196 112.67548
#
# Poissons Ratio (x) = 0.50055 0.13195
# Poissons Ratio (y) = 0.40811 0.12192
# Poissons Ratio (z) = 0.07425 0.08414
#
# Static dielectric constant tensor:
#      x y z
#    x 2.004380 0.003130 0.028250 
#    y 0.003130 2.006120 0.002200 
#    z 0.028250 0.002200 2.000030 
# 
# From -- ./inp_files/515627.got.cif
#   From: 2010.05.17/outbox.cif.g08.bks.cpg/sg2_258_cif.got.tgz:515627.got - 2010.06.03 11:33:40.
