data_PCOD9023583
_publ_section_title
;
Structure prediction by ZEFSAII (Michael W. Deem and Ramdas Pophale) SiO2 
 PCOD9023583
Probable space group: P -1
;
_chemical_formula_sum "Si O2"
_cell_formula_units_Z 15
_cell_length_a 9.008401
_cell_length_b 10.252983
_cell_length_c 8.649470
_cell_angle_alpha 127.662919
_cell_angle_beta 100.207905
_cell_angle_gamma 74.238670
_cell_volume 608.573005
_symmetry_space_group_name_H-M "P -1"
_symmetry_group_IT_number 2
_symmetry_cell_setting 'triclinic'
loop_
_space_group_symop_operation_xyz
x,y,z
-x,-y,-z
loop_
_atom_site_type_symbol
_atom_site_label
_atom_site_fract_x
_atom_site_fract_y
_atom_site_fract_z
Si Si1 0.403465 0.360228 0.927719
Si Si2 0.606275 0.048971 0.922704
Si Si3 0.108448 0.520849 0.180870
Si Si4 0.030441 0.971629 0.238020
Si Si5 0.782059 0.135517 0.525549
Si Si6 0.436176 0.165709 0.505547
Si Si7 0.122066 0.769070 0.830820
Si Si8 0.000000 0.500000 0.500000
O O1 0.515377 0.200883 0.910263
O O2 0.345778 0.298470 0.707981
O O3 0.500000 0.500000 0.000000
O O4 0.273748 0.424668 0.076574
O O5 0.644631 0.886379 0.699116
O O6 0.742689 0.127128 0.075658
O O7 0.500000 0.000000 0.000000
O O8 0.125159 0.714780 0.343767
O O9 0.059001 0.473069 0.307849
O O10 0.000000 0.500000 0.000000
O O11 0.172138 0.956501 0.369653
O O12 0.869554 0.001888 0.321358
O O13 0.010828 0.130639 0.235049
O O14 0.064017 0.805530 0.020681
O O15 0.602272 0.206733 0.518218
O O16 0.500000 0.000000 0.500000
O O17 0.149293 0.583884 0.635625
#
# Coordination Sequence:
#
# PCOD9023583 Si02
#       8
#     2   2   2   2   2   2   2   1
#     4  11  25  49  77 111 154 209 260 316 399 478
#     4  11  26  46  76 108 155 201 259 325 383 466
#     4  12  28  47  77 110 157 202 256 325 394 465
#     4  10  22  39  75 100 140 191 247 310 375 452
#     4  11  21  43  70 105 142 191 251 311 371 455
#     4  10  22  42  72 105 145 195 255 309 375 462
#     4  11  24  46  69 106 149 194 247 321 384 466
#     4  12  28  50  72 110 160 194 252 332 400 454
#
# _framework density 24.647824
#
# number of rings (size 3 to 8) (size 9 to 14) (size 15 to 20)
#    0.000    1.067    2.667    3.200    1.867   10.667 
#    2.400    1.333    0.000    0.000    0.000    0.000 
#    0.000    0.000    0.000    0.000    0.000    0.000 
#
# Total GULP energy -83590.491518 kJ/mol
# GULP energy per Si atom -5572.699435 kJ/mol
# Density = 2.459172 g / cm^3
# Si number density = 24.647824 Si / 1000 Ang^3
#
#
#
# Elastic Constant Matrix: (Units=GPa)
#
#
# Indices 1 2 3 4 5 6 
#
# 1 120.1953 23.4987 76.6000 -14.3914 -1.9641 16.9847
# 2 23.4987 61.3030 29.3215 -19.1271 0.2672 11.2104
# 3 76.6000 29.3215 204.0182 -22.7142 -8.1328 28.3626
# 4 -14.3914 -19.1271 -22.7142 38.0351 8.7534 0.2444
# 5 -1.9641 0.2672 -8.1328 8.7534 48.6478 -6.0122
# 6 16.9847 11.2104 28.3626 0.2444 -6.0122 36.9927
#
#
#
# Elastic Compliance Matrix: (Units=1/GPa)
#
#
# Indices 1 2 3 4 5 6 
#
# 1 0.011426 -0.001841 -0.003613 0.001399 -0.000635 -0.002031
# 2 -0.001841 0.021661 -0.000548 0.010576 -0.002910 -0.005841
# 3 -0.003613 -0.000548 0.007140 0.002615 0.000130 -0.003645
# 4 0.001399 0.010576 0.002615 0.035314 -0.006807 -0.007192
# 5 -0.000635 -0.002910 0.000130 -0.006807 0.022381 0.004756
# 6 -0.002031 -0.005841 -0.003645 -0.007192 0.004756 0.033351
#
#
# Mechanical properties :
#
#
# Convention : Reuss Voigt Hill
#
# Bulk Modulus (GPa) = 35.43227 71.59520 53.51373
# Shear Modulus (GPa) = 32.74734 41.80820 37.27777
#
# Velocity S-wave (km/s) = 3.64896 4.12299 3.89320
# Velocity P-wave (km/s) = 5.67097 7.19554 6.47826
#
# Compressibility (1/GPa) = 0.02822286
#
# Stress axis : x y z
#
# Youngs Moduli (GPa) = 87.51805 46.16555 140.06016
#
# Poissons Ratio (x) = 0.08500 0.50599
# Poissons Ratio (y) = 0.16114 0.07679
# Poissons Ratio (z) = 0.31617 0.02531
#
# Static dielectric constant tensor:
#      x y z
#    x 1.929580 0.093860 -0.000520 
#    y 0.093860 2.048490 0.055650 
#    z -0.000520 0.055650 2.014300 
# 
# From -- ./inp_files/190890.got.cif
#   From: 2010.05.17/outbox.cif.g08.bks.cpg/sg2_96_cif.got.tgz:190890.got - 2010.06.03 11:33:40.
