data_PCOD9023217
_publ_section_title
;
Structure prediction by ZEFSAII (Michael W. Deem and Ramdas Pophale) SiO2 
 PCOD9023217
Probable space group: P -1
;
_chemical_formula_sum "Si O2"
_cell_formula_units_Z 16
_cell_length_a 13.127862
_cell_length_b 11.676825
_cell_length_c 13.603919
_cell_angle_alpha 148.850117
_cell_angle_beta 42.512629
_cell_angle_gamma 136.121069
_cell_volume 704.392534
_symmetry_space_group_name_H-M "P -1"
_symmetry_group_IT_number 2
_symmetry_cell_setting 'triclinic'
loop_
_space_group_symop_operation_xyz
x,y,z
-x,-y,-z
loop_
_atom_site_type_symbol
_atom_site_label
_atom_site_fract_x
_atom_site_fract_y
_atom_site_fract_z
Si Si1 0.663130 0.512205 0.187398
Si Si2 0.375213 0.539065 0.039699
Si Si3 0.186139 0.487857 0.610468
Si Si4 0.297953 0.998225 0.387049
Si Si5 0.422386 0.800211 0.792890
Si Si6 0.139667 0.016534 0.188949
Si Si7 0.965574 0.813898 0.973088
Si Si8 0.057517 0.714835 0.215946
O O1 0.690625 0.773615 0.393083
O O2 0.587233 0.339774 0.202319
O O3 0.571758 0.472862 0.120189
O O4 0.826939 0.450899 0.999275
O O5 0.211110 0.344296 0.021966
O O6 0.347167 0.792947 0.257372
O O7 0.500000 0.500000 0.000000
O O8 0.357608 0.631624 0.623299
O O9 0.175542 0.274082 0.391520
O O10 0.080747 0.645972 0.759893
O O11 0.110614 0.412099 0.716778
O O12 0.406641 0.062988 0.260189
O O13 0.129775 0.885374 0.378420
O O14 0.300932 0.956320 0.000361
O O15 0.072562 0.848687 0.203237
O O16 0.017889 0.951389 0.138503
O O17 0.000000 0.000000 0.000000
#
# Coordination Sequence:
#
# PCOD9023217 Si02
#       8
#     2   2   2   2   2   2   2   2
#     4  10  22  42  69  94 136 174 208 261 332 377
#     4  11  27  45  66  94 126 172 230 270 314 382
#     4  11  22  41  67 104 127 167 215 263 328 400
#     4  11  23  43  67  99 136 170 211 271 322 390
#     4  10  24  39  66 106 139 165 209 261 326 397
#     4  10  24  40  73  93 136 171 209 266 334 381
#     4  11  26  47  65  92 129 171 225 276 315 380
#     4  10  22  39  67 104 131 162 215 263 326 401
#
# _framework density 22.714607000000001
#
# number of rings (size 3 to 8) (size 9 to 14) (size 15 to 20)
#    0.000    1.500    2.500    1.500    7.000    9.000 
#    0.000    0.000    0.000    0.000    0.000    0.000 
#    0.000    0.000    0.000    0.000    0.000    0.000 
#
# Total GULP energy -89670.365464 kJ/mol
# GULP energy per Si atom -5604.397842 kJ/mol
# Density = 2.266291 g / cm^3
# Si number density = 22.714607 Si / 1000 Ang^3
#
#
#
# Elastic Constant Matrix: (Units=GPa)
#
#
# Indices 1 2 3 4 5 6 
#
# 1 163.9133 41.5674 55.9166 17.2972 9.6028 -18.7638
# 2 41.5674 90.1635 35.0295 16.4267 -9.1499 -5.9478
# 3 55.9166 35.0295 153.6798 17.6183 23.4170 -4.5084
# 4 17.2972 16.4267 17.6183 30.9147 12.1309 -7.5559
# 5 9.6028 -9.1499 23.4170 12.1309 22.5126 1.6024
# 6 -18.7638 -5.9478 -4.5084 -7.5559 1.6024 40.2464
#
#
#
# Elastic Compliance Matrix: (Units=1/GPa)
#
#
# Indices 1 2 3 4 5 6 
#
# 1 0.008018 -0.003296 -0.001569 0.000356 -0.003553 0.003284
# 2 -0.003296 0.019592 -0.005124 -0.015530 0.023284 -0.003058
# 3 -0.001569 -0.005124 0.009959 0.003514 -0.013725 0.000833
# 4 0.000356 -0.015530 0.003514 0.057428 -0.041827 0.010711
# 5 -0.003553 0.023284 -0.013725 -0.041827 0.093018 -0.011309
# 6 0.003284 -0.003058 0.000833 0.010711 -0.011309 0.028481
#
#
# Mechanical properties :
#
#
# Convention : Reuss Voigt Hill
#
# Bulk Modulus (GPa) = 56.84674 74.75372 65.80023
# Shear Modulus (GPa) = 20.63244 37.08427 28.85835
#
# Velocity S-wave (km/s) = 3.01713 4.04495 3.56824
# Velocity P-wave (km/s) = 6.10068 7.40249 6.78289
#
# Compressibility (1/GPa) = 0.01759116
#
# Stress axis : x y z
#
# Youngs Moduli (GPa) = 124.71272 51.04231 100.41329
#
# Poissons Ratio (x) = 0.16822 0.15759
# Poissons Ratio (y) = 0.41102 0.51449
# Poissons Ratio (z) = 0.19572 0.26153
#
# Static dielectric constant tensor:
#      x y z
#    x 1.826730 0.015890 0.007180 
#    y 0.015890 1.834830 0.014210 
#    z 0.007180 0.014210 1.884560 
# 
# From -- ./inp_files/532135.got.cif
#   From: 2010.05.17/outbox.cif.g08.bks.cpg/sg2_267_cif.got.tgz:532135.got - 2010.06.03 11:33:40.
