data_PCOD9023504
_publ_section_title
;
Structure prediction by ZEFSAII (Michael W. Deem and Ramdas Pophale) SiO2 
 PCOD9023504
Probable space group: P -1
;
_chemical_formula_sum "Si O2"
_cell_formula_units_Z 14
_cell_length_a 11.242120
_cell_length_b 7.737855
_cell_length_c 10.158284
_cell_angle_alpha 74.753020
_cell_angle_beta 87.684026
_cell_angle_gamma 138.337759
_cell_volume 526.659188
_symmetry_space_group_name_H-M "P -1"
_symmetry_group_IT_number 2
_symmetry_cell_setting 'triclinic'
loop_
_space_group_symop_operation_xyz
x,y,z
-x,-y,-z
loop_
_atom_site_type_symbol
_atom_site_label
_atom_site_fract_x
_atom_site_fract_y
_atom_site_fract_z
Si Si1 0.287705 0.857177 0.670347
Si Si2 0.151586 0.325228 0.376941
Si Si3 0.444460 0.376693 0.674492
Si Si4 0.675525 0.615709 0.053220
Si Si5 0.700213 0.158287 0.619597
Si Si6 0.723186 0.321254 0.951286
Si Si7 0.892156 0.202726 0.852309
O O1 0.293452 0.039469 0.722536
O O2 0.355087 0.468414 0.317012
O O3 0.284938 0.917577 0.506108
O O4 0.179715 0.757495 0.032522
O O5 0.170347 0.507753 0.445924
O O6 0.891037 0.484732 0.243394
O O7 0.148964 0.433425 0.219346
O O8 0.000000 0.000000 0.500000
O O9 0.500000 0.500000 0.500000
O O10 0.370678 0.421186 0.782094
O O11 0.711077 0.458356 0.033718
O O12 0.500000 0.500000 0.000000
O O13 0.852917 0.952784 0.938479
O O14 0.764740 0.112799 0.748060
O O15 0.485944 0.987614 0.666382
O O16 0.500000 0.000000 0.000000
#
# Coordination Sequence:
#
# PCOD9023504 Si02
#       7
#     2   2   2   2   2   2   2
#     4  10  23  44  68 112 158 197 257 320 380 460
#     4  10  22  39  70 107 148 190 258 311 365 460
#     4  11  26  43  68 105 155 191 238 326 388 440
#     4  12  25  47  78 112 146 203 264 309 381 475
#     4   9  22  42  70 112 154 208 245 318 393 448
#     4  11  23  44  74 112 150 199 260 312 379 461
#     4  11  24  44  82 107 149 208 259 312 385 460
#
# _framework density 26.582657000000001
#
# number of rings (size 3 to 8) (size 9 to 14) (size 15 to 20)
#    0.000    1.429    2.857    0.429    8.000    0.571 
#    0.000    0.714    3.143    0.000    0.000    0.000 
#    0.000    0.000    0.000    0.000    0.000    0.000 
#
# Total GULP energy -78427.412601 kJ/mol
# GULP energy per Si atom -5601.958043 kJ/mol
# Density = 2.652215 g / cm^3
# Si number density = 26.582657 Si / 1000 Ang^3
#
#
#
# Elastic Constant Matrix: (Units=GPa)
#
#
# Indices 1 2 3 4 5 6 
#
# 1 71.2485 47.1824 28.4514 16.9650 6.5961 7.5363
# 2 47.1824 200.8901 103.7415 -1.6640 -14.6490 -19.6880
# 3 28.4514 103.7415 194.5490 6.5691 5.8926 -10.8777
# 4 16.9650 -1.6640 6.5691 58.6563 -8.1884 -17.9194
# 5 6.5961 -14.6490 5.8926 -8.1884 35.7402 5.8643
# 6 7.5363 -19.6880 -10.8777 -17.9194 5.8643 52.6185
#
#
#
# Elastic Compliance Matrix: (Units=1/GPa)
#
#
# Indices 1 2 3 4 5 6 
#
# 1 0.022739 -0.007202 0.000649 -0.010610 -0.008290 -0.008507
# 2 -0.007202 0.009902 -0.004327 0.005255 0.006500 0.004907
# 3 0.000649 -0.004327 0.007496 -0.001747 -0.003469 -0.000371
# 4 -0.010610 0.005255 -0.001747 0.024887 0.008351 0.010669
# 5 -0.008290 0.006500 -0.003469 0.008351 0.034344 0.001919
# 6 -0.008507 0.004907 -0.000371 0.010669 0.001919 0.025402
#
#
# Mechanical properties :
#
#
# Convention : Reuss Voigt Hill
#
# Bulk Modulus (GPa) = 54.41603 91.71536 73.06570
# Shear Modulus (GPa) = 32.75318 48.55715 40.65516
#
# Velocity S-wave (km/s) = 3.51397 4.27857 3.91498
# Velocity P-wave (km/s) = 6.08103 7.68017 6.92690
#
# Compressibility (1/GPa) = 0.01837694
#
# Stress axis : x y z
#
# Youngs Moduli (GPa) = 43.97706 100.98740 133.40580
#
# Poissons Ratio (x) = 0.72728 -0.08652
# Poissons Ratio (y) = 0.31671 0.57725
# Poissons Ratio (z) = -0.02852 0.43697
#
# Static dielectric constant tensor:
#      x y z
#    x 1.180550 0.263690 -1.497110 
#    y 0.263690 2.031240 0.358030 
#    z -1.497110 0.358030 -0.429640 
# 
# From -- ./inp_files/326066.got.cif
#   From: 2010.05.17/outbox.cif.g08.bks.cpg/sg2_164_cif.got.tgz:326066.got - 2010.06.03 11:33:40.
