data_PCOD9023835
_publ_section_title
;
Structure prediction by ZEFSAII (Michael W. Deem and Ramdas Pophale) SiO2 
 PCOD9023835
Probable space group: P -1
;
_chemical_formula_sum "Si O2"
_cell_formula_units_Z 12
_cell_length_a 13.707670
_cell_length_b 11.014246
_cell_length_c 14.524206
_cell_angle_alpha 31.205706
_cell_angle_beta 30.768233
_cell_angle_gamma 33.931983
_cell_volume 542.784224
_symmetry_space_group_name_H-M "P -1"
_symmetry_group_IT_number 2
_symmetry_cell_setting 'triclinic'
loop_
_space_group_symop_operation_xyz
x,y,z
-x,-y,-z
loop_
_atom_site_type_symbol
_atom_site_label
_atom_site_fract_x
_atom_site_fract_y
_atom_site_fract_z
Si Si1 0.382557 0.148184 0.730822
Si Si2 0.046570 0.618979 0.789361
Si Si3 0.018703 0.505988 0.589894
Si Si4 0.510188 0.743075 0.607669
Si Si5 0.773815 0.935898 0.647457
Si Si6 0.307758 0.708425 0.968511
O O1 0.195403 0.383789 0.763498
O O2 0.529525 0.218412 0.492752
O O3 0.531864 0.013748 0.779516
O O4 0.306251 0.960818 0.855207
O O5 0.853756 0.778262 0.778559
O O6 0.163399 0.818541 0.570380
O O7 0.000000 0.500000 0.000000
O O8 0.886760 0.756202 0.587691
O O9 0.000000 0.500000 0.500000
O O10 0.255494 0.439144 0.460606
O O11 0.911509 0.311982 0.831146
O O12 0.364322 0.665469 0.842846
O O13 0.500000 0.000000 0.500000
O O14 0.500000 0.500000 0.000000
#
# Coordination Sequence:
#
# PCOD9023835 Si02
#       6
#     2   2   2   2   2   2
#     4  11  23  46  68  98 141 182 233 292 350 420
#     4  11  27  47  71 102 133 190 243 284 350 419
#     4  12  22  40  70 103 144 184 220 294 357 413
#     4  10  22  40  62 100 142 177 227 282 344 426
#     4  11  25  48  69  98 145 179 236 298 345 413
#     4  11  22  39  67 107 140 184 231 276 365 428
#
# _framework density 22.108233999999999
#
# number of rings (size 3 to 8) (size 9 to 14) (size 15 to 20)
#    0.000    1.000    5.000    1.500    2.333    4.667 
#    0.000    0.000    0.000    0.000    0.000    0.000 
#    0.000    0.000    0.000    0.000    0.000    0.000 
#
# Total GULP energy -66998.888103 kJ/mol
# GULP energy per Si atom -5583.240675 kJ/mol
# Density = 2.205791 g / cm^3
# Si number density = 22.108234 Si / 1000 Ang^3
#
#
#
# Elastic Constant Matrix: (Units=GPa)
#
#
# Indices 1 2 3 4 5 6 
#
# 1 97.8169 38.4692 43.5037 -5.5059 11.6372 -6.6181
# 2 38.4692 99.4332 35.0607 -17.3364 3.5757 5.3065
# 3 43.5037 35.0607 129.8912 8.3145 21.3261 7.8371
# 4 -5.5059 -17.3364 8.3145 28.9255 4.3592 -3.9703
# 5 11.6372 3.5757 21.3261 4.3592 43.4004 1.9846
# 6 -6.6181 5.3065 7.8371 -3.9703 1.9846 41.6283
#
#
#
# Elastic Compliance Matrix: (Units=1/GPa)
#
#
# Indices 1 2 3 4 5 6 
#
# 1 0.013993 -0.003853 -0.003682 0.002227 -0.002019 0.003718
# 2 -0.003853 0.014139 -0.003097 0.008396 0.000595 -0.001059
# 3 -0.003682 -0.003097 0.010837 -0.005514 -0.003410 -0.002594
# 4 0.002227 0.008396 -0.005514 0.042699 -0.003076 0.004541
# 5 -0.002019 0.000595 -0.003410 -0.003076 0.025576 -0.001268
# 6 0.003718 -0.001059 -0.002594 0.004541 -0.001268 0.025730
#
#
# Mechanical properties :
#
#
# Convention : Reuss Voigt Hill
#
# Bulk Modulus (GPa) = 56.48128 62.35649 59.41889
# Shear Modulus (GPa) = 31.22253 36.79802 34.01027
#
# Velocity S-wave (km/s) = 3.76208 4.08419 3.92644
# Velocity P-wave (km/s) = 6.66889 7.10684 6.89134
#
# Compressibility (1/GPa) = 0.01770498
#
# Stress axis : x y z
#
# Youngs Moduli (GPa) = 71.46380 70.72816 92.27320
#
# Poissons Ratio (x) = 0.27251 0.33975
# Poissons Ratio (y) = 0.27534 0.28579
# Poissons Ratio (z) = 0.26313 0.21906
#
# Static dielectric constant tensor:
#      x y z
#    x 1.857300 -0.008520 0.142680 
#    y -0.008520 1.766000 -0.109420 
#    z 0.142680 -0.109420 1.846950 
# 
# From -- ./inp_files/514349.got.cif
#   From: 2010.05.17/outbox.cif.g08.bks.cpg/sg2_258_cif.got.tgz:514349.got - 2010.06.03 11:33:40.
