data_PCOD9023650
_publ_section_title
;
Structure prediction by ZEFSAII (Michael W. Deem and Ramdas Pophale) SiO2 
 PCOD9023650
Probable space group: P -1
;
_chemical_formula_sum "Si O2"
_cell_formula_units_Z 14
_cell_length_a 8.171805
_cell_length_b 9.221194
_cell_length_c 20.076106
_cell_angle_alpha 138.276485
_cell_angle_beta 143.117360
_cell_angle_gamma 45.226031
_cell_volume 582.059230
_symmetry_space_group_name_H-M "P -1"
_symmetry_group_IT_number 2
_symmetry_cell_setting 'triclinic'
loop_
_space_group_symop_operation_xyz
x,y,z
-x,-y,-z
loop_
_atom_site_type_symbol
_atom_site_label
_atom_site_fract_x
_atom_site_fract_y
_atom_site_fract_z
Si Si1 0.589916 0.333931 0.600009
Si Si2 0.624668 0.097508 0.741766
Si Si3 0.179859 0.912175 0.923503
Si Si4 0.933853 0.657198 0.869399
Si Si5 0.194498 0.172557 0.503604
Si Si6 0.262836 0.795427 0.541878
Si Si7 0.722958 0.547188 0.972554
O O1 0.689516 0.536503 0.733660
O O2 0.298495 0.299069 0.521003
O O3 0.624258 0.348355 0.536506
O O4 0.802205 0.084937 0.601793
O O5 0.491481 0.926535 0.681578
O O6 0.960902 0.985108 0.815912
O O7 0.449455 0.137143 0.629655
O O8 0.582305 0.341881 0.843760
O O9 0.494791 0.778319 0.961155
O O10 0.062312 0.744527 0.876119
O O11 0.162107 0.131295 0.038741
O O12 0.173947 0.473081 0.924877
O O13 0.897379 0.294842 0.482807
O O14 0.000000 0.000000 0.500000
O O15 0.000000 0.500000 0.000000
#
# Coordination Sequence:
#
# PCOD9023650 Si02
#       7
#     2   2   2   2   2   2   2
#     4   9  17  34  62  88 126 159 208 251 307 373
#     4   9  19  37  61  88 124 161 204 253 318 359
#     4  10  23  40  61  90 128 158 212 258 297 385
#     4  10  22  40  59  95 120 166 207 250 316 369
#     4   9  18  34  62  96 118 164 215 251 308 378
#     4   8  17  33  60  90 119 164 209 249 309 372
#     4  11  23  39  66  88 120 168 206 255 321 366
#
# _framework density 24.052536
#
# number of rings (size 3 to 8) (size 9 to 14) (size 15 to 20)
#    0.000    2.857    0.000    1.286    6.000    2.286 
#    0.000    2.857    6.286    0.857    0.000    1.000 
#    0.000    0.000    0.000    0.000    0.000    0.000 
#
# Total GULP energy -78215.327827 kJ/mol
# GULP energy per Si atom -5586.809130 kJ/mol
# Density = 2.399779 g / cm^3
# Si number density = 24.052536 Si / 1000 Ang^3
#
#
#
# Elastic Constant Matrix: (Units=GPa)
#
#
# Indices 1 2 3 4 5 6 
#
# 1 142.2528 34.4875 31.4797 6.8449 13.1175 -12.0269
# 2 34.4875 119.6897 27.8738 -12.2849 7.7967 -4.4684
# 3 31.4797 27.8738 107.6616 18.7510 25.1127 0.4560
# 4 6.8449 -12.2849 18.7510 21.8577 6.3461 7.1336
# 5 13.1175 7.7967 25.1127 6.3461 19.1197 -2.4634
# 6 -12.0269 -4.4684 0.4560 7.1336 -2.4634 50.5392
#
#
#
# Elastic Compliance Matrix: (Units=1/GPa)
#
#
# Indices 1 2 3 4 5 6 
#
# 1 0.008314 -0.002335 -0.000679 -0.003303 -0.002490 0.002123
# 2 -0.002335 0.011097 -0.003658 0.011062 -0.001944 -0.001198
# 3 -0.000679 -0.003658 0.015930 -0.011151 -0.015238 0.000202
# 4 -0.003303 0.011062 -0.011151 0.069310 -0.011901 -0.010071
# 5 -0.002490 -0.001944 -0.015238 -0.011901 0.079401 0.004923
# 6 0.002123 -0.001198 0.000202 -0.010071 0.004923 0.021846
#
#
# Mechanical properties :
#
#
# Convention : Reuss Voigt Hill
#
# Bulk Modulus (GPa) = 45.46437 61.92068 53.69253
# Shear Modulus (GPa) = 22.06775 36.68753 29.37764
#
# Velocity S-wave (km/s) = 3.03228 3.90976 3.49864
# Velocity P-wave (km/s) = 5.58595 6.79569 6.22030
#
# Compressibility (1/GPa) = 0.02199524
#
# Stress axis : x y z
#
# Youngs Moduli (GPa) = 120.27587 90.11410 62.77586
#
# Poissons Ratio (x) = 0.21042 0.04265
# Poissons Ratio (y) = 0.28085 0.22966
# Poissons Ratio (z) = 0.08172 0.32967
#
# Static dielectric constant tensor:
#      x y z
#    x 1.986260 0.028470 0.007080 
#    y 0.028470 1.982970 0.001230 
#    z 0.007080 0.001230 1.881790 
# 
# From -- ./inp_files/588245.got.cif
#   From: 2010.05.17/outbox.cif.g08.bks.cpg/sg2_295_cif.got.tgz:588245.got - 2010.06.03 11:33:40.
