data_PCOD9023287
_publ_section_title
;
Structure prediction by ZEFSAII (Michael W. Deem and Ramdas Pophale) SiO2 
 PCOD9023287
Probable space group: P -1
;
_chemical_formula_sum "Si O2"
_cell_formula_units_Z 16
_cell_length_a 8.649533
_cell_length_b 19.717346
_cell_length_c 11.700116
_cell_angle_alpha 151.032979
_cell_angle_beta 80.211355
_cell_angle_gamma 81.133043
_cell_volume 735.958436
_symmetry_space_group_name_H-M "P -1"
_symmetry_group_IT_number 2
_symmetry_cell_setting 'triclinic'
loop_
_space_group_symop_operation_xyz
x,y,z
-x,-y,-z
loop_
_atom_site_type_symbol
_atom_site_label
_atom_site_fract_x
_atom_site_fract_y
_atom_site_fract_z
Si Si1 0.965188 0.679598 0.083536
Si Si2 0.790788 0.206864 0.341439
Si Si3 0.028049 0.837182 0.523635
Si Si4 0.571324 0.804449 0.238429
Si Si5 0.600327 0.077811 0.048294
Si Si6 0.111880 0.017032 0.614026
Si Si7 0.831683 0.447247 0.528167
Si Si8 0.223245 0.392672 0.452754
O O1 0.038673 0.725935 0.251222
O O2 0.747473 0.725812 0.196348
O O3 0.137396 0.481913 0.719668
O O4 0.919440 0.808204 0.170121
O O5 0.622938 0.189359 0.302146
O O6 0.791655 0.330958 0.432804
O O7 0.795714 0.265866 0.555573
O O8 0.000000 0.000000 0.000000
O O9 0.017444 0.001627 0.716442
O O10 0.819881 0.921525 0.739051
O O11 0.353914 0.853737 0.358084
O O12 0.500000 0.000000 0.500000
O O13 0.692457 0.648767 0.897617
O O14 0.450914 0.212239 0.165990
O O15 0.500000 0.000000 0.000000
O O16 0.000000 0.000000 0.500000
O O17 0.783853 0.476805 0.444157
O O18 0.066125 0.362638 0.386325
#
# Coordination Sequence:
#
# PCOD9023287 Si02
#       8
#     2   2   2   2   2   2   2   2
#     4   9  20  38  61  96 128 167 221 268 331 392
#     4  10  23  42  62  90 132 176 220 267 336 393
#     4  10  22  41  65  90 131 174 217 269 334 395
#     4   9  19  37  61  95 134 169 219 270 329 401
#     4  11  25  44  65  96 130 174 226 269 336 412
#     4   9  19  34  58  90 129 166 213 266 321 388
#     4  10  22  41  65  97 135 175 220 281 327 397
#     4  10  22  39  67  96 133 166 222 276 334 387
#
# _framework density 21.740359000000002
#
# number of rings (size 3 to 8) (size 9 to 14) (size 15 to 20)
#    0.000    2.250    0.000    1.500    8.750    3.500 
#    2.250    8.125    0.000    0.000    0.000    0.000 
#    0.000    0.000    0.000    0.000    0.000    0.000 
#
# Total GULP energy -89192.293399 kJ/mol
# GULP energy per Si atom -5574.518337 kJ/mol
# Density = 2.169088 g / cm^3
# Si number density = 21.740359 Si / 1000 Ang^3
#
#
#
# Elastic Constant Matrix: (Units=GPa)
#
#
# Indices 1 2 3 4 5 6 
#
# 1 109.7384 56.7200 12.3375 1.6233 5.3242 10.2210
# 2 56.7200 114.9579 8.9247 -7.8125 14.8199 -0.0282
# 3 12.3375 8.9247 40.1817 -0.0725 12.9230 -3.6508
# 4 1.6233 -7.8125 -0.0725 22.5738 -4.3546 0.5267
# 5 5.3242 14.8199 12.9230 -4.3546 17.1674 -6.2722
# 6 10.2210 -0.0282 -3.6508 0.5267 -6.2722 29.5017
#
#
#
# Elastic Compliance Matrix: (Units=1/GPa)
#
#
# Indices 1 2 3 4 5 6 
#
# 1 0.013409 -0.006791 -0.003707 -0.002815 0.002093 -0.004616
# 2 -0.006791 0.013410 0.002497 0.003120 -0.010410 0.000405
# 3 -0.003707 0.002497 0.034486 -0.004182 -0.028157 -0.000358
# 4 -0.002815 0.003120 -0.004182 0.048315 0.014568 0.002695
# 5 0.002093 -0.010410 -0.028157 0.014568 0.097408 0.016230
# 6 -0.004616 0.000405 -0.000358 0.002695 0.016230 0.038854
#
#
# Mechanical properties :
#
#
# Convention : Reuss Voigt Hill
#
# Bulk Modulus (GPa) = 22.07264 46.76027 34.41646
# Shear Modulus (GPa) = 18.05163 26.30832 22.17997
#
# Velocity S-wave (km/s) = 2.88467 3.48244 3.19756
# Velocity P-wave (km/s) = 4.61194 6.14208 5.43116
#
# Compressibility (1/GPa) = 0.04530495
#
# Stress axis : x y z
#
# Youngs Moduli (GPa) = 74.57652 74.57376 28.99712
#
# Poissons Ratio (x) = 0.50639 0.10748
# Poissons Ratio (y) = 0.50641 -0.07241
# Poissons Ratio (z) = 0.27642 -0.18622
#
# Static dielectric constant tensor:
#      x y z
#    x 1.858030 -0.012920 0.029530 
#    y -0.012920 1.841800 -0.002700 
#    z 0.029530 -0.002700 1.821650 
# 
# From -- ./inp_files/405089.got.cif
#   From: 2010.05.17/outbox.cif.g08.bks.cpg/sg2_203_cif.got.tgz:405089.got - 2010.06.03 11:33:40.
