data_PCOD9023970
_publ_section_title
;
Structure prediction by ZEFSAII (Michael W. Deem and Ramdas Pophale) SiO2 
 PCOD9023970
Probable space group: P -1
;
_chemical_formula_sum "Si O2"
_cell_formula_units_Z 16
_cell_length_a 10.861977
_cell_length_b 17.906193
_cell_length_c 5.820833
_cell_angle_alpha 77.708643
_cell_angle_beta 85.804736
_cell_angle_gamma 40.324203
_cell_volume 708.672804
_symmetry_space_group_name_H-M "P -1"
_symmetry_group_IT_number 2
_symmetry_cell_setting 'triclinic'
loop_
_space_group_symop_operation_xyz
x,y,z
-x,-y,-z
loop_
_atom_site_type_symbol
_atom_site_label
_atom_site_fract_x
_atom_site_fract_y
_atom_site_fract_z
Si Si1 0.308825 0.537840 0.265120
Si Si2 0.037765 0.546948 0.779566
Si Si3 0.023768 0.055165 0.775709
Si Si4 0.717600 0.617222 0.524448
Si Si5 0.091436 0.197186 0.761121
Si Si6 0.098844 0.221110 0.260285
Si Si7 0.290442 0.671497 0.783041
Si Si8 0.692774 0.173589 0.389485
O O1 0.263419 0.469939 0.272398
O O2 0.539984 0.422099 0.369228
O O3 0.114877 0.660183 0.335476
O O4 0.315055 0.594724 0.020081
O O5 0.874753 0.606034 0.570852
O O6 0.999728 0.648946 0.807472
O O7 0.240245 0.435159 0.701192
O O8 0.000000 0.500000 0.000000
O O9 0.048636 0.127300 0.825014
O O10 0.837814 0.134981 0.588861
O O11 0.209627 0.942782 0.675048
O O12 0.000000 0.000000 0.000000
O O13 0.509537 0.748150 0.519988
O O14 0.205835 0.161645 0.531628
O O15 0.175678 0.177634 0.015930
O O16 0.932939 0.235321 0.302898
O O17 0.324560 0.741582 0.820070
#
# Coordination Sequence:
#
# PCOD9023970 Si02
#       8
#     2   2   2   2   2   2   2   2
#     4   9  17  32  56  88 125 159 197 252 323 393
#     4  11  23  38  63  91 128 173 214 265 324 386
#     4  11  23  38  63  91 128 173 214 265 324 386
#     4  10  22  40  62  93 128 166 214 265 322 389
#     4  11  22  37  60  92 124 166 211 261 319 388
#     4  11  22  37  60  92 124 166 211 261 319 388
#     4   9  17  32  56  88 125 159 197 252 323 393
#     4  10  22  40  62  93 128 166 214 265 322 389
#
# _framework density 22.577414999999998
#
# number of rings (size 3 to 8) (size 9 to 14) (size 15 to 20)
#    0.000    1.750    2.500    3.000    3.500    2.500 
#    0.000    0.000    0.000    1.500    0.000    0.000 
#    0.000    0.000    0.000    0.000    0.000    0.000 
#
# Total GULP energy -89098.650308 kJ/mol
# GULP energy per Si atom -5568.665644 kJ/mol
# Density = 2.252603 g / cm^3
# Si number density = 22.577415 Si / 1000 Ang^3
#
#
#
# Elastic Constant Matrix: (Units=GPa)
#
#
# Indices 1 2 3 4 5 6 
#
# 1 36.6029 30.0981 3.3553 6.5360 -5.3556 5.1504
# 2 30.0981 80.3022 4.1891 17.1749 13.3540 -1.9372
# 3 3.3553 4.1891 114.1936 7.2248 -0.9451 1.3228
# 4 6.5360 17.1749 7.2248 27.1601 13.3128 -5.9661
# 5 -5.3556 13.3540 -0.9451 13.3128 16.1966 10.9936
# 6 5.1504 -1.9372 1.3228 -5.9661 10.9936 21.7968
#
#
#
# Elastic Compliance Matrix: (Units=1/GPa)
#
#
# Indices 1 2 3 4 5 6 
#
# 1 0.001639 0.002935 -0.003869 0.041611 -0.067072 0.045327
# 2 0.002935 0.011758 0.001806 -0.028552 0.030397 -0.022904
# 3 -0.003869 0.001806 0.008639 0.001169 -0.005802 0.003797
# 4 0.041611 -0.028552 0.001169 -0.002460 0.073432 -0.050151
# 5 -0.067072 0.030397 -0.005802 0.073432 -0.110495 0.094731
# 6 0.045327 -0.022904 0.003797 -0.050151 0.094731 -0.028604
#
#
# Mechanical properties :
#
#
# Convention : Reuss Voigt Hill
#
# Bulk Modulus (GPa) = 42.05203 34.04266 38.04734
# Shear Modulus (GPa) = -44.11497 25.92776 -9.09360
#
# Velocity S-wave (km/s) = -4.42514 3.39247 -2.00910
# Velocity P-wave (km/s) = 2.72818 5.51870 3.39213
#
# Compressibility (1/GPa) = 0.02378007
#
# Stress axis : x y z
#
# Youngs Moduli (GPa) = 609.96011 85.04826 115.76047
#
# Poissons Ratio (x) = -0.24961 0.44784
# Poissons Ratio (y) = -1.79018 -0.20904
# Poissons Ratio (z) = 2.35972 -0.15358
#
# Static dielectric constant tensor:
#      x y z
#    x 1.832960 -0.022250 0.063450 
#    y -0.022250 1.878240 0.000550 
#    z 0.063450 0.000550 2.007260 
# 
# From -- ./inp_files/80465.got.cif
#   From: 2010.05.17/outbox.cif.g08.bks.cpg/sg2_41_cif.got.tgz:80465.got - 2010.06.03 11:33:40.
