data_PCOD9023318
_publ_section_title
;
Structure prediction by ZEFSAII (Michael W. Deem and Ramdas Pophale) SiO2 
 PCOD9023318
Probable space group: P -1
;
_chemical_formula_sum "Si O2"
_cell_formula_units_Z 16
_cell_length_a 5.225005
_cell_length_b 13.679756
_cell_length_c 16.859422
_cell_angle_alpha 144.628884
_cell_angle_beta 93.752789
_cell_angle_gamma 100.501679
_cell_volume 635.525109
_symmetry_space_group_name_H-M "P -1"
_symmetry_group_IT_number 2
_symmetry_cell_setting 'triclinic'
loop_
_space_group_symop_operation_xyz
x,y,z
-x,-y,-z
loop_
_atom_site_type_symbol
_atom_site_label
_atom_site_fract_x
_atom_site_fract_y
_atom_site_fract_z
Si Si1 0.360968 0.276980 0.711112
Si Si2 0.512976 0.919836 0.146277
Si Si3 0.875917 0.895120 0.666819
Si Si4 0.164739 0.535775 0.264998
Si Si5 0.202422 0.545734 0.960541
Si Si6 0.672313 0.214514 0.119080
Si Si7 0.163333 0.917322 0.531221
Si Si8 0.269979 0.505691 0.559564
O O1 0.528387 0.407801 0.728618
O O2 0.361510 0.412543 0.869022
O O3 0.046726 0.171788 0.603952
O O4 0.419712 0.104082 0.630170
O O5 0.842370 0.037779 0.230868
O O6 0.415659 0.757241 0.100704
O O7 0.443665 0.813786 0.991255
O O8 0.341901 0.040972 0.250390
O O9 0.992727 0.970877 0.631922
O O10 0.780598 0.677693 0.513285
O O11 0.215027 0.735898 0.437872
O O12 0.987306 0.492863 0.150040
O O13 0.004650 0.357174 0.199751
O O14 0.000000 0.500000 0.000000
O O15 0.620708 0.325654 0.264966
O O16 0.500000 0.000000 0.000000
O O17 0.500000 0.500000 0.500000
O O18 0.000000 0.500000 0.500000
#
# Coordination Sequence:
#
# PCOD9023318 Si02
#       8
#     2   2   2   2   2   2   2   2
#     4  10  22  39  67  99 143 187 256 290 375 430
#     4  11  28  45  73 107 149 193 248 295 379 435
#     4  12  25  47  71 107 144 193 250 302 363 441
#     4  10  22  40  67 100 133 190 245 293 368 436
#     4  10  23  41  62  98 143 192 242 297 356 437
#     4  11  24  49  72 104 149 188 237 312 374 440
#     4  10  22  40  65 101 142 190 236 312 355 435
#     4  12  27  49  78 111 141 190 252 310 373 445
#
# _framework density 25.176030999999998
#
# number of rings (size 3 to 8) (size 9 to 14) (size 15 to 20)
#    0.000    1.250    1.250    3.375    7.000    2.500 
#    0.000    2.500    0.000    0.000    0.000    0.000 
#    0.000    0.000    0.000    0.000    0.000    0.000 
#
# Total GULP energy -89220.167967 kJ/mol
# GULP energy per Si atom -5576.260498 kJ/mol
# Density = 2.511873 g / cm^3
# Si number density = 25.176031 Si / 1000 Ang^3
#
#
#
# Elastic Constant Matrix: (Units=GPa)
#
#
# Indices 1 2 3 4 5 6 
#
# 1 85.6867 36.3839 59.0671 3.0779 -11.9172 10.6748
# 2 36.3839 141.4578 61.2627 11.7736 -14.4584 35.3417
# 3 59.0671 61.2627 195.3066 2.8765 -14.4689 7.5344
# 4 3.0779 11.7736 2.8765 70.7858 6.5452 8.7903
# 5 -11.9172 -14.4584 -14.4689 6.5452 24.9043 -4.0606
# 6 10.6748 35.3417 7.5344 8.7903 -4.0606 36.3943
#
#
#
# Elastic Compliance Matrix: (Units=1/GPa)
#
#
# Indices 1 2 3 4 5 6 
#
# 1 0.015840 -0.001425 -0.003948 -0.000456 0.004275 -0.001858
# 2 -0.001425 0.011264 -0.002497 -0.000820 0.003080 -0.009462
# 3 -0.003948 -0.002497 0.007099 -0.000092 0.001179 0.002267
# 4 -0.000456 -0.000820 -0.000092 0.015186 -0.005278 -0.003308
# 5 0.004275 0.003080 0.001179 -0.005278 0.046379 0.001961
# 6 -0.001858 -0.009462 0.002267 -0.003308 0.001961 0.037758
#
#
# Mechanical properties :
#
#
# Convention : Reuss Voigt Hill
#
# Bulk Modulus (GPa) = 54.16649 81.76428 67.96539
# Shear Modulus (GPa) = 32.17079 44.13272 38.15175
#
# Velocity S-wave (km/s) = 3.57856 4.19139 3.89704
# Velocity P-wave (km/s) = 6.21583 7.48139 6.87778
#
# Compressibility (1/GPa) = 0.01846160
#
# Stress axis : x y z
#
# Youngs Moduli (GPa) = 63.13271 88.77729 140.86984
#
# Poissons Ratio (x) = 0.12652 0.55620
# Poissons Ratio (y) = 0.08997 0.35176
# Poissons Ratio (z) = 0.24927 0.22168
#
# Static dielectric constant tensor:
#      x y z
#    x 2.286650 0.035970 0.040640 
#    y 0.035970 2.097930 0.087590 
#    z 0.040640 0.087590 2.036820 
# 
# From -- ./inp_files/550173.got.cif
#   From: 2010.05.17/outbox.cif.g08.bks.cpg/sg2_276_cif.got.tgz:550173.got - 2010.06.03 11:33:40.
