data_PCOD9023784
_publ_section_title
;
Structure prediction by ZEFSAII (Michael W. Deem and Ramdas Pophale) SiO2 
 PCOD9023784
Probable space group: P -1
;
_chemical_formula_sum "Si O2"
_cell_formula_units_Z 16
_cell_length_a 13.822679
_cell_length_b 10.327787
_cell_length_c 13.108904
_cell_angle_alpha 124.050948
_cell_angle_beta 76.727376
_cell_angle_gamma 147.309169
_cell_volume 704.849654
_symmetry_space_group_name_H-M "P -1"
_symmetry_group_IT_number 2
_symmetry_cell_setting 'triclinic'
loop_
_space_group_symop_operation_xyz
x,y,z
-x,-y,-z
loop_
_atom_site_type_symbol
_atom_site_label
_atom_site_fract_x
_atom_site_fract_y
_atom_site_fract_z
Si Si1 0.395860 0.499225 0.678948
Si Si2 0.683732 0.624696 0.737889
Si Si3 0.023549 0.235813 0.314348
Si Si4 0.960277 0.219511 0.546825
Si Si5 0.474802 0.803794 0.984559
Si Si6 0.704505 0.833484 0.030508
Si Si7 0.322631 0.892592 0.441942
Si Si8 0.527043 0.083704 0.270606
O O1 0.578717 0.623345 0.702885
O O2 0.491141 0.767306 0.704594
O O3 0.181460 0.118521 0.521258
O O4 0.352559 0.521997 0.809915
O O5 0.881943 0.807513 0.722655
O O6 0.494035 0.235889 0.610038
O O7 0.734781 0.756569 0.896081
O O8 0.213881 0.622343 0.424938
O O9 0.910913 0.128907 0.398186
O O10 0.889905 0.076867 0.174854
O O11 0.855951 0.235926 0.612752
O O12 0.215239 0.578852 0.652161
O O13 0.662091 0.944850 0.038542
O O14 0.407709 0.786427 0.100952
O O15 0.500000 0.000000 0.000000
O O16 0.500000 0.500000 0.000000
O O17 0.428291 0.953714 0.348067
#
# Coordination Sequence:
#
# PCOD9023784 Si02
#       8
#     2   2   2   2   2   2   2   2
#     4   9  21  43  65  91 126 167 218 262 316 378
#     4  10  22  40  61  92 128 167 211 265 316 378
#     4  12  23  41  62  95 132 167 216 259 324 386
#     4  11  23  40  63  95 128 168 213 266 320 376
#     4   9  20  40  66  88 123 167 210 259 321 375
#     4  11  23  40  67  93 125 170 218 269 317 380
#     4  11  24  40  62  96 131 164 211 266 320 378
#     4  11  22  41  68  92 127 172 211 264 322 383
#
# _framework density 22.699877000000001
#
# number of rings (size 3 to 8) (size 9 to 14) (size 15 to 20)
#    0.000    1.500    1.250    4.500    1.750    2.000 
#    4.500    0.000    2.750    4.500    0.000    0.000 
#    0.000    0.000    0.000    0.000    0.000    0.000 
#
# Total GULP energy -89289.493474 kJ/mol
# GULP energy per Si atom -5580.593342 kJ/mol
# Density = 2.264821 g / cm^3
# Si number density = 22.699877 Si / 1000 Ang^3
#
#
#
# Elastic Constant Matrix: (Units=GPa)
#
#
# Indices 1 2 3 4 5 6 
#
# 1 112.9435 5.6677 11.3851 9.6823 -1.6115 15.8320
# 2 5.6677 41.3944 -1.9036 -2.8247 -6.9504 8.7856
# 3 11.3851 -1.9036 41.5368 -8.0958 -5.5040 1.0502
# 4 9.6823 -2.8247 -8.0958 20.3837 4.1976 -1.7900
# 5 -1.6115 -6.9504 -5.5040 4.1976 36.1759 -0.7295
# 6 15.8320 8.7856 1.0502 -1.7900 -0.7295 26.0893
#
#
#
# Elastic Compliance Matrix: (Units=1/GPa)
#
#
# Indices 1 2 3 4 5 6 
#
# 1 0.010932 -0.000713 -0.004296 -0.007683 0.000452 -0.006735
# 2 -0.000713 0.027293 0.003023 0.003527 0.005091 -0.008495
# 3 -0.004296 0.003023 0.028349 0.013186 0.003202 0.001442
# 4 -0.007683 0.003527 0.013186 0.059965 -0.004476 0.006933
# 5 0.000452 0.005091 0.003202 -0.004476 0.029615 -0.001597
# 6 -0.006735 -0.008495 0.001442 0.006933 -0.001597 0.045651
#
#
# Mechanical properties :
#
#
# Convention : Reuss Voigt Hill
#
# Bulk Modulus (GPa) = 15.97402 25.13036 20.55219
# Shear Modulus (GPa) = 22.06089 28.57813 25.31951
#
# Velocity S-wave (km/s) = 3.12083 3.55203 3.34339
# Velocity P-wave (km/s) = 4.47643 5.28368 4.89672
#
# Compressibility (1/GPa) = 0.06260166
#
# Stress axis : x y z
#
# Youngs Moduli (GPa) = 91.47412 36.63912 35.27449
#
# Poissons Ratio (x) = 0.02613 0.15155
# Poissons Ratio (y) = 0.06524 -0.10664
# Poissons Ratio (z) = 0.39300 -0.11077
#
# Static dielectric constant tensor:
#      x y z
#    x 1.899640 0.020340 0.038030 
#    y 0.020340 1.824550 0.035380 
#    z 0.038030 0.035380 1.912350 
# 
# From -- ./inp_files/531945.got.cif
#   From: 2010.05.17/outbox.cif.g08.bks.cpg/sg2_266_cif.got.tgz:531945.got - 2010.06.03 11:33:40.
