data_PCOD9023472
_publ_section_title
;
Structure prediction by ZEFSAII (Michael W. Deem and Ramdas Pophale) SiO2 
 PCOD9023472
Probable space group: P -1
;
_chemical_formula_sum "Si O2"
_cell_formula_units_Z 16
_cell_length_a 20.558676
_cell_length_b 9.443683
_cell_length_c 27.446211
_cell_angle_alpha 27.247403
_cell_angle_beta 19.544547
_cell_angle_gamma 27.374400
_cell_volume 771.061239
_symmetry_space_group_name_H-M "P -1"
_symmetry_group_IT_number 2
_symmetry_cell_setting 'triclinic'
loop_
_space_group_symop_operation_xyz
x,y,z
-x,-y,-z
loop_
_atom_site_type_symbol
_atom_site_label
_atom_site_fract_x
_atom_site_fract_y
_atom_site_fract_z
Si Si1 0.938580 0.369771 0.133038
Si Si2 0.003714 0.359516 0.380570
Si Si3 0.716084 0.308640 0.878981
Si Si4 0.502250 0.391042 0.476196
Si Si5 0.055949 0.509797 0.728578
Si Si6 0.690005 0.859034 0.944481
Si Si7 0.461920 0.217662 0.411898
Si Si8 0.820360 0.259495 0.099499
O O1 0.703627 0.399282 0.301866
O O2 0.099960 0.001235 0.133390
O O3 0.000000 0.500000 0.000000
O O4 0.998278 0.594016 0.062687
O O5 0.036288 0.445127 0.274802
O O6 0.769306 0.566661 0.492157
O O7 0.163750 0.428637 0.283938
O O8 0.000000 0.000000 0.500000
O O9 0.673091 0.129955 0.915439
O O10 0.500000 0.500000 0.000000
O O11 0.500000 0.500000 0.500000
O O12 0.279929 0.559212 0.556410
O O13 0.513336 0.014064 0.581608
O O14 0.901961 0.774469 0.790906
O O15 0.090826 0.137086 0.838189
O O16 0.701312 0.498633 0.066969
O O17 0.500000 0.000000 0.000000
O O18 0.646210 0.363133 0.233168
O O19 0.500000 0.000000 0.500000
#
# Coordination Sequence:
#
# PCOD9023472 Si02
#       8
#     2   2   2   2   2   2   2   2
#     4  11  22  38  70 100 133 169 230 280 334 398
#     4  12  26  42  69  95 135 180 228 276 341 396
#     4  11  25  45  65  96 134 180 226 276 335 409
#     4  11  22  40  67 100 135 171 220 289 340 398
#     4  11  24  45  69  99 136 176 224 279 345 403
#     4  11  25  45  71 101 140 177 223 279 346 408
#     4  11  21  43  67  96 130 176 224 278 335 407
#     4  10  22  39  69  97 130 173 222 269 338 400
#
# _framework density 20.750622
#
# number of rings (size 3 to 8) (size 9 to 14) (size 15 to 20)
#    0.000    1.000    3.750    4.125    5.250    1.000 
#    0.000    3.125    0.000    0.000    0.000    0.000 
#    0.000    0.000    0.000    0.000    0.000    0.000 
#
# Total GULP energy -89096.117425 kJ/mol
# GULP energy per Si atom -5568.507339 kJ/mol
# Density = 2.070339 g / cm^3
# Si number density = 20.750622 Si / 1000 Ang^3
#
#
#
# Elastic Constant Matrix: (Units=GPa)
#
#
# Indices 1 2 3 4 5 6 
#
# 1 95.8700 48.4394 27.8630 -1.1334 -1.6398 5.0997
# 2 48.4394 132.5032 54.1346 20.2470 -3.7236 10.5351
# 3 27.8630 54.1346 122.9054 21.3834 -20.6279 -7.5897
# 4 -1.1334 20.2470 21.3834 50.1273 -0.0229 1.4742
# 5 -1.6398 -3.7236 -20.6279 -0.0229 32.1560 0.8910
# 6 5.0997 10.5351 -7.5897 1.4742 0.8910 37.9308
#
#
#
# Elastic Compliance Matrix: (Units=1/GPa)
#
#
# Indices 1 2 3 4 5 6 
#
# 1 0.013302 -0.004548 -0.001734 0.002905 -0.000932 -0.000963
# 2 -0.004548 0.011490 -0.003937 -0.002970 -0.001340 -0.003221
# 3 -0.001734 -0.003937 0.012390 -0.003842 0.007296 0.003784
# 4 0.002905 -0.002970 -0.003842 0.022887 -0.002612 -0.001163
# 5 -0.000932 -0.001340 0.007296 -0.002612 0.035541 0.001224
# 6 -0.000963 -0.003221 0.003784 -0.001163 0.001224 0.028161
#
#
# Mechanical properties :
#
#
# Convention : Reuss Voigt Hill
#
# Bulk Modulus (GPa) = 59.71820 68.01695 63.86757
# Shear Modulus (GPa) = 33.37985 38.76561 36.07273
#
# Velocity S-wave (km/s) = 4.01511 4.32692 4.17393
# Velocity P-wave (km/s) = 7.09481 7.60345 7.35353
#
# Compressibility (1/GPa) = 0.01674531
#
# Stress axis : x y z
#
# Youngs Moduli (GPa) = 75.17471 87.02900 80.70919
#
# Poissons Ratio (x) = 0.39582 0.13993
# Poissons Ratio (y) = 0.34191 0.31774
# Poissons Ratio (z) = 0.13033 0.34262
#
# Static dielectric constant tensor:
#      x y z
#    x 1.931470 -0.001130 -0.041300 
#    y -0.001130 1.779230 0.013390 
#    z -0.041300 0.013390 1.808500 
# 
# From -- ./inp_files/620646.got.cif
#   From: 2010.05.17/outbox.cif.g08.bks.cpg/sg2_311_cif.got.tgz:620646.got - 2010.06.03 11:33:40.
