data_PCOD9023183
_publ_section_title
;
Structure prediction by ZEFSAII (Michael W. Deem and Ramdas Pophale) SiO2 
 PCOD9023183
Probable space group: P -1
;
_chemical_formula_sum "Si O2"
_cell_formula_units_Z 16
_cell_length_a 9.166678
_cell_length_b 17.447244
_cell_length_c 12.162399
_cell_angle_alpha 147.320190
_cell_angle_beta 132.102688
_cell_angle_gamma 47.590376
_cell_volume 749.245709
_symmetry_space_group_name_H-M "P -1"
_symmetry_group_IT_number 2
_symmetry_cell_setting 'triclinic'
loop_
_space_group_symop_operation_xyz
x,y,z
-x,-y,-z
loop_
_atom_site_type_symbol
_atom_site_label
_atom_site_fract_x
_atom_site_fract_y
_atom_site_fract_z
Si Si1 0.278442 0.826618 0.985682
Si Si2 0.725094 0.783073 0.214098
Si Si3 0.839401 0.043544 0.679497
Si Si4 0.617184 0.828032 0.855345
Si Si5 0.076376 0.329568 0.365706
Si Si6 0.896709 0.622111 0.322208
Si Si7 0.990863 0.722702 0.073513
Si Si8 0.792781 0.191945 0.318495
O O1 0.216670 0.882400 0.896938
O O2 0.129172 0.723085 0.802582
O O3 0.522667 0.760528 0.028694
O O4 0.240071 0.922161 0.194037
O O5 0.756277 0.697453 0.241865
O O6 0.930379 0.730322 0.180383
O O7 0.707514 0.953640 0.439170
O O8 0.866405 0.181509 0.788785
O O9 0.063102 0.929547 0.676106
O O10 0.760267 0.767365 0.751551
O O11 0.435834 0.751593 0.684997
O O12 0.771990 0.794063 0.993341
O O13 0.500000 0.000000 0.000000
O O14 0.176476 0.316759 0.521039
O O15 0.000000 0.500000 0.500000
O O16 0.103458 0.674586 0.477143
O O17 0.932428 0.447581 0.127127
#
# Coordination Sequence:
#
# PCOD9023183 Si02
#       8
#     2   2   2   2   2   2   2   2
#     4  11  21  39  65  94 132 170 213 269 319 386
#     4  11  25  41  62  93 130 173 220 255 322 389
#     4  11  22  42  62  94 129 174 214 266 324 383
#     4  12  22  39  68 100 127 165 220 270 325 373
#     4  11  22  43  69  96 133 169 213 272 330 380
#     4  10  24  44  66  95 128 173 212 266 324 389
#     4  12  22  43  67  89 136 166 217 266 327 377
#     4  10  22  39  66  98 126 163 219 268 326 380
#
# _framework density 21.354808999999999
#
# number of rings (size 3 to 8) (size 9 to 14) (size 15 to 20)
#    0.000    1.000    5.000    1.500    0.000    3.500 
#    2.250    2.500    0.000    0.000    0.000    0.000 
#    0.000    0.000    0.000    0.000    0.000    0.000 
#
# Total GULP energy -89338.990813 kJ/mol
# GULP energy per Si atom -5583.686926 kJ/mol
# Density = 2.130620 g / cm^3
# Si number density = 21.354809 Si / 1000 Ang^3
#
#
#
# Elastic Constant Matrix: (Units=GPa)
#
#
# Indices 1 2 3 4 5 6 
#
# 1 111.6777 22.5404 38.4374 4.3036 -0.9086 4.3290
# 2 22.5404 44.7496 7.5108 5.9445 -2.2783 5.9772
# 3 38.4374 7.5108 72.8325 8.4664 -9.0320 -0.9708
# 4 4.3036 5.9445 8.4664 30.9456 11.9540 -1.7905
# 5 -0.9086 -2.2783 -9.0320 11.9540 29.9315 -6.6014
# 6 4.3290 5.9772 -0.9708 -1.7905 -6.6014 22.5812
#
#
#
# Elastic Compliance Matrix: (Units=1/GPa)
#
#
# Indices 1 2 3 4 5 6 
#
# 1 0.012271 -0.005273 -0.006655 0.002330 -0.003421 -0.002058
# 2 -0.005273 0.026563 0.001153 -0.006373 0.003556 -0.005437
# 3 -0.006655 0.001153 0.019353 -0.008174 0.009882 0.004043
# 4 0.002330 -0.006373 -0.008174 0.043289 -0.020541 -0.001684
# 5 -0.003421 0.003556 0.009882 -0.020541 0.047496 0.012396
# 6 -0.002058 -0.005437 0.004043 -0.001684 0.012396 0.049782
#
#
# Mechanical properties :
#
#
# Convention : Reuss Voigt Hill
#
# Bulk Modulus (GPa) = 27.29483 40.69302 33.99392
# Shear Modulus (GPa) = 21.50390 27.40972 24.45681
#
# Velocity S-wave (km/s) = 3.17674 3.58654 3.38784
# Velocity P-wave (km/s) = 5.12493 6.02063 5.59075
#
# Compressibility (1/GPa) = 0.03663698
#
# Stress axis : x y z
#
# Youngs Moduli (GPa) = 81.49112 37.64669 51.67166
#
# Poissons Ratio (x) = 0.19850 0.34387
# Poissons Ratio (y) = 0.42969 -0.05956
# Poissons Ratio (z) = 0.54232 -0.04340
#
# Static dielectric constant tensor:
#      x y z
#    x 1.794240 0.039590 0.033660 
#    y 0.039590 1.746240 -0.028550 
#    z 0.033660 -0.028550 1.703300 
# 
# From -- ./inp_files/403641.got.cif
#   From: 2010.05.17/outbox.cif.g08.bks.cpg/sg2_202_cif.got.tgz:403641.got - 2010.06.03 11:33:40.
