data_PCOD9023290
_publ_section_title
;
Structure prediction by ZEFSAII (Michael W. Deem and Ramdas Pophale) SiO2 
 PCOD9023290
Probable space group: P -1
;
_chemical_formula_sum "Si O2"
_cell_formula_units_Z 14
_cell_length_a 8.678031
_cell_length_b 11.630148
_cell_length_c 10.570713
_cell_angle_alpha 131.578634
_cell_angle_beta 111.929540
_cell_angle_gamma 58.822083
_cell_volume 682.050979
_symmetry_space_group_name_H-M "P -1"
_symmetry_group_IT_number 2
_symmetry_cell_setting 'triclinic'
loop_
_space_group_symop_operation_xyz
x,y,z
-x,-y,-z
loop_
_atom_site_type_symbol
_atom_site_label
_atom_site_fract_x
_atom_site_fract_y
_atom_site_fract_z
Si Si1 0.170297 0.622342 0.550177
Si Si2 0.552159 0.052830 0.799412
Si Si3 0.487119 0.660707 0.190001
Si Si4 0.835306 0.049384 0.083925
Si Si5 0.248755 0.308605 0.518313
Si Si6 0.798452 0.262242 0.619835
Si Si7 0.153709 0.093303 0.747889
O O1 0.210401 0.763696 0.742748
O O2 0.245043 0.447299 0.516771
O O3 0.235670 0.617588 0.423192
O O4 0.952838 0.683717 0.524761
O O5 0.588010 0.179630 0.807288
O O6 0.340444 0.116195 0.808548
O O7 0.621887 0.873212 0.622481
O O8 0.666799 0.038602 0.950464
O O9 0.675795 0.651381 0.298674
O O10 0.358712 0.681148 0.285271
O O11 0.500000 0.500000 0.000000
O O12 0.885831 0.929885 0.134559
O O13 0.000000 0.000000 0.000000
O O14 0.985778 0.230429 0.725532
O O15 0.817110 0.083489 0.438396
#
# Coordination Sequence:
#
# PCOD9023290 Si02
#       7
#     2   2   2   2   2   2   2
#     4  10  23  43  65  93 132 172 215 260 318 385
#     4  12  23  42  66  96 131 166 218 264 317 385
#     4  12  26  44  66  96 131 166 213 269 326 380
#     4  11  21  39  64  97 131 167 211 265 319 377
#     4  11  23  42  67  94 128 172 215 262 320 381
#     4  10  22  42  67  93 126 172 214 263 320 380
#     4  10  22  39  67  97 125 169 219 260 316 381
#
# _framework density 20.526323999999999
#
# number of rings (size 3 to 8) (size 9 to 14) (size 15 to 20)
#    0.000    1.143    2.857    3.429    4.000    0.571 
#    5.143    1.429    0.000    0.000    0.000    0.000 
#    0.000    0.000    0.000    0.000    0.000    0.000 
#
# Total GULP energy -78339.033688 kJ/mol
# GULP energy per Si atom -5595.645263 kJ/mol
# Density = 2.047961 g / cm^3
# Si number density = 20.526324 Si / 1000 Ang^3
#
#
#
# Elastic Constant Matrix: (Units=GPa)
#
#
# Indices 1 2 3 4 5 6 
#
# 1 67.2627 -0.8117 32.6264 -7.5923 -5.4588 1.3393
# 2 -0.8117 57.8587 32.8313 -4.2164 -6.4294 13.0338
# 3 32.6264 32.8313 115.5902 -21.0474 9.5339 5.9775
# 4 -7.5923 -4.2164 -21.0474 28.5884 1.7437 2.8080
# 5 -5.4588 -6.4294 9.5339 1.7437 46.4114 -17.0547
# 6 1.3393 13.0338 5.9775 2.8080 -17.0547 32.0826
#
#
#
# Elastic Compliance Matrix: (Units=1/GPa)
#
#
# Indices 1 2 3 4 5 6 
#
# 1 0.018669 0.004479 -0.006974 0.000083 0.004680 0.001181
# 2 0.004479 0.023684 -0.008042 -0.000775 0.003057 -0.006617
# 3 -0.006974 -0.008042 0.015289 0.008991 -0.006762 -0.003672
# 4 0.000083 -0.000775 0.008991 0.042772 -0.006746 -0.008693
# 5 0.004680 0.003057 -0.006762 -0.006746 0.030217 0.016476
# 6 0.001181 -0.006617 -0.003672 -0.008693 0.016476 0.044012
#
#
# Mechanical properties :
#
#
# Convention : Reuss Voigt Hill
#
# Bulk Modulus (GPa) = 27.34621 41.11153 34.22887
# Shear Modulus (GPa) = 24.04936 33.15418 28.60177
#
# Velocity S-wave (km/s) = 3.42663 4.02332 3.73690
# Velocity P-wave (km/s) = 5.38583 6.45407 5.94399
#
# Compressibility (1/GPa) = 0.03656814
#
# Stress axis : x y z
#
# Youngs Moduli (GPa) = 53.56334 42.22299 65.40813
#
# Poissons Ratio (x) = -0.18913 0.45614
# Poissons Ratio (y) = -0.23992 0.52603
# Poissons Ratio (z) = 0.37354 0.33957
#
# Static dielectric constant tensor:
#      x y z
#    x 1.736980 -0.007110 0.016720 
#    y -0.007110 1.705540 -0.018330 
#    z 0.016720 -0.018330 1.698820 
# 
# From -- ./inp_files/151578.got.cif
#   From: 2010.05.17/outbox.cif.g08.bks.cpg/sg2_76_cif.got.tgz:151578.got - 2010.06.03 11:33:40.
