data_PCOD9023532
_publ_section_title
;
Structure prediction by ZEFSAII (Michael W. Deem and Ramdas Pophale) SiO2 
 PCOD9023532
Probable space group: P -1
;
_chemical_formula_sum "Si O2"
_cell_formula_units_Z 14
_cell_length_a 9.110103
_cell_length_b 15.004078
_cell_length_c 10.209124
_cell_angle_alpha 121.471871
_cell_angle_beta 96.933899
_cell_angle_gamma 131.776639
_cell_volume 600.241456
_symmetry_space_group_name_H-M "P -1"
_symmetry_group_IT_number 2
_symmetry_cell_setting 'triclinic'
loop_
_space_group_symop_operation_xyz
x,y,z
-x,-y,-z
loop_
_atom_site_type_symbol
_atom_site_label
_atom_site_fract_x
_atom_site_fract_y
_atom_site_fract_z
Si Si1 0.892578 0.846845 0.477976
Si Si2 0.504196 0.193523 0.778419
Si Si3 0.774096 0.205979 0.005371
Si Si4 0.584361 0.158702 0.489316
Si Si5 0.602575 0.385174 0.553097
Si Si6 0.701422 0.350961 0.278536
Si Si7 0.808498 0.562757 0.199218
O O1 0.669545 0.746860 0.489443
O O2 0.762081 0.658136 0.265821
O O3 0.000000 0.000000 0.500000
O O4 0.213326 0.014048 0.696631
O O5 0.750254 0.269526 0.925453
O O6 0.422951 0.098099 0.555487
O O7 0.633196 0.389023 0.939340
O O8 0.597313 0.001710 0.770630
O O9 0.624698 0.190062 0.086509
O O10 0.096520 0.367048 0.209396
O O11 0.714906 0.344717 0.593579
O O12 0.847914 0.246768 0.628396
O O13 0.523525 0.305702 0.335442
O O14 0.732922 0.454515 0.243429
O O15 0.000000 0.500000 0.500000
#
# Coordination Sequence:
#
# PCOD9023532 Si02
#       7
#     2   2   2   2   2   2   2
#     4  12  27  44  62 101 139 172 220 272 339 396
#     4  11  23  41  65  99 131 173 226 265 334 397
#     4  10  22  39  70  99 126 177 225 271 326 386
#     4  12  21  38  70  99 126 176 222 269 323 392
#     4  11  24  44  65  99 139 167 222 279 324 394
#     4   9  19  44  68  99 131 170 226 273 323 386
#     4  11  24  42  71  94 137 177 215 281 325 386
#
# _framework density 23.323948000000001
#
# number of rings (size 3 to 8) (size 9 to 14) (size 15 to 20)
#    0.000    1.143    7.143    0.857    0.000    2.857 
#    0.000    2.857    0.000    0.000    0.000    0.000 
#    0.000    0.000    0.000    0.000    0.000    0.000 
#
# Total GULP energy -77996.396483 kJ/mol
# GULP energy per Si atom -5571.171177 kJ/mol
# Density = 2.327086 g / cm^3
# Si number density = 23.323948 Si / 1000 Ang^3
#
#
#
# Elastic Constant Matrix: (Units=GPa)
#
#
# Indices 1 2 3 4 5 6 
#
# 1 75.0241 32.6842 15.9548 -4.4829 -9.4911 26.3624
# 2 32.6842 64.9071 13.2132 -13.7474 -0.3754 34.4116
# 3 15.9548 13.2132 121.9913 -5.5046 -3.6821 29.3752
# 4 -4.4829 -13.7474 -5.5046 33.5810 1.1986 -9.2334
# 5 -9.4911 -0.3754 -3.6821 1.1986 26.6442 2.5120
# 6 26.3624 34.4116 29.3752 -9.2334 2.5120 53.0997
#
#
#
# Elastic Compliance Matrix: (Units=1/GPa)
#
#
# Indices 1 2 3 4 5 6 
#
# 1 0.019221 -0.007130 -0.000299 -0.002170 0.007319 -0.005480
# 2 -0.007130 0.027487 0.001587 0.006763 -0.000924 -0.013932
# 3 -0.000299 0.001587 0.009637 0.000413 0.001816 -0.006226
# 4 -0.002170 0.006763 0.000413 0.033047 -0.002326 0.002322
# 5 0.007319 -0.000924 0.001816 -0.002326 0.041084 -0.006388
# 6 -0.005480 -0.013932 -0.006226 0.002322 -0.006388 0.034732
#
#
# Mechanical properties :
#
#
# Convention : Reuss Voigt Hill
#
# Bulk Modulus (GPa) = 22.39027 42.84745 32.61886
# Shear Modulus (GPa) = 26.07194 36.00299 31.03747
#
# Velocity S-wave (km/s) = 3.34701 3.93314 3.65185
# Velocity P-wave (km/s) = 4.95552 6.24792 5.63887
#
# Compressibility (1/GPa) = 0.04466226
#
# Stress axis : x y z
#
# Youngs Moduli (GPa) = 52.02767 36.38088 103.76628
#
# Poissons Ratio (x) = 0.25938 0.03102
# Poissons Ratio (y) = 0.37093 -0.16471
# Poissons Ratio (z) = 0.01555 -0.05775
#
# Static dielectric constant tensor:
#      x y z
#    x 1.923520 0.012260 -0.008250 
#    y 0.012260 1.989040 -0.034120 
#    z -0.008250 -0.034120 1.934000 
# 
# From -- ./inp_files/402325.got.cif
#   From: 2010.05.17/outbox.cif.g08.bks.cpg/sg2_202_cif.got.tgz:402325.got - 2010.06.03 11:33:40.
