data_PCOD9023864
_publ_section_title
;
Structure prediction by ZEFSAII (Michael W. Deem and Ramdas Pophale) SiO2 
 PCOD9023864
Probable space group: P -1
;
_chemical_formula_sum "Si O2"
_cell_formula_units_Z 10
_cell_length_a 9.715777
_cell_length_b 9.152118
_cell_length_c 10.288053
_cell_angle_alpha 73.051184
_cell_angle_beta 74.714939
_cell_angle_gamma 135.679939
_cell_volume 432.669392
_symmetry_space_group_name_H-M "P -1"
_symmetry_group_IT_number 2
_symmetry_cell_setting 'triclinic'
loop_
_space_group_symop_operation_xyz
x,y,z
-x,-y,-z
loop_
_atom_site_type_symbol
_atom_site_label
_atom_site_fract_x
_atom_site_fract_y
_atom_site_fract_z
Si Si1 0.598933 0.859682 0.551955
Si Si2 0.872209 0.780502 0.261345
Si Si3 0.266942 0.821875 0.786245
Si Si4 0.731122 0.725065 0.767902
Si Si5 0.384399 0.182790 0.858925
O O1 0.457336 0.865445 0.667713
O O2 0.679083 0.811272 0.654415
O O3 0.803454 0.129682 0.328922
O O4 0.855688 0.051368 0.910947
O O5 0.630573 0.433605 0.407855
O O6 0.751837 0.806923 0.196593
O O7 0.981768 0.964063 0.315562
O O8 0.409307 0.054129 0.802572
O O9 0.000000 0.500000 0.000000
O O10 0.667932 0.510824 0.762031
O O11 0.500000 0.500000 0.000000
#
# Coordination Sequence:
#
# PCOD9023864 Si02
#       5
#     2   2   2   2   2
#     4  10  22  40  62  88 114 159 197 235 295 348
#     4   9  17  36  63  85 117 149 195 248 286 339
#     4  11  22  39  63  83 122 160 193 238 292 348
#     4   9  19  36  64  89 118 148 195 250 288 339
#     4   9  18  35  60  87 115 156 192 238 295 340
#
# _framework density 23.112337
#
# number of rings (size 3 to 8) (size 9 to 14) (size 15 to 20)
#    0.000    2.400    2.000    1.200    0.000    3.200 
#    0.000   14.000    0.000    0.000    0.000    0.000 
#    0.000    0.000    0.000    0.000    0.000    0.000 
#
# Total GULP energy -55855.247972 kJ/mol
# GULP energy per Si atom -5585.524797 kJ/mol
# Density = 2.305973 g / cm^3
# Si number density = 23.112337 Si / 1000 Ang^3
#
#
#
# Elastic Constant Matrix: (Units=GPa)
#
#
# Indices 1 2 3 4 5 6 
#
# 1 51.9173 57.0877 34.3684 -1.0262 6.4560 -2.8870
# 2 57.0877 211.6056 46.5929 10.2459 6.2003 -7.5115
# 3 34.3684 46.5929 164.0521 -6.9741 18.4759 -9.2593
# 4 -1.0262 10.2459 -6.9741 25.3500 -8.2934 1.0348
# 5 6.4560 6.2003 18.4759 -8.2934 30.4702 7.3033
# 6 -2.8870 -7.5115 -9.2593 1.0348 7.3033 40.3378
#
#
#
# Elastic Compliance Matrix: (Units=1/GPa)
#
#
# Indices 1 2 3 4 5 6 
#
# 1 0.030234 -0.007353 -0.003916 0.002490 -0.001900 0.000176
# 2 -0.007353 0.007041 -0.000472 -0.003565 -0.000777 0.000909
# 3 -0.003916 -0.000472 0.007652 0.000738 -0.004016 0.002096
# 4 0.002490 -0.003565 0.000738 0.045634 0.013096 -0.003858
# 5 -0.001900 -0.000777 -0.004016 0.013096 0.041551 -0.009061
# 6 0.000176 0.000909 0.002096 -0.003858 -0.009061 0.027193
#
#
# Mechanical properties :
#
#
# Convention : Reuss Voigt Hill
#
# Bulk Modulus (GPa) = 46.63055 78.18588 62.40822
# Shear Modulus (GPa) = 26.32466 38.53333 32.42899
#
# Velocity S-wave (km/s) = 3.37855 4.08759 3.74987
# Velocity P-wave (km/s) = 5.95306 7.49533 6.76826
#
# Compressibility (1/GPa) = 0.02144517
#
# Stress axis : x y z
#
# Youngs Moduli (GPa) = 33.07505 142.02378 130.68423
#
# Poissons Ratio (x) = 1.04432 0.51174
# Poissons Ratio (y) = 0.24321 0.06170
# Poissons Ratio (z) = 0.12952 0.06705
#
# Static dielectric constant tensor:
#      x y z
#    x 1.888260 0.021620 -0.049490 
#    y 0.021620 1.860160 -0.004920 
#    z -0.049490 -0.004920 1.948960 
# 
# From -- ./inp_files/153393.got.cif
#   From: 2010.05.17/outbox.cif.g08.bks.cpg/sg2_77_cif.got.tgz:153393.got - 2010.06.03 11:33:40.
