data_PCOD9023634
_publ_section_title
;
Structure prediction by ZEFSAII (Michael W. Deem and Ramdas Pophale) SiO2 
 PCOD9023634
Probable space group: P -1
;
_chemical_formula_sum "Si O2"
_cell_formula_units_Z 16
_cell_length_a 8.777818
_cell_length_b 12.234417
_cell_length_c 11.270974
_cell_angle_alpha 95.211609
_cell_angle_beta 78.900156
_cell_angle_gamma 37.644857
_cell_volume 662.996018
_symmetry_space_group_name_H-M "P -1"
_symmetry_group_IT_number 2
_symmetry_cell_setting 'triclinic'
loop_
_space_group_symop_operation_xyz
x,y,z
-x,-y,-z
loop_
_atom_site_type_symbol
_atom_site_label
_atom_site_fract_x
_atom_site_fract_y
_atom_site_fract_z
Si Si1 0.496963 0.097721 0.914549
Si Si2 0.768606 0.500368 0.311774
Si Si3 0.155446 0.809392 0.518134
Si Si4 0.553042 0.020560 0.299147
Si Si5 0.930347 0.171101 0.189082
Si Si6 0.056248 0.389933 0.836929
Si Si7 0.986701 0.663420 0.486979
Si Si8 0.543121 0.702536 0.796241
O O1 0.592471 0.986466 0.763602
O O2 0.743469 0.036855 0.902895
O O3 0.182483 0.307323 0.942192
O O4 0.500000 0.000000 0.000000
O O5 0.470920 0.636118 0.414254
O O6 0.882483 0.330071 0.204337
O O7 0.778671 0.606329 0.247930
O O8 0.939026 0.419592 0.398788
O O9 0.134612 0.824604 0.664921
O O10 0.034318 0.765621 0.487412
O O11 0.000000 0.000000 0.500000
O O12 0.576765 0.114410 0.222955
O O13 0.343000 0.168329 0.452705
O O14 0.841321 0.787439 0.254253
O O15 0.708190 0.235589 0.151719
O O16 0.735720 0.597970 0.874030
O O17 0.220627 0.475658 0.349871
#
# Coordination Sequence:
#
# PCOD9023634 Si02
#       8
#     2   2   2   2   2   2   2   2
#     4  10  22  47  68  83 113 160 218 268 306 351
#     4  11  17  37  57  85 128 164 209 235 284 375
#     4  11  19  31  54  90 130 164 212 244 280 362
#     4  10  22  40  59  88 128 160 204 250 298 371
#     4  11  21  38  62  91 121 164 203 262 300 354
#     4  10  23  40  62  90 124 160 210 247 301 373
#     4  11  19  34  57  87 133 172 191 235 303 363
#     4  12  22  38  60  94 136 160 190 245 319 372
#
# _framework density 24.132873
#
# number of rings (size 3 to 8) (size 9 to 14) (size 15 to 20)
#    0.750    0.500    6.250    2.625    0.000    1.500 
#    2.250    3.750    0.000    0.000    0.000    0.000 
#    0.000    0.000    0.000    0.000    0.000    0.000 
#
# Total GULP energy -89410.591561 kJ/mol
# GULP energy per Si atom -5588.161973 kJ/mol
# Density = 2.407795 g / cm^3
# Si number density = 24.132873 Si / 1000 Ang^3
#
#
#
# Elastic Constant Matrix: (Units=GPa)
#
#
# Indices 1 2 3 4 5 6 
#
# 1 111.3309 39.9256 27.4533 -9.2810 -12.5358 -10.9544
# 2 39.9256 159.7335 39.2733 -17.2965 -24.6360 12.0066
# 3 27.4533 39.2733 66.5004 2.6430 -8.4486 -7.0454
# 4 -9.2810 -17.2965 2.6430 45.9452 -5.7008 -8.0043
# 5 -12.5358 -24.6360 -8.4486 -5.7008 37.0823 6.3816
# 6 -10.9544 12.0066 -7.0454 -8.0043 6.3816 41.0992
#
#
#
# Elastic Compliance Matrix: (Units=1/GPa)
#
#
# Indices 1 2 3 4 5 6 
#
# 1 0.011077 -0.001689 -0.003120 0.002546 0.001763 0.003133
# 2 -0.001689 0.009451 -0.004724 0.003478 0.005899 -0.004260
# 3 -0.003120 -0.004724 0.019496 -0.003034 -0.000807 0.003425
# 4 0.002546 0.003478 -0.003034 0.025025 0.005791 0.003117
# 5 0.001763 0.005899 -0.000807 0.005791 0.033119 -0.005406
# 6 0.003133 -0.004260 0.003425 0.003117 -0.005406 0.028444
#
#
# Mechanical properties :
#
#
# Convention : Reuss Voigt Hill
#
# Bulk Modulus (GPa) = 47.71785 61.20770 54.46278
# Shear Modulus (GPa) = 32.75146 40.21949 36.48548
#
# Velocity S-wave (km/s) = 3.68792 4.08681 3.89248
# Velocity P-wave (km/s) = 6.16038 6.90559 6.54360
#
# Compressibility (1/GPa) = 0.02095652
#
# Stress axis : x y z
#
# Youngs Moduli (GPa) = 90.28108 105.81095 51.29132
#
# Poissons Ratio (x) = 0.17874 0.16004
# Poissons Ratio (y) = 0.15251 0.24230
# Poissons Ratio (z) = 0.28170 0.49986
#
# Static dielectric constant tensor:
#      x y z
#    x 1.951130 -0.040300 0.073070 
#    y -0.040300 2.084090 0.128130 
#    z 0.073070 0.128130 2.022730 
# 
# From -- ./inp_files/497932.got.cif
#   From: 2010.05.17/outbox.cif.g08.bks.cpg/sg2_249_cif.got.tgz:497932.got - 2010.06.03 11:33:40.
