data_PCOD9023566
_publ_section_title
;
Structure prediction by ZEFSAII (Michael W. Deem and Ramdas Pophale) SiO2 
 PCOD9023566
Probable space group: P -1
;
_chemical_formula_sum "Si O2"
_cell_formula_units_Z 16
_cell_length_a 19.006861
_cell_length_b 8.056099
_cell_length_c 6.571979
_cell_angle_alpha 94.211798
_cell_angle_beta 56.388242
_cell_angle_gamma 64.122151
_cell_volume 684.137660
_symmetry_space_group_name_H-M "P -1"
_symmetry_group_IT_number 2
_symmetry_cell_setting 'triclinic'
loop_
_space_group_symop_operation_xyz
x,y,z
-x,-y,-z
loop_
_atom_site_type_symbol
_atom_site_label
_atom_site_fract_x
_atom_site_fract_y
_atom_site_fract_z
Si Si1 0.853907 0.223710 0.776017
Si Si2 0.495445 0.977766 0.739681
Si Si3 0.690454 0.363235 0.701869
Si Si4 0.010950 0.094483 0.787608
Si Si5 0.566758 0.314240 0.222492
Si Si6 0.316295 0.265746 0.333627
Si Si7 0.242405 0.945795 0.811569
Si Si8 0.883445 0.700842 0.232193
O O1 0.757524 0.349564 0.791683
O O2 0.906221 0.283389 0.867023
O O3 0.939612 0.095095 0.458224
O O4 0.830718 0.092599 0.944668
O O5 0.488194 0.789466 0.775209
O O6 0.603254 0.917134 0.658688
O O7 0.500000 0.000000 0.500000
O O8 0.389736 0.175781 0.009865
O O9 0.691627 0.530976 0.584933
O O10 0.723326 0.187998 0.464425
O O11 0.598442 0.384148 0.979957
O O12 0.091572 0.152656 0.684178
O O13 0.000000 0.000000 0.000000
O O14 0.500000 0.500000 0.500000
O O15 0.662542 0.140969 0.192773
O O16 0.203243 0.311110 0.514491
O O17 0.175803 0.179780 0.869663
O O18 0.000000 0.500000 0.000000
#
# Coordination Sequence:
#
# PCOD9023566 Si02
#       8
#     2   2   2   2   2   2   2   2
#     4  10  22  39  72  94 126 174 239 288 336 398
#     4  11  24  48  73 101 147 182 232 296 364 421
#     4  11  23  43  71 100 138 177 237 292 351 419
#     4  11  22  44  70  93 132 181 242 284 338 402
#     4  11  24  42  74 109 132 179 244 291 357 425
#     4  11  27  45  70 104 144 188 228 294 364 422
#     4  11  23  44  70  96 138 183 233 296 343 413
#     4  12  27  44  68 102 147 192 231 282 361 424
#
# _framework density 23.387107
#
# number of rings (size 3 to 8) (size 9 to 14) (size 15 to 20)
#    0.000    1.000    2.500    3.000    5.250    5.000 
#    2.250    1.250    0.000    0.000    0.000    0.000 
#    0.000    0.000    0.000    0.000    0.000    0.000 
#
# Total GULP energy -89134.025392 kJ/mol
# GULP energy per Si atom -5570.876587 kJ/mol
# Density = 2.333388 g / cm^3
# Si number density = 23.387107 Si / 1000 Ang^3
#
#
#
# Elastic Constant Matrix: (Units=GPa)
#
#
# Indices 1 2 3 4 5 6 
#
# 1 129.2476 23.7107 22.1557 -4.1474 -22.3091 -23.8450
# 2 23.7107 60.0062 17.3865 0.2329 -11.4457 -13.4725
# 3 22.1557 17.3865 141.9648 -5.2789 -6.5363 -14.0130
# 4 -4.1474 0.2329 -5.2789 28.0390 -1.4788 0.7120
# 5 -22.3091 -11.4457 -6.5363 -1.4788 39.3877 -2.7800
# 6 -23.8450 -13.4725 -14.0130 0.7120 -2.7800 38.0695
#
#
#
# Elastic Compliance Matrix: (Units=1/GPa)
#
#
# Indices 1 2 3 4 5 6 
#
# 1 0.010272 -0.001435 -0.000495 0.001589 0.005812 0.006139
# 2 -0.001435 0.019984 -0.001409 -0.000524 0.005168 0.006042
# 3 -0.000495 -0.001409 0.007578 0.001354 0.000761 0.002011
# 4 0.001589 -0.000524 0.001354 0.036265 0.002391 0.000804
# 5 0.005812 0.005168 0.000761 0.002391 0.030960 0.007965
# 6 0.006139 0.006042 0.002011 0.000804 0.007965 0.033558
#
#
# Mechanical properties :
#
#
# Convention : Reuss Voigt Hill
#
# Bulk Modulus (GPa) = 32.09530 50.85829 41.47680
# Shear Modulus (GPa) = 32.11742 38.96362 35.54052
#
# Velocity S-wave (km/s) = 3.70982 4.08613 3.90251
# Velocity P-wave (km/s) = 5.66601 6.63743 6.17086
#
# Compressibility (1/GPa) = 0.03115721
#
# Stress axis : x y z
#
# Youngs Moduli (GPa) = 97.35418 50.03911 131.96744
#
# Poissons Ratio (x) = 0.07180 0.06529
# Poissons Ratio (y) = 0.13968 0.18591
# Poissons Ratio (z) = 0.04817 0.07049
#
# Static dielectric constant tensor:
#      x y z
#    x 2.180930 -0.123640 -0.090490 
#    y -0.123640 1.870020 0.071090 
#    z -0.090490 0.071090 1.888950 
# 
# From -- ./inp_files/116881.got.cif
#   From: 2010.05.17/outbox.cif.g08.bks.cpg/sg2_59_cif.got.tgz:116881.got - 2010.06.03 11:33:40.
