data_PCOD9023558
_publ_section_title
;
Structure prediction by ZEFSAII (Michael W. Deem and Ramdas Pophale) SiO2 
 PCOD9023558
Probable space group: P -1
;
_chemical_formula_sum "Si O2"
_cell_formula_units_Z 14
_cell_length_a 11.065794
_cell_length_b 15.324777
_cell_length_c 8.971080
_cell_angle_alpha 147.509090
_cell_angle_beta 55.519663
_cell_angle_gamma 128.073104
_cell_volume 639.507893
_symmetry_space_group_name_H-M "P -1"
_symmetry_group_IT_number 2
_symmetry_cell_setting 'triclinic'
loop_
_space_group_symop_operation_xyz
x,y,z
-x,-y,-z
loop_
_atom_site_type_symbol
_atom_site_label
_atom_site_fract_x
_atom_site_fract_y
_atom_site_fract_z
Si Si1 0.870892 0.831189 0.401920
Si Si2 0.107491 0.663843 0.571398
Si Si3 0.522038 0.224198 0.147062
Si Si4 0.715734 0.070428 0.963723
Si Si5 0.936018 0.627953 0.330412
Si Si6 0.632911 0.588326 0.677428
Si Si7 0.680939 0.544855 0.902967
O O1 0.932606 0.774685 0.429246
O O2 0.732160 0.906508 0.634121
O O3 0.801237 0.667343 0.110319
O O4 0.000000 0.000000 0.500000
O O5 0.270228 0.626255 0.388335
O O6 0.000000 0.500000 0.500000
O O7 0.041569 0.678442 0.476169
O O8 0.138837 0.827244 0.891219
O O9 0.520211 0.392442 0.485678
O O10 0.461442 0.284954 0.124409
O O11 0.417695 0.029717 0.972422
O O12 0.683766 0.201364 0.055240
O O13 0.762151 0.575488 0.448050
O O14 0.000000 0.500000 0.000000
O O15 0.708217 0.635242 0.852697
O O16 0.500000 0.500000 0.000000
#
# Coordination Sequence:
#
# PCOD9023558 Si02
#       7
#     2   2   2   2   2   2   2
#     4  12  28  46  70 106 148 183 240 302 360 421
#     4  12  24  45  75 100 143 194 242 289 363 432
#     4  10  22  39  72 100 133 182 232 284 365 419
#     4  11  23  43  69 102 140 180 228 296 358 418
#     4  12  26  44  73 102 136 192 248 282 349 441
#     4  11  23  45  74  99 139 191 239 287 356 437
#     4  12  26  46  72 108 142 188 239 298 352 432
#
# _framework density 21.891832000000001
#
# number of rings (size 3 to 8) (size 9 to 14) (size 15 to 20)
#    0.000    0.571    5.714    1.714    6.000    1.714 
#    0.000    0.714    0.000    0.000    0.000    0.000 
#    0.000    0.000    0.000    0.000    0.000    0.000 
#
# Total GULP energy -77975.460098 kJ/mol
# GULP energy per Si atom -5569.675721 kJ/mol
# Density = 2.184201 g / cm^3
# Si number density = 21.891832 Si / 1000 Ang^3
#
#
#
# Elastic Constant Matrix: (Units=GPa)
#
#
# Indices 1 2 3 4 5 6 
#
# 1 136.8198 45.7291 9.8296 -1.7236 -12.7678 -40.9289
# 2 45.7291 111.7596 28.1685 9.5297 0.5200 -12.8544
# 3 9.8296 28.1685 53.9100 2.2249 -10.4531 -11.8381
# 4 -1.7236 9.5297 2.2249 34.1146 -3.4762 -4.6257
# 5 -12.7678 0.5200 -10.4531 -3.4762 44.2492 6.8160
# 6 -40.9289 -12.8544 -11.8381 -4.6257 6.8160 53.6273
#
#
#
# Elastic Compliance Matrix: (Units=1/GPa)
#
#
# Indices 1 2 3 4 5 6 
#
# 1 0.011407 -0.004669 0.002572 0.003105 0.002958 0.008046
# 2 -0.004669 0.012651 -0.006618 -0.003914 -0.003068 -0.001939
# 3 0.002572 -0.006618 0.023691 0.001703 0.005777 0.005019
# 4 0.003105 -0.003914 0.001703 0.031332 0.003173 0.004107
# 5 0.002958 -0.003068 0.005777 0.003173 0.025122 -0.000122
# 6 0.008046 -0.001939 0.005019 0.004107 -0.000122 0.025801
#
#
# Mechanical properties :
#
#
# Convention : Reuss Voigt Hill
#
# Bulk Modulus (GPa) = 32.98334 52.21597 42.59966
# Shear Modulus (GPa) = 31.73812 40.98237 36.36024
#
# Velocity S-wave (km/s) = 3.81171 4.33140 4.07984
# Velocity P-wave (km/s) = 5.87124 6.99416 6.45716
#
# Compressibility (1/GPa) = 0.03031833
#
# Stress axis : x y z
#
# Youngs Moduli (GPa) = 87.66814 79.04445 42.21086
#
# Poissons Ratio (x) = 0.36903 -0.10856
# Poissons Ratio (y) = 0.40929 0.27936
# Poissons Ratio (z) = -0.22547 0.52314
#
# Static dielectric constant tensor:
#      x y z
#    x 1.722230 -0.464970 0.040340 
#    y -0.464970 0.324260 0.054540 
#    z 0.040340 0.054540 1.761680 
# 
# From -- ./inp_files/274804.got.cif
#   From: 2010.05.17/outbox.cif.g08.bks.cpg/sg2_138_cif.got.tgz:274804.got - 2010.06.03 11:33:40.
