data_PCOD9023240
_publ_section_title
;
Structure prediction by ZEFSAII (Michael W. Deem and Ramdas Pophale) SiO2 
 PCOD9023240
Probable space group: P -1
;
_chemical_formula_sum "Si O2"
_cell_formula_units_Z 14
_cell_length_a 14.345395
_cell_length_b 26.594177
_cell_length_c 26.636061
_cell_angle_alpha 11.134439
_cell_angle_beta 21.999265
_cell_angle_gamma 18.514515
_cell_volume 622.284120
_symmetry_space_group_name_H-M "P -1"
_symmetry_group_IT_number 2
_symmetry_cell_setting 'triclinic'
loop_
_space_group_symop_operation_xyz
x,y,z
-x,-y,-z
loop_
_atom_site_type_symbol
_atom_site_label
_atom_site_fract_x
_atom_site_fract_y
_atom_site_fract_z
Si Si1 0.939778 0.251494 0.927807
Si Si2 0.080275 0.218693 0.773452
Si Si3 0.583616 0.891365 0.007567
Si Si4 0.331551 0.118186 0.234502
Si Si5 0.582470 0.957197 0.441653
Si Si6 0.942560 0.165081 0.517105
Si Si7 0.836266 0.259961 0.268542
O O1 0.802459 0.595619 0.678644
O O2 0.954175 0.271858 0.840278
O O3 0.743135 0.124066 0.174378
O O4 0.276540 0.050156 0.975428
O O5 0.000000 0.500000 0.500000
O O6 0.436527 0.996208 0.813919
O O7 0.000000 0.000000 0.000000
O O8 0.749085 0.529474 0.266203
O O9 0.500000 0.000000 0.000000
O O10 0.802309 0.007616 0.772475
O O11 0.016354 0.238024 0.249731
O O12 0.409016 0.814377 0.523407
O O13 0.304921 0.383944 0.023226
O O14 0.500000 0.000000 0.500000
O O15 0.275062 0.059067 0.468368
O O16 0.958767 0.015598 0.601191
#
# Coordination Sequence:
#
# PCOD9023240 Si02
#       7
#     2   2   2   2   2   2   2
#     4  12  27  47  74 105 150 194 240 300 375 430
#     4  12  27  43  67  98 142 191 239 282 346 432
#     4  12  25  47  74 106 141 187 242 306 370 440
#     4  10  22  41  62  93 132 172 229 285 342 398
#     4  12  26  47  73 109 148 188 237 304 374 440
#     4  12  25  42  73 103 141 181 246 289 363 437
#     4  10  22  39  67  92 128 174 224 290 344 408
#
# _framework density 22.497762000000002
#
# number of rings (size 3 to 8) (size 9 to 14) (size 15 to 20)
#    0.000    0.571    0.000    7.714    6.000    3.429 
#    0.000    0.000    0.000    0.000    0.000    0.000 
#    0.000    0.000    0.000    0.000    0.000    0.000 
#
# Total GULP energy -78130.223617 kJ/mol
# GULP energy per Si atom -5580.730258 kJ/mol
# Density = 2.244656 g / cm^3
# Si number density = 22.497762 Si / 1000 Ang^3
#
#
#
# Elastic Constant Matrix: (Units=GPa)
#
#
# Indices 1 2 3 4 5 6 
#
# 1 152.3187 107.3265 68.8187 -10.0659 19.4186 -17.2830
# 2 107.3265 243.4566 100.9571 -15.0542 28.7951 -43.9231
# 3 68.8187 100.9571 215.6306 -9.7509 3.6632 -7.5040
# 4 -10.0659 -15.0542 -9.7509 54.3982 11.1287 3.8418
# 5 19.4186 28.7951 3.6632 11.1287 30.0956 -10.1785
# 6 -17.2830 -43.9231 -7.5040 3.8418 -10.1785 81.0161
#
#
#
# Elastic Compliance Matrix: (Units=1/GPa)
#
#
# Indices 1 2 3 4 5 6 
#
# 1 0.010184 -0.003362 -0.001556 0.001483 -0.003831 -0.000346
# 2 -0.003362 0.007660 -0.002260 0.001878 -0.004719 0.002544
# 3 -0.001556 -0.002260 0.006119 -0.000232 0.002273 -0.000694
# 4 0.001483 0.001878 -0.000232 0.021470 -0.011034 -0.001091
# 5 -0.003831 -0.004719 0.002273 -0.011034 0.045037 0.003017
# 6 -0.000346 0.002544 -0.000694 -0.001091 0.003017 0.014015
#
#
# Mechanical properties :
#
#
# Convention : Reuss Voigt Hill
#
# Bulk Modulus (GPa) = 104.08566 129.51231 116.79898
# Shear Modulus (GPa) = 40.96869 55.38888 48.17879
#
# Velocity S-wave (km/s) = 4.27196 4.96721 4.63265
# Velocity P-wave (km/s) = 8.40822 9.51784 8.98019
#
# Compressibility (1/GPa) = 0.00960747
#
# Stress axis : x y z
#
# Youngs Moduli (GPa) = 98.19023 130.54784 163.42689
#
# Poissons Ratio (x) = 0.43890 0.25432
# Poissons Ratio (y) = 0.33012 0.36930
# Poissons Ratio (z) = 0.15280 0.29500
#
# Static dielectric constant tensor:
#      x y z
#    x 1.804700 -0.010260 0.062630 
#    y -0.010260 1.921110 0.005000 
#    z 0.062630 0.005000 1.886670 
# 
# From -- ./inp_files/619959.got.cif
#   From: 2010.05.17/outbox.cif.g08.bks.cpg/sg2_310_cif.got.tgz:619959.got - 2010.06.03 11:33:40.
