data_PCOD9023552
_publ_section_title
;
Structure prediction by ZEFSAII (Michael W. Deem and Ramdas Pophale) SiO2 
 PCOD9023552
Probable space group: P -1
;
_chemical_formula_sum "Si O2"
_cell_formula_units_Z 14
_cell_length_a 21.693058
_cell_length_b 15.186465
_cell_length_c 11.680201
_cell_angle_alpha 29.826099
_cell_angle_beta 147.450575
_cell_angle_gamma 159.532067
_cell_volume 659.101055
_symmetry_space_group_name_H-M "P -1"
_symmetry_group_IT_number 2
_symmetry_cell_setting 'triclinic'
loop_
_space_group_symop_operation_xyz
x,y,z
-x,-y,-z
loop_
_atom_site_type_symbol
_atom_site_label
_atom_site_fract_x
_atom_site_fract_y
_atom_site_fract_z
Si Si1 0.495670 0.959840 0.232748
Si Si2 0.703349 0.789122 0.021179
Si Si3 0.992003 0.029043 0.589675
Si Si4 0.730711 0.405529 0.911584
Si Si5 0.846558 0.168701 0.609069
Si Si6 0.336659 0.884205 0.300476
Si Si7 0.941647 0.283432 0.379235
O O1 0.657144 0.044814 0.447163
O O2 0.378232 0.699950 0.257435
O O3 0.378155 0.903513 0.211145
O O4 0.590368 0.213779 0.010797
O O5 0.818426 0.990133 0.864486
O O6 0.691216 0.943835 0.909884
O O7 0.500000 0.500000 0.000000
O O8 0.811579 0.763690 0.282329
O O9 0.917637 0.126671 0.410001
O O10 0.000000 0.000000 0.500000
O O11 0.866551 0.724222 0.785505
O O12 0.837089 0.345545 0.134124
O O13 0.000000 0.500000 0.500000
O O14 0.879919 0.131874 0.575864
O O15 0.151212 0.571758 0.394194
O O16 0.500000 0.000000 0.500000
#
# Coordination Sequence:
#
# PCOD9023552 Si02
#       7
#     2   2   2   2   2   2   2
#     4  10  22  39  71  97 130 176 226 277 333 408
#     4  12  26  41  64 104 141 170 229 291 335 398
#     4  12  27  43  67 100 139 178 228 283 338 410
#     4  10  23  46  65  97 135 177 225 277 339 404
#     4  11  21  45  71  96 138 179 229 279 338 412
#     4  12  21  39  67  98 129 175 219 273 346 396
#     4  11  24  43  72  97 128 189 224 273 346 407
#
# _framework density 21.241052
#
# number of rings (size 3 to 8) (size 9 to 14) (size 15 to 20)
#    0.000    0.857    4.286    2.571    4.000    2.857 
#    0.000    6.429    0.000    0.000    0.000    0.000 
#    0.000    0.000    0.000    0.000    0.000    0.000 
#
# Total GULP energy -78300.819763 kJ/mol
# GULP energy per Si atom -5592.915697 kJ/mol
# Density = 2.119271 g / cm^3
# Si number density = 21.241052 Si / 1000 Ang^3
#
#
#
# Elastic Constant Matrix: (Units=GPa)
#
#
# Indices 1 2 3 4 5 6 
#
# 1 112.8583 6.1049 0.0731 -13.5708 -5.1443 16.2382
# 2 6.1049 96.1610 10.1212 4.4254 -6.5587 9.1176
# 3 0.0731 10.1212 37.7888 2.4178 -1.7984 3.0634
# 4 -13.5708 4.4254 2.4178 31.7265 -4.8425 -0.8696
# 5 -5.1443 -6.5587 -1.7984 -4.8425 30.6809 0.7961
# 6 16.2382 9.1176 3.0634 -0.8696 0.7961 31.1986
#
#
#
# Elastic Compliance Matrix: (Units=1/GPa)
#
#
# Indices 1 2 3 4 5 6 
#
# 1 0.010308 -0.000225 0.000291 0.004667 0.002570 -0.005263
# 2 -0.000225 0.011165 -0.002571 -0.001222 0.002083 -0.002980
# 3 0.000291 -0.002571 0.027468 -0.001528 0.000924 -0.002163
# 4 0.004667 -0.001222 -0.001528 0.034678 0.005934 -0.001107
# 5 0.002570 0.002083 0.000924 0.005934 0.034532 -0.002753
# 6 -0.005263 -0.002980 -0.002163 -0.001107 -0.002753 0.035915
#
#
# Mechanical properties :
#
#
# Convention : Reuss Voigt Hill
#
# Bulk Modulus (GPa) = 22.76343 31.04517 26.90430
# Shear Modulus (GPa) = 28.78183 34.08846 31.43514
#
# Velocity S-wave (km/s) = 3.68504 4.01039 3.85115
# Velocity P-wave (km/s) = 5.37085 6.00763 5.69814
#
# Compressibility (1/GPa) = 0.04393011
#
# Stress axis : x y z
#
# Youngs Moduli (GPa) = 97.00920 89.56550 36.40591
#
# Poissons Ratio (x) = 0.02019 -0.01059
# Poissons Ratio (y) = 0.02187 0.09360
# Poissons Ratio (z) = -0.02822 0.23028
#
# Static dielectric constant tensor:
#      x y z
#    x 1.761820 -0.002470 -0.032690 
#    y -0.002470 1.788710 0.003080 
#    z -0.032690 0.003080 1.797900 
# 
# From -- ./inp_files/208446.got.cif
#   From: 2010.05.17/outbox.cif.g08.bks.cpg/sg2_105_cif.got.tgz:208446.got - 2010.06.03 11:33:40.
