data_PCOD9023019
_publ_section_title
;
Structure prediction by ZEFSAII (Michael W. Deem and Ramdas Pophale) SiO2 
 PCOD9023019
Probable space group: P -1
;
_chemical_formula_sum "Si O2"
_cell_formula_units_Z 16
_cell_length_a 8.855311
_cell_length_b 8.328783
_cell_length_c 17.385506
_cell_angle_alpha 90.454880
_cell_angle_beta 52.538447
_cell_angle_gamma 60.336367
_cell_volume 790.724988
_symmetry_space_group_name_H-M "P -1"
_symmetry_group_IT_number 2
_symmetry_cell_setting 'triclinic'
loop_
_space_group_symop_operation_xyz
x,y,z
-x,-y,-z
loop_
_atom_site_type_symbol
_atom_site_label
_atom_site_fract_x
_atom_site_fract_y
_atom_site_fract_z
Si Si1 0.719081 0.155623 0.113122
Si Si2 0.363444 0.501268 0.115354
Si Si3 0.937769 0.210274 0.490571
Si Si4 0.903638 0.330327 0.331737
Si Si5 0.137823 0.265922 0.663736
Si Si6 0.393443 0.125079 0.111307
Si Si7 0.381128 0.102374 0.430666
Si Si8 0.532101 0.360883 0.334890
O O1 0.567963 0.377479 0.117827
O O2 0.587514 0.067124 0.117886
O O3 0.670034 0.213368 0.217816
O O4 0.000000 0.000000 0.000000
O O5 0.299259 0.350648 0.115435
O O6 0.101980 0.697328 0.229423
O O7 0.500000 0.500000 0.000000
O O8 0.189273 0.175677 0.422638
O O9 0.860128 0.266813 0.426015
O O10 0.717170 0.411130 0.606767
O O11 0.000000 0.000000 0.500000
O O12 0.908064 0.521895 0.340470
O O13 0.705307 0.382891 0.331020
O O14 0.170886 0.144256 0.215174
O O15 0.235680 0.136600 0.553830
O O16 0.367261 0.129989 0.650078
O O17 0.500000 0.000000 0.000000
O O18 0.454479 0.249163 0.409167
#
# Coordination Sequence:
#
# PCOD9023019 Si02
#       8
#     2   2   2   2   2   2   2   2
#     4  10  22  39  65  97 127 167 224 263 328 389
#     4   9  21  39  64  92 128 164 214 268 319 387
#     4  12  26  42  62  98 134 170 221 273 331 392
#     4  11  23  42  63  90 131 174 215 268 332 386
#     4  10  22  41  63  93 130 172 215 268 329 396
#     4   9  20  40  64  89 125 165 212 265 323 381
#     4  11  24  38  68  93 131 168 220 265 332 391
#     4  12  24  41  69  92 132 177 219 274 326 399
#
# _framework density 20.234594000000001
#
# number of rings (size 3 to 8) (size 9 to 14) (size 15 to 20)
#    0.750    0.750    1.250    3.750    5.250    0.000 
#    2.250    0.000    0.000    2.250    0.000    0.000 
#    0.000    0.000    0.000    0.000    0.000    0.000 
#
# Total GULP energy -89196.628734 kJ/mol
# GULP energy per Si atom -5574.789296 kJ/mol
# Density = 2.018854 g / cm^3
# Si number density = 20.234594 Si / 1000 Ang^3
#
#
#
# Elastic Constant Matrix: (Units=GPa)
#
#
# Indices 1 2 3 4 5 6 
#
# 1 59.7282 7.0336 28.7057 2.5437 -10.9807 -21.6239
# 2 7.0336 58.5513 31.1711 4.2454 -6.1202 -5.0676
# 3 28.7057 31.1711 166.9899 9.1143 -12.3868 -14.1058
# 4 2.5437 4.2454 9.1143 30.7168 -4.9738 -8.4303
# 5 -10.9807 -6.1202 -12.3868 -4.9738 35.6640 3.3527
# 6 -21.6239 -5.0676 -14.1058 -8.4303 3.3527 28.2124
#
#
#
# Elastic Compliance Matrix: (Units=1/GPa)
#
#
# Indices 1 2 3 4 5 6 
#
# 1 0.025871 0.000262 -0.002693 0.004874 0.005943 0.019280
# 2 0.000262 0.019211 -0.003309 -0.000974 0.001954 0.001474
# 3 -0.002693 -0.003309 0.007243 -0.001184 0.000906 0.000502
# 4 0.004874 -0.000974 -0.001184 0.037122 0.004831 0.013487
# 5 0.005943 0.001954 0.000906 0.004831 0.030899 0.003131
# 6 0.019280 0.001474 0.000502 0.013487 0.003131 0.054397
#
#
# Mechanical properties :
#
#
# Convention : Reuss Voigt Hill
#
# Bulk Modulus (GPa) = 24.48146 46.56558 35.52352
# Shear Modulus (GPa) = 25.02043 33.47591 29.24817
#
# Velocity S-wave (km/s) = 3.52023 4.07183 3.80604
# Velocity P-wave (km/s) = 5.35236 6.72081 6.07524
#
# Compressibility (1/GPa) = 0.04084724
#
# Stress axis : x y z
#
# Youngs Moduli (GPa) = 38.65343 52.05246 138.06215
#
# Poissons Ratio (x) = -0.01365 0.37177
# Poissons Ratio (y) = -0.01014 0.45678
# Poissons Ratio (z) = 0.10409 0.17222
#
# Static dielectric constant tensor:
#      x y z
#    x 1.748320 -0.010380 0.007070 
#    y -0.010380 1.753470 0.032060 
#    z 0.007070 0.032060 1.784400 
# 
# From -- ./inp_files/556203.got.cif
#   From: 2010.05.17/outbox.cif.g08.bks.cpg/sg2_279_cif.got.tgz:556203.got - 2010.06.03 11:33:40.
