data_PCOD9023879
_publ_section_title
;
Structure prediction by ZEFSAII (Michael W. Deem and Ramdas Pophale) SiO2 
 PCOD9023879
Probable space group: P -1
;
_chemical_formula_sum "Si O2"
_cell_formula_units_Z 10
_cell_length_a 14.531511
_cell_length_b 11.838942
_cell_length_c 12.503798
_cell_angle_alpha 32.175833
_cell_angle_beta 33.171523
_cell_angle_gamma 19.406546
_cell_volume 371.399752
_symmetry_space_group_name_H-M "P -1"
_symmetry_group_IT_number 2
_symmetry_cell_setting 'triclinic'
loop_
_space_group_symop_operation_xyz
x,y,z
-x,-y,-z
loop_
_atom_site_type_symbol
_atom_site_label
_atom_site_fract_x
_atom_site_fract_y
_atom_site_fract_z
Si Si1 0.200873 0.974372 0.680244
Si Si2 0.528136 0.737459 0.986685
Si Si3 0.643467 0.081798 0.667034
Si Si4 0.991105 0.255140 0.220101
Si Si5 0.550164 0.696164 0.764848
O O1 0.236844 0.685692 0.900446
O O2 0.312358 0.898078 0.514045
O O3 0.370584 0.918820 0.654947
O O4 0.880494 0.376396 0.675426
O O5 0.238321 0.928715 0.161257
O O6 0.473722 0.876812 0.808024
O O7 0.624506 0.843109 0.875736
O O8 0.335865 0.471963 0.694963
O O9 0.895969 0.894885 0.649190
O O10 0.000000 0.500000 0.000000
O O11 0.500000 0.500000 0.000000
#
# Coordination Sequence:
#
# PCOD9023879 Si02
#       5
#     2   2   2   2   2
#     4  11  24  40  61  91 120 153 201 244 290 355
#     4  10  22  40  64  84 122 162 190 246 300 338
#     4  11  24  40  61  91 120 153 201 244 290 355
#     4  10  22  40  62  89 119 156 200 241 292 355
#     4  10  22  40  62  89 119 156 200 241 292 355
#
# _framework density 26.925166000000001
#
# number of rings (size 3 to 8) (size 9 to 14) (size 15 to 20)
#    0.000    1.600    0.000    6.000    0.000   17.600 
#    0.000    0.000    0.000    0.000    0.000    0.000 
#    0.000    0.000    0.000    0.000    0.000    0.000 
#
# Total GULP energy -56136.742834 kJ/mol
# GULP energy per Si atom -5613.674283 kJ/mol
# Density = 2.686388 g / cm^3
# Si number density = 26.925166 Si / 1000 Ang^3
#
#
#
# Elastic Constant Matrix: (Units=GPa)
#
#
# Indices 1 2 3 4 5 6 
#
# 1 178.2528 65.5552 42.2555 7.3224 22.7572 -19.6998
# 2 65.5552 139.9736 29.7723 13.7989 8.8248 -22.6934
# 3 42.2555 29.7723 115.5554 0.9403 33.4027 -6.3031
# 4 7.3224 13.7989 0.9403 54.7267 7.3526 -0.6745
# 5 22.7572 8.8248 33.4027 7.3526 57.2812 0.3412
# 6 -19.6998 -22.6934 -6.3031 -0.6745 0.3412 47.2390
#
#
#
# Elastic Compliance Matrix: (Units=1/GPa)
#
#
# Indices 1 2 3 4 5 6 
#
# 1 0.007354 -0.002787 -0.001399 -0.000012 -0.001684 0.001553
# 2 -0.002787 0.009417 -0.001432 -0.002037 0.000734 0.003136
# 3 -0.001399 -0.001432 0.011257 0.001156 -0.005938 0.000290
# 4 -0.000012 -0.002037 0.001156 0.019139 -0.002809 -0.000536
# 5 -0.001684 0.000734 -0.005938 -0.002809 0.021845 -0.001340
# 6 0.001553 0.003136 0.000290 -0.000536 -0.001340 0.023364
#
#
# Mechanical properties :
#
#
# Convention : Reuss Voigt Hill
#
# Bulk Modulus (GPa) = 59.55352 78.77196 69.16274
# Shear Modulus (GPa) = 45.78335 51.59596 48.68965
#
# Velocity S-wave (km/s) = 4.12806 4.38227 4.25706
# Velocity P-wave (km/s) = 6.69980 7.41115 7.06443
#
# Compressibility (1/GPa) = 0.01679162
#
# Stress axis : x y z
#
# Youngs Moduli (GPa) = 135.98129 106.18972 88.83085
#
# Poissons Ratio (x) = 0.29599 0.12431
# Poissons Ratio (y) = 0.37903 0.12717
# Poissons Ratio (z) = 0.19030 0.15202
#
# Static dielectric constant tensor:
#      x y z
#    x 2.134420 0.042610 -0.044220 
#    y 0.042610 2.078660 -0.028310 
#    z -0.044220 -0.028310 2.204930 
# 
# From -- ./inp_files/16174.got.cif
#   From: 2010.05.17/outbox.cif.g08.bks.cpg/sg2_9_cif.got.tgz:16174.got - 2010.06.03 11:33:40.
