data_PCOD9023656
_publ_section_title
;
Structure prediction by ZEFSAII (Michael W. Deem and Ramdas Pophale) SiO2 
 PCOD9023656
Probable space group: P -1
;
_chemical_formula_sum "Si O2"
_cell_formula_units_Z 16
_cell_length_a 11.662979
_cell_length_b 13.991605
_cell_length_c 12.152074
_cell_angle_alpha 149.769957
_cell_angle_beta 90.184674
_cell_angle_gamma 107.552356
_cell_volume 795.303527
_symmetry_space_group_name_H-M "P -1"
_symmetry_group_IT_number 2
_symmetry_cell_setting 'triclinic'
loop_
_space_group_symop_operation_xyz
x,y,z
-x,-y,-z
loop_
_atom_site_type_symbol
_atom_site_label
_atom_site_fract_x
_atom_site_fract_y
_atom_site_fract_z
Si Si1 0.168777 0.393343 0.096503
Si Si2 0.830915 0.056856 0.761233
Si Si3 0.837313 0.559808 0.097390
Si Si4 0.329243 0.714918 0.965878
Si Si5 0.831931 0.933115 0.047208
Si Si6 0.836269 0.114596 0.578084
Si Si7 0.329011 0.941831 0.689462
Si Si8 0.169576 0.269246 0.382019
O O1 0.183613 0.237597 0.026220
O O2 0.265110 0.666652 0.405137
O O3 0.202113 0.374646 0.951017
O O4 0.000009 0.283936 0.987042
O O5 0.796889 0.970768 0.548574
O O6 0.815368 0.871169 0.661316
O O7 0.735539 0.139083 0.879331
O O8 0.730750 0.454592 0.094650
O O9 0.000685 0.775801 0.347081
O O10 0.840724 0.341159 0.841660
O O11 0.264629 0.542716 0.689175
O O12 0.500129 0.888553 0.138722
O O13 0.790512 0.791313 0.792179
O O14 0.737923 0.018255 0.166472
O O15 0.000882 0.155808 0.261917
O O16 0.729365 0.007124 0.368753
#
# Coordination Sequence:
#
# PCOD9023656 Si02
#       8
#     2   2   2   2   2   2   2   2
#     4   9  19  37  60  83 108 142 183 226 269 316
#     4   9  19  37  60  83 108 142 183 226 269 316
#     4   8  15  31  55  81 109 141 179 220 263 319
#     4  11  22  35  55  83 116 147 174 218 277 331
#     4  10  22  40  60  80 104 141 191 235 266 311
#     4   8  15  31  55  81 109 141 179 220 263 319
#     4  11  22  35  55  83 116 147 174 218 277 331
#     4  10  22  40  60  80 104 141 191 235 266 311
#
# _framework density 20.118106000000001
#
# number of rings (size 3 to 8) (size 9 to 14) (size 15 to 20)
#    0.000    2.500    0.000    3.750    0.000    8.000 
#    0.000   10.000    0.000    0.000    0.000    0.000 
#    0.000    0.000    0.000    0.000    0.000    0.000 
#
# Total GULP energy -89398.147088 kJ/mol
# GULP energy per Si atom -5587.384193 kJ/mol
# Density = 2.007232 g / cm^3
# Si number density = 20.118106 Si / 1000 Ang^3
#
#
#
# Elastic Constant Matrix: (Units=GPa)
#
#
# Indices 1 2 3 4 5 6 
#
# 1 65.8835 16.9941 63.5287 -3.7754 4.0605 24.2147
# 2 16.9941 35.5968 34.1739 -17.9976 2.3408 5.5439
# 3 63.5287 34.1739 104.6141 -15.1338 0.7265 39.4109
# 4 -3.7754 -17.9976 -15.1338 21.2867 3.3032 -10.2902
# 5 4.0605 2.3408 0.7265 3.3032 9.9210 4.2648
# 6 24.2147 5.5439 39.4109 -10.2902 4.2648 17.6634
#
#
#
# Elastic Compliance Matrix: (Units=1/GPa)
#
#
# Indices 1 2 3 4 5 6 
#
# 1 0.040052 0.000862 -0.024720 -0.009735 -0.010151 -0.003242
# 2 0.000862 0.004479 0.022476 -0.021287 0.035743 -0.073767
# 3 -0.024720 0.022476 0.007886 0.045459 -0.029295 0.042795
# 4 -0.009735 -0.021287 0.045459 0.014560 0.035903 -0.081589
# 5 -0.010151 0.035743 -0.029295 0.035903 0.054071 0.075922
# 6 -0.003242 -0.073767 0.042795 -0.081589 0.075922 -0.077137
#
#
# Mechanical properties :
#
#
# Convention : Reuss Voigt Hill
#
# Bulk Modulus (GPa) = 20.14025 48.38752 34.26388
# Shear Modulus (GPa) = 79.08050 15.86741 47.47396
#
# Velocity S-wave (km/s) = 6.27642 2.81145 4.86301
# Velocity P-wave (km/s) = 7.90932 5.88583 6.97138
#
# Compressibility (1/GPa) = 0.04965183
#
# Stress axis : x y z
#
# Youngs Moduli (GPa) = 24.96763 223.26979 126.80651
#
# Poissons Ratio (x) = -0.19236 3.13468
# Poissons Ratio (y) = -0.02151 -2.85012
# Poissons Ratio (z) = 0.61720 -5.01824
#
# Static dielectric constant tensor:
#      x y z
#    x 1.709250 -0.027920 -0.045550 
#    y -0.027920 1.730580 -0.006120 
#    z -0.045550 -0.006120 1.720230 
# 
# From -- ./inp_files/346948.got.cif
#   From: 2010.05.17/outbox.cif.g08.bks.cpg/sg2_174_cif.got.tgz:346948.got - 2010.06.03 11:33:40.
