data_PCOD9023985
_publ_section_title
;
Structure prediction by ZEFSAII (Michael W. Deem and Ramdas Pophale) SiO2 
 PCOD9023985
Probable space group: P -1
;
_chemical_formula_sum "Si O2"
_cell_formula_units_Z 15
_cell_length_a 13.989354
_cell_length_b 21.395777
_cell_length_c 6.931273
_cell_angle_alpha 89.126953
_cell_angle_beta 97.434701
_cell_angle_gamma 160.244337
_cell_volume 659.279662
_symmetry_space_group_name_H-M "P -1"
_symmetry_group_IT_number 2
_symmetry_cell_setting 'triclinic'
loop_
_space_group_symop_operation_xyz
x,y,z
-x,-y,-z
loop_
_atom_site_type_symbol
_atom_site_label
_atom_site_fract_x
_atom_site_fract_y
_atom_site_fract_z
Si Si1 0.751049 0.893826 0.019064
Si Si2 0.741149 0.732743 0.652525
Si Si3 0.636034 0.526352 0.773175
Si Si4 0.490181 0.851420 0.814600
Si Si5 0.000000 0.500000 0.000000
Si Si6 0.293962 0.776821 0.354613
Si Si7 0.306894 0.521095 0.853996
Si Si8 0.730519 0.093094 0.145164
O O1 0.455413 0.671760 0.000948
O O2 0.643981 0.878080 0.833763
O O3 0.923053 0.036697 0.226346
O O4 0.000000 0.000000 0.000000
O O5 0.680208 0.626307 0.729343
O O6 0.655637 0.676054 0.408924
O O7 0.504638 0.631518 0.709604
O O8 0.642920 0.507847 0.995072
O O9 0.933537 0.676580 0.753225
O O10 0.376544 0.812390 0.592821
O O11 0.221009 0.675964 0.903719
O O12 0.732968 0.042729 0.979856
O O13 0.158636 0.632841 0.221780
O O14 0.590574 0.980929 0.309013
O O15 0.034429 0.670268 0.269966
O O16 0.500000 0.000000 0.000000
#
# Coordination Sequence:
#
# PCOD9023985 Si02
#       8
#     2   2   2   2   1   2   2   2
#     4  10  22  45  64  96 131 169 223 271 320 397
#     4  10  24  44  66  91 130 178 225 269 327 388
#     4  11  23  45  67  93 134 174 222 275 328 384
#     4  11  23  43  67  94 135 172 219 272 339 394
#     4  10  22  40  62  94 130 164 212 264 330 394
#     4  11  24  40  67  98 129 173 211 272 338 396
#     4  11  23  41  68  97 131 169 221 275 330 394
#     4  11  24  42  64  97 135 168 222 277 327 396
#
# _framework density 22.752103999999999
#
# number of rings (size 3 to 8) (size 9 to 14) (size 15 to 20)
#    0.000    1.333    4.000    0.800    1.867    2.133 
#   12.000    0.000    0.000    0.000    0.000    0.000 
#    0.000    0.000    0.000    0.000    0.000    0.000 
#
# Total GULP energy -83558.637352 kJ/mol
# GULP energy per Si atom -5570.575823 kJ/mol
# Density = 2.270032 g / cm^3
# Si number density = 22.752104 Si / 1000 Ang^3
#
#
#
# Elastic Constant Matrix: (Units=GPa)
#
#
# Indices 1 2 3 4 5 6 
#
# 1 59.2665 -14.2134 23.4842 4.5356 17.7965 -0.2571
# 2 -14.2134 45.1421 28.5862 8.1627 -0.4259 0.5855
# 3 23.4842 28.5862 130.7126 -4.5532 18.9460 9.2718
# 4 4.5356 8.1627 -4.5532 26.5456 -0.9153 2.9380
# 5 17.7965 -0.4259 18.9460 -0.9153 26.5581 2.6138
# 6 -0.2571 0.5855 9.2718 2.9380 2.6138 22.1129
#
#
#
# Elastic Compliance Matrix: (Units=1/GPa)
#
#
# Indices 1 2 3 4 5 6 
#
# 1 0.029092 0.015856 -0.007405 -0.012347 -0.015017 0.006439
# 2 0.015856 0.037536 -0.011706 -0.017103 -0.002923 0.006717
# 3 -0.007405 -0.011706 0.012712 0.007556 -0.003473 -0.005700
# 4 -0.012347 -0.017103 0.007556 0.047600 0.005214 -0.009800
# 5 -0.015017 -0.002923 -0.003473 0.005214 0.050852 -0.005345
# 6 0.006439 0.006717 -0.005700 -0.009800 -0.005345 0.049443
#
#
# Mechanical properties :
#
#
# Convention : Reuss Voigt Hill
#
# Bulk Modulus (GPa) = 13.73062 34.53723 24.13393
# Shear Modulus (GPa) = 19.37829 28.19428 23.78628
#
# Velocity S-wave (km/s) = 2.92158 3.52404 3.23686
# Velocity P-wave (km/s) = 4.17478 5.63660 4.95984
#
# Compressibility (1/GPa) = 0.07282991
#
# Stress axis : x y z
#
# Youngs Moduli (GPa) = 34.37401 26.64129 78.66802
#
# Poissons Ratio (x) = -0.42243 0.58250
# Poissons Ratio (y) = -0.54504 0.92091
# Poissons Ratio (z) = 0.25452 0.31187
#
# Static dielectric constant tensor:
#      x y z
#    x 2.096400 0.069010 0.160360 
#    y 0.069010 1.872830 0.134100 
#    z 0.160360 0.134100 2.115490 
# 
# From -- ./inp_files/79714.got.cif
#   From: 2010.05.17/outbox.cif.g08.bks.cpg/sg2_40_cif.got.tgz:79714.got - 2010.06.03 11:33:40.
