data_PCOD9023874
_publ_section_title
;
Structure prediction by ZEFSAII (Michael W. Deem and Ramdas Pophale) SiO2 
 PCOD9023874
Probable space group: P -1
;
_chemical_formula_sum "Si O2"
_cell_formula_units_Z 16
_cell_length_a 9.522337
_cell_length_b 12.079231
_cell_length_c 7.861786
_cell_angle_alpha 65.591686
_cell_angle_beta 100.871235
_cell_angle_gamma 125.532795
_cell_volume 668.494683
_symmetry_space_group_name_H-M "P -1"
_symmetry_group_IT_number 2
_symmetry_cell_setting 'triclinic'
loop_
_space_group_symop_operation_xyz
x,y,z
-x,-y,-z
loop_
_atom_site_type_symbol
_atom_site_label
_atom_site_fract_x
_atom_site_fract_y
_atom_site_fract_z
Si Si1 0.878685 0.697927 0.721280
Si Si2 0.488036 0.549325 0.156201
Si Si3 0.858970 0.342885 0.378320
Si Si4 0.152686 0.210349 0.837836
Si Si5 0.357759 0.952842 0.352423
Si Si6 0.033745 0.671512 0.124873
Si Si7 0.908561 0.963652 0.723476
Si Si8 0.373970 0.771085 0.943907
O O1 0.675681 0.593206 0.706728
O O2 0.926264 0.860149 0.664801
O O3 0.989726 0.679802 0.620396
O O4 0.923026 0.647429 0.941026
O O5 0.673693 0.628942 0.236668
O O6 0.500000 0.500000 0.000000
O O7 0.444055 0.671131 0.064011
O O8 0.743523 0.223914 0.571930
O O9 0.731416 0.288830 0.220160
O O10 0.947368 0.516199 0.298565
O O11 0.992943 0.221508 0.838596
O O12 0.166325 0.133561 0.057562
O O13 0.094869 0.104302 0.732581
O O14 0.500000 0.000000 0.500000
O O15 0.227357 0.994226 0.368015
O O16 0.467410 0.059895 0.153319
O O17 0.226481 0.739789 0.061862
#
# Coordination Sequence:
#
# PCOD9023874 Si02
#       8
#     2   2   2   2   2   2   2   2
#     4  10  18  31  59  83 112 144 193 247 276 330
#     4  12  16  29  55  88 104 139 190 239 276 316
#     4  10  18  31  54  85 114 144 187 238 292 327
#     4  10  21  33  59  81 118 152 184 240 283 343
#     4  10  21  34  55  79 115 156 187 233 281 349
#     4  10  17  33  54  85 112 145 190 238 289 324
#     4  10  20  37  51  83 118 152 187 226 300 341
#     4  10  17  31  52  81 117 134 189 239 276 332
#
# _framework density 23.934372
#
# number of rings (size 3 to 8) (size 9 to 14) (size 15 to 20)
#    0.000    1.750    6.250    0.750    0.000    1.500 
#    0.000    1.250    5.500    0.750    0.000    0.000 
#    0.000    1.250    0.000    0.000    0.000    0.000 
#
# Total GULP energy -89510.602251 kJ/mol
# GULP energy per Si atom -5594.412641 kJ/mol
# Density = 2.387990 g / cm^3
# Si number density = 23.934372 Si / 1000 Ang^3
#
#
#
# Elastic Constant Matrix: (Units=GPa)
#
#
# Indices 1 2 3 4 5 6 
#
# 1 106.5468 28.2015 11.8803 -13.5901 4.9331 -4.8903
# 2 28.2015 115.2575 27.0705 -36.6483 -16.3803 -1.5235
# 3 11.8803 27.0705 72.9828 -16.9480 -0.7664 -12.3057
# 4 -13.5901 -36.6483 -16.9480 48.9087 4.1383 3.5536
# 5 4.9331 -16.3803 -0.7664 4.1383 28.1037 -9.8994
# 6 -4.8903 -1.5235 -12.3057 3.5536 -9.8994 30.9424
#
#
#
# Elastic Compliance Matrix: (Units=1/GPa)
#
#
# Indices 1 2 3 4 5 6 
#
# 1 0.010428 -0.002584 -0.000513 0.001073 -0.003480 0.000080
# 2 -0.002584 0.013436 -0.002562 0.007795 0.007305 0.000676
# 3 -0.000513 -0.002562 0.016529 0.003144 0.000789 0.006258
# 4 0.001073 0.007795 0.003144 0.027792 -0.000159 -0.001439
# 5 -0.003480 0.007305 0.000789 -0.000159 0.045695 0.014761
# 6 0.000080 0.000676 0.006258 -0.001439 0.014761 0.039740
#
#
# Mechanical properties :
#
#
# Convention : Reuss Voigt Hill
#
# Bulk Modulus (GPa) = 34.39345 47.67687 41.03516
# Shear Modulus (GPa) = 28.63180 36.76661 32.69921
#
# Velocity S-wave (km/s) = 3.46246 3.92362 3.70023
# Velocity P-wave (km/s) = 5.51234 6.36313 5.95295
#
# Compressibility (1/GPa) = 0.02907530
#
# Stress axis : x y z
#
# Youngs Moduli (GPa) = 95.89375 74.42820 60.49903
#
# Poissons Ratio (x) = 0.19229 0.03105
# Poissons Ratio (y) = 0.24775 0.15501
# Poissons Ratio (z) = 0.04921 0.19070
#
# Static dielectric constant tensor:
#      x y z
#    x 1.860130 0.042450 0.012260 
#    y 0.042450 1.911250 -0.010190 
#    z 0.012260 -0.010190 2.008520 
# 
# From -- ./inp_files/185118.got.cif
#   From: 2010.05.17/outbox.cif.g08.bks.cpg/sg2_93_cif.got.tgz:185118.got - 2010.06.03 11:33:40.
