data_PCOD9023271
_publ_section_title
;
Structure prediction by ZEFSAII (Michael W. Deem and Ramdas Pophale) SiO2 
 PCOD9023271
Probable space group: P -1
;
_chemical_formula_sum "Si O2"
_cell_formula_units_Z 16
_cell_length_a 9.327833
_cell_length_b 11.602653
_cell_length_c 7.183976
_cell_angle_alpha 86.314929
_cell_angle_beta 60.494384
_cell_angle_gamma 97.882064
_cell_volume 662.393874
_symmetry_space_group_name_H-M "P -1"
_symmetry_group_IT_number 2
_symmetry_cell_setting 'triclinic'
loop_
_space_group_symop_operation_xyz
x,y,z
-x,-y,-z
loop_
_atom_site_type_symbol
_atom_site_label
_atom_site_fract_x
_atom_site_fract_y
_atom_site_fract_z
Si Si1 0.890507 0.168319 0.575023
Si Si2 0.439832 0.335113 0.027469
Si Si3 0.030464 0.993410 0.759099
Si Si4 0.920440 0.599561 0.351830
Si Si5 0.503412 0.121587 0.892182
Si Si6 0.780447 0.497875 0.810556
Si Si7 0.583329 0.636061 0.395615
Si Si8 0.398311 0.108448 0.569472
O O1 0.692098 0.170732 0.690976
O O2 0.910554 0.062904 0.714635
O O3 0.983487 0.288339 0.602319
O O4 0.963691 0.131074 0.334823
O O5 0.450312 0.203571 0.075869
O O6 0.604783 0.418496 0.994079
O O7 0.459084 0.346052 0.792313
O O8 0.266465 0.374061 0.169148
O O9 0.219571 0.066223 0.594565
O O10 0.000000 0.000000 0.000000
O O11 0.826537 0.497003 0.562435
O O12 0.780984 0.639824 0.308739
O O13 0.067990 0.541387 0.175397
O O14 0.373514 0.108851 0.808505
O O15 0.500000 0.000000 0.000000
O O16 0.500000 0.500000 0.500000
O O17 0.536673 0.749989 0.520947
O O18 0.500000 0.000000 0.500000
#
# Coordination Sequence:
#
# PCOD9023271 Si02
#       8
#     2   2   2   2   2   2   2   2
#     4  11  23  42  69  97 137 181 227 285 345 410
#     4  10  22  41  64  97 134 170 225 286 329 411
#     4  11  24  43  66 100 138 179 228 282 343 409
#     4  11  22  42  68  95 131 177 224 278 354 410
#     4  11  23  41  69  95 134 179 230 276 348 413
#     4  10  22  39  67  95 129 172 223 278 342 405
#     4  11  23  42  69  94 134 178 226 280 343 412
#     4  11  23  42  66  97 134 175 229 286 338 411
#
# _framework density 24.154812
#
# number of rings (size 3 to 8) (size 9 to 14) (size 15 to 20)
#    0.000    1.250    5.000    0.750    0.000    5.500 
#    0.000    0.000    0.000    0.000    0.000    0.000 
#    0.000    0.000    0.000    0.000    0.000    0.000 
#
# Total GULP energy -89222.174509 kJ/mol
# GULP energy per Si atom -5576.385907 kJ/mol
# Density = 2.409983 g / cm^3
# Si number density = 24.154812 Si / 1000 Ang^3
#
#
#
# Elastic Constant Matrix: (Units=GPa)
#
#
# Indices 1 2 3 4 5 6 
#
# 1 120.2365 36.0426 18.6381 16.1265 -21.6547 -6.4149
# 2 36.0426 157.8799 27.6960 21.5642 -35.3804 -15.8743
# 3 18.6381 27.6960 67.4644 20.8048 -2.8384 -1.1116
# 4 16.1265 21.5642 20.8048 35.2276 -9.0656 -11.6601
# 5 -21.6547 -35.3804 -2.8384 -9.0656 31.2780 3.6302
# 6 -6.4149 -15.8743 -1.1116 -11.6601 3.6302 43.7592
#
#
#
# Elastic Compliance Matrix: (Units=1/GPa)
#
#
# Indices 1 2 3 4 5 6 
#
# 1 0.010005 -0.000404 -0.001844 -0.001636 0.005786 0.000357
# 2 -0.000404 0.009466 -0.003192 -0.000434 0.009737 0.002370
# 3 -0.001844 -0.003192 0.019940 -0.011709 -0.006060 -0.003539
# 4 -0.001636 -0.000434 -0.011709 0.041660 0.008260 0.009721
# 5 0.005786 0.009737 -0.006060 0.008260 0.048556 0.002399
# 6 0.000357 0.002370 -0.003539 0.009721 0.002399 0.026066
#
#
# Mechanical properties :
#
#
# Convention : Reuss Voigt Hill
#
# Bulk Modulus (GPa) = 35.05083 56.70382 45.87732
# Shear Modulus (GPa) = 28.39579 39.59991 33.99785
#
# Velocity S-wave (km/s) = 3.43239 4.05337 3.75573
# Velocity P-wave (km/s) = 5.50007 6.74037 6.15156
#
# Compressibility (1/GPa) = 0.02853000
#
# Stress axis : x y z
#
# Youngs Moduli (GPa) = 99.95420 105.64455 50.15062
#
# Poissons Ratio (x) = 0.04273 0.09248
# Poissons Ratio (y) = 0.04043 0.16006
# Poissons Ratio (z) = 0.18432 0.33718
#
# Static dielectric constant tensor:
#      x y z
#    x 1.896950 -0.015580 -0.036890 
#    y -0.015580 2.134930 0.086730 
#    z -0.036890 0.086730 2.023440 
# 
# From -- ./inp_files/187368.got.cif
#   From: 2010.05.17/outbox.cif.g08.bks.cpg/sg2_94_cif.got.tgz:187368.got - 2010.06.03 11:33:40.
