data_PCOD9023072
_publ_section_title
;
Structure prediction by ZEFSAII (Michael W. Deem and Ramdas Pophale) SiO2 
 PCOD9023072
Probable space group: P -1
;
_chemical_formula_sum "Si O2"
_cell_formula_units_Z 14
_cell_length_a 9.108794
_cell_length_b 17.995101
_cell_length_c 11.370646
_cell_angle_alpha 49.047352
_cell_angle_beta 45.137865
_cell_angle_gamma 29.222975
_cell_volume 640.679649
_symmetry_space_group_name_H-M "P -1"
_symmetry_group_IT_number 2
_symmetry_cell_setting 'triclinic'
loop_
_space_group_symop_operation_xyz
x,y,z
-x,-y,-z
loop_
_atom_site_type_symbol
_atom_site_label
_atom_site_fract_x
_atom_site_fract_y
_atom_site_fract_z
Si Si1 0.276423 0.333600 0.958980
Si Si2 0.270262 0.119596 0.110139
Si Si3 0.695328 0.133606 0.157885
Si Si4 0.545865 0.593695 0.424315
Si Si5 0.798276 0.697743 0.521571
Si Si6 0.163463 0.103514 0.806257
Si Si7 0.761743 0.180236 0.433839
O O1 0.446672 0.339485 0.761755
O O2 0.193693 0.263064 0.010761
O O3 0.481033 0.228034 0.065262
O O4 0.000000 0.500000 0.000000
O O5 0.938664 0.181642 0.235356
O O6 0.477414 0.019445 0.214692
O O7 0.500000 0.000000 0.000000
O O8 0.469469 0.203721 0.325247
O O9 0.856651 0.969564 0.210511
O O10 0.947810 0.131911 0.002576
O O11 0.500000 0.500000 0.500000
O O12 0.281996 0.734356 0.516370
O O13 0.890387 0.468449 0.427227
O O14 0.915037 0.761401 0.341376
O O15 0.592943 0.723722 0.505833
O O16 0.000000 0.000000 0.500000
#
# Coordination Sequence:
#
# PCOD9023072 Si02
#       7
#     2   2   2   2   2   2   2
#     4  11  22  43  68  96 137 184 233 289 350 419
#     4  11  23  43  68  98 137 185 236 285 349 424
#     4  10  22  41  66 104 138 186 240 292 354 425
#     4  12  27  46  74 105 144 188 238 297 358 432
#     4  12  24  44  72 103 147 179 243 296 364 414
#     4  10  22  39  66 101 139 182 238 293 350 421
#     4  12  26  46  71 106 142 189 237 291 363 424
#
# _framework density 21.851796
#
# number of rings (size 3 to 8) (size 9 to 14) (size 15 to 20)
#    0.000    0.857    2.857    4.286    2.000    3.429 
#    0.000    0.714    0.000    0.000    0.000    0.000 
#    0.000    0.000    0.000    0.000    0.000    0.000 
#
# Total GULP energy -78183.508079 kJ/mol
# GULP energy per Si atom -5584.536291 kJ/mol
# Density = 2.180206 g / cm^3
# Si number density = 21.851796 Si / 1000 Ang^3
#
#
#
# Elastic Constant Matrix: (Units=GPa)
#
#
# Indices 1 2 3 4 5 6 
#
# 1 92.0451 54.0204 42.3248 -3.8347 -8.8425 18.5208
# 2 54.0204 92.9479 16.3995 9.6298 0.8516 28.3354
# 3 42.3248 16.3995 108.9058 -0.0386 -8.6585 36.9708
# 4 -3.8347 9.6298 -0.0386 42.1253 6.5642 6.3081
# 5 -8.8425 0.8516 -8.6585 6.5642 40.0377 5.0570
# 6 18.5208 28.3354 36.9708 6.3081 5.0570 47.4828
#
#
#
# Elastic Compliance Matrix: (Units=1/GPa)
#
#
# Indices 1 2 3 4 5 6 
#
# 1 0.021490 -0.012966 -0.007831 0.003880 0.002097 0.004714
# 2 -0.012966 0.021243 0.005766 -0.004318 0.000098 -0.011546
# 3 -0.007831 0.005766 0.016115 -0.000566 0.003395 -0.013220
# 4 0.003880 -0.004318 -0.000566 0.025815 -0.003206 -0.001585
# 5 0.002097 0.000098 0.003395 -0.003206 0.027457 -0.006018
# 6 0.004714 -0.011546 -0.013220 -0.001585 -0.006018 0.037256
#
#
# Mechanical properties :
#
#
# Convention : Reuss Voigt Hill
#
# Bulk Modulus (GPa) = 34.74071 57.70981 46.22526
# Shear Modulus (GPa) = 26.45009 38.00611 32.22810
#
# Velocity S-wave (km/s) = 3.48290 4.17498 3.84454
# Velocity P-wave (km/s) = 5.66630 7.05036 6.39588
#
# Compressibility (1/GPa) = 0.02878467
#
# Stress axis : x y z
#
# Youngs Moduli (GPa) = 46.53427 47.07356 62.05309
#
# Poissons Ratio (x) = 0.61036 0.48597
# Poissons Ratio (y) = 0.60337 -0.35779
# Poissons Ratio (z) = 0.36443 -0.27142
#
# Static dielectric constant tensor:
#      x y z
#    x 1.988520 0.099600 -0.028220 
#    y 0.099600 1.923100 0.010220 
#    z -0.028220 0.010220 1.795310 
# 
# From -- ./inp_files/157903.got.cif
#   From: 2010.05.17/outbox.cif.g08.bks.cpg/sg2_79_cif.got.tgz:157903.got - 2010.06.03 11:33:40.
