data_PCOD9023648
_publ_section_title
;
Structure prediction by ZEFSAII (Michael W. Deem and Ramdas Pophale) SiO2 
 PCOD9023648
Probable space group: P -1
;
_chemical_formula_sum "Si O2"
_cell_formula_units_Z 16
_cell_length_a 11.761240
_cell_length_b 9.696451
_cell_length_c 14.401554
_cell_angle_alpha 96.740996
_cell_angle_beta 28.456441
_cell_angle_gamma 87.518966
_cell_volume 738.993821
_symmetry_space_group_name_H-M "P -1"
_symmetry_group_IT_number 2
_symmetry_cell_setting 'triclinic'
loop_
_space_group_symop_operation_xyz
x,y,z
-x,-y,-z
loop_
_atom_site_type_symbol
_atom_site_label
_atom_site_fract_x
_atom_site_fract_y
_atom_site_fract_z
Si Si1 0.727910 0.380343 0.878358
Si Si2 0.925197 0.293006 0.263933
Si Si3 0.462510 0.854319 0.972779
Si Si4 0.626636 0.630040 0.328381
Si Si5 0.189175 0.960100 0.989169
Si Si6 0.854837 0.485560 0.972576
Si Si7 0.311104 0.076258 0.722664
Si Si8 0.044757 0.420855 0.363305
O O1 0.702337 0.414180 0.008372
O O2 0.950770 0.439816 0.691733
O O3 0.500000 0.500000 0.000000
O O4 0.740778 0.214281 0.838978
O O5 0.642362 0.352676 0.433317
O O6 0.036669 0.121435 0.151438
O O7 0.115602 0.367484 0.084733
O O8 0.893538 0.342058 0.399026
O O9 0.709184 0.718030 0.804181
O O10 0.500000 0.000000 0.000000
O O11 0.377744 0.883989 0.929366
O O12 0.854100 0.608319 0.234575
O O13 0.613659 0.780417 0.298050
O O14 0.728928 0.509056 0.165868
O O15 0.973764 0.889416 0.108546
O O16 0.322152 0.982097 0.799960
O O17 0.500000 0.000000 0.500000
O O18 0.000000 0.500000 0.500000
#
# Coordination Sequence:
#
# PCOD9023648 Si02
#       8
#     2   2   2   2   2   2   2   2
#     4   9  21  40  66  88 128 172 210 261 334 384
#     4  11  21  40  64  91 129 167 217 272 327 394
#     4  11  22  43  68  96 128 172 221 270 331 402
#     4  11  22  37  64  90 123 165 218 266 322 385
#     4  11  23  42  64  91 132 175 213 272 337 391
#     4  10  22  40  59  93 124 166 217 268 320 387
#     4  11  23  42  62  89 131 172 216 267 331 399
#     4  10  23  44  64  97 132 171 219 275 329 394
#
# _framework density 21.651060999999999
#
# number of rings (size 3 to 8) (size 9 to 14) (size 15 to 20)
#    0.000    1.500    3.750    1.125    3.500    0.000 
#    6.750    0.625    0.000    0.000    0.000    0.000 
#    0.000    0.000    0.000    0.000    0.000    0.000 
#
# Total GULP energy -89122.763194 kJ/mol
# GULP energy per Si atom -5570.172700 kJ/mol
# Density = 2.160178 g / cm^3
# Si number density = 21.651061 Si / 1000 Ang^3
#
#
#
# Elastic Constant Matrix: (Units=GPa)
#
#
# Indices 1 2 3 4 5 6 
#
# 1 114.5258 27.1623 18.3542 -1.7677 2.8214 -8.1059
# 2 27.1623 116.7152 16.9946 -4.1062 2.5985 14.5954
# 3 18.3542 16.9946 48.7963 6.2297 7.9117 5.5614
# 4 -1.7677 -4.1062 6.2297 21.3721 -1.4616 -2.7610
# 5 2.8214 2.5985 7.9117 -1.4616 32.6540 6.1865
# 6 -8.1059 14.5954 5.5614 -2.7610 6.1865 34.0316
#
#
#
# Elastic Compliance Matrix: (Units=1/GPa)
#
#
# Indices 1 2 3 4 5 6 
#
# 1 0.010215 -0.002291 -0.003702 0.002001 -0.000524 0.004278
# 2 -0.002291 0.010078 -0.002545 0.001977 0.000947 -0.004464
# 3 -0.003702 -0.002545 0.025194 -0.008975 -0.005287 -0.003674
# 4 0.002001 0.001977 -0.008975 0.050771 0.003241 0.004625
# 5 -0.000524 0.000947 -0.005287 0.003241 0.033045 -0.005411
# 6 0.004278 -0.004464 -0.003674 0.004625 -0.005411 0.034277
#
#
# Mechanical properties :
#
#
# Convention : Reuss Voigt Hill
#
# Bulk Modulus (GPa) = 35.19889 45.00660 40.10275
# Shear Modulus (GPa) = 26.29792 32.11329 29.20560
#
# Velocity S-wave (km/s) = 3.48893 3.85544 3.67675
# Velocity P-wave (km/s) = 5.70288 6.37586 6.04873
#
# Compressibility (1/GPa) = 0.02840998
#
# Stress axis : x y z
#
# Youngs Moduli (GPa) = 97.89523 99.22228 39.69127
#
# Poissons Ratio (x) = 0.22733 0.14695
# Poissons Ratio (y) = 0.22429 0.10103
# Poissons Ratio (z) = 0.36244 0.25256
#
# Static dielectric constant tensor:
#      x y z
#    x 1.949010 0.066440 -0.000360 
#    y 0.066440 1.868610 -0.045320 
#    z -0.000360 -0.045320 1.894760 
# 
# From -- ./inp_files/515599.got.cif
#   From: 2010.05.17/outbox.cif.g08.bks.cpg/sg2_258_cif.got.tgz:515599.got - 2010.06.03 11:33:40.
