data_PCOD9023725
_publ_section_title
;
Structure prediction by ZEFSAII (Michael W. Deem and Ramdas Pophale) SiO2 
 PCOD9023725
Probable space group: P -1
;
_chemical_formula_sum "Si O2"
_cell_formula_units_Z 14
_cell_length_a 7.137674
_cell_length_b 7.086931
_cell_length_c 21.220844
_cell_angle_alpha 119.265723
_cell_angle_beta 60.818120
_cell_angle_gamma 137.780858
_cell_volume 614.649397
_symmetry_space_group_name_H-M "P -1"
_symmetry_group_IT_number 2
_symmetry_cell_setting 'triclinic'
loop_
_space_group_symop_operation_xyz
x,y,z
-x,-y,-z
loop_
_atom_site_type_symbol
_atom_site_label
_atom_site_fract_x
_atom_site_fract_y
_atom_site_fract_z
Si Si1 0.830557 0.666106 0.983320
Si Si2 0.728516 0.708527 0.639519
Si Si3 0.744930 0.319997 0.826756
Si Si4 0.308058 0.207572 0.207203
Si Si5 0.830062 0.664350 0.485770
Si Si6 0.069148 0.375948 0.668216
Si Si7 0.217598 0.263481 0.863696
O O1 0.892475 0.533382 0.897392
O O2 0.500000 0.500000 0.000000
O O3 0.861442 0.639017 0.047883
O O4 0.000000 0.000000 0.000000
O O5 0.837912 0.621561 0.552261
O O6 0.389531 0.520517 0.657882
O O7 0.783122 0.708655 0.704225
O O8 0.876425 0.034355 0.651804
O O9 0.676719 0.028950 0.809759
O O10 0.450082 0.243600 0.845876
O O11 0.941632 0.451401 0.753497
O O12 0.064316 0.035655 0.165991
O O13 0.607316 0.488886 0.177165
O O14 0.500000 0.500000 0.500000
O O15 0.925356 0.567542 0.398206
O O16 0.000000 0.000000 0.500000
#
# Coordination Sequence:
#
# PCOD9023725 Si02
#       7
#     2   2   2   2   2   2   2
#     4  10  22  40  61  85 116 154 192 239 296 342
#     4   9  17  31  51  81 116 145 186 236 279 338
#     4  10  23  41  63  85 120 153 194 249 286 344
#     4  11  23  38  61  89 115 155 199 235 292 348
#     4   8  14  26  47  77 110 142 183 230 276 336
#     4   9  17  30  54  82 107 149 192 227 287 340
#     4  11  24  40  59  87 119 153 196 242 293 346
#
# _framework density 22.777215999999999
#
# number of rings (size 3 to 8) (size 9 to 14) (size 15 to 20)
#    0.000    2.286    0.000    3.429    0.000   11.429 
#    0.000    0.000    0.000    1.714    0.000    0.000 
#    0.000    0.000    0.000    0.000    0.000    0.000 
#
# Total GULP energy -78157.366641 kJ/mol
# GULP energy per Si atom -5582.669046 kJ/mol
# Density = 2.272537 g / cm^3
# Si number density = 22.777216 Si / 1000 Ang^3
#
#
#
# Elastic Constant Matrix: (Units=GPa)
#
#
# Indices 1 2 3 4 5 6 
#
# 1 53.5924 0.1939 28.3096 5.3509 -5.1175 3.7288
# 2 0.1939 122.9609 7.9116 -0.6702 -9.2451 21.1643
# 3 28.3096 7.9116 231.3519 -13.6035 27.6124 -4.4355
# 4 5.3509 -0.6702 -13.6035 32.2049 -0.3504 8.4461
# 5 -5.1175 -9.2451 27.6124 -0.3504 40.8270 1.2442
# 6 3.7288 21.1643 -4.4355 8.4461 1.2442 37.1467
#
#
#
# Elastic Compliance Matrix: (Units=1/GPa)
#
#
# Indices 1 2 3 4 5 6 
#
# 1 0.021710 0.000990 -0.003647 -0.004452 0.005446 -0.002349
# 2 0.000990 0.009449 -0.000845 0.001275 0.003028 -0.005975
# 3 -0.003647 -0.000845 0.005492 0.002582 -0.004373 0.001063
# 4 -0.004452 0.001275 0.002582 0.034956 -0.001476 -0.007870
# 5 0.005446 0.003028 -0.004373 -0.001476 0.028911 -0.003427
# 6 -0.002349 -0.005975 0.001063 -0.007870 -0.003427 0.032591
#
#
# Mechanical properties :
#
#
# Convention : Reuss Voigt Hill
#
# Bulk Modulus (GPa) = 33.73196 53.41504 43.57350
# Shear Modulus (GPa) = 33.33418 46.80172 40.06795
#
# Velocity S-wave (km/s) = 3.82971 4.53786 4.19874
# Velocity P-wave (km/s) = 5.86491 7.13851 6.53282
#
# Compressibility (1/GPa) = 0.02964548
#
# Stress axis : x y z
#
# Youngs Moduli (GPa) = 46.06114 105.83616 182.09177
#
# Poissons Ratio (x) = -0.10477 0.66412
# Poissons Ratio (y) = -0.04560 0.15392
# Poissons Ratio (z) = 0.16799 0.08946
#
# Static dielectric constant tensor:
#      x y z
#    x 1.853450 -0.035440 0.044570 
#    y -0.035440 1.751190 0.003300 
#    z 0.044570 0.003300 1.945070 
# 
# From -- ./inp_files/606465.got.cif
#   From: 2010.05.17/outbox.cif.g08.bks.cpg/sg2_304_cif.got.tgz:606465.got - 2010.06.03 11:33:40.
