data_PCOD9023163
_publ_section_title
;
Structure prediction by ZEFSAII (Michael W. Deem and Ramdas Pophale) SiO2 
 PCOD9023163
Probable space group: P -1
;
_chemical_formula_sum "Si O2"
_cell_formula_units_Z 16
_cell_length_a 12.208800
_cell_length_b 9.270632
_cell_length_c 14.971235
_cell_angle_alpha 47.125275
_cell_angle_beta 125.816399
_cell_angle_gamma 142.291284
_cell_volume 755.372322
_symmetry_space_group_name_H-M "P -1"
_symmetry_group_IT_number 2
_symmetry_cell_setting 'triclinic'
loop_
_space_group_symop_operation_xyz
x,y,z
-x,-y,-z
loop_
_atom_site_type_symbol
_atom_site_label
_atom_site_fract_x
_atom_site_fract_y
_atom_site_fract_z
Si Si1 0.363060 0.597040 0.949703
Si Si2 0.706898 0.202415 0.886069
Si Si3 0.287548 0.423270 0.802494
Si Si4 0.058327 0.632520 0.759050
Si Si5 0.019784 0.565897 0.376629
Si Si6 0.868293 0.074527 0.162044
Si Si7 0.408543 0.082142 0.364285
Si Si8 0.288182 0.389579 0.198869
O O1 0.328971 0.414776 0.928145
O O2 0.199942 0.595082 0.861083
O O3 0.545172 0.902785 0.907182
O O4 0.343120 0.471971 0.087394
O O5 0.864486 0.382088 0.812770
O O6 0.637696 0.352632 0.818411
O O7 0.804371 0.201924 0.020386
O O8 0.445790 0.718896 0.723229
O O9 0.102776 0.363931 0.731129
O O10 0.265655 0.223349 0.808685
O O11 0.041971 0.648832 0.638058
O O12 0.126186 0.874550 0.752085
O O13 0.000000 0.500000 0.500000
O O14 0.225034 0.817839 0.350703
O O15 0.071696 0.207100 0.178171
O O16 0.352599 0.233436 0.322709
O O17 0.500000 0.000000 0.500000
#
# Coordination Sequence:
#
# PCOD9023163 Si02
#       8
#     2   2   2   2   2   2   2   2
#     4  11  22  38  64 103 133 172 211 260 326 394
#     4  11  21  39  64  97 142 169 205 261 328 394
#     4  11  25  40  67  98 131 170 219 265 327 383
#     4  10  22  39  66  96 132 170 210 260 330 388
#     4  11  23  46  69  89 124 172 222 277 316 373
#     4  11  21  41  65  99 136 173 205 261 329 397
#     4  12  25  43  67  90 124 173 221 269 318 373
#     4  11  22  39  65  96 132 173 212 263 324 385
#
# _framework density 21.181608000000001
#
# number of rings (size 3 to 8) (size 9 to 14) (size 15 to 20)
#    0.000    1.000    5.000    2.625    1.750    3.500 
#    0.000    0.625    0.000    7.500    0.000    0.000 
#    0.000    0.000    0.000    0.000    0.000    0.000 
#
# Total GULP energy -89387.315503 kJ/mol
# GULP energy per Si atom -5586.707219 kJ/mol
# Density = 2.113340 g / cm^3
# Si number density = 21.181608 Si / 1000 Ang^3
#
#
#
# Elastic Constant Matrix: (Units=GPa)
#
#
# Indices 1 2 3 4 5 6 
#
# 1 76.8391 57.4909 48.9498 22.2561 1.9849 -17.8581
# 2 57.4909 121.6152 46.1849 15.7732 -11.7988 -24.4916
# 3 48.9498 46.1849 85.8059 20.8737 9.0107 -12.4275
# 4 22.2561 15.7732 20.8737 23.5392 -2.9880 -2.3445
# 5 1.9849 -11.7988 9.0107 -2.9880 47.1730 8.6791
# 6 -17.8581 -24.4916 -12.4275 -2.3445 8.6791 41.5644
#
#
#
# Elastic Compliance Matrix: (Units=1/GPa)
#
#
# Indices 1 2 3 4 5 6 
#
# 1 0.030393 -0.008686 -0.007460 -0.016258 -0.004095 0.005648
# 2 -0.008686 0.014280 -0.003333 0.002424 0.004185 0.002949
# 3 -0.007460 -0.003333 0.020890 -0.009762 -0.005434 0.001661
# 4 -0.016258 0.002424 -0.009762 0.065311 0.008500 -0.006566
# 5 -0.004095 0.004185 -0.005434 0.008500 0.025037 -0.005667
# 6 0.005648 0.002949 0.001661 -0.006566 -0.005667 0.029533
#
#
# Mechanical properties :
#
#
# Convention : Reuss Voigt Hill
#
# Bulk Modulus (GPa) = 37.58781 65.50126 51.54453
# Shear Modulus (GPa) = 21.43449 31.23096 26.33273
#
# Velocity S-wave (km/s) = 3.18455 3.84401 3.52971
# Velocity P-wave (km/s) = 5.59516 7.11988 6.40306
#
# Compressibility (1/GPa) = 0.02660437
#
# Stress axis : x y z
#
# Youngs Moduli (GPa) = 32.90280 70.02833 47.86973
#
# Poissons Ratio (x) = 0.60824 0.35711
# Poissons Ratio (y) = 0.28578 0.15957
# Poissons Ratio (z) = 0.24546 0.23343
#
# Static dielectric constant tensor:
#      x y z
#    x 1.835930 -0.018750 0.005950 
#    y -0.018750 1.782850 0.003870 
#    z 0.005950 0.003870 1.756060 
# 
# From -- ./inp_files/271964.got.cif
#   From: 2010.05.17/outbox.cif.g08.bks.cpg/sg2_136_cif.got.tgz:271964.got - 2010.06.03 11:33:40.
