data_PCOD9023888
_publ_section_title
;
Structure prediction by ZEFSAII (Michael W. Deem and Ramdas Pophale) SiO2 
 PCOD9023888
Probable space group: P -1
;
_chemical_formula_sum "Si O2"
_cell_formula_units_Z 12
_cell_length_a 7.511918
_cell_length_b 24.246582
_cell_length_c 23.499721
_cell_angle_alpha 11.829602
_cell_angle_beta 142.787315
_cell_angle_gamma 141.592635
_cell_volume 530.364575
_symmetry_space_group_name_H-M "P -1"
_symmetry_group_IT_number 2
_symmetry_cell_setting 'triclinic'
loop_
_space_group_symop_operation_xyz
x,y,z
-x,-y,-z
loop_
_atom_site_type_symbol
_atom_site_label
_atom_site_fract_x
_atom_site_fract_y
_atom_site_fract_z
Si Si1 0.363628 0.249462 0.311383
Si Si2 0.071648 0.933291 0.150507
Si Si3 0.930197 0.249517 0.308824
Si Si4 0.249928 0.011394 0.738892
Si Si5 0.016366 0.466508 0.285361
Si Si6 0.834876 0.411488 0.671887
O O1 0.182770 0.248748 0.325337
O O2 0.692168 0.353234 0.301497
O O3 0.327336 0.954819 0.572862
O O4 0.197807 0.455384 0.020165
O O5 0.412484 0.008670 0.172828
O O6 0.006156 0.621565 0.461947
O O7 0.875012 0.114058 0.958677
O O8 0.000000 0.000000 0.000000
O O9 0.065529 0.142231 0.509230
O O10 0.230658 0.222256 0.573151
O O11 0.116428 0.723972 0.013767
O O12 0.031396 0.554057 0.266102
O O13 0.500000 0.500000 0.500000
#
# Coordination Sequence:
#
# PCOD9023888 Si02
#       6
#     2   2   2   2   2   2
#     4  10  22  40  62  89 125 169 214 260 314 372
#     4  12  25  45  70  96 129 166 210 260 317 378
#     4  10  22  40  62  89 125 169 214 260 314 372
#     4  12  25  41  64  96 131 167 212 261 316 376
#     4  12  25  41  64  96 131 167 212 261 316 376
#     4  12  25  45  70  96 129 166 210 260 317 378
#
# _framework density 22.625945999999999
#
# number of rings (size 3 to 8) (size 9 to 14) (size 15 to 20)
#    0.000    0.667    0.000    8.000    0.000    8.000 
#    0.000    0.000    0.000    0.000    0.000    0.000 
#    0.000    0.000    0.000    0.000    0.000    0.000 
#
# Total GULP energy -67282.690813 kJ/mol
# GULP energy per Si atom -5606.890901 kJ/mol
# Density = 2.257445 g / cm^3
# Si number density = 22.625946 Si / 1000 Ang^3
#
#
#
# Elastic Constant Matrix: (Units=GPa)
#
#
# Indices 1 2 3 4 5 6 
#
# 1 61.0549 31.5247 8.5927 2.7862 -6.0510 12.1450
# 2 31.5247 77.8205 -5.1241 11.4911 -14.4383 3.7685
# 3 8.5927 -5.1241 77.9978 -16.4734 -7.0688 8.2343
# 4 2.7862 11.4911 -16.4734 30.4650 -1.3621 1.9058
# 5 -6.0510 -14.4383 -7.0688 -1.3621 53.4351 -10.0757
# 6 12.1450 3.7685 8.2343 1.9058 -10.0757 32.5146
#
#
#
# Elastic Compliance Matrix: (Units=1/GPa)
#
#
# Indices 1 2 3 4 5 6 
#
# 1 0.022880 -0.009460 -0.002392 0.000571 -0.001661 -0.007392
# 2 -0.009460 0.018232 0.001219 -0.005330 0.004407 0.002790
# 3 -0.002392 0.001219 0.015416 0.008366 0.001725 -0.003108
# 4 0.000571 -0.005330 0.008366 0.039559 -0.000022 -0.004040
# 5 -0.001661 0.004407 0.001725 -0.000022 0.021117 0.006218
# 6 -0.007392 0.002790 -0.003108 -0.004040 0.006218 0.036144
#
#
# Mechanical properties :
#
#
# Convention : Reuss Voigt Hill
#
# Bulk Modulus (GPa) = 28.35920 31.87330 30.11625
# Shear Modulus (GPa) = 26.82871 35.40827 31.11849
#
# Velocity S-wave (km/s) = 3.44721 3.96022 3.71259
# Velocity P-wave (km/s) = 5.32968 5.91851 5.63180
#
# Compressibility (1/GPa) = 0.03526192
#
# Stress axis : x y z
#
# Youngs Moduli (GPa) = 43.70660 54.84776 64.86814
#
# Poissons Ratio (x) = 0.51889 0.15514
# Poissons Ratio (y) = 0.41349 -0.07908
# Poissons Ratio (z) = 0.10453 -0.06687
#
# Static dielectric constant tensor:
#      x y z
#    x 1.843500 -0.006500 0.012860 
#    y -0.006500 1.793650 0.001590 
#    z 0.012860 0.001590 1.784580 
# 
# From -- ./inp_files/128947.got.cif
#   From: 2010.05.17/outbox.cif.g08.bks.cpg/sg2_65_cif.got.tgz:128947.got - 2010.06.03 11:33:40.
