data_PCOD9023900
_publ_section_title
;
Structure prediction by ZEFSAII (Michael W. Deem and Ramdas Pophale) SiO2 
 PCOD9023900
Probable space group: P -1
;
_chemical_formula_sum "Si O2"
_cell_formula_units_Z 11
_cell_length_a 12.216166
_cell_length_b 9.296532
_cell_length_c 11.793217
_cell_angle_alpha 46.203241
_cell_angle_beta 34.920837
_cell_angle_gamma 36.588126
_cell_volume 454.754467
_symmetry_space_group_name_H-M "P -1"
_symmetry_group_IT_number 2
_symmetry_cell_setting 'triclinic'
loop_
_space_group_symop_operation_xyz
x,y,z
-x,-y,-z
loop_
_atom_site_type_symbol
_atom_site_label
_atom_site_fract_x
_atom_site_fract_y
_atom_site_fract_z
Si Si1 0.792390 0.401635 0.914149
Si Si2 0.218849 0.856061 0.616799
Si Si3 0.000000 0.000000 0.500000
Si Si4 0.393997 0.498015 0.349197
Si Si5 0.836037 0.924149 0.045078
Si Si6 0.670962 0.792546 0.621175
O O1 0.800943 0.171403 0.984540
O O2 0.788280 0.571035 0.730055
O O3 0.545694 0.551917 0.108630
O O4 0.999588 0.290401 0.889605
O O5 0.443044 0.631056 0.609455
O O6 0.192880 0.084165 0.576670
O O7 0.215914 0.890054 0.467909
O O8 0.990529 0.855723 0.837916
O O9 0.855218 0.262037 0.546489
O O10 0.372212 0.302918 0.405346
O O11 0.576698 0.996164 0.227517
#
# Coordination Sequence:
#
# PCOD9023900 Si02
#       6
#     2   2   1   2   2   2
#     4   9  18  35  60  90 121 154 195 246 306 355
#     4  11  24  40  63  92 120 158 203 246 300 356
#     4  12  24  40  60  84 128 170 196 238 296 362
#     4  10  22  40  62  90 123 159 200 246 299 358
#     4   9  19  37  58  87 126 154 188 254 305 342
#     4  11  21  38  67  96 116 148 205 257 297 351
#
# _framework density 24.188877999999999
#
# number of rings (size 3 to 8) (size 9 to 14) (size 15 to 20)
#    0.000    1.818    0.000    6.545    0.000    4.364 
#    0.000    3.636    0.000    8.727    0.000    0.000 
#    0.000    0.000    0.000    0.000    0.000    0.000 
#
# Total GULP energy -61311.163984 kJ/mol
# GULP energy per Si atom -5573.742180 kJ/mol
# Density = 2.413382 g / cm^3
# Si number density = 24.188878 Si / 1000 Ang^3
#
#
#
# Elastic Constant Matrix: (Units=GPa)
#
#
# Indices 1 2 3 4 5 6 
#
# 1 92.6750 24.4352 3.2651 -5.8743 1.6522 -15.7517
# 2 24.4352 116.4476 23.7935 15.5650 -0.2766 -20.5876
# 3 3.2651 23.7935 64.9336 -9.4283 -25.9688 -7.1484
# 4 -5.8743 15.5650 -9.4283 10.9344 -20.6323 6.2068
# 5 1.6522 -0.2766 -25.9688 -20.6323 8.6776 -0.8623
# 6 -15.7517 -20.5876 -7.1484 6.2068 -0.8623 30.4871
#
#
#
# Elastic Compliance Matrix: (Units=1/GPa)
#
#
# Indices 1 2 3 4 5 6 
#
# 1 0.012139 -0.001615 -0.000547 0.000306 -0.002784 0.004912
# 2 -0.001615 0.009443 0.001382 0.001824 0.009654 0.005768
# 3 -0.000547 0.001382 0.009286 -0.016133 -0.009840 0.005834
# 4 0.000306 0.001824 -0.016133 0.004113 -0.038930 -0.004331
# 5 -0.002784 0.009654 -0.009840 -0.038930 -0.004882 0.010561
# 6 0.004912 0.005768 0.005834 -0.004331 0.010561 0.041782
#
#
# Mechanical properties :
#
#
# Convention : Reuss Voigt Hill
#
# Bulk Modulus (GPa) = 34.11961 41.89375 38.00668
# Shear Modulus (GPa) = 60.08855 24.85733 42.47294
#
# Velocity S-wave (km/s) = 4.98952 3.20915 4.19488
# Velocity P-wave (km/s) = 6.87967 5.57571 6.26173
#
# Compressibility (1/GPa) = 0.02930866
#
# Stress axis : x y z
#
# Youngs Moduli (GPa) = 82.37682 105.89972 107.68807
#
# Poissons Ratio (x) = 0.17098 0.05891
# Poissons Ratio (y) = 0.13300 -0.14880
# Poissons Ratio (z) = 0.04507 -0.14633
#
# Static dielectric constant tensor:
#      x y z
#    x 1.895380 0.041970 0.016970 
#    y 0.041970 1.867430 0.080620 
#    z 0.016970 0.080620 1.980020 
# 
# From -- ./inp_files/183432.got.cif
#   From: 2010.05.17/outbox.cif.g08.bks.cpg/sg2_92_cif.got.tgz:183432.got - 2010.06.03 11:33:40.
