data_PCOD9023663
_publ_section_title
;
Structure prediction by ZEFSAII (Michael W. Deem and Ramdas Pophale) SiO2 
 PCOD9023663
Probable space group: P -1
;
_chemical_formula_sum "Si O2"
_cell_formula_units_Z 14
_cell_length_a 5.441676
_cell_length_b 22.867543
_cell_length_c 5.522019
_cell_angle_alpha 67.051950
_cell_angle_beta 103.827506
_cell_angle_gamma 77.493120
_cell_volume 576.386828
_symmetry_space_group_name_H-M "P -1"
_symmetry_group_IT_number 2
_symmetry_cell_setting 'triclinic'
loop_
_space_group_symop_operation_xyz
x,y,z
-x,-y,-z
loop_
_atom_site_type_symbol
_atom_site_label
_atom_site_fract_x
_atom_site_fract_y
_atom_site_fract_z
Si Si1 0.855559 0.060937 0.186845
Si Si2 0.154505 0.330197 0.453931
Si Si3 0.025771 0.443661 0.898259
Si Si4 0.372135 0.430486 0.610861
Si Si5 0.739986 0.299830 0.708522
Si Si6 0.752438 0.891990 0.079367
Si Si7 0.981439 0.827437 0.745538
O O1 0.827813 0.128825 0.224766
O O2 0.951100 0.934022 0.997650
O O3 0.560403 0.063974 0.038751
O O4 0.000000 0.000000 0.500000
O O5 0.169566 0.389056 0.549525
O O6 0.472156 0.287267 0.565549
O O7 0.973247 0.291618 0.584464
O O8 0.025860 0.373867 0.118900
O O9 0.767798 0.490456 0.610085
O O10 0.327688 0.428166 0.889065
O O11 0.000000 0.500000 0.000000
O O12 0.629577 0.378772 0.628561
O O13 0.853957 0.251003 0.041203
O O14 0.848818 0.849164 0.417614
O O15 0.785056 0.850621 0.898430
#
# Coordination Sequence:
#
# PCOD9023663 Si02
#       7
#     2   2   2   2   2   2   2
#     4  10  24  45  72 105 137 180 225 277 332 394
#     4   9  21  38  56  86 111 159 205 258 320 380
#     4   9  16  38  59  84 116 150 203 264 319 382
#     4   8  19  36  57  86 113 155 202 261 322 381
#     4  10  22  40  60  85 123 163 214 258 323 390
#     4  10  25  41  70  99 138 178 221 278 330 394
#     4  10  26  44  67 100 140 180 227 275 334 397
#
# _framework density 24.289247
#
# number of rings (size 3 to 8) (size 9 to 14) (size 15 to 20)
#    1.714    0.857    0.000    0.429    4.000    2.857 
#    5.143    3.571    0.000    0.000    0.000    0.000 
#    0.000    0.000    0.000    0.000    0.000    0.000 
#
# Total GULP energy -77938.504467 kJ/mol
# GULP energy per Si atom -5567.036033 kJ/mol
# Density = 2.423396 g / cm^3
# Si number density = 24.289247 Si / 1000 Ang^3
#
#
#
# Elastic Constant Matrix: (Units=GPa)
#
#
# Indices 1 2 3 4 5 6 
#
# 1 166.3101 22.1679 83.9500 -19.4363 11.0891 -12.8386
# 2 22.1679 60.7784 22.1213 -11.3234 -0.9990 10.1077
# 3 83.9500 22.1213 173.6477 -29.2985 -19.5653 -4.3077
# 4 -19.4363 -11.3234 -29.2985 39.3647 4.7100 -3.7772
# 5 11.0891 -0.9990 -19.5653 4.7100 26.3211 -3.6020
# 6 -12.8386 10.1077 -4.3077 -3.7772 -3.6020 9.8594
#
#
#
# Elastic Compliance Matrix: (Units=1/GPa)
#
#
# Indices 1 2 3 4 5 6 
#
# 1 0.010878 -0.004442 -0.004544 0.002981 -0.006543 0.015485
# 2 -0.004442 0.024270 -0.002027 0.000549 -0.003264 -0.032533
# 3 -0.004544 -0.002027 0.010100 0.004104 0.009373 0.005571
# 4 0.002981 0.000549 0.004104 0.031886 -0.001599 0.016744
# 5 -0.006543 -0.003264 0.009373 -0.001599 0.050155 0.016633
# 6 0.015485 -0.032533 0.005571 0.016744 0.016633 0.169869
#
#
# Mechanical properties :
#
#
# Convention : Reuss Voigt Hill
#
# Bulk Modulus (GPa) = 43.05743 73.02384 58.04064
# Shear Modulus (GPa) = 15.29413 33.27549 24.28481
#
# Velocity S-wave (km/s) = 2.51204 3.70532 3.16542
# Velocity P-wave (km/s) = 5.11656 6.95956 6.10797
#
# Compressibility (1/GPa) = 0.02322479
#
# Stress axis : x y z
#
# Youngs Moduli (GPa) = 91.92503 41.20355 99.00650
#
# Poissons Ratio (x) = 0.18301 0.44984
# Poissons Ratio (y) = 0.40829 0.20067
# Poissons Ratio (z) = 0.41767 0.08351
#
# Static dielectric constant tensor:
#      x y z
#    x 2.146710 0.040180 0.031700 
#    y 0.040180 1.994750 0.085220 
#    z 0.031700 0.085220 2.071600 
# 
# From -- ./inp_files/13886.got.cif
#   From: 2010.05.17/outbox.cif.g08.bks.cpg/sg2_7_cif.got.tgz:13886.got - 2010.06.03 11:33:40.
