data_PCOD9023439
_publ_section_title
;
Structure prediction by ZEFSAII (Michael W. Deem and Ramdas Pophale) SiO2 
 PCOD9023439
Probable space group: P -1
;
_chemical_formula_sum "Si O2"
_cell_formula_units_Z 16
_cell_length_a 11.512329
_cell_length_b 5.669104
_cell_length_c 14.775492
_cell_angle_alpha 83.873524
_cell_angle_beta 55.719328
_cell_angle_gamma 59.999133
_cell_volume 669.115218
_symmetry_space_group_name_H-M "P -1"
_symmetry_group_IT_number 2
_symmetry_cell_setting 'triclinic'
loop_
_space_group_symop_operation_xyz
x,y,z
-x,-y,-z
loop_
_atom_site_type_symbol
_atom_site_label
_atom_site_fract_x
_atom_site_fract_y
_atom_site_fract_z
Si Si1 0.813216 0.644103 0.112739
Si Si2 0.424180 0.594091 0.208710
Si Si3 0.221874 0.791729 0.608557
Si Si4 0.639814 0.726344 0.003539
Si Si5 0.886944 0.333638 0.763655
Si Si6 0.095611 0.543162 0.562506
Si Si7 0.310162 0.782477 0.759476
Si Si8 0.221245 0.063872 0.407353
O O1 0.697506 0.792473 0.069127
O O2 0.772456 0.406324 0.172854
O O3 0.784930 0.887888 0.185172
O O4 0.000000 0.500000 0.000000
O O5 0.553752 0.558635 0.077631
O O6 0.265649 0.627132 0.229108
O O7 0.522568 0.357920 0.249584
O O8 0.360790 0.880725 0.281335
O O9 0.214622 0.531154 0.588185
O O10 0.340489 0.748044 0.640095
O O11 0.246514 0.902267 0.497396
O O12 0.035332 0.009225 0.722323
O O13 0.801694 0.522215 0.881361
O O14 0.500000 0.000000 0.000000
O O15 0.983504 0.445946 0.661726
O O16 0.198827 0.349251 0.441588
O O17 0.953028 0.837759 0.570464
#
# Coordination Sequence:
#
# PCOD9023439 Si02
#       8
#     2   2   2   2   2   2   2   2
#     4  11  25  47  70  99 139 188 229 284 340 405
#     4  11  24  45  63 101 144 179 219 282 353 411
#     4  11  24  42  69  99 130 176 237 284 330 412
#     4  11  24  41  69 101 134 176 227 278 345 417
#     4  11  23  40  70  98 132 172 230 286 341 403
#     4  10  22  39  69 102 128 171 235 294 335 397
#     4  11  27  45  68 100 146 178 230 281 348 416
#     4  10  22  40  67  97 134 177 224 289 344 394
#
# _framework density 23.912175000000001
#
# number of rings (size 3 to 8) (size 9 to 14) (size 15 to 20)
#    0.000    1.250    1.250    3.375    8.750    3.500 
#    0.000    0.625    0.000    0.000    0.000    0.000 
#    0.000    0.000    0.000    0.000    0.000    0.000 
#
# Total GULP energy -89371.416070 kJ/mol
# GULP energy per Si atom -5585.713504 kJ/mol
# Density = 2.385775 g / cm^3
# Si number density = 23.912175 Si / 1000 Ang^3
#
#
#
# Elastic Constant Matrix: (Units=GPa)
#
#
# Indices 1 2 3 4 5 6 
#
# 1 90.2502 11.8215 10.8677 -17.7041 22.4948 -0.7063
# 2 11.8215 46.9281 11.6667 0.3875 3.8936 4.2107
# 3 10.8677 11.6667 78.3107 4.6287 18.8149 19.9812
# 4 -17.7041 0.3875 4.6287 36.2628 0.7197 9.2129
# 5 22.4948 3.8936 18.8149 0.7197 48.1164 -0.1763
# 6 -0.7063 4.2107 19.9812 9.2129 -0.1763 33.4392
#
#
#
# Elastic Compliance Matrix: (Units=1/GPa)
#
#
# Indices 1 2 3 4 5 6 
#
# 1 0.014656 -0.003057 -0.000060 0.007690 -0.006701 -0.001424
# 2 -0.003057 0.022819 -0.002843 -0.001154 0.000708 -0.000917
# 3 -0.000060 -0.002843 0.017349 0.000504 -0.006571 -0.010183
# 4 0.007690 -0.001154 0.000504 0.033728 -0.004238 -0.009308
# 5 -0.006701 0.000708 -0.006571 -0.004238 0.026510 0.005003
# 6 -0.001424 -0.000917 -0.010183 -0.009308 0.005003 0.038666
#
#
# Mechanical properties :
#
#
# Convention : Reuss Voigt Hill
#
# Bulk Modulus (GPa) = 23.30785 31.57788 27.44286
# Shear Modulus (GPa) = 27.78584 35.63922 31.71253
#
# Velocity S-wave (km/s) = 3.41250 3.86479 3.64567
# Velocity P-wave (km/s) = 5.02945 5.75759 5.40579
#
# Compressibility (1/GPa) = 0.04290400
#
# Stress axis : x y z
#
# Youngs Moduli (GPa) = 68.23362 43.82283 57.64119
#
# Poissons Ratio (x) = 0.13396 0.00344
# Poissons Ratio (y) = 0.20857 0.16389
# Poissons Ratio (z) = 0.00407 0.12460
#
# Static dielectric constant tensor:
#      x y z
#    x 1.934070 0.021230 -0.004550 
#    y 0.021230 2.039460 0.006370 
#    z -0.004550 0.006370 1.865180 
# 
# From -- ./inp_files/68445.got.cif
#   From: 2010.05.17/outbox.cif.g08.bks.cpg/sg2_35_cif.got.tgz:68445.got - 2010.06.03 11:33:40.
