data_PCOD9023664
_publ_section_title
;
Structure prediction by ZEFSAII (Michael W. Deem and Ramdas Pophale) SiO2 
 PCOD9023664
Probable space group: P -1
;
_chemical_formula_sum "Si O2"
_cell_formula_units_Z 15
_cell_length_a 12.688239
_cell_length_b 9.015244
_cell_length_c 11.199064
_cell_angle_alpha 40.054074
_cell_angle_beta 128.454934
_cell_angle_gamma 129.328760
_cell_volume 613.110095
_symmetry_space_group_name_H-M "P -1"
_symmetry_group_IT_number 2
_symmetry_cell_setting 'triclinic'
loop_
_space_group_symop_operation_xyz
x,y,z
-x,-y,-z
loop_
_atom_site_type_symbol
_atom_site_label
_atom_site_fract_x
_atom_site_fract_y
_atom_site_fract_z
Si Si1 0.912380 0.918896 0.167924
Si Si2 0.676931 0.449658 0.892353
Si Si3 0.080881 0.227797 0.275808
Si Si4 0.000000 0.500000 0.500000
Si Si5 0.292784 0.038948 0.682253
Si Si6 0.591398 0.195615 0.730730
Si Si7 0.113301 0.618212 0.255176
Si Si8 0.621815 0.704850 0.159959
O O1 0.934668 0.064368 0.218561
O O2 0.031582 0.792450 0.319586
O O3 0.766904 0.686450 0.214816
O O4 0.907110 0.122255 0.945698
O O5 0.816064 0.670699 0.828001
O O6 0.633043 0.341346 0.794854
O O7 0.535267 0.486920 0.826900
O O8 0.712521 0.235648 0.122817
O O9 0.157190 0.079194 0.502648
O O10 0.070514 0.451210 0.209929
O O11 0.971079 0.528196 0.604435
O O12 0.427488 0.155733 0.616419
O O13 0.340055 0.194319 0.741117
O O14 0.715510 0.324701 0.646940
O O15 0.602330 0.931658 0.932420
#
# Coordination Sequence:
#
# PCOD9023664 Si02
#       8
#     2   2   2   1   2   2   2   2
#     4  11  24  41  58  87 121 152 193 240 288 345
#     4   8  16  31  52  82 116 151 181 230 293 340
#     4  11  22  34  61  94 121 147 180 242 305 337
#     4  12  26  40  60  80 112 168 204 230 280 340
#     4   9  16  29  51  87 121 143 182 231 288 356
#     4   7  14  30  53  80 114 150 185 233 284 336
#     4  10  22  40  60  86 117 152 197 242 285 339
#     4   8  15  31  54  77 113 154 188 227 282 344
#
# _framework density 24.465426000000001
#
# number of rings (size 3 to 8) (size 9 to 14) (size 15 to 20)
#    0.000    2.667    0.000    4.000    0.000    9.067 
#    0.000    0.000    0.000    3.200    0.000    9.333 
#    0.000    0.000    0.000    0.000    0.000    0.000 
#
# Total GULP energy -83537.621401 kJ/mol
# GULP energy per Si atom -5569.174760 kJ/mol
# Density = 2.440974 g / cm^3
# Si number density = 24.465426 Si / 1000 Ang^3
#
#
#
# Elastic Constant Matrix: (Units=GPa)
#
#
# Indices 1 2 3 4 5 6 
#
# 1 3.9795 50.0654 29.9294 2.8995 -35.4804 2.6361
# 2 50.0654 40.7150 22.9091 -14.9238 0.1712 24.7952
# 3 29.9294 22.9091 137.9917 -12.0958 -9.6863 5.0560
# 4 2.8995 -14.9238 -12.0958 24.5399 3.4872 7.3256
# 5 -35.4804 0.1712 -9.6863 3.4872 29.6046 -10.0245
# 6 2.6361 24.7952 5.0560 7.3256 -10.0245 26.0059
#
#
#
# Elastic Compliance Matrix: (Units=1/GPa)
#
#
# Indices 1 2 3 4 5 6 
#
# 1 0.003546 0.016615 -0.001664 0.016564 -0.006094 -0.022892
# 2 0.016615 0.012250 -0.003951 0.003604 0.015544 -0.007619
# 3 -0.001664 -0.003951 0.008354 0.000897 0.001556 0.002659
# 4 0.016564 0.003604 0.000897 0.044068 0.010281 -0.013740
# 5 -0.006094 0.015544 0.001556 0.010281 0.022762 -0.008627
# 6 -0.022892 -0.007619 0.002659 -0.013740 -0.008627 0.048065
#
#
# Mechanical properties :
#
#
# Convention : Reuss Voigt Hill
#
# Bulk Modulus (GPa) = 21.66954 43.16601 32.41777
# Shear Modulus (GPa) = 37.75603 21.34890 29.55247
#
# Velocity S-wave (km/s) = 3.93267 2.95721 3.47930
# Velocity P-wave (km/s) = 5.43117 5.41684 5.42401
#
# Compressibility (1/GPa) = 0.04614773
#
# Stress axis : x y z
#
# Youngs Moduli (GPa) = 282.03017 81.63556 119.70063
#
# Poissons Ratio (x) = -1.35634 0.19923
# Poissons Ratio (y) = -4.68580 0.47294
# Poissons Ratio (z) = 0.46941 0.32254
#
# Static dielectric constant tensor:
#      x y z
#    x 2.166650 0.094400 0.054220 
#    y 0.094400 1.946010 0.000470 
#    z 0.054220 0.000470 2.028100 
# 
# From -- ./inp_files/520070.got.cif
#   From: 2010.05.17/outbox.cif.g08.bks.cpg/sg2_261_cif.got.tgz:520070.got - 2010.06.03 11:33:40.
