data_PCOD9023890
_publ_section_title
;
Structure prediction by ZEFSAII (Michael W. Deem and Ramdas Pophale) SiO2 
 PCOD9023890
Probable space group: P -1
;
_chemical_formula_sum "Si O2"
_cell_formula_units_Z 16
_cell_length_a 11.355299
_cell_length_b 7.513736
_cell_length_c 15.094042
_cell_angle_alpha 71.448938
_cell_angle_beta 48.996423
_cell_angle_gamma 42.473148
_cell_volume 620.559086
_symmetry_space_group_name_H-M "P -1"
_symmetry_group_IT_number 2
_symmetry_cell_setting 'triclinic'
loop_
_space_group_symop_operation_xyz
x,y,z
-x,-y,-z
loop_
_atom_site_type_symbol
_atom_site_label
_atom_site_fract_x
_atom_site_fract_y
_atom_site_fract_z
Si Si1 0.516835 0.272242 0.919957
Si Si2 0.254066 0.874305 0.995785
Si Si3 0.746914 0.055441 0.464039
Si Si4 0.825289 0.500391 0.626410
Si Si5 0.658998 0.256008 0.673953
Si Si6 0.008960 0.602152 0.069756
Si Si7 0.777295 0.184056 0.262372
Si Si8 0.597839 0.947828 0.320084
O O1 0.630213 0.112218 0.982609
O O2 0.678586 0.119273 0.776743
O O3 0.448938 0.554607 0.918513
O O4 0.265703 0.404662 0.008632
O O5 0.039016 0.966499 0.136738
O O6 0.132035 0.084125 0.939842
O O7 0.752393 0.098213 0.559300
O O8 0.726966 0.253447 0.380418
O O9 0.548833 0.074898 0.551468
O O10 0.994577 0.751629 0.354714
O O11 0.757114 0.378272 0.621507
O O12 0.000000 0.500000 0.500000
O O13 0.583294 0.824953 0.704825
O O14 0.381822 0.525841 0.756090
O O15 0.837499 0.652390 0.213856
O O16 0.000000 0.500000 0.000000
O O17 0.672595 0.071254 0.312518
#
# Coordination Sequence:
#
# PCOD9023890 Si02
#       8
#     2   2   2   2   2   2   2   2
#     4  11  23  42  70  99 130 172 223 272 325 396
#     4  11  23  41  69  99 126 174 228 267 325 399
#     4  11  22  38  62  95 127 169 218 266 330 386
#     4   9  20  37  58  83 121 165 212 259 311 382
#     4  11  21  38  63  93 131 169 211 271 334 379
#     4  12  24  43  68  96 140 172 215 280 336 387
#     4  11  21  38  63  91 129 169 220 265 319 399
#     4  10  22  40  62  89 128 175 215 265 326 389
#
# _framework density 25.783201999999999
#
# number of rings (size 3 to 8) (size 9 to 14) (size 15 to 20)
#    0.000    1.250    2.500    4.500    0.000    1.500 
#    0.000    0.000    5.500    0.000    0.000    0.000 
#    0.000    0.000    0.000    0.000    0.000    0.000 
#
# Total GULP energy -89360.201824 kJ/mol
# GULP energy per Si atom -5585.012614 kJ/mol
# Density = 2.572452 g / cm^3
# Si number density = 25.783202 Si / 1000 Ang^3
#
#
#
# Elastic Constant Matrix: (Units=GPa)
#
#
# Indices 1 2 3 4 5 6 
#
# 1 119.1718 19.8977 43.1460 0.3364 -20.4312 -28.8817
# 2 19.8977 39.3840 14.4908 -5.2142 -5.3420 -11.5908
# 3 43.1460 14.4908 129.4228 7.8988 -7.2226 -21.5607
# 4 0.3364 -5.2142 7.8988 28.6826 -4.6228 0.1952
# 5 -20.4312 -5.3420 -7.2226 -4.6228 44.0234 2.6257
# 6 -28.8817 -11.5908 -21.5607 0.1952 2.6257 37.9890
#
#
#
# Elastic Compliance Matrix: (Units=1/GPa)
#
#
# Indices 1 2 3 4 5 6 
#
# 1 0.012108 -0.002518 -0.002422 0.000762 0.004594 0.006741
# 2 -0.002518 0.030308 -0.001785 0.006396 0.002523 0.006112
# 3 -0.002422 -0.001785 0.009394 -0.002950 -0.000287 0.002981
# 4 0.000762 0.006396 -0.002950 0.037565 0.004569 0.000347
# 5 0.004594 0.002523 -0.000287 0.004569 0.025448 0.002318
# 6 0.006741 0.006112 0.002981 0.000347 0.002318 0.034843
#
#
# Mechanical properties :
#
#
# Convention : Reuss Voigt Hill
#
# Bulk Modulus (GPa) = 26.06873 49.22749 37.64811
# Shear Modulus (GPa) = 28.42485 36.16860 32.29672
#
# Velocity S-wave (km/s) = 3.32393 3.74946 3.54309
# Velocity P-wave (km/s) = 4.98638 6.15458 5.60102
#
# Compressibility (1/GPa) = 0.03836013
#
# Stress axis : x y z
#
# Youngs Moduli (GPa) = 82.59297 32.99454 106.44629
#
# Poissons Ratio (x) = 0.08309 0.25776
# Poissons Ratio (y) = 0.20799 0.19003
# Poissons Ratio (z) = 0.20000 0.05890
#
# Static dielectric constant tensor:
#      x y z
#    x 2.074110 0.021100 0.041410 
#    y 0.021100 2.190860 0.014610 
#    z 0.041410 0.014610 2.006760 
# 
# From -- ./inp_files/239047.got.cif
#   From: 2010.05.17/outbox.cif.g08.bks.cpg/sg2_120_cif.got.tgz:239047.got - 2010.06.03 11:33:40.
