data_PCOD9023872
_publ_section_title
;
Structure prediction by ZEFSAII (Michael W. Deem and Ramdas Pophale) SiO2 
 PCOD9023872
Probable space group: P -1
;
_chemical_formula_sum "Si O2"
_cell_formula_units_Z 16
_cell_length_a 24.962164
_cell_length_b 4.906732
_cell_length_c 5.533529
_cell_angle_alpha 98.546129
_cell_angle_beta 70.969690
_cell_angle_gamma 105.817672
_cell_volume 615.127036
_symmetry_space_group_name_H-M "P -1"
_symmetry_group_IT_number 2
_symmetry_cell_setting 'triclinic'
loop_
_space_group_symop_operation_xyz
x,y,z
-x,-y,-z
loop_
_atom_site_type_symbol
_atom_site_label
_atom_site_fract_x
_atom_site_fract_y
_atom_site_fract_z
Si Si1 0.456074 0.695053 0.546406
Si Si2 0.733391 0.470978 0.844395
Si Si3 0.169646 0.438318 0.676148
Si Si4 0.430869 0.846447 0.099245
Si Si5 0.673119 0.888097 0.745091
Si Si6 0.960162 0.190607 0.703590
Si Si7 0.229625 0.021309 0.773024
Si Si8 0.933484 0.311381 0.267192
O O1 0.500000 0.500000 0.500000
O O2 0.423165 0.672125 0.337378
O O3 0.500000 0.000000 0.500000
O O4 0.418431 0.677832 0.842030
O O5 0.790780 0.470006 0.606298
O O6 0.702120 0.150012 0.918626
O O7 0.688011 0.595986 0.762619
O O8 0.752068 0.722210 0.037309
O O9 0.183437 0.142416 0.692150
O O10 0.105332 0.471185 0.722506
O O11 0.197312 0.702352 0.851204
O O12 0.391739 0.074353 0.190357
O O13 0.500000 0.000000 0.000000
O O14 0.711749 0.979053 0.460793
O O15 0.915105 0.191806 0.549597
O O16 0.001329 0.501627 0.743580
O O17 0.935745 0.113991 0.001701
O O18 0.000000 0.000000 0.500000
#
# Coordination Sequence:
#
# PCOD9023872 Si02
#       8
#     2   2   2   2   2   2   2   2
#     4  10  22  40  62  88 127 161 204 260 306 369
#     4  10  22  42  64  90 129 162 217 264 335 383
#     4  10  23  39  64  98 121 167 222 271 322 383
#     4  10  23  43  66  97 130 167 217 261 320 393
#     4  10  23  40  63  94 124 169 208 266 326 393
#     4  10  22  41  62  89 137 171 215 263 328 384
#     4  10  22  42  64  90 130 161 216 273 328 386
#     4  10  23  39  62  96 125 172 222 265 320 392
#
# _framework density 26.010887
#
# number of rings (size 3 to 8) (size 9 to 14) (size 15 to 20)
#    0.000    2.000    0.000    1.500    5.250    5.000 
#    2.250    0.000    0.000    0.000    0.000    0.000 
#    0.000    0.000    0.000    0.000    0.000    0.000 
#
# Total GULP energy -89369.794780 kJ/mol
# GULP energy per Si atom -5585.612174 kJ/mol
# Density = 2.595169 g / cm^3
# Si number density = 26.010887 Si / 1000 Ang^3
#
#
#
# Elastic Constant Matrix: (Units=GPa)
#
#
# Indices 1 2 3 4 5 6 
#
# 1 134.0835 16.4002 59.2143 3.6337 -10.5858 -25.4552
# 2 16.4002 107.9628 18.5591 18.1682 -1.6010 -28.2967
# 3 59.2143 18.5591 188.0995 11.7681 19.2805 -12.7087
# 4 3.6337 18.1682 11.7681 34.5324 -5.3649 -1.8658
# 5 -10.5858 -1.6010 19.2805 -5.3649 52.0632 6.6476
# 6 -25.4552 -28.2967 -12.7087 -1.8658 6.6476 49.4281
#
#
#
# Elastic Compliance Matrix: (Units=1/GPa)
#
#
# Indices 1 2 3 4 5 6 
#
# 1 0.009778 0.000000 -0.003137 0.000673 0.002723 0.003889
# 2 0.000000 0.012083 -0.000251 -0.006066 -0.001024 0.006762
# 3 -0.003137 -0.000251 0.006861 -0.002396 -0.003482 0.000383
# 4 0.000673 -0.006066 -0.002396 0.033455 0.004682 -0.003109
# 5 0.002723 -0.001024 -0.003482 0.004682 0.021865 -0.002843
# 6 0.003889 0.006762 0.000383 -0.003109 -0.002843 0.026468
#
#
# Mechanical properties :
#
#
# Convention : Reuss Voigt Hill
#
# Bulk Modulus (GPa) = 45.56277 68.72145 57.14211
# Shear Modulus (GPa) = 40.12788 49.60286 44.86537
#
# Velocity S-wave (km/s) = 3.93203 4.37166 4.15766
# Velocity P-wave (km/s) = 6.17813 7.20830 6.71300
#
# Compressibility (1/GPa) = 0.02194774
#
# Stress axis : x y z
#
# Youngs Moduli (GPa) = 102.26853 82.75844 145.74564
#
# Poissons Ratio (x) = -0.00001 0.45716
# Poissons Ratio (y) = -0.00001 0.03658
# Poissons Ratio (z) = 0.32078 0.02077
#
# Static dielectric constant tensor:
#      x y z
#    x 2.135060 0.003680 0.146380 
#    y 0.003680 2.223620 -0.061670 
#    z 0.146380 -0.061670 2.170860 
# 
# From -- ./inp_files/121823.got.cif
#   From: 2010.05.17/outbox.cif.g08.bks.cpg/sg2_61_cif.got.tgz:121823.got - 2010.06.03 11:33:40.
