data_PCOD9023359
_publ_section_title
;
Structure prediction by ZEFSAII (Michael W. Deem and Ramdas Pophale) SiO2 
 PCOD9023359
Probable space group: P -1
;
_chemical_formula_sum "Si O2"
_cell_formula_units_Z 15
_cell_length_a 8.296729
_cell_length_b 12.664756
_cell_length_c 9.103250
_cell_angle_alpha 36.792136
_cell_angle_beta 97.431800
_cell_angle_gamma 95.650010
_cell_volume 568.047361
_symmetry_space_group_name_H-M "P -1"
_symmetry_group_IT_number 2
_symmetry_cell_setting 'triclinic'
loop_
_space_group_symop_operation_xyz
x,y,z
-x,-y,-z
loop_
_atom_site_type_symbol
_atom_site_label
_atom_site_fract_x
_atom_site_fract_y
_atom_site_fract_z
Si Si1 0.838557 0.918565 0.845854
Si Si2 0.040771 0.562722 0.272020
Si Si3 0.996515 0.738249 0.640793
Si Si4 0.500000 0.500000 0.500000
Si Si5 0.715616 0.301094 0.048135
Si Si6 0.671169 0.898848 0.557174
Si Si7 0.362984 0.145122 0.846312
Si Si8 0.542440 0.650881 0.625597
O O1 0.690400 0.911933 0.719563
O O2 0.946564 0.081116 0.628136
O O3 0.938129 0.739113 0.041757
O O4 0.779832 0.936941 0.985291
O O5 0.006298 0.412415 0.315376
O O6 0.000000 0.500000 0.500000
O O7 0.227707 0.622490 0.191930
O O8 0.133220 0.689500 0.832209
O O9 0.832553 0.786265 0.656626
O O10 0.423365 0.314518 0.754562
O O11 0.428900 0.606870 0.523974
O O12 0.674082 0.095396 0.270529
O O13 0.597151 0.460794 0.900345
O O14 0.520450 0.785364 0.605148
O O15 0.325107 0.236802 0.583620
O O16 0.500000 0.000000 0.000000
#
# Coordination Sequence:
#
# PCOD9023359 Si02
#       8
#     2   2   2   1   2   2   2   2
#     4  11  23  41  61  98 129 167 215 256 314 386
#     4  12  23  34  58  96 137 168 207 247 302 390
#     4  11  22  40  62  95 143 174 195 246 320 386
#     4   8  24  44  66  86 118 162 218 272 328 352
#     4  11  20  38  63  92 136 171 199 251 314 385
#     4  11  21  38  67  95 132 177 201 250 316 391
#     4  10  24  46  68  84 123 169 216 277 321 360
#     4  10  22  39  68  91 117 174 212 260 330 365
#
# _framework density 26.406248000000001
#
# number of rings (size 3 to 8) (size 9 to 14) (size 15 to 20)
#    0.800    0.533    4.000    2.800    1.867    2.667 
#    0.000    1.333    0.000    0.000    0.000    0.000 
#    0.000    0.000    0.000    0.000    0.000    0.000 
#
# Total GULP energy -83657.210277 kJ/mol
# GULP energy per Si atom -5577.147352 kJ/mol
# Density = 2.634615 g / cm^3
# Si number density = 26.406248 Si / 1000 Ang^3
#
#
#
# Elastic Constant Matrix: (Units=GPa)
#
#
# Indices 1 2 3 4 5 6 
#
# 1 33.9342 25.0218 -1.5697 -0.9421 0.1900 -15.1789
# 2 25.0218 88.6399 41.4278 -34.6779 3.7866 7.8449
# 3 -1.5697 41.4278 176.5589 -15.2523 -5.2246 -5.6074
# 4 -0.9421 -34.6779 -15.2523 46.2044 -18.8331 0.1274
# 5 0.1900 3.7866 -5.2246 -18.8331 27.9017 -2.0176
# 6 -15.1789 7.8449 -5.6074 0.1274 -2.0176 43.9627
#
#
#
# Elastic Compliance Matrix: (Units=1/GPa)
#
#
# Indices 1 2 3 4 5 6 
#
# 1 0.069903 -0.036431 0.007429 -0.027927 -0.010737 0.031172
# 2 -0.036431 0.038087 -0.006804 0.031102 0.013372 -0.019719
# 3 0.007429 -0.006804 0.007336 -0.002056 0.001204 0.004776
# 4 -0.027927 0.031102 -0.002056 0.057336 0.033266 -0.014094
# 5 -0.010737 0.013372 0.001204 0.033266 0.056529 -0.003442
# 6 0.031172 -0.019719 0.004776 -0.014094 -0.003442 0.037520
#
#
# Mechanical properties :
#
#
# Convention : Reuss Voigt Hill
#
# Bulk Modulus (GPa) = 22.87552 47.65476 35.26514
# Shear Modulus (GPa) = 14.16857 39.23065 26.69961
#
# Velocity S-wave (km/s) = 2.31889 3.85860 3.18324
# Velocity P-wave (km/s) = 3.98138 6.15936 5.18600
#
# Compressibility (1/GPa) = 0.04371485
#
# Stress axis : x y z
#
# Youngs Moduli (GPa) = 14.30555 26.25550 136.31067
#
# Poissons Ratio (x) = 0.95650 -1.01270
# Poissons Ratio (y) = 0.52116 0.92752
# Poissons Ratio (z) = -0.10628 0.17866
#
# Static dielectric constant tensor:
#      x y z
#    x 2.382480 0.089470 -0.028530 
#    y 0.089470 2.085970 0.085470 
#    z -0.028530 0.085470 2.021820 
# 
# From -- ./inp_files/255906.got.cif
#   From: 2010.05.17/outbox.cif.g08.bks.cpg/sg2_128_cif.got.tgz:255906.got - 2010.06.03 11:33:40.
