data_PCOD9023326
_publ_section_title
;
Structure prediction by ZEFSAII (Michael W. Deem and Ramdas Pophale) SiO2 
 PCOD9023326
Probable space group: P -1
;
_chemical_formula_sum "Si O2"
_cell_formula_units_Z 14
_cell_length_a 18.918911
_cell_length_b 19.398617
_cell_length_c 11.280294
_cell_angle_alpha 22.013896
_cell_angle_beta 146.293686
_cell_angle_gamma 158.730322
_cell_volume 547.051756
_symmetry_space_group_name_H-M "P -1"
_symmetry_group_IT_number 2
_symmetry_cell_setting 'triclinic'
loop_
_space_group_symop_operation_xyz
x,y,z
-x,-y,-z
loop_
_atom_site_type_symbol
_atom_site_label
_atom_site_fract_x
_atom_site_fract_y
_atom_site_fract_z
Si Si1 0.801289 0.372111 0.370916
Si Si2 0.921915 0.628495 0.867614
Si Si3 0.303940 0.906707 0.895475
Si Si4 0.301500 0.156279 0.265200
Si Si5 0.474253 0.619027 0.380473
Si Si6 0.917524 0.852408 0.862105
Si Si7 0.321077 0.127269 0.072498
O O1 0.000000 0.500000 0.500000
O O2 0.641561 0.027492 0.689835
O O3 0.859412 0.513620 0.096815
O O4 0.758432 0.511609 0.160469
O O5 0.719050 0.466158 0.775421
O O6 0.061648 0.615948 0.035820
O O7 0.056202 0.963667 0.496103
O O8 0.313666 0.028549 0.592427
O O9 0.351794 0.051469 0.860773
O O10 0.500000 0.000000 0.000000
O O11 0.124244 0.093049 0.160023
O O12 0.275797 0.044829 0.277738
O O13 0.500000 0.500000 0.000000
O O14 0.500000 0.500000 0.500000
O O15 0.461055 0.460904 0.724001
O O16 0.129359 0.991213 0.951601
#
# Coordination Sequence:
#
# PCOD9023326 Si02
#       7
#     2   2   2   2   2   2   2
#     4  10  22  39  68 101 130 174 226 280 340 394
#     4  10  24  44  72  94 141 180 222 280 344 397
#     4  11  27  46  68 102 135 180 234 278 334 409
#     4  11  22  42  64  91 138 175 218 276 341 395
#     4  11  26  46  72 101 135 182 229 276 343 414
#     4   9  21  40  67  94 127 181 221 269 343 407
#     4  10  22  43  64 101 133 171 224 278 335 406
#
# _framework density 25.591728
#
# number of rings (size 3 to 8) (size 9 to 14) (size 15 to 20)
#    0.000    1.714    1.429    0.857   12.000    2.857 
#    5.143    1.429    0.000    0.000    0.000    0.000 
#    0.000    0.000    0.000    0.000    0.000    0.000 
#
# Total GULP energy -78089.015079 kJ/mol
# GULP energy per Si atom -5577.786791 kJ/mol
# Density = 2.553348 g / cm^3
# Si number density = 25.591728 Si / 1000 Ang^3
#
#
#
# Elastic Constant Matrix: (Units=GPa)
#
#
# Indices 1 2 3 4 5 6 
#
# 1 91.5620 28.2309 8.7932 18.7463 4.4114 -4.3800
# 2 28.2309 95.7450 38.1195 28.5589 12.6666 13.4901
# 3 8.7932 38.1195 53.2928 17.1145 -6.2201 -7.0748
# 4 18.7463 28.5589 17.1145 45.8105 -0.1854 10.3507
# 5 4.4114 12.6666 -6.2201 -0.1854 43.0952 7.2273
# 6 -4.3800 13.4901 -7.0748 10.3507 7.2273 50.3087
#
#
#
# Elastic Compliance Matrix: (Units=1/GPa)
#
#
# Indices 1 2 3 4 5 6 
#
# 1 0.013029 -0.003925 0.002577 -0.004655 -0.000426 0.003568
# 2 -0.003925 0.020149 -0.013864 -0.004485 -0.006563 -0.005829
# 3 0.002577 -0.013864 0.032308 -0.006444 0.006969 0.008810
# 4 -0.004655 -0.004485 -0.006444 0.030455 0.002116 -0.006679
# 5 -0.000426 -0.006563 0.006969 0.002116 0.026449 -0.001532
# 6 0.003568 -0.005829 0.008810 -0.006679 -0.001532 0.024584
#
#
# Mechanical properties :
#
#
# Convention : Reuss Voigt Hill
#
# Bulk Modulus (GPa) = 28.52184 43.43189 35.97686
# Shear Modulus (GPa) = 26.44301 38.87329 32.65815
#
# Velocity S-wave (km/s) = 3.21793 3.90164 3.57616
# Velocity P-wave (km/s) = 4.99759 6.10778 5.58036
#
# Compressibility (1/GPa) = 0.03506086
#
# Stress axis : x y z
#
# Youngs Moduli (GPa) = 76.75363 49.63060 30.95182
#
# Poissons Ratio (x) = 0.19482 -0.07976
# Poissons Ratio (y) = 0.30129 0.42912
# Poissons Ratio (z) = -0.19779 0.68808
#
# Static dielectric constant tensor:
#      x y z
#    x 2.086080 0.066730 0.069450 
#    y 0.066730 2.070950 -0.079910 
#    z 0.069450 -0.079910 2.077650 
# 
# From -- ./inp_files/298671.got.cif
#   From: 2010.05.17/outbox.cif.g08.bks.cpg/sg2_150_cif.got.tgz:298671.got - 2010.06.03 11:33:40.
