data_PCOD9023542
_publ_section_title
;
Structure prediction by ZEFSAII (Michael W. Deem and Ramdas Pophale) SiO2 
 PCOD9023542
Probable space group: P -1
;
_chemical_formula_sum "Si O2"
_cell_formula_units_Z 14
_cell_length_a 10.652281
_cell_length_b 16.535062
_cell_length_c 10.447542
_cell_angle_alpha 32.182646
_cell_angle_beta 46.143962
_cell_angle_gamma 38.160787
_cell_volume 603.489020
_symmetry_space_group_name_H-M "P -1"
_symmetry_group_IT_number 2
_symmetry_cell_setting 'triclinic'
loop_
_space_group_symop_operation_xyz
x,y,z
-x,-y,-z
loop_
_atom_site_type_symbol
_atom_site_label
_atom_site_fract_x
_atom_site_fract_y
_atom_site_fract_z
Si Si1 0.263870 0.690546 0.038969
Si Si2 0.205594 0.342710 0.001456
Si Si3 0.787093 0.609930 0.580364
Si Si4 0.489570 0.007367 0.845479
Si Si5 0.410744 0.209222 0.291947
Si Si6 0.886706 0.037602 0.891659
Si Si7 0.712634 0.419946 0.531051
O O1 0.281340 0.531127 0.158984
O O2 0.287142 0.620498 0.264431
O O3 0.417080 0.758255 0.819368
O O4 0.042252 0.862251 0.940629
O O5 0.355663 0.301121 0.070781
O O6 0.287596 0.138451 0.173941
O O7 0.229907 0.434340 0.735824
O O8 0.000000 0.500000 0.000000
O O9 0.614951 0.785864 0.393974
O O10 0.785053 0.696456 0.602561
O O11 0.000000 0.500000 0.500000
O O12 0.328257 0.953346 0.978203
O O13 0.500000 0.000000 0.000000
O O14 0.500000 0.000000 0.500000
O O15 0.853967 0.227018 0.623503
O O16 0.000000 0.000000 0.000000
O O17 0.500000 0.500000 0.500000
#
# Coordination Sequence:
#
# PCOD9023542 Si02
#       7
#     2   2   2   2   2   2   2
#     4  11  24  45  73 103 143 195 246 305 371 441
#     4  12  27  43  68 108 145 191 242 308 363 438
#     4  12  27  45  74 106 146 196 244 304 379 446
#     4  12  25  45  69 109 150 189 242 309 371 441
#     4  12  27  48  72 104 149 192 256 309 361 441
#     4  10  22  39  71 104 141 190 252 292 360 443
#     4  11  21  41  69 100 141 187 243 297 369 431
#
# _framework density 23.198435
#
# number of rings (size 3 to 8) (size 9 to 14) (size 15 to 20)
#    0.000    0.571    5.714    2.143    6.000    0.000 
#    0.000    0.000    0.000    3.429    0.000    0.000 
#    0.000    0.000    0.000    0.000    0.000    0.000 
#
# Total GULP energy -78103.984006 kJ/mol
# GULP energy per Si atom -5578.856000 kJ/mol
# Density = 2.314563 g / cm^3
# Si number density = 23.198435 Si / 1000 Ang^3
#
#
#
# Elastic Constant Matrix: (Units=GPa)
#
#
# Indices 1 2 3 4 5 6 
#
# 1 65.5845 31.2510 10.6545 -9.1501 0.7456 -4.5253
# 2 31.2510 195.7838 48.1399 -38.4815 -1.9444 5.0144
# 3 10.6545 48.1399 107.4172 -36.6593 -1.9608 -4.9161
# 4 -9.1501 -38.4815 -36.6593 54.1284 4.8663 3.2216
# 5 0.7456 -1.9444 -1.9608 4.8663 43.2990 -4.8690
# 6 -4.5253 5.0144 -4.9161 3.2216 -4.8690 33.6076
#
#
#
# Elastic Compliance Matrix: (Units=1/GPa)
#
#
# Indices 1 2 3 4 5 6 
#
# 1 0.016773 -0.002554 -0.000136 0.000798 -0.000217 0.002512
# 2 -0.002554 0.006621 -0.001691 0.003275 -0.000321 -0.001940
# 3 -0.000136 -0.001691 0.012615 0.007252 -0.000164 0.001360
# 4 0.000798 0.003275 0.007252 0.026228 -0.002737 -0.002231
# 5 -0.000217 -0.000321 -0.000164 -0.002737 0.023801 0.003705
# 6 0.002512 -0.001940 0.001360 -0.002231 0.003705 0.031332
#
#
# Mechanical properties :
#
#
# Convention : Reuss Voigt Hill
#
# Bulk Modulus (GPa) = 36.69937 60.98624 48.84280
# Shear Modulus (GPa) = 36.97782 44.78966 40.88374
#
# Velocity S-wave (km/s) = 3.99680 4.39876 4.20259
# Velocity P-wave (km/s) = 6.09535 7.22114 6.68200
#
# Compressibility (1/GPa) = 0.02724842
#
# Stress axis : x y z
#
# Youngs Moduli (GPa) = 59.61789 151.02993 79.26911
#
# Poissons Ratio (x) = 0.38567 0.01078
# Poissons Ratio (y) = 0.15224 0.13406
# Poissons Ratio (z) = 0.00811 0.25542
#
# Static dielectric constant tensor:
#      x y z
#    x 1.800570 -0.010780 0.002710 
#    y -0.010780 2.011910 0.034040 
#    z 0.002710 0.034040 1.860860 
# 
# From -- ./inp_files/352169.got.cif
#   From: 2010.05.17/outbox.cif.g08.bks.cpg/sg2_177_cif.got.tgz:352169.got - 2010.06.03 11:33:40.
