data_PCOD9023168
_publ_section_title
;
Structure prediction by ZEFSAII (Michael W. Deem and Ramdas Pophale) SiO2 
 PCOD9023168
Probable space group: P -1
;
_chemical_formula_sum "Si O2"
_cell_formula_units_Z 14
_cell_length_a 12.532779
_cell_length_b 9.720935
_cell_length_c 9.399379
_cell_angle_alpha 45.920988
_cell_angle_beta 122.433671
_cell_angle_gamma 125.123469
_cell_volume 654.552925
_symmetry_space_group_name_H-M "P -1"
_symmetry_group_IT_number 2
_symmetry_cell_setting 'triclinic'
loop_
_space_group_symop_operation_xyz
x,y,z
-x,-y,-z
loop_
_atom_site_type_symbol
_atom_site_label
_atom_site_fract_x
_atom_site_fract_y
_atom_site_fract_z
Si Si1 0.391250 0.034852 0.000520
Si Si2 0.075249 0.236234 0.845248
Si Si3 0.614877 0.571735 0.150856
Si Si4 0.375453 0.850013 0.432908
Si Si5 0.836585 0.233272 0.152904
Si Si6 0.895885 0.667068 0.900140
Si Si7 0.142431 0.902001 0.418749
O O1 0.385058 0.918503 0.228106
O O2 0.251522 0.941476 0.886628
O O3 0.500000 0.000000 0.000000
O O4 0.420543 0.268586 0.889782
O O5 0.235585 0.310106 0.888959
O O6 0.002590 0.242592 0.639341
O O7 0.050088 0.347083 0.890011
O O8 0.000000 0.000000 0.000000
O O9 0.623731 0.376118 0.379770
O O10 0.500000 0.500000 0.000000
O O11 0.244669 0.874112 0.395145
O O12 0.500000 0.000000 0.500000
O O13 0.823798 0.164645 0.355578
O O14 0.987771 0.284505 0.168378
O O15 0.799082 0.439458 0.963552
O O16 0.846525 0.861026 0.731284
#
# Coordination Sequence:
#
# PCOD9023168 Si02
#       7
#     2   2   2   2   2   2   2
#     4  12  27  46  69 103 149 185 241 302 365 434
#     4  10  22  43  73 105 138 188 245 300 350 429
#     4  12  27  47  78 105 145 194 247 299 364 434
#     4  12  26  45  74 104 139 194 246 297 361 437
#     4  11  24  40  64 105 144 182 229 298 362 427
#     4  10  22  39  66  96 142 182 227 288 364 414
#     4  11  23  42  71 101 142 184 243 294 358 429
#
# _framework density 21.388645
#
# number of rings (size 3 to 8) (size 9 to 14) (size 15 to 20)
#    0.000    0.857    1.429    6.429    2.000    6.286 
#    0.000    0.000    0.000    0.000    0.000    0.000 
#    0.000    0.000    0.000    0.000    0.000    0.000 
#
# Total GULP energy -78264.724157 kJ/mol
# GULP energy per Si atom -5590.337440 kJ/mol
# Density = 2.133996 g / cm^3
# Si number density = 21.388645 Si / 1000 Ang^3
#
#
#
# Elastic Constant Matrix: (Units=GPa)
#
#
# Indices 1 2 3 4 5 6 
#
# 1 125.7256 45.5575 59.1979 -5.8637 -10.0760 -16.0164
# 2 45.5575 140.2349 48.2162 -16.3212 -1.3850 -5.3178
# 3 59.1979 48.2162 128.0188 -16.4797 -14.6815 -11.0593
# 4 -5.8637 -16.3212 -16.4797 51.6458 -13.9431 15.5816
# 5 -10.0760 -1.3850 -14.6815 -13.9431 26.8836 9.2151
# 6 -16.0164 -5.3178 -11.0593 15.5816 9.2151 41.3167
#
#
#
# Elastic Compliance Matrix: (Units=1/GPa)
#
#
# Indices 1 2 3 4 5 6 
#
# 1 0.011141 -0.002243 -0.004348 -0.002216 -0.000793 0.003879
# 2 -0.002243 0.008790 -0.002089 0.002194 -0.000005 -0.001124
# 3 -0.004348 -0.002089 0.012180 0.006111 0.009124 -0.003034
# 4 -0.002216 0.002194 0.006111 0.034265 0.026483 -0.017770
# 5 -0.000793 -0.000005 0.009124 0.026483 0.063136 -0.021935
# 6 0.003879 -0.001124 -0.003034 -0.017770 -0.021935 0.036344
#
#
# Mechanical properties :
#
#
# Convention : Reuss Voigt Hill
#
# Bulk Modulus (GPa) = 67.79040 77.76915 72.77977
# Shear Modulus (GPa) = 26.57684 40.03642 33.30663
#
# Velocity S-wave (km/s) = 3.52883 4.33119 3.95043
# Velocity P-wave (km/s) = 6.95463 7.83908 7.41006
#
# Compressibility (1/GPa) = 0.01475135
#
# Stress axis : x y z
#
# Youngs Moduli (GPa) = 89.75740 113.75959 82.10437
#
# Poissons Ratio (x) = 0.25516 0.35700
# Poissons Ratio (y) = 0.20133 0.17150
# Poissons Ratio (z) = 0.39028 0.23762
#
# Static dielectric constant tensor:
#      x y z
#    x 1.769250 0.011870 0.032800 
#    y 0.011870 1.781480 -0.004020 
#    z 0.032800 -0.004020 1.821660 
# 
# From -- ./inp_files/242300.got.cif
#   From: 2010.05.17/outbox.cif.g08.bks.cpg/sg2_122_cif.got.tgz:242300.got - 2010.06.03 11:33:40.
