data_PCOD9023076
_publ_section_title
;
Structure prediction by ZEFSAII (Michael W. Deem and Ramdas Pophale) SiO2 
 PCOD9023076
Probable space group: P -1
;
_chemical_formula_sum "Si O2"
_cell_formula_units_Z 10
_cell_length_a 16.608887
_cell_length_b 5.271794
_cell_length_c 10.482965
_cell_angle_alpha 117.114554
_cell_angle_beta 36.955743
_cell_angle_gamma 97.249593
_cell_volume 439.916688
_symmetry_space_group_name_H-M "P -1"
_symmetry_group_IT_number 2
_symmetry_cell_setting 'triclinic'
loop_
_space_group_symop_operation_xyz
x,y,z
-x,-y,-z
loop_
_atom_site_type_symbol
_atom_site_label
_atom_site_fract_x
_atom_site_fract_y
_atom_site_fract_z
Si Si1 0.953904 0.874594 0.655527
Si Si2 0.939012 0.234415 0.010264
Si Si3 0.331453 0.136361 0.053733
Si Si4 0.593064 0.366782 0.979014
Si Si5 0.579658 0.564454 0.535611
O O1 0.000000 0.500000 0.500000
O O2 0.990638 0.017086 0.767938
O O3 0.000000 0.000000 0.500000
O O4 0.773755 0.998096 0.908408
O O5 0.757557 0.408135 0.275839
O O6 0.000000 0.500000 0.000000
O O7 0.000000 0.000000 0.000000
O O8 0.284682 0.500019 0.162769
O O9 0.340716 0.010968 0.159237
O O10 0.497848 0.946780 0.743112
O O11 0.487014 0.513434 0.269233
O O12 0.500000 0.500000 0.000000
O O13 0.500000 0.500000 0.500000
#
# Coordination Sequence:
#
# PCOD9023076 Si02
#       5
#     2   2   2   2   2
#     4  12  26  48  71 101 145 195 233 287 357 439
#     4  12  28  48  72 110 146 184 235 305 363 407
#     4  10  23  43  71  97 130 183 243 276 341 420
#     4  10  22  39  66 102 135 168 232 292 348 397
#     4  10  24  46  74  97 137 185 241 283 343 430
#
# _framework density 22.731579
#
# number of rings (size 3 to 8) (size 9 to 14) (size 15 to 20)
#    1.200    0.000    2.000    3.000    2.800    7.200 
#    0.000    0.000    0.000    0.000    0.000    0.000 
#    0.000    0.000    0.000    0.000    0.000    0.000 
#
# Total GULP energy -55713.341619 kJ/mol
# GULP energy per Si atom -5571.334162 kJ/mol
# Density = 2.267984 g / cm^3
# Si number density = 22.731579 Si / 1000 Ang^3
#
#
#
# Elastic Constant Matrix: (Units=GPa)
#
#
# Indices 1 2 3 4 5 6 
#
# 1 177.2851 68.2412 75.2357 -13.8482 18.5117 3.6195
# 2 68.2412 197.7457 74.8105 -27.9212 12.9473 2.2373
# 3 75.2357 74.8105 132.3681 -4.2851 2.5076 -0.6579
# 4 -13.8482 -27.9212 -4.2851 42.3327 -4.7090 -5.0319
# 5 18.5117 12.9473 2.5076 -4.7090 50.9995 -5.3212
# 6 3.6195 2.2373 -0.6579 -5.0319 -5.3212 36.3668
#
#
#
# Elastic Compliance Matrix: (Units=1/GPa)
#
#
# Indices 1 2 3 4 5 6 
#
# 1 0.008062 -0.000932 -0.003974 0.001224 -0.002487 -0.001011
# 2 -0.000932 0.007326 -0.003461 0.004068 -0.000976 0.000000
# 3 -0.003974 -0.003461 0.011673 -0.002129 0.001630 0.000764
# 4 0.001224 0.004068 -0.002129 0.027080 0.001499 0.003556
# 5 -0.002487 -0.000976 0.001630 0.001499 0.021197 0.003646
# 6 -0.001011 0.000000 0.000764 0.003556 0.003646 0.028638
#
#
# Mechanical properties :
#
#
# Convention : Reuss Voigt Hill
#
# Bulk Modulus (GPa) = 96.81981 104.88599 100.85290
# Shear Modulus (GPa) = 40.27358 45.21391 42.74374
#
# Velocity S-wave (km/s) = 4.21372 4.46470 4.34103
# Velocity P-wave (km/s) = 8.14611 8.53342 8.34201
#
# Compressibility (1/GPa) = 0.01032847
#
# Stress axis : x y z
#
# Youngs Moduli (GPa) = 124.04602 136.49782 85.66572
#
# Poissons Ratio (x) = 0.12716 0.34042
# Poissons Ratio (y) = 0.11556 0.29647
# Poissons Ratio (z) = 0.49294 0.47239
#
# Static dielectric constant tensor:
#      x y z
#    x 14.729940 12.518840 1.703830 
#    y 12.518840 14.221130 1.853050 
#    z 1.703830 1.853050 2.222580 
# 
# From -- ./inp_files/287192.got.cif
#   From: 2010.05.17/outbox.cif.g08.bks.cpg/sg2_144_cif.got.tgz:287192.got - 2010.06.03 11:33:40.
