data_PCOD9023875
_publ_section_title
;
Structure prediction by ZEFSAII (Michael W. Deem and Ramdas Pophale) SiO2 
 PCOD9023875
Probable space group: P -1
;
_chemical_formula_sum "Si O2"
_cell_formula_units_Z 16
_cell_length_a 5.215722
_cell_length_b 13.055919
_cell_length_c 16.375735
_cell_angle_alpha 134.171737
_cell_angle_beta 85.678792
_cell_angle_gamma 115.181353
_cell_volume 680.515442
_symmetry_space_group_name_H-M "P -1"
_symmetry_group_IT_number 2
_symmetry_cell_setting 'triclinic'
loop_
_space_group_symop_operation_xyz
x,y,z
-x,-y,-z
loop_
_atom_site_type_symbol
_atom_site_label
_atom_site_fract_x
_atom_site_fract_y
_atom_site_fract_z
Si Si1 0.515216 0.893551 0.209942
Si Si2 0.732094 0.465796 0.427430
Si Si3 0.444698 0.139729 0.147560
Si Si4 0.732636 0.914718 0.047732
Si Si5 0.308169 0.151696 0.538915
Si Si6 0.084803 0.364972 0.954239
Si Si7 0.111474 0.802014 0.528842
Si Si8 0.517774 0.364233 0.805755
O O1 0.461700 0.787136 0.235431
O O2 0.182475 0.825939 0.147866
O O3 0.640266 0.842685 0.101309
O O4 0.726169 0.086398 0.333380
O O5 0.500000 0.500000 0.500000
O O6 0.545068 0.285634 0.291000
O O7 0.000000 0.500000 0.500000
O O8 0.927791 0.604264 0.431476
O O9 0.645253 0.057487 0.115313
O O10 0.090466 0.998725 0.082050
O O11 0.454446 0.204174 0.089852
O O12 0.602484 0.141232 0.507037
O O13 0.410568 0.303891 0.684116
O O14 0.159461 0.168230 0.469493
O O15 0.000000 0.000000 0.500000
O O16 0.295465 0.372338 0.880449
O O17 0.206341 0.445818 0.085076
O O18 0.000000 0.500000 0.000000
#
# Coordination Sequence:
#
# PCOD9023875 Si02
#       8
#     2   2   2   2   2   2   2   2
#     4  11  22  38  64  93 123 164 229 258 322 401
#     4  12  25  46  72  99 140 175 220 286 335 402
#     4  10  22  45  63  98 131 165 212 268 352 379
#     4  10  23  40  71  93 126 170 210 278 326 400
#     4  12  25  44  65  94 142 175 220 282 321 398
#     4   9  21  39  60  88 121 163 219 265 326 375
#     4  12  27  41  69 103 127 185 227 262 346 402
#     4  10  22  40  62  88 129 173 214 270 332 380
#
# _framework density 23.511589000000001
#
# number of rings (size 3 to 8) (size 9 to 14) (size 15 to 20)
#    0.000    1.250    1.250    4.125    5.250    1.000 
#    4.500    0.000    0.000    0.000    0.000    0.000 
#    0.000    0.000    0.000    0.000    0.000    0.000 
#
# Total GULP energy -89155.111380 kJ/mol
# GULP energy per Si atom -5572.194461 kJ/mol
# Density = 2.345808 g / cm^3
# Si number density = 23.511589 Si / 1000 Ang^3
#
#
#
# Elastic Constant Matrix: (Units=GPa)
#
#
# Indices 1 2 3 4 5 6 
#
# 1 104.2661 1.9997 33.4445 1.9824 5.8537 14.1465
# 2 1.9997 33.5865 -8.6252 -8.3031 10.4911 5.9113
# 3 33.4445 -8.6252 184.3611 -1.5482 13.7039 9.4706
# 4 1.9824 -8.3031 -1.5482 24.5578 3.9619 -3.1179
# 5 5.8537 10.4911 13.7039 3.9619 33.2975 -0.6161
# 6 14.1465 5.9113 9.4706 -3.1179 -0.6161 26.2171
#
#
#
# Elastic Compliance Matrix: (Units=1/GPa)
#
#
# Indices 1 2 3 4 5 6 
#
# 1 0.010959 -0.000138 -0.001641 -0.001552 -0.001125 -0.005500
# 2 -0.000138 0.041485 0.003808 0.015802 -0.016664 -0.009167
# 3 -0.001641 0.003808 0.006308 0.002167 -0.003804 -0.002083
# 4 -0.001552 0.015802 0.002167 0.048403 -0.011320 0.001982
# 5 -0.001125 -0.016664 -0.003804 -0.011320 0.038491 0.005296
# 6 -0.005500 -0.009167 -0.002083 0.001982 0.005296 0.044291
#
#
# Mechanical properties :
#
#
# Convention : Reuss Voigt Hill
#
# Bulk Modulus (GPa) = 15.92127 41.76127 28.84127
# Shear Modulus (GPa) = 24.17616 36.50746 30.34181
#
# Velocity S-wave (km/s) = 3.21014 3.94476 3.59626
# Velocity P-wave (km/s) = 4.53060 6.20876 5.43485
#
# Compressibility (1/GPa) = 0.06280905
#
# Stress axis : x y z
#
# Youngs Moduli (GPa) = 91.25021 24.10503 158.52832
#
# Poissons Ratio (x) = 0.00333 0.26021
# Poissons Ratio (y) = 0.01262 -0.60371
# Poissons Ratio (z) = 0.14978 -0.09180
#
# Static dielectric constant tensor:
#      x y z
#    x 1.979790 0.033630 0.035730 
#    y 0.033630 2.087150 -0.008090 
#    z 0.035730 -0.008090 1.875100 
# 
# From -- ./inp_files/484394.got.cif
#   From: 2010.05.17/outbox.cif.g08.bks.cpg/sg2_243_cif.got.tgz:484394.got - 2010.06.03 11:33:40.
