data_PCOD9023685
_publ_section_title
;
Structure prediction by ZEFSAII (Michael W. Deem and Ramdas Pophale) SiO2 
 PCOD9023685
Probable space group: P -1
;
_chemical_formula_sum "Si O2"
_cell_formula_units_Z 13
_cell_length_a 6.909830
_cell_length_b 7.358137
_cell_length_c 23.435919
_cell_angle_alpha 133.528726
_cell_angle_beta 44.688776
_cell_angle_gamma 123.349848
_cell_volume 603.317952
_symmetry_space_group_name_H-M "P -1"
_symmetry_group_IT_number 2
_symmetry_cell_setting 'triclinic'
loop_
_space_group_symop_operation_xyz
x,y,z
-x,-y,-z
loop_
_atom_site_type_symbol
_atom_site_label
_atom_site_fract_x
_atom_site_fract_y
_atom_site_fract_z
Si Si1 0.358936 0.943387 0.078426
Si Si2 0.000000 0.500000 0.000000
Si Si3 0.656286 0.724173 0.575396
Si Si4 0.094420 0.890556 0.301987
Si Si5 0.669866 0.958109 0.129197
Si Si6 0.081674 0.678562 0.753578
Si Si7 0.599710 0.141303 0.451352
O O1 0.603560 0.960442 0.077099
O O2 0.178340 0.674072 0.050778
O O3 0.159482 0.157910 0.179422
O O4 0.500000 0.000000 0.000000
O O5 0.855064 0.746744 0.064396
O O6 0.345568 0.713388 0.664263
O O7 0.718797 0.434866 0.498977
O O8 0.640263 0.836693 0.539816
O O9 0.847181 0.906261 0.615754
O O10 0.367553 0.900771 0.209114
O O11 0.026291 0.613488 0.281693
O O12 0.832444 0.978675 0.343253
O O13 0.811639 0.215971 0.183881
O O14 0.500000 0.000000 0.500000
#
# Coordination Sequence:
#
# PCOD9023685 Si02
#       7
#     2   1   2   2   2   2   2
#     4  11  23  39  61  92 123 163 205 255 315 371
#     4  10  22  40  62  88 120 156 208 256 304 368
#     4  10  23  42  61  93 127 160 213 258 301 375
#     4  11  22  41  64  89 124 167 203 254 318 359
#     4  10  23  40  63  90 124 162 208 259 309 374
#     4  10  22  40  60  91 126 159 213 254 309 372
#     4  11  22  41  65  92 126 166 207 258 309 365
#
# _framework density 21.547512000000001
#
# number of rings (size 3 to 8) (size 9 to 14) (size 15 to 20)
#    0.000    1.538    1.538    2.769    0.000    5.538 
#    2.769    0.000    0.000    0.000    0.000    0.000 
#    0.000    0.000    0.000    0.000    0.000    0.000 
#
# Total GULP energy -72423.016419 kJ/mol
# GULP energy per Si atom -5571.001263 kJ/mol
# Density = 2.149847 g / cm^3
# Si number density = 21.547512 Si / 1000 Ang^3
#
#
#
# Elastic Constant Matrix: (Units=GPa)
#
#
# Indices 1 2 3 4 5 6 
#
# 1 75.3555 13.0895 -1.6828 -6.2539 10.4750 -20.1033
# 2 13.0895 64.2574 18.5349 7.6107 0.4289 -12.0636
# 3 -1.6828 18.5349 62.6294 14.9795 -6.6393 -3.5971
# 4 -6.2539 7.6107 14.9795 37.2254 0.1490 7.2544
# 5 10.4750 0.4289 -6.6393 0.1490 35.1940 -7.4118
# 6 -20.1033 -12.0636 -3.5971 7.2544 -7.4118 27.8270
#
#
#
# Elastic Compliance Matrix: (Units=1/GPa)
#
#
# Indices 1 2 3 4 5 6 
#
# 1 0.016877 -0.001830 0.001186 0.000656 -0.002525 0.010709
# 2 -0.001830 0.019065 -0.004149 -0.004057 0.001185 0.007780
# 3 0.001186 -0.004149 0.019882 -0.007925 0.004513 0.004896
# 4 0.000656 -0.004057 -0.007925 0.033381 -0.004345 -0.012169
# 5 -0.002525 0.001185 0.004513 -0.004345 0.031895 0.008901
# 6 0.010709 0.007780 0.004896 -0.012169 0.008901 0.053222
#
#
# Mechanical properties :
#
#
# Convention : Reuss Voigt Hill
#
# Bulk Modulus (GPa) = 21.62733 29.12507 25.37620
# Shear Modulus (GPa) = 25.08515 31.53599 28.31057
#
# Velocity S-wave (km/s) = 3.41571 3.82980 3.62866
# Velocity P-wave (km/s) = 5.06112 5.75347 5.41837
#
# Compressibility (1/GPa) = 0.04623779
#
# Stress axis : x y z
#
# Youngs Moduli (GPa) = 59.25166 52.45200 50.29741
#
# Poissons Ratio (x) = 0.09600 -0.05964
# Poissons Ratio (y) = 0.10845 0.20866
# Poissons Ratio (z) = -0.07026 0.21760
#
# Static dielectric constant tensor:
#      x y z
#    x 1.820510 0.006200 0.036940 
#    y 0.006200 1.773660 -0.049830 
#    z 0.036940 -0.049830 1.791940 
# 
# From -- ./inp_files/6166.got.cif
#   From: 2010.05.17/outbox.cif.g08.bks.cpg/sg2_4_cif.got.tgz:6166.got - 2010.06.03 11:33:40.
