data_PCOD9023184
_publ_section_title
;
Structure prediction by ZEFSAII (Michael W. Deem and Ramdas Pophale) SiO2 
 PCOD9023184
Probable space group: P -1
;
_chemical_formula_sum "Si O2"
_cell_formula_units_Z 16
_cell_length_a 8.650572
_cell_length_b 11.590503
_cell_length_c 10.898683
_cell_angle_alpha 49.629947
_cell_angle_beta 119.461279
_cell_angle_gamma 99.176111
_cell_volume 703.725789
_symmetry_space_group_name_H-M "P -1"
_symmetry_group_IT_number 2
_symmetry_cell_setting 'triclinic'
loop_
_space_group_symop_operation_xyz
x,y,z
-x,-y,-z
loop_
_atom_site_type_symbol
_atom_site_label
_atom_site_fract_x
_atom_site_fract_y
_atom_site_fract_z
Si Si1 0.937023 0.114291 0.282182
Si Si2 0.300498 0.987251 0.385334
Si Si3 0.496269 0.662481 0.315413
Si Si4 0.370543 0.373018 0.892831
Si Si5 0.190660 0.873088 0.179769
Si Si6 0.958839 0.674306 0.313141
Si Si7 0.317527 0.086121 0.794096
Si Si8 0.305938 0.708386 0.756368
O O1 0.844940 0.274140 0.206750
O O2 0.776753 0.038564 0.218550
O O3 0.000000 0.000000 0.500000
O O4 0.112174 0.112766 0.265450
O O5 0.301478 0.951975 0.265202
O O6 0.264674 0.838218 0.546867
O O7 0.500000 0.000000 0.500000
O O8 0.500000 0.500000 0.500000
O O9 0.558704 0.636684 0.214821
O O10 0.300730 0.787798 0.165086
O O11 0.624299 0.769029 0.352441
O O12 0.178861 0.324964 0.853310
O O13 0.339400 0.546635 0.811234
O O14 0.515319 0.274679 0.110749
O O15 0.143010 0.722652 0.326190
O O16 0.000000 0.000000 0.000000
O O17 0.843660 0.812677 0.255625
O O18 0.000000 0.500000 0.500000
O O19 0.500000 0.000000 0.000000
#
# Coordination Sequence:
#
# PCOD9023184 Si02
#       8
#     2   2   2   2   2   2   2   2
#     4  10  22  39  66  98 128 175 226 279 328 411
#     4  11  25  43  66  99 142 176 222 287 353 406
#     4  11  24  42  67 102 145 180 224 287 357 413
#     4  10  23  42  69  94 132 184 233 280 332 428
#     4  12  26  41  68 106 143 174 228 296 353 404
#     4  11  22  40  67  94 135 179 232 278 339 412
#     4  11  22  41  69  99 133 179 233 282 333 409
#     4  10  22  44  68  94 132 183 234 276 343 413
#
# _framework density 22.736129999999999
#
# number of rings (size 3 to 8) (size 9 to 14) (size 15 to 20)
#    0.000    1.250    1.250    5.250    8.750    0.000 
#    0.000    0.000    0.000    3.000    0.000    0.000 
#    0.000    0.000    0.000    0.000    0.000    0.000 
#
# Total GULP energy -89181.860325 kJ/mol
# GULP energy per Si atom -5573.866270 kJ/mol
# Density = 2.268438 g / cm^3
# Si number density = 22.736130 Si / 1000 Ang^3
#
#
#
# Elastic Constant Matrix: (Units=GPa)
#
#
# Indices 1 2 3 4 5 6 
#
# 1 93.3839 62.7283 14.3687 -4.9391 15.1201 -7.0663
# 2 62.7283 129.6103 40.6846 10.8813 12.8192 -17.6797
# 3 14.3687 40.6846 80.1007 2.1883 5.7883 -5.7894
# 4 -4.9391 10.8813 2.1883 36.1432 5.4548 7.2544
# 5 15.1201 12.8192 5.7883 5.4548 36.4083 -10.2483
# 6 -7.0663 -17.6797 -5.7894 7.2544 -10.2483 42.3994
#
#
#
# Elastic Compliance Matrix: (Units=1/GPa)
#
#
# Indices 1 2 3 4 5 6 
#
# 1 0.018137 -0.009754 0.001717 0.006994 -0.006420 -0.003559
# 2 -0.009754 0.015358 -0.005600 -0.007111 0.002222 0.005767
# 3 0.001717 -0.005600 0.015050 0.001354 -0.001502 -0.000589
# 4 0.006994 -0.007111 0.001354 0.033831 -0.008336 -0.009417
# 5 -0.006420 0.002222 -0.001502 -0.008336 0.033415 0.009154
# 6 -0.003559 0.005767 -0.000589 -0.009417 0.009154 0.029141
#
#
# Mechanical properties :
#
#
# Convention : Reuss Voigt Hill
#
# Bulk Modulus (GPa) = 47.01774 59.85090 53.43432
# Shear Modulus (GPa) = 27.88685 35.34437 31.61561
#
# Velocity S-wave (km/s) = 3.50600 3.94705 3.73305
# Velocity P-wave (km/s) = 6.09213 6.86685 6.49106
#
# Compressibility (1/GPa) = 0.02126857
#
# Stress axis : x y z
#
# Youngs Moduli (GPa) = 55.13700 65.11237 66.44564
#
# Poissons Ratio (x) = 0.63512 -0.11406
# Poissons Ratio (y) = 0.53782 0.37212
# Poissons Ratio (z) = -0.09465 0.36466
#
# Static dielectric constant tensor:
#      x y z
#    x 2.014580 -0.033440 0.015810 
#    y -0.033440 1.885680 0.024470 
#    z 0.015810 0.024470 1.914410 
# 
# From -- ./inp_files/389166.got.cif
#   From: 2010.05.17/outbox.cif.g08.bks.cpg/sg2_195_cif.got.tgz:389166.got - 2010.06.03 11:33:40.
