data_PCOD9023166
_publ_section_title
;
Structure prediction by ZEFSAII (Michael W. Deem and Ramdas Pophale) SiO2 
 PCOD9023166
Probable space group: P -1
;
_chemical_formula_sum "Si O2"
_cell_formula_units_Z 14
_cell_length_a 24.712450
_cell_length_b 5.559282
_cell_length_c 15.818224
_cell_angle_alpha 104.324552
_cell_angle_beta 17.136791
_cell_angle_gamma 100.704692
_cell_volume 610.568125
_symmetry_space_group_name_H-M "P -1"
_symmetry_group_IT_number 2
_symmetry_cell_setting 'triclinic'
loop_
_space_group_symop_operation_xyz
x,y,z
-x,-y,-z
loop_
_atom_site_type_symbol
_atom_site_label
_atom_site_fract_x
_atom_site_fract_y
_atom_site_fract_z
Si Si1 0.788635 0.025395 0.283761
Si Si2 0.215047 0.424180 0.637875
Si Si3 0.891917 0.871412 0.720542
Si Si4 0.266481 0.544230 0.143622
Si Si5 0.538324 0.703910 0.889502
Si Si6 0.318740 0.645962 0.880518
Si Si7 0.651078 0.805438 0.309947
O O1 0.706012 0.831184 0.450887
O O2 0.773810 0.938428 0.201727
O O3 0.703078 0.320891 0.443839
O O4 0.000000 0.000000 0.000000
O O5 0.260528 0.365218 0.465616
O O6 0.000000 0.500000 0.000000
O O7 0.734897 0.751472 0.895255
O O8 0.052363 0.656845 0.499061
O O9 0.000000 0.000000 0.500000
O O10 0.805441 0.085428 0.933397
O O11 0.395711 0.653175 0.025075
O O12 0.308271 0.626536 0.994282
O O13 0.500000 0.500000 0.000000
O O14 0.500000 0.000000 0.000000
O O15 0.527636 0.656038 0.541562
O O16 0.251281 0.410059 0.917398
O O17 0.500000 0.000000 0.500000
#
# Coordination Sequence:
#
# PCOD9023166 Si02
#       7
#     2   2   2   2   2   2   2
#     4  10  23  44  71  99 142 195 236 294 367 441
#     4  10  23  48  73 102 145 198 245 292 377 445
#     4   9  20  40  66  93 123 181 230 284 354 430
#     4  10  22  43  69  94 137 188 237 292 371 437
#     4  12  28  46  73 112 147 192 252 313 365 442
#     4  10  22  39  66  96 137 178 226 295 358 435
#     4  11  24  38  63 107 136 173 239 299 350 424
#
# _framework density 22.929463999999999
#
# number of rings (size 3 to 8) (size 9 to 14) (size 15 to 20)
#    0.000    1.714    0.000    2.571   12.000    0.000 
#    5.143   10.000    0.000    0.000    0.000    0.000 
#    0.000    0.000    0.000    0.000    0.000    0.000 
#
# Total GULP energy -78078.886769 kJ/mol
# GULP energy per Si atom -5577.063341 kJ/mol
# Density = 2.287728 g / cm^3
# Si number density = 22.929464 Si / 1000 Ang^3
#
#
#
# Elastic Constant Matrix: (Units=GPa)
#
#
# Indices 1 2 3 4 5 6 
#
# 1 123.5982 68.2284 36.3640 1.2907 16.0503 22.3720
# 2 68.2284 209.4247 39.4433 17.5140 7.9207 10.2313
# 3 36.3640 39.4433 103.9806 7.4209 22.1633 8.8927
# 4 1.2907 17.5140 7.4209 43.8051 2.0084 10.6954
# 5 16.0503 7.9207 22.1633 2.0084 34.1274 -10.7820
# 6 22.3720 10.2313 8.8927 10.6954 -10.7820 48.6894
#
#
#
# Elastic Compliance Matrix: (Units=1/GPa)
#
#
# Indices 1 2 3 4 5 6 
#
# 1 0.012484 -0.003512 -0.001259 0.003250 -0.006625 -0.006949
# 2 -0.003512 0.006273 -0.001479 -0.002612 0.001796 0.001537
# 3 -0.001259 -0.001479 0.012683 -0.000363 -0.008285 -0.003182
# 4 0.003250 -0.002612 -0.000363 0.025902 -0.004608 -0.007589
# 5 -0.006625 0.001796 -0.008285 -0.004608 0.042249 0.014548
# 6 -0.006949 0.001537 -0.003182 -0.007589 0.014548 0.028878
#
#
# Mechanical properties :
#
#
# Convention : Reuss Voigt Hill
#
# Bulk Modulus (GPa) = 52.80027 80.56388 66.68207
# Shear Modulus (GPa) = 33.94831 44.85556 39.40193
#
# Velocity S-wave (km/s) = 3.85197 4.42774 4.14985
# Velocity P-wave (km/s) = 6.54682 7.83273 7.21846
#
# Compressibility (1/GPa) = 0.01893930
#
# Stress axis : x y z
#
# Youngs Moduli (GPa) = 80.10237 159.41125 78.84816
#
# Poissons Ratio (x) = 0.55981 0.09929
# Poissons Ratio (y) = 0.28130 0.11664
# Poissons Ratio (z) = 0.10087 0.23581
#
# Static dielectric constant tensor:
#      x y z
#    x 1.868700 -0.050380 0.002780 
#    y -0.050380 1.975670 0.015180 
#    z 0.002780 0.015180 1.839930 
# 
# From -- ./inp_files/542232.got.cif
#   From: 2010.05.17/outbox.cif.g08.bks.cpg/sg2_272_cif.got.tgz:542232.got - 2010.06.03 11:33:40.
