data_PCOD9023059
_publ_section_title
;
Structure prediction by ZEFSAII (Michael W. Deem and Ramdas Pophale) SiO2 
 PCOD9023059
Probable space group: P -1
;
_chemical_formula_sum "Si O2"
_cell_formula_units_Z 16
_cell_length_a 14.661637
_cell_length_b 9.381348
_cell_length_c 18.848817
_cell_angle_alpha 122.900316
_cell_angle_beta 19.707852
_cell_angle_gamma 123.132810
_cell_volume 728.359283
_symmetry_space_group_name_H-M "P -1"
_symmetry_group_IT_number 2
_symmetry_cell_setting 'triclinic'
loop_
_space_group_symop_operation_xyz
x,y,z
-x,-y,-z
loop_
_atom_site_type_symbol
_atom_site_label
_atom_site_fract_x
_atom_site_fract_y
_atom_site_fract_z
Si Si1 0.219397 0.668381 0.888176
Si Si2 0.358377 0.447752 0.348239
Si Si3 0.115890 0.822068 0.353744
Si Si4 0.933904 0.299330 0.286045
Si Si5 0.387862 0.680438 0.614882
Si Si6 0.357755 0.107781 0.073435
Si Si7 0.914370 0.936660 0.264707
Si Si8 0.650777 0.422816 0.985079
O O1 0.497101 0.623296 0.707977
O O2 0.259470 0.732084 0.796111
O O3 0.000000 0.500000 0.000000
O O4 0.104368 0.806368 0.058574
O O5 0.090068 0.315513 0.490435
O O6 0.249090 0.622175 0.499112
O O7 0.588972 0.459515 0.121778
O O8 0.141826 0.713324 0.230252
O O9 0.000000 0.000000 0.500000
O O10 0.440624 0.879997 0.139517
O O11 0.818691 0.342316 0.305263
O O12 0.911313 0.098680 0.259760
O O13 0.235613 0.406071 0.093092
O O14 0.500000 0.500000 0.500000
O O15 0.627536 0.826738 0.457721
O O16 0.061956 0.016733 0.248829
O O17 0.370803 0.307295 0.136824
O O18 0.500000 0.000000 0.000000
#
# Coordination Sequence:
#
# PCOD9023059 Si02
#       8
#     2   2   2   2   2   2   2   2
#     4  12  24  40  69 102 129 172 228 283 337 396
#     4  11  21  40  67  96 132 182 224 272 329 398
#     4   9  19  34  58  95 128 171 216 271 319 374
#     4  11  25  46  67  98 140 178 220 282 339 406
#     4  12  25  44  71  97 130 175 231 278 338 401
#     4  10  22  39  65  99 137 173 221 276 323 395
#     4  12  27  44  68 103 138 172 225 282 342 399
#     4   9  22  38  66  92 139 178 219 263 339 387
#
# _framework density 21.967182000000001
#
# number of rings (size 3 to 8) (size 9 to 14) (size 15 to 20)
#    0.750    0.500    2.500    3.375    3.500    2.000 
#    2.250    0.625    0.000    0.000    0.000    0.000 
#    0.000    0.000    0.000    0.000    0.000    0.000 
#
# Total GULP energy -89138.405065 kJ/mol
# GULP energy per Si atom -5571.150317 kJ/mol
# Density = 2.191718 g / cm^3
# Si number density = 21.967182 Si / 1000 Ang^3
#
#
#
# Elastic Constant Matrix: (Units=GPa)
#
#
# Indices 1 2 3 4 5 6 
#
# 1 44.8278 8.3475 -0.7302 1.1692 10.7891 -3.7290
# 2 8.3475 127.7379 15.7232 -20.7468 -7.9146 1.1879
# 3 -0.7302 15.7232 76.8807 -16.6562 19.9280 2.5587
# 4 1.1692 -20.7468 -16.6562 28.3806 -3.1261 -0.7774
# 5 10.7891 -7.9146 19.9280 -3.1261 22.1133 -0.4863
# 6 -3.7290 1.1879 2.5587 -0.7774 -0.4863 31.5813
#
#
#
# Elastic Compliance Matrix: (Units=1/GPa)
#
#
# Indices 1 2 3 4 5 6 
#
# 1 0.028680 -0.004479 0.005925 -0.003256 -0.021338 0.002666
# 2 -0.004479 0.010222 -0.003128 0.006872 0.009627 -0.000343
# 3 0.005925 -0.003128 0.021018 0.007360 -0.021934 -0.001042
# 4 -0.003256 0.006872 0.007360 0.045128 0.003794 -0.000070
# 5 -0.021338 0.009627 -0.021934 0.003794 0.079385 0.000211
# 6 0.002666 -0.000343 -0.001042 -0.000070 0.000211 0.032078
#
#
# Mechanical properties :
#
#
# Convention : Reuss Voigt Hill
#
# Bulk Modulus (GPa) = 17.68165 32.90306 25.29236
# Shear Modulus (GPa) = 20.94429 31.48877 26.21653
#
# Velocity S-wave (km/s) = 3.09113 3.79020 3.45837
# Velocity P-wave (km/s) = 4.56143 5.84508 5.24269
#
# Compressibility (1/GPa) = 0.05655580
#
# Stress axis : x y z
#
# Youngs Moduli (GPa) = 34.86699 97.82685 47.57883
#
# Poissons Ratio (x) = 0.43819 -0.28192
# Poissons Ratio (y) = 0.15618 0.14884
# Poissons Ratio (z) = -0.20660 0.30603
#
# Static dielectric constant tensor:
#      x y z
#    x 1.893030 0.064100 -0.027350 
#    y 0.064100 1.901660 -0.093350 
#    z -0.027350 -0.093350 1.888330 
# 
# From -- ./inp_files/599741.got.cif
#   From: 2010.05.17/outbox.cif.g08.bks.cpg/sg2_300_cif.got.tgz:599741.got - 2010.06.03 11:33:40.
