data_PCOD9023054
_publ_section_title
;
Structure prediction by ZEFSAII (Michael W. Deem and Ramdas Pophale) SiO2 
 PCOD9023054
Probable space group: P -1
;
_chemical_formula_sum "Si O2"
_cell_formula_units_Z 12
_cell_length_a 8.819026
_cell_length_b 14.027197
_cell_length_c 9.247699
_cell_angle_alpha 56.919984
_cell_angle_beta 74.923415
_cell_angle_gamma 122.726634
_cell_volume 496.875454
_symmetry_space_group_name_H-M "P -1"
_symmetry_group_IT_number 2
_symmetry_cell_setting 'triclinic'
loop_
_space_group_symop_operation_xyz
x,y,z
-x,-y,-z
loop_
_atom_site_type_symbol
_atom_site_label
_atom_site_fract_x
_atom_site_fract_y
_atom_site_fract_z
Si Si1 0.035256 0.258704 0.754251
Si Si2 0.810893 0.466139 0.263631
Si Si3 0.763047 0.012512 0.772664
Si Si4 0.124255 0.014955 0.760330
Si Si5 0.155870 0.523646 0.313560
Si Si6 0.172375 0.839140 0.670168
O O1 0.077007 0.373813 0.776984
O O2 0.211327 0.429660 0.438662
O O3 0.742669 0.062172 0.893353
O O4 0.061292 0.156140 0.919991
O O5 0.463251 0.239222 0.533941
O O6 0.953021 0.434477 0.303718
O O7 0.943761 0.603611 0.973642
O O8 0.841740 0.136358 0.513902
O O9 0.464911 0.769334 0.007789
O O10 0.997604 0.057282 0.707032
O O11 0.113780 0.917964 0.712600
O O12 0.000000 0.500000 0.500000
O O13 0.500000 0.000000 0.500000
#
# Coordination Sequence:
#
# PCOD9023054 Si02
#       6
#     2   2   2   2   2   2
#     4  10  23  40  68  96 136 170 222 265 336 390
#     4  10  23  43  66  99 133 176 221 277 328 394
#     4  12  25  43  68 103 134 178 219 278 336 391
#     4  11  26  44  68  98 143 170 221 279 334 395
#     4  10  22  39  65  99 132 175 222 268 326 391
#     4  11  25  46  70  97 133 179 228 272 330 400
#
# _framework density 24.150919999999999
#
# number of rings (size 3 to 8) (size 9 to 14) (size 15 to 20)
#    0.000    1.333    1.667    3.000    2.333   10.000 
#    0.000    0.000    0.000    0.000    0.000    0.000 
#    0.000    0.000    0.000    0.000    0.000    0.000 
#
# Total GULP energy -66967.215367 kJ/mol
# GULP energy per Si atom -5580.601281 kJ/mol
# Density = 2.409595 g / cm^3
# Si number density = 24.150920 Si / 1000 Ang^3
#
#
#
# Elastic Constant Matrix: (Units=GPa)
#
#
# Indices 1 2 3 4 5 6 
#
# 1 79.3340 96.8584 65.7354 -15.1123 30.0480 20.6014
# 2 96.8584 96.1677 35.8513 23.0006 16.6775 6.6190
# 3 65.7354 35.8513 159.5326 2.5880 48.3524 17.7511
# 4 -15.1123 23.0006 2.5880 29.2374 9.0585 12.9484
# 5 30.0480 16.6775 48.3524 9.0585 52.6732 -0.0670
# 6 20.6014 6.6190 17.7511 12.9484 -0.0670 40.3433
#
#
#
# Elastic Compliance Matrix: (Units=1/GPa)
#
#
# Indices 1 2 3 4 5 6 
#
# 1 -0.007849 0.011393 -0.001724 -0.018541 0.005653 0.008858
# 2 0.011393 -0.002081 -0.001246 0.014023 -0.007120 -0.009441
# 3 -0.001724 -0.001246 0.010425 0.004056 -0.008896 -0.004819
# 4 -0.018541 0.014023 0.004056 0.012548 0.000258 0.001356
# 5 0.005653 -0.007120 -0.008896 0.000258 0.026139 0.002156
# 6 0.008858 -0.009441 -0.004819 0.001356 0.002156 0.023502
#
#
# Mechanical properties :
#
#
# Convention : Reuss Voigt Hill
#
# Bulk Modulus (GPa) = 57.66703 81.32494 69.49598
# Shear Modulus (GPa) = 96.86580 33.55673 65.21127
#
# Velocity S-wave (km/s) = 6.34000 3.73159 5.20194
# Velocity P-wave (km/s) = 8.80476 7.23278 8.05720
#
# Compressibility (1/GPa) = 0.01734093
#
# Stress axis : x y z
#
# Youngs Moduli (GPa) = -127.40304 -480.50256 95.92035
#
# Poissons Ratio (x) = 5.47428 0.16539
# Poissons Ratio (y) = 1.45148 0.11948
# Poissons Ratio (z) = -0.21968 -0.59851
#
# Static dielectric constant tensor:
#      x y z
#    x 1.940820 -0.074980 0.040060 
#    y -0.074980 2.082000 -0.047540 
#    z 0.040060 -0.047540 1.940750 
# 
# From -- ./inp_files/23604.got.cif
#   From: 2010.05.17/outbox.cif.g08.bks.cpg/sg2_12_cif.got.tgz:23604.got - 2010.06.03 11:33:40.
