data_PCOD9023669
_publ_section_title
;
Structure prediction by ZEFSAII (Michael W. Deem and Ramdas Pophale) SiO2 
 PCOD9023669
Probable space group: P -1
;
_chemical_formula_sum "Si O2"
_cell_formula_units_Z 10
_cell_length_a 15.498638
_cell_length_b 5.516574
_cell_length_c 18.169736
_cell_angle_alpha 63.641988
_cell_angle_beta 159.979206
_cell_angle_gamma 104.674000
_cell_volume 402.913624
_symmetry_space_group_name_H-M "P -1"
_symmetry_group_IT_number 2
_symmetry_cell_setting 'triclinic'
loop_
_space_group_symop_operation_xyz
x,y,z
-x,-y,-z
loop_
_atom_site_type_symbol
_atom_site_label
_atom_site_fract_x
_atom_site_fract_y
_atom_site_fract_z
Si Si1 0.121264 0.702512 0.850190
Si Si2 0.625292 0.791228 0.202153
Si Si3 0.343421 0.624322 0.279301
Si Si4 0.694774 0.158969 0.328052
Si Si5 0.239722 0.264551 0.135478
O O1 0.344136 0.830062 0.018996
O O2 0.336622 0.391240 0.014435
O O3 0.079712 0.559260 0.910548
O O4 0.838306 0.961535 0.543765
O O5 0.205984 0.584573 0.631119
O O6 0.775160 0.921244 0.357714
O O7 0.500000 0.000000 0.000000
O O8 0.500000 0.500000 0.500000
O O9 0.448402 0.344244 0.340611
O O10 0.365237 0.929612 0.238827
O O11 0.998075 0.741506 0.999890
#
# Coordination Sequence:
#
# PCOD9023669 Si02
#       5
#     2   2   2   2   2
#     4  10  26  41  66  94 127 165 210 257 310 372
#     4  10  24  43  65  95 127 166 208 257 311 370
#     4  10  22  40  60  87 119 160 199 256 304 363
#     4  10  25  41  65  93 126 167 207 257 312 365
#     4  10  23  38  60  89 119 156 208 247 307 364
#
# _framework density 24.819215
#
# number of rings (size 3 to 8) (size 9 to 14) (size 15 to 20)
#    1.200    0.800    0.000    1.200    8.400    1.600 
#    0.000    0.000    0.000    0.000    0.000    0.000 
#    0.000    0.000    0.000    0.000    0.000    0.000 
#
# Total GULP energy -55803.546826 kJ/mol
# GULP energy per Si atom -5580.354683 kJ/mol
# Density = 2.476273 g / cm^3
# Si number density = 24.819215 Si / 1000 Ang^3
#
#
#
# Elastic Constant Matrix: (Units=GPa)
#
#
# Indices 1 2 3 4 5 6 
#
# 1 76.8943 88.5706 9.4726 3.2449 -20.9640 16.3936
# 2 88.5706 256.1444 56.6715 9.8201 -35.8135 -9.3004
# 3 9.4726 56.6715 49.6687 -8.3157 -19.5180 12.4964
# 4 3.2449 9.8201 -8.3157 33.9851 7.0759 -15.5508
# 5 -20.9640 -35.8135 -19.5180 7.0759 52.9698 -2.5984
# 6 16.3936 -9.3004 12.4964 -15.5508 -2.5984 50.1960
#
#
#
# Elastic Compliance Matrix: (Units=1/GPa)
#
#
# Indices 1 2 3 4 5 6 
#
# 1 0.037143 -0.016360 0.020253 -0.005953 0.010843 -0.021487
# 2 -0.016360 0.013104 -0.015897 -0.000253 -0.002875 0.011501
# 3 0.020253 -0.015897 0.044518 0.002110 0.012441 -0.019345
# 4 -0.005953 -0.000253 0.002110 0.037689 -0.006159 0.012729
# 5 0.010843 -0.002875 0.012441 -0.006159 0.026254 -0.007720
# 6 -0.021487 0.011501 -0.019345 0.012729 -0.007720 0.037430
#
#
# Mechanical properties :
#
#
# Convention : Reuss Voigt Hill
#
# Bulk Modulus (GPa) = 14.13286 76.90408 45.51847
# Shear Modulus (GPa) = 20.51442 42.62970 31.57206
#
# Velocity S-wave (km/s) = 2.87810 4.14890 3.57049
# Velocity P-wave (km/s) = 4.09284 7.34875 5.94792
#
# Compressibility (1/GPa) = 0.07075706
#
# Stress axis : x y z
#
# Youngs Moduli (GPa) = 26.92318 76.31486 22.46287
#
# Poissons Ratio (x) = 1.24854 -0.45495
# Poissons Ratio (y) = 0.44047 0.35709
# Poissons Ratio (z) = -0.54529 1.21316
#
# Static dielectric constant tensor:
#      x y z
#    x 1.976250 -0.042210 0.106330 
#    y -0.042210 1.995540 -0.022920 
#    z 0.106330 -0.022920 1.987260 
# 
# From -- ./inp_files/2271.got.cif
#   From: 2010.05.17/outbox.cif.g08.bks.cpg/sg2_2_cif.got.tgz:2271.got - 2010.06.03 11:33:40.
