data_PCOD9023343
_publ_section_title
;
Structure prediction by ZEFSAII (Michael W. Deem and Ramdas Pophale) SiO2 
 PCOD9023343
Probable space group: P -1
;
_chemical_formula_sum "Si O2"
_cell_formula_units_Z 15
_cell_length_a 21.345846
_cell_length_b 9.007617
_cell_length_c 9.438047
_cell_angle_alpha 133.682744
_cell_angle_beta 32.508835
_cell_angle_gamma 136.949587
_cell_volume 651.924084
_symmetry_space_group_name_H-M "P -1"
_symmetry_group_IT_number 2
_symmetry_cell_setting 'triclinic'
loop_
_space_group_symop_operation_xyz
x,y,z
-x,-y,-z
loop_
_atom_site_type_symbol
_atom_site_label
_atom_site_fract_x
_atom_site_fract_y
_atom_site_fract_z
Si Si1 0.093307 0.800756 0.436608
Si Si2 0.509554 0.079697 0.371747
Si Si3 0.119853 0.729376 0.902804
Si Si4 0.000000 0.000000 0.500000
Si Si5 0.717209 0.460675 0.357156
Si Si6 0.643002 0.842283 0.786451
Si Si7 0.279933 0.073024 0.630149
Si Si8 0.111427 0.329281 0.059222
O O1 0.116624 0.573824 0.249098
O O2 0.006109 0.812495 0.481273
O O3 0.025284 0.827320 0.727724
O O4 0.225013 0.001075 0.291823
O O5 0.632822 0.307265 0.292755
O O6 0.390944 0.121029 0.564081
O O7 0.500000 0.000000 0.500000
O O8 0.535786 0.904236 0.104344
O O9 0.234881 0.682162 0.724748
O O10 0.174694 0.831630 0.712756
O O11 0.000000 0.500000 0.000000
O O12 0.082477 0.913048 0.174649
O O13 0.636396 0.594132 0.659642
O O14 0.845375 0.644162 0.168722
O O15 0.661552 0.901769 0.622966
O O16 0.212864 0.248131 0.883151
#
# Coordination Sequence:
#
# PCOD9023343 Si02
#       8
#     2   2   2   1   2   2   2   2
#     4  11  22  41  70 103 145 181 229 288 350 433
#     4  12  25  51  73  96 143 186 245 292 348 427
#     4  12  25  43  67 111 142 186 233 289 354 424
#     4  12  22  42  70  98 150 186 230 274 352 426
#     4  11  24  45  71 101 142 182 237 294 348 420
#     4  11  26  45  72 107 136 185 234 301 357 414
#     4  11  26  46  70 104 144 187 235 295 352 419
#     4  10  22  39  68 103 137 185 226 279 362 409
#
# _framework density 23.008814000000001
#
# number of rings (size 3 to 8) (size 9 to 14) (size 15 to 20)
#    0.000    0.800    5.333    1.200    1.867    3.733 
#    2.400    0.000    0.000    0.000    0.000    0.000 
#    0.000    0.000    0.000    0.000    0.000    0.000 
#
# Total GULP energy -83529.809419 kJ/mol
# GULP energy per Si atom -5568.653961 kJ/mol
# Density = 2.295645 g / cm^3
# Si number density = 23.008814 Si / 1000 Ang^3
#
#
#
# Elastic Constant Matrix: (Units=GPa)
#
#
# Indices 1 2 3 4 5 6 
#
# 1 106.6333 40.7616 69.3231 11.6860 -14.8780 -31.7624
# 2 40.7616 82.2866 39.7966 12.9293 -14.8649 -20.5015
# 3 69.3231 39.7966 110.2556 26.2133 -18.2095 -37.7711
# 4 11.6860 12.9293 26.2133 44.7854 -13.7255 -3.5901
# 5 -14.8780 -14.8649 -18.2095 -13.7255 33.3877 1.3273
# 6 -31.7624 -20.5015 -37.7711 -3.5901 1.3273 31.9396
#
#
#
# Elastic Compliance Matrix: (Units=1/GPa)
#
#
# Indices 1 2 3 4 5 6 
#
# 1 0.017822 -0.003246 -0.007904 0.002311 0.002880 0.006432
# 2 -0.003246 0.016784 -0.000653 -0.001652 0.004737 0.006391
# 3 -0.007904 -0.000653 0.023253 -0.008481 0.004664 0.018072
# 4 0.002311 -0.001652 -0.008481 0.029109 0.007868 -0.005847
# 5 0.002880 0.004737 0.004664 0.007868 0.038696 0.010697
# 6 0.006432 0.006391 0.018072 -0.005847 0.010697 0.062078
#
#
# Mechanical properties :
#
#
# Convention : Reuss Voigt Hill
#
# Bulk Modulus (GPa) = 29.19438 66.54867 47.87153
# Shear Modulus (GPa) = 22.44519 31.97551 27.21035
#
# Velocity S-wave (km/s) = 3.12669 3.73192 3.44263
# Velocity P-wave (km/s) = 5.07453 6.89605 6.05419
#
# Compressibility (1/GPa) = 0.03425316
#
# Stress axis : x y z
#
# Youngs Moduli (GPa) = 56.11144 59.58143 43.00526
#
# Poissons Ratio (x) = 0.19339 0.33992
# Poissons Ratio (y) = 0.18213 0.02807
# Poissons Ratio (z) = 0.44351 0.03889
#
# Static dielectric constant tensor:
#      x y z
#    x 1.907410 0.014990 -0.001170 
#    y 0.014990 1.935420 -0.041670 
#    z -0.001170 -0.041670 1.907620 
# 
# From -- ./inp_files/343831.got.cif
#   From: 2010.05.17/outbox.cif.g08.bks.cpg/sg2_172_cif.got.tgz:343831.got - 2010.06.03 11:33:40.
