data_PCOD9023102
_publ_section_title
;
Structure prediction by ZEFSAII (Michael W. Deem and Ramdas Pophale) SiO2 
 PCOD9023102
Probable space group: P -1
;
_chemical_formula_sum "Si O2"
_cell_formula_units_Z 16
_cell_length_a 18.047483
_cell_length_b 23.548001
_cell_length_c 5.286965
_cell_angle_alpha 64.028647
_cell_angle_beta 114.960160
_cell_angle_gamma 158.892162
_cell_volume 726.809681
_symmetry_space_group_name_H-M "P -1"
_symmetry_group_IT_number 2
_symmetry_cell_setting 'triclinic'
loop_
_space_group_symop_operation_xyz
x,y,z
-x,-y,-z
loop_
_atom_site_type_symbol
_atom_site_label
_atom_site_fract_x
_atom_site_fract_y
_atom_site_fract_z
Si Si1 0.124605 0.570655 0.292360
Si Si2 0.418075 0.095844 0.707262
Si Si3 0.962465 0.013003 0.172763
Si Si4 0.747822 0.474905 0.597975
Si Si5 0.602138 0.473418 0.072265
Si Si6 0.439186 0.194412 0.042449
Si Si7 0.740069 0.682590 0.205936
Si Si8 0.033254 0.262359 0.306230
O O1 0.347759 0.763563 0.235812
O O2 0.164006 0.523053 0.423835
O O3 0.000000 0.500000 0.500000
O O4 0.000000 0.500000 0.000000
O O5 0.400766 0.118216 0.907533
O O6 0.210772 0.908156 0.752932
O O7 0.421475 0.146234 0.375509
O O8 0.120634 0.183551 0.060904
O O9 0.000000 0.000000 0.500000
O O10 0.734389 0.876699 0.091475
O O11 0.000000 0.000000 0.000000
O O12 0.576236 0.388618 0.344611
O O13 0.650380 0.377507 0.904883
O O14 0.903824 0.640547 0.584192
O O15 0.623715 0.540623 0.193812
O O16 0.424380 0.380143 0.826345
O O17 0.814886 0.618488 0.943374
O O18 0.899872 0.761666 0.469147
#
# Coordination Sequence:
#
# PCOD9023102 Si02
#       8
#     2   2   2   2   2   2   2   2
#     4  11  25  49  77 104 136 174 221 288 364 441
#     4  11  24  44  74 100 135 181 221 284 356 418
#     4  12  25  36  59  89 136 179 241 289 327 375
#     4  10  25  41  70 104 131 180 238 282 352 415
#     4  10  22  39  66  89 143 183 236 282 333 402
#     4  11  23  43  65  95 137 183 234 280 341 409
#     4  10  22  40  56  97 132 194 236 278 337 381
#     4  11  23  40  69  98 141 186 232 284 336 409
#
# _framework density 22.014015000000001
#
# number of rings (size 3 to 8) (size 9 to 14) (size 15 to 20)
#    0.000    1.250    1.250    4.125   10.500    0.000 
#    0.000    1.250    0.000    0.000    0.000    0.000 
#    0.000    0.000    0.000    0.000    0.000    0.000 
#
# Total GULP energy -89388.094583 kJ/mol
# GULP energy per Si atom -5586.755911 kJ/mol
# Density = 2.196391 g / cm^3
# Si number density = 22.014015 Si / 1000 Ang^3
#
#
#
# Elastic Constant Matrix: (Units=GPa)
#
#
# Indices 1 2 3 4 5 6 
#
# 1 99.2854 43.6578 10.3212 1.3381 1.4352 17.6971
# 2 43.6578 117.8159 8.5597 6.8946 -9.2955 9.3455
# 3 10.3212 8.5597 89.9816 4.4067 -2.4818 -0.0378
# 4 1.3381 6.8946 4.4067 31.7710 0.6238 4.4718
# 5 1.4352 -9.2955 -2.4818 0.6238 26.5475 -7.3461
# 6 17.6971 9.3455 -0.0378 4.4718 -7.3461 34.7911
#
#
#
# Elastic Compliance Matrix: (Units=1/GPa)
#
#
# Indices 1 2 3 4 5 6 
#
# 1 0.013593 -0.004857 -0.001307 0.001704 -0.004472 -0.006774
# 2 -0.004857 0.010712 -0.000232 -0.002282 0.004263 0.000786
# 3 -0.001307 -0.000232 0.011408 -0.001683 0.001444 0.001261
# 4 0.001704 -0.002282 -0.001683 0.032924 -0.003254 -0.005175
# 5 -0.004472 0.004263 0.001444 -0.003254 0.042528 0.010529
# 6 -0.006774 0.000786 0.001261 -0.005175 0.010529 0.034867
#
#
# Mechanical properties :
#
#
# Convention : Reuss Voigt Hill
#
# Bulk Modulus (GPa) = 43.62871 48.01781 45.82326
# Shear Modulus (GPa) = 30.03629 34.92486 32.48058
#
# Velocity S-wave (km/s) = 3.69781 3.98739 3.84533
# Velocity P-wave (km/s) = 6.17198 6.56192 6.36993
#
# Compressibility (1/GPa) = 0.02292069
#
# Stress axis : x y z
#
# Youngs Moduli (GPa) = 73.56842 93.35251 87.65680
#
# Poissons Ratio (x) = 0.45343 0.11454
# Poissons Ratio (y) = 0.35734 0.02035
# Poissons Ratio (z) = 0.09613 0.02168
#
# Static dielectric constant tensor:
#      x y z
#    x -1.450580 0.088630 1.103990 
#    y 0.088630 1.872060 0.007060 
#    z 1.103990 0.007060 1.476480 
# 
# From -- ./inp_files/112767.got.cif
#   From: 2010.05.17/outbox.cif.g08.bks.cpg/sg2_57_cif.got.tgz:112767.got - 2010.06.03 11:33:40.
