data_PCOD9023917
_publ_section_title
;
Structure prediction by ZEFSAII (Michael W. Deem and Ramdas Pophale) SiO2 
 PCOD9023917
Probable space group: P -1
;
_chemical_formula_sum "Si O2"
_cell_formula_units_Z 10
_cell_length_a 14.358363
_cell_length_b 10.893003
_cell_length_c 12.694981
_cell_angle_alpha 37.757756
_cell_angle_beta 19.993719
_cell_angle_gamma 38.826334
_cell_volume 409.482768
_symmetry_space_group_name_H-M "P -1"
_symmetry_group_IT_number 2
_symmetry_cell_setting 'triclinic'
loop_
_space_group_symop_operation_xyz
x,y,z
-x,-y,-z
loop_
_atom_site_type_symbol
_atom_site_label
_atom_site_fract_x
_atom_site_fract_y
_atom_site_fract_z
Si Si1 0.393273 0.475050 0.881919
Si Si2 0.377249 0.295648 0.238527
Si Si3 0.175061 0.832895 0.003024
Si Si4 0.799261 0.390493 0.220739
Si Si5 0.741717 0.124615 0.633455
O O1 0.333243 0.321786 0.141890
O O2 0.398762 0.686909 0.791505
O O3 0.179833 0.557048 0.959440
O O4 0.653106 0.341878 0.638735
O O5 0.076241 0.278433 0.615038
O O6 0.500000 0.500000 0.000000
O O7 0.625979 0.125486 0.138718
O O8 0.000000 0.000000 0.000000
O O9 0.500000 0.500000 0.500000
O O10 0.807369 0.165869 0.413093
O O11 0.000000 0.500000 0.000000
O O12 0.000000 0.000000 0.500000
O O13 0.500000 0.000000 0.000000
#
# Coordination Sequence:
#
# PCOD9023917 Si02
#       5
#     2   2   2   2   2
#     4  10  23  42  67  88 131 171 199 264 322 354
#     4  10  22  41  65  95 126 165 212 255 311 382
#     4  11  24  42  65  98 127 161 214 259 309 383
#     4  10  22  40  62  91 123 163 211 253 305 374
#     4  11  24  41  62  94 124 160 214 257 303 377
#
# _framework density 24.421052
#
# number of rings (size 3 to 8) (size 9 to 14) (size 15 to 20)
#    0.000    1.600    0.000    5.400    0.000   17.600 
#    0.000    0.000    0.000    0.000    0.000    0.000 
#    0.000    0.000    0.000    0.000    0.000    0.000 
#
# Total GULP energy -55688.992616 kJ/mol
# GULP energy per Si atom -5568.899262 kJ/mol
# Density = 2.436547 g / cm^3
# Si number density = 24.421052 Si / 1000 Ang^3
#
#
#
# Elastic Constant Matrix: (Units=GPa)
#
#
# Indices 1 2 3 4 5 6 
#
# 1 181.3291 37.7035 65.7101 -17.7675 22.1384 -59.8394
# 2 37.7035 98.7146 25.4983 5.2198 17.6644 -43.0236
# 3 65.7101 25.4983 133.1740 -17.3370 -13.9389 -13.7874
# 4 -17.7675 5.2198 -17.3370 38.5069 -12.0348 7.5960
# 5 22.1384 17.6644 -13.9389 -12.0348 51.0382 -1.6607
# 6 -59.8394 -43.0236 -13.7874 7.5960 -1.6607 52.8541
#
#
#
# Elastic Compliance Matrix: (Units=1/GPa)
#
#
# Indices 1 2 3 4 5 6 
#
# 1 0.015877 0.009783 -0.009634 -0.007418 -0.013871 0.024056
# 2 0.009783 0.028008 -0.011085 -0.016961 -0.019897 0.032796
# 3 -0.009634 -0.011085 0.015713 0.012068 0.014596 -0.017108
# 4 -0.007418 -0.016961 0.012068 0.041793 0.021445 -0.024390
# 5 -0.013871 -0.019897 0.014596 0.021445 0.040566 -0.029900
# 6 0.024056 0.032796 -0.017108 -0.024390 -0.029900 0.070955
#
#
# Mechanical properties :
#
#
# Convention : Reuss Voigt Hill
#
# Bulk Modulus (GPa) = 26.50716 74.56017 50.53366
# Shear Modulus (GPa) = 20.21363 47.43355 33.82359
#
# Velocity S-wave (km/s) = 2.88012 4.41196 3.72562
# Velocity P-wave (km/s) = 4.68379 7.52006 6.26455
#
# Compressibility (1/GPa) = 0.03772566
#
# Stress axis : x y z
#
# Youngs Moduli (GPa) = 62.98374 35.70446 63.64298
#
# Poissons Ratio (x) = -0.34931 0.61315
# Poissons Ratio (y) = -0.61620 0.70549
# Poissons Ratio (z) = 0.60680 0.39579
#
# Static dielectric constant tensor:
#      x y z
#    x 2.102300 -0.021520 0.097580 
#    y -0.021520 2.062210 -0.058240 
#    z 0.097580 -0.058240 1.946160 
# 
# From -- ./inp_files/55792.got.cif
#   From: 2010.05.17/outbox.cif.g08.bks.cpg/sg2_28_cif.got.tgz:55792.got - 2010.06.03 11:33:40.
