data_PCOD9023817
_publ_section_title
;
Structure prediction by ZEFSAII (Michael W. Deem and Ramdas Pophale) SiO2 
 PCOD9023817
Probable space group: P -1
;
_chemical_formula_sum "Si O2"
_cell_formula_units_Z 16
_cell_length_a 8.446382
_cell_length_b 8.342862
_cell_length_c 16.123440
_cell_angle_alpha 117.394931
_cell_angle_beta 56.429120
_cell_angle_gamma 131.022484
_cell_volume 705.623690
_symmetry_space_group_name_H-M "P -1"
_symmetry_group_IT_number 2
_symmetry_cell_setting 'triclinic'
loop_
_space_group_symop_operation_xyz
x,y,z
-x,-y,-z
loop_
_atom_site_type_symbol
_atom_site_label
_atom_site_fract_x
_atom_site_fract_y
_atom_site_fract_z
Si Si1 0.771001 0.505886 0.061195
Si Si2 0.823071 0.942350 0.108367
Si Si3 0.129896 0.657773 0.733157
Si Si4 0.198498 0.667058 0.363467
Si Si5 0.435215 0.873548 0.079585
Si Si6 0.645082 0.028852 0.384760
Si Si7 0.067697 0.249470 0.410819
Si Si8 0.528883 0.761632 0.762789
O O1 0.806511 0.737908 0.105798
O O2 0.577172 0.378827 0.156662
O O3 0.680258 0.373100 0.970493
O O4 0.000000 0.500000 0.000000
O O5 0.617341 0.909322 0.104342
O O6 0.909127 0.150486 0.190611
O O7 0.000000 0.000000 0.000000
O O8 0.296732 0.674412 0.758718
O O9 0.906152 0.435382 0.719822
O O10 0.277493 0.746161 0.627424
O O11 0.467641 0.841473 0.329824
O O12 0.150105 0.471027 0.390256
O O13 0.057902 0.756268 0.469586
O O14 0.333621 0.992540 0.185259
O O15 0.500000 0.000000 0.000000
O O16 0.500000 0.000000 0.500000
O O17 0.873538 0.060359 0.363199
O O18 0.294000 0.250976 0.348654
#
# Coordination Sequence:
#
# PCOD9023817 Si02
#       8
#     2   2   2   2   2   2   2   2
#     4  11  23  41  65  94 128 174 222 272 336 394
#     4  11  23  42  65  93 129 170 219 273 330 395
#     4  10  22  40  61  95 135 169 217 275 328 394
#     4   9  19  38  63  91 126 174 213 268 320 395
#     4   9  20  40  62  87 127 164 209 271 323 388
#     4   9  19  39  64  91 125 170 219 265 319 394
#     4   9  19  37  64  91 128 167 216 269 326 381
#     4  10  22  41  60  96 134 168 215 279 330 393
#
# _framework density 22.674976999999998
#
# number of rings (size 3 to 8) (size 9 to 14) (size 15 to 20)
#    0.000    2.250    0.000    3.375    1.750    6.500 
#    9.000    2.500    0.000    0.000    0.000    0.000 
#    0.000    0.000    0.000    0.000    0.000    0.000 
#
# Total GULP energy -89075.573093 kJ/mol
# GULP energy per Si atom -5567.223318 kJ/mol
# Density = 2.262337 g / cm^3
# Si number density = 22.674977 Si / 1000 Ang^3
#
#
#
# Elastic Constant Matrix: (Units=GPa)
#
#
# Indices 1 2 3 4 5 6 
#
# 1 66.6567 36.1661 26.1004 29.8152 2.3859 19.0059
# 2 36.1661 86.0084 27.2314 14.4425 -4.2021 22.9529
# 3 26.1004 27.2314 76.3523 24.8154 -7.4215 0.6796
# 4 29.8152 14.4425 24.8154 37.8087 3.4067 10.2558
# 5 2.3859 -4.2021 -7.4215 3.4067 37.2474 7.8080
# 6 19.0059 22.9529 0.6796 10.2558 7.8080 40.7081
#
#
#
# Elastic Compliance Matrix: (Units=1/GPa)
#
#
# Indices 1 2 3 4 5 6 
#
# 1 0.028887 -0.007476 -0.001470 -0.017642 -0.000382 -0.004729
# 2 -0.007476 0.017910 -0.004840 0.004178 0.002857 -0.008128
# 3 -0.001470 -0.004840 0.019310 -0.011411 0.003322 0.005331
# 4 -0.017642 0.004178 -0.011411 0.048042 -0.003961 -0.005272
# 5 -0.000382 0.002857 0.003322 -0.003961 0.029508 -0.006150
# 6 -0.004729 -0.008128 0.005331 -0.005272 -0.006150 0.033775
#
#
# Mechanical properties :
#
#
# Convention : Reuss Voigt Hill
#
# Bulk Modulus (GPa) = 25.94931 45.33480 35.64205
# Shear Modulus (GPa) = 22.95185 32.45415 27.70300
#
# Velocity S-wave (km/s) = 3.18498 3.78733 3.49914
# Velocity P-wave (km/s) = 4.99943 6.25794 5.66375
#
# Compressibility (1/GPa) = 0.03853667
#
# Stress axis : x y z
#
# Youngs Moduli (GPa) = 34.61726 55.83576 51.78659
#
# Poissons Ratio (x) = 0.41741 0.07611
# Poissons Ratio (y) = 0.25879 0.25064
# Poissons Ratio (z) = 0.05088 0.27024
#
# Static dielectric constant tensor:
#      x y z
#    x 1.824940 0.036450 0.038260 
#    y 0.036450 1.909300 0.012700 
#    z 0.038260 0.012700 1.860170 
# 
# From -- ./inp_files/507338.got.cif
#   From: 2010.05.17/outbox.cif.g08.bks.cpg/sg2_254_cif.got.tgz:507338.got - 2010.06.03 11:33:40.
