data_PCOD9023622
_publ_section_title
;
Structure prediction by ZEFSAII (Michael W. Deem and Ramdas Pophale) SiO2 
 PCOD9023622
Probable space group: P -1
;
_chemical_formula_sum "Si O2"
_cell_formula_units_Z 15
_cell_length_a 12.484322
_cell_length_b 11.567354
_cell_length_c 12.331756
_cell_angle_alpha 75.148904
_cell_angle_beta 145.498844
_cell_angle_gamma 78.971884
_cell_volume 660.921633
_symmetry_space_group_name_H-M "P -1"
_symmetry_group_IT_number 2
_symmetry_cell_setting 'triclinic'
loop_
_space_group_symop_operation_xyz
x,y,z
-x,-y,-z
loop_
_atom_site_type_symbol
_atom_site_label
_atom_site_fract_x
_atom_site_fract_y
_atom_site_fract_z
Si Si1 0.850284 0.723039 0.210166
Si Si2 0.648958 0.599875 0.805077
Si Si3 0.553078 0.774981 0.158743
Si Si4 0.218952 0.689044 0.886830
Si Si5 0.803797 0.570958 0.609279
Si Si6 0.317634 0.935715 0.585712
Si Si7 0.035395 0.836112 0.462889
Si Si8 0.500000 0.500000 0.500000
O O1 0.774952 0.703831 0.268932
O O2 0.049741 0.741605 0.395763
O O3 0.001197 0.563134 0.294640
O O4 0.564885 0.884774 0.869235
O O5 0.453272 0.803698 0.627208
O O6 0.546524 0.576246 0.620524
O O7 0.667115 0.491715 0.941084
O O8 0.973519 0.491062 0.100477
O O9 0.631131 0.752000 0.356458
O O10 0.446642 0.687974 0.082157
O O11 0.287672 0.977332 0.855983
O O12 0.112388 0.739285 0.662643
O O13 0.956654 0.853810 0.704435
O O14 0.617701 0.548429 0.501288
O O15 0.209306 0.875818 0.583713
#
# Coordination Sequence:
#
# PCOD9023622 Si02
#       8
#     2   2   2   2   2   2   2   1
#     4  11  21  37  62  95 137 168 205 258 318 388
#     4  11  25  43  71  91 124 171 218 275 323 374
#     4  11  20  38  60  99 135 169 206 253 317 393
#     4  11  21  40  65  97 138 177 203 257 323 382
#     4  11  25  41  66  96 124 169 219 269 321 380
#     4  10  22  40  58  98 134 164 218 258 309 391
#     4  11  21  35  62  93 140 179 198 252 319 382
#     4  12  24  50  68  88 124 166 232 274 328 372
#
# _framework density 22.695582000000002
#
# number of rings (size 3 to 8) (size 9 to 14) (size 15 to 20)
#    0.000    1.067    4.000    3.600    1.867    1.600 
#    0.000    0.667    2.933    2.400    0.000    0.000 
#    0.000    0.000    0.000    0.000    0.000    0.000 
#
# Total GULP energy -83551.112844 kJ/mol
# GULP energy per Si atom -5570.074190 kJ/mol
# Density = 2.264393 g / cm^3
# Si number density = 22.695582 Si / 1000 Ang^3
#
#
#
# Elastic Constant Matrix: (Units=GPa)
#
#
# Indices 1 2 3 4 5 6 
#
# 1 87.5472 7.9044 22.5566 9.9174 -11.5763 1.4425
# 2 7.9044 108.2693 30.7647 25.4531 -0.1645 -4.8063
# 3 22.5566 30.7647 64.4502 6.6432 19.2320 -11.5680
# 4 9.9174 25.4531 6.6432 33.9791 1.2616 -8.8777
# 5 -11.5763 -0.1645 19.2320 1.2616 9.6543 15.1884
# 6 1.4425 -4.8063 -11.5680 -8.8777 15.1884 29.4308
#
#
#
# Elastic Compliance Matrix: (Units=1/GPa)
#
#
# Indices 1 2 3 4 5 6 
#
# 1 0.007795 -0.001862 0.004843 0.001482 -0.016715 0.010291
# 2 -0.001862 0.010917 0.000192 -0.005810 -0.010530 0.005631
# 3 0.004843 0.000192 0.001893 -0.007819 0.031494 -0.018074
# 4 0.001482 -0.005810 -0.007819 0.033013 0.019751 -0.004329
# 5 -0.016715 -0.010530 0.031494 0.019751 -0.049930 0.043204
# 6 0.010291 0.005631 -0.018074 -0.004329 0.043204 0.003687
#
#
# Mechanical properties :
#
#
# Convention : Reuss Voigt Hill
#
# Bulk Modulus (GPa) = 37.10398 42.52424 39.81411
# Shear Modulus (GPa) = 499.22737 27.88225 263.55481
#
# Velocity S-wave (km/s) = 14.84737 3.50884 10.78787
# Velocity P-wave (km/s) = 17.61561 5.93241 13.14350
#
# Compressibility (1/GPa) = 0.02695129
#
# Stress axis : x y z
#
# Youngs Moduli (GPa) = 128.28590 91.59683 528.17317
#
# Poissons Ratio (x) = 0.17057 -2.55784
# Poissons Ratio (y) = 0.23890 -0.10148
# Poissons Ratio (z) = -0.62126 -0.01760
#
# Static dielectric constant tensor:
#      x y z
#    x -6.542150 -0.218160 2.307460 
#    y -0.218160 1.883170 0.040440 
#    z 2.307460 0.040440 1.356110 
# 
# From -- ./inp_files/414001.got.cif
#   From: 2010.05.17/outbox.cif.g08.bks.cpg/sg2_208_cif.got.tgz:414001.got - 2010.06.03 11:33:40.
