data_PCOD9023133
_publ_section_title
;
Structure prediction by ZEFSAII (Michael W. Deem and Ramdas Pophale) SiO2 
 PCOD9023133
Probable space group: P -1
;
_chemical_formula_sum "Si O2"
_cell_formula_units_Z 14
_cell_length_a 8.704136
_cell_length_b 12.799910
_cell_length_c 9.259420
_cell_angle_alpha 131.551817
_cell_angle_beta 122.690864
_cell_angle_gamma 58.138313
_cell_volume 625.717624
_symmetry_space_group_name_H-M "P -1"
_symmetry_group_IT_number 2
_symmetry_cell_setting 'triclinic'
loop_
_space_group_symop_operation_xyz
x,y,z
-x,-y,-z
loop_
_atom_site_type_symbol
_atom_site_label
_atom_site_fract_x
_atom_site_fract_y
_atom_site_fract_z
Si Si1 0.675258 0.390252 0.409929
Si Si2 0.277203 0.991453 0.236317
Si Si3 0.050282 0.385820 0.787287
Si Si4 0.288354 0.069707 0.639726
Si Si5 0.156135 0.528084 0.714465
Si Si6 0.674886 0.068518 0.185914
Si Si7 0.967707 0.839009 0.944970
O O1 0.500000 0.500000 0.500000
O O2 0.862883 0.388782 0.599355
O O3 0.695995 0.440444 0.299799
O O4 0.648584 0.228619 0.259776
O O5 0.494230 0.922940 0.247547
O O6 0.248768 0.022765 0.417869
O O7 0.186226 0.141437 0.243571
O O8 0.148680 0.888824 0.030101
O O9 0.146544 0.224111 0.746194
O O10 0.196416 0.415800 0.764956
O O11 0.000000 0.500000 0.000000
O O12 0.290383 0.942478 0.636065
O O13 0.000000 0.500000 0.500000
O O14 0.048618 0.675181 0.878488
O O15 0.500000 0.000000 0.000000
O O16 0.857159 0.953524 0.108461
#
# Coordination Sequence:
#
# PCOD9023133 Si02
#       7
#     2   2   2   2   2   2   2
#     4  11  27  46  71 103 140 186 237 281 347 416
#     4  10  22  39  66  94 128 172 220 296 328 409
#     4  11  25  44  69 102 142 183 220 292 352 416
#     4  11  24  42  64  98 141 167 230 277 360 392
#     4  10  23  42  69  96 138 184 223 282 344 414
#     4  12  26  42  72 100 138 185 232 294 338 412
#     4  11  21  41  69  96 128 175 243 268 342 408
#
# _framework density 22.374309
#
# number of rings (size 3 to 8) (size 9 to 14) (size 15 to 20)
#    0.000    1.143    1.429    5.143    6.000    5.714 
#    0.000    1.429    0.000    0.000    0.000    0.000 
#    0.000    0.000    0.000    0.000    0.000    0.000 
#
# Total GULP energy -78158.378360 kJ/mol
# GULP energy per Si atom -5582.741311 kJ/mol
# Density = 2.232338 g / cm^3
# Si number density = 22.374309 Si / 1000 Ang^3
#
#
#
# Elastic Constant Matrix: (Units=GPa)
#
#
# Indices 1 2 3 4 5 6 
#
# 1 115.4631 40.0908 34.7800 5.7714 -14.9805 -0.9435
# 2 40.0908 77.2316 17.7854 3.4479 -5.5247 12.6363
# 3 34.7800 17.7854 68.6586 -0.9130 -13.6459 3.0317
# 4 5.7714 3.4479 -0.9130 40.9226 0.1535 -7.0426
# 5 -14.9805 -5.5247 -13.6459 0.1535 39.0801 -7.1152
# 6 -0.9435 12.6363 3.0317 -7.0426 -7.1152 45.4317
#
#
#
# Elastic Compliance Matrix: (Units=1/GPa)
#
#
# Indices 1 2 3 4 5 6 
#
# 1 0.012339 -0.005543 -0.004365 -0.000971 0.002861 0.002387
# 2 -0.005543 0.017033 -0.001641 -0.001577 -0.001226 -0.005180
# 3 -0.004365 -0.001641 0.018092 0.001146 0.004413 0.000027
# 4 -0.000971 -0.001577 0.001146 0.025482 0.000501 0.004370
# 5 0.002861 -0.001226 0.004413 0.000501 0.028908 0.004711
# 6 0.002387 -0.005180 0.000027 0.004370 0.004711 0.024915
#
#
# Mechanical properties :
#
#
# Convention : Reuss Voigt Hill
#
# Bulk Modulus (GPa) = 41.03642 49.62950 45.33296
# Shear Modulus (GPa) = 31.64805 36.33334 33.99070
#
# Velocity S-wave (km/s) = 3.76504 4.03412 3.90190
# Velocity P-wave (km/s) = 6.10585 6.62785 6.37220
#
# Compressibility (1/GPa) = 0.02436860
#
# Stress axis : x y z
#
# Youngs Moduli (GPa) = 81.04282 58.70885 55.27371
#
# Poissons Ratio (x) = 0.32540 0.24124
# Poissons Ratio (y) = 0.44919 0.09068
# Poissons Ratio (z) = 0.35371 0.09632
#
# Static dielectric constant tensor:
#      x y z
#    x 1.891080 0.064080 0.020150 
#    y 0.064080 1.878500 0.017710 
#    z 0.020150 0.017710 1.868980 
# 
# From -- ./inp_files/190618.got.cif
#   From: 2010.05.17/outbox.cif.g08.bks.cpg/sg2_96_cif.got.tgz:190618.got - 2010.06.03 11:33:40.
