data_PCOD9023946
_publ_section_title
;
Structure prediction by ZEFSAII (Michael W. Deem and Ramdas Pophale) SiO2 
 PCOD9023946
Probable space group: P -1
;
_chemical_formula_sum "Si O2"
_cell_formula_units_Z 14
_cell_length_a 15.260770
_cell_length_b 8.822160
_cell_length_c 14.958327
_cell_angle_alpha 65.260750
_cell_angle_beta 148.129087
_cell_angle_gamma 135.912620
_cell_volume 631.354360
_symmetry_space_group_name_H-M "P -1"
_symmetry_group_IT_number 2
_symmetry_cell_setting 'triclinic'
loop_
_space_group_symop_operation_xyz
x,y,z
-x,-y,-z
loop_
_atom_site_type_symbol
_atom_site_label
_atom_site_fract_x
_atom_site_fract_y
_atom_site_fract_z
Si Si1 0.180621 0.436060 0.912319
Si Si2 0.191041 0.147233 0.851307
Si Si3 0.672030 0.237609 0.522934
Si Si4 0.704233 0.750113 0.280452
Si Si5 0.209007 0.464267 0.132148
Si Si6 0.313755 0.928126 0.120124
Si Si7 0.660980 0.590020 0.474693
O O1 0.177877 0.271016 0.888426
O O2 0.951444 0.384144 0.702106
O O3 0.478812 0.718665 0.096249
O O4 0.117729 0.348888 0.982201
O O5 0.293647 0.301167 0.808589
O O6 0.905211 0.876370 0.646085
O O7 0.328129 0.079554 0.017967
O O8 0.707445 0.431646 0.563482
O O9 0.500000 0.000000 0.500000
O O10 0.510912 0.123917 0.320392
O O11 0.620836 0.575969 0.335506
O O12 0.000000 0.000000 0.500000
O O13 0.332556 0.743782 0.161830
O O14 0.417226 0.487065 0.333235
O O15 0.971240 0.277512 0.036905
#
# Coordination Sequence:
#
# PCOD9023946 Si02
#       7
#     2   2   2   2   2   2   2
#     4  11  22  41  66  96 133 170 217 262 324 385
#     4  11  23  40  69  97 128 172 214 270 325 384
#     4  12  25  41  63  96 134 173 218 264 319 389
#     4   9  21  45  69  96 127 167 219 272 321 387
#     4  10  22  40  62  92 129 173 213 271 319 380
#     4  11  23  39  62  93 133 166 221 262 322 385
#     4  10  23  43  66  92 134 169 221 266 326 377
#
# _framework density 22.174551999999998
#
# number of rings (size 3 to 8) (size 9 to 14) (size 15 to 20)
#    0.000    1.429    1.429    3.857    4.000    1.714 
#    0.000   15.714    0.000    0.000    0.000    0.000 
#    0.000    0.000    0.000    0.000    0.000    0.000 
#
# Total GULP energy -78065.349437 kJ/mol
# GULP energy per Si atom -5576.096388 kJ/mol
# Density = 2.212408 g / cm^3
# Si number density = 22.174552 Si / 1000 Ang^3
#
#
#
# Elastic Constant Matrix: (Units=GPa)
#
#
# Indices 1 2 3 4 5 6 
#
# 1 93.0993 32.4274 30.7477 2.0739 -6.8761 -15.3087
# 2 32.4274 55.5064 21.6572 2.5789 13.3875 -19.0827
# 3 30.7477 21.6572 141.7959 8.6656 9.5491 -9.0990
# 4 2.0739 2.5789 8.6656 22.1282 4.2705 -4.3990
# 5 -6.8761 13.3875 9.5491 4.2705 53.2130 -7.0768
# 6 -15.3087 -19.0827 -9.0990 -4.3990 -7.0768 29.9433
#
#
#
# Elastic Compliance Matrix: (Units=1/GPa)
#
#
# Indices 1 2 3 4 5 6 
#
# 1 0.015135 -0.008100 -0.002175 0.000061 0.004785 0.003055
# 2 -0.008100 0.029232 -0.001557 0.001759 -0.006571 0.012720
# 3 -0.002175 -0.001557 0.007976 -0.002581 -0.001158 -0.000333
# 4 0.000061 0.001759 -0.002581 0.047890 -0.002922 0.006713
# 5 0.004785 -0.006571 -0.001158 -0.002922 0.021858 0.002643
# 6 0.003055 0.012720 -0.000333 0.006713 0.002643 0.044575
#
#
# Mechanical properties :
#
#
# Convention : Reuss Voigt Hill
#
# Bulk Modulus (GPa) = 34.86846 51.11845 42.99346
# Shear Modulus (GPa) = 25.01381 34.76152 29.88767
#
# Velocity S-wave (km/s) = 3.36228 3.96363 3.67527
# Velocity P-wave (km/s) = 5.55265 6.63701 6.11890
#
# Compressibility (1/GPa) = 0.02867922
#
# Stress axis : x y z
#
# Youngs Moduli (GPa) = 66.07066 34.20890 125.37453
#
# Poissons Ratio (x) = 0.27711 0.27266
# Poissons Ratio (y) = 0.53520 0.19520
# Poissons Ratio (z) = 0.14369 0.05326
#
# Static dielectric constant tensor:
#      x y z
#    x 1.798140 0.004070 -0.001800 
#    y 0.004070 1.863460 -0.023390 
#    z -0.001800 -0.023390 1.888230 
# 
# From -- ./inp_files/187012.got.cif
#   From: 2010.05.17/outbox.cif.g08.bks.cpg/sg2_94_cif.got.tgz:187012.got - 2010.06.03 11:33:40.
