data_PCOD9023197
_publ_section_title
;
Structure prediction by ZEFSAII (Michael W. Deem and Ramdas Pophale) SiO2 
 PCOD9023197
Probable space group: P -1
;
_chemical_formula_sum "Si O2"
_cell_formula_units_Z 12
_cell_length_a 15.771656
_cell_length_b 6.410636
_cell_length_c 10.886176
_cell_angle_alpha 96.250132
_cell_angle_beta 35.310574
_cell_angle_gamma 74.203097
_cell_volume 491.939002
_symmetry_space_group_name_H-M "P -1"
_symmetry_group_IT_number 2
_symmetry_cell_setting 'triclinic'
loop_
_space_group_symop_operation_xyz
x,y,z
-x,-y,-z
loop_
_atom_site_type_symbol
_atom_site_label
_atom_site_fract_x
_atom_site_fract_y
_atom_site_fract_z
Si Si1 0.881282 0.948758 0.719087
Si Si2 0.889034 0.532271 0.420490
Si Si3 0.870396 0.314083 0.946491
Si Si4 0.946074 0.783431 0.036524
Si Si5 0.487377 0.367877 0.129443
Si Si6 0.530762 0.335745 0.579117
O O1 0.835067 0.135552 0.902420
O O2 0.686342 0.074268 0.893272
O O3 0.000000 0.000000 0.500000
O O4 0.003537 0.646719 0.599234
O O5 0.960325 0.699899 0.311739
O O6 0.672825 0.663532 0.693496
O O7 0.966344 0.311952 0.206718
O O8 0.500000 0.500000 0.500000
O O9 0.930879 0.202967 0.006461
O O10 0.669074 0.612542 0.184451
O O11 0.723062 0.028548 0.324224
O O12 0.000000 0.500000 0.000000
O O13 0.454472 0.542483 0.302755
O O14 0.500000 0.500000 0.000000
#
# Coordination Sequence:
#
# PCOD9023197 Si02
#       6
#     2   2   2   2   2   2
#     4  11  23  42  64  89 131 177 220 276 331 399
#     4  11  23  41  66  95 133 172 224 275 341 395
#     4  10  24  41  66 101 131 173 227 276 337 409
#     4  10  22  39  66  99 135 169 221 280 337 403
#     4  11  23  41  64  96 133 175 222 279 338 403
#     4  11  23  42  70 101 136 180 229 280 345 406
#
# _framework density 24.393266000000001
#
# number of rings (size 3 to 8) (size 9 to 14) (size 15 to 20)
#    0.000    1.333    1.667    4.000    0.000    8.000 
#    0.000    0.833    0.000    0.000    0.000    0.000 
#    0.000    0.000    0.000    0.000    0.000    0.000 
#
# Total GULP energy -67058.522321 kJ/mol
# GULP energy per Si atom -5588.210193 kJ/mol
# Density = 2.433775 g / cm^3
# Si number density = 24.393266 Si / 1000 Ang^3
#
#
#
# Elastic Constant Matrix: (Units=GPa)
#
#
# Indices 1 2 3 4 5 6 
#
# 1 149.7405 40.7846 64.9504 11.0247 -10.1291 -20.1954
# 2 40.7846 82.0495 43.6214 1.6654 -24.0507 -44.3802
# 3 64.9504 43.6214 155.7590 12.6800 -48.2867 -25.4825
# 4 11.0247 1.6654 12.6800 46.8140 -11.6189 -8.5744
# 5 -10.1291 -24.0507 -48.2867 -11.6189 62.6283 4.8626
# 6 -20.1954 -44.3802 -25.4825 -8.5744 4.8626 42.0814
#
#
#
# Elastic Compliance Matrix: (Units=1/GPa)
#
#
# Indices 1 2 3 4 5 6 
#
# 1 0.009379 -0.006030 -0.003957 -0.002715 -0.004016 -0.004343
# 2 -0.006030 0.041199 0.001550 0.010902 0.014802 0.042005
# 3 -0.003957 0.001550 0.011024 0.000961 0.008194 0.005660
# 4 -0.002715 0.010902 0.000961 0.026156 0.008164 0.015163
# 5 -0.004016 0.014802 0.008194 0.008164 0.027504 0.017130
# 6 -0.004343 0.042005 0.005660 0.015163 0.017130 0.070517
#
#
# Mechanical properties :
#
#
# Convention : Reuss Voigt Hill
#
# Bulk Modulus (GPa) = 22.35702 76.25134 49.30418
# Shear Modulus (GPa) = 22.98193 46.18425 34.58309
#
# Velocity S-wave (km/s) = 3.07276 4.35595 3.76936
# Velocity P-wave (km/s) = 4.66629 7.52503 6.26101
#
# Compressibility (1/GPa) = 0.04472868
#
# Stress axis : x y z
#
# Youngs Moduli (GPa) = 106.61754 24.27234 90.71104
#
# Poissons Ratio (x) = 0.14635 0.35894
# Poissons Ratio (y) = 0.64287 -0.14057
# Poissons Ratio (z) = 0.42188 -0.03761
#
# Static dielectric constant tensor:
#      x y z
#    x 2.105040 0.038340 0.074700 
#    y 0.038340 2.053330 0.004690 
#    z 0.074700 0.004690 1.998800 
# 
# From -- ./inp_files/183490.got.cif
#   From: 2010.05.17/outbox.cif.g08.bks.cpg/sg2_92_cif.got.tgz:183490.got - 2010.06.03 11:33:40.
