data_PCOD9023438
_publ_section_title
;
Structure prediction by ZEFSAII (Michael W. Deem and Ramdas Pophale) SiO2 
 PCOD9023438
Probable space group: P -1
;
_chemical_formula_sum "Si O2"
_cell_formula_units_Z 12
_cell_length_a 8.322025
_cell_length_b 11.808887
_cell_length_c 10.033939
_cell_angle_alpha 112.573870
_cell_angle_beta 104.351704
_cell_angle_gamma 128.625520
_cell_volume 524.333548
_symmetry_space_group_name_H-M "P -1"
_symmetry_group_IT_number 2
_symmetry_cell_setting 'triclinic'
loop_
_space_group_symop_operation_xyz
x,y,z
-x,-y,-z
loop_
_atom_site_type_symbol
_atom_site_label
_atom_site_fract_x
_atom_site_fract_y
_atom_site_fract_z
Si Si1 0.816106 0.204424 0.491198
Si Si2 0.424059 0.577086 0.839030
Si Si3 0.669865 0.213296 0.188105
Si Si4 0.178547 0.548204 0.262971
Si Si5 0.774488 0.949506 0.506166
Si Si6 0.136789 0.340651 0.944453
O O1 0.684431 0.201008 0.342689
O O2 0.824932 0.305679 0.661270
O O3 0.671814 0.991055 0.397701
O O4 0.142885 0.367099 0.610387
O O5 0.461300 0.737365 0.867901
O O6 0.341612 0.518180 0.952704
O O7 0.686071 0.643940 0.914774
O O8 0.985780 0.397097 0.279588
O O9 0.500000 0.000000 0.000000
O O10 0.509161 0.718993 0.402459
O O11 0.041871 0.396506 0.042118
O O12 0.921765 0.121985 0.726718
O O13 0.000000 0.000000 0.500000
#
# Coordination Sequence:
#
# PCOD9023438 Si02
#       6
#     2   2   2   2   2   2
#     4  10  23  43  66  96 131 175 219 271 333 379
#     4   9  19  42  64  93 134 167 215 269 321 388
#     4  11  26  42  67  93 135 180 217 268 327 390
#     4  11  23  43  68  98 132 170 221 276 315 393
#     4  11  24  42  71  98 134 170 216 277 323 391
#     4  10  22  39  69 102 126 169 220 266 333 379
#
# _framework density 22.886195000000001
#
# number of rings (size 3 to 8) (size 9 to 14) (size 15 to 20)
#    0.000    1.667    0.000    5.500    7.000    6.000 
#    0.000    8.333    0.000    0.000    0.000    0.000 
#    0.000    0.000    0.000    0.000    0.000    0.000 
#
# Total GULP energy -66975.006960 kJ/mol
# GULP energy per Si atom -5581.250580 kJ/mol
# Density = 2.283410 g / cm^3
# Si number density = 22.886195 Si / 1000 Ang^3
#
#
#
# Elastic Constant Matrix: (Units=GPa)
#
#
# Indices 1 2 3 4 5 6 
#
# 1 101.6092 55.2479 44.7972 -3.6801 -2.0358 -11.2948
# 2 55.2479 102.3456 29.3832 11.9264 4.4097 -26.8341
# 3 44.7972 29.3832 104.3887 5.9483 -16.5698 -20.0438
# 4 -3.6801 11.9264 5.9483 39.6717 -4.7259 10.7781
# 5 -2.0358 4.4097 -16.5698 -4.7259 38.5839 -3.5820
# 6 -11.2948 -26.8341 -20.0438 10.7781 -3.5820 39.9679
#
#
#
# Elastic Compliance Matrix: (Units=1/GPa)
#
#
# Indices 1 2 3 4 5 6 
#
# 1 0.018074 -0.010739 -0.006727 0.007941 -0.000446 -0.007658
# 2 -0.010739 0.020223 0.002028 -0.011565 -0.002078 0.014492
# 3 -0.006727 0.002028 0.014830 -0.005142 0.005971 0.008819
# 4 0.007941 -0.011565 -0.005142 0.035180 0.002227 -0.017386
# 5 -0.000446 -0.002078 0.005971 0.002227 0.029293 0.003498
# 6 -0.007658 0.014492 0.008819 -0.017386 0.003498 0.042011
#
#
# Mechanical properties :
#
#
# Convention : Reuss Voigt Hill
#
# Bulk Modulus (GPa) = 44.94396 63.02225 53.98311
# Shear Modulus (GPa) = 25.26479 35.57238 30.41859
#
# Velocity S-wave (km/s) = 3.32615 3.94676 3.64967
# Velocity P-wave (km/s) = 5.86785 6.95458 6.43420
#
# Compressibility (1/GPa) = 0.02224993
#
# Stress axis : x y z
#
# Youngs Moduli (GPa) = 55.32738 49.44958 67.43194
#
# Poissons Ratio (x) = 0.53106 0.45362
# Poissons Ratio (y) = 0.59418 -0.13676
# Poissons Ratio (z) = 0.37219 -0.10029
#
# Static dielectric constant tensor:
#      x y z
#    x 1.927710 0.024600 0.034390 
#    y 0.024600 1.876320 -0.002690 
#    z 0.034390 -0.002690 1.901120 
# 
# From -- ./inp_files/181709.got.cif
#   From: 2010.05.17/outbox.cif.g08.bks.cpg/sg2_91_cif.got.tgz:181709.got - 2010.06.03 11:33:40.
