data_PCOD9023581
_publ_section_title
;
Structure prediction by ZEFSAII (Michael W. Deem and Ramdas Pophale) SiO2 
 PCOD9023581
Probable space group: P -1
;
_chemical_formula_sum "Si O2"
_cell_formula_units_Z 15
_cell_length_a 9.074290
_cell_length_b 8.105629
_cell_length_c 11.834450
_cell_angle_alpha 46.526304
_cell_angle_beta 79.109758
_cell_angle_gamma 87.720745
_cell_volume 615.315432
_symmetry_space_group_name_H-M "P -1"
_symmetry_group_IT_number 2
_symmetry_cell_setting 'triclinic'
loop_
_space_group_symop_operation_xyz
x,y,z
-x,-y,-z
loop_
_atom_site_type_symbol
_atom_site_label
_atom_site_fract_x
_atom_site_fract_y
_atom_site_fract_z
Si Si1 0.914417 0.113305 0.281450
Si Si2 0.560087 0.532217 0.235610
Si Si3 0.715437 0.214093 0.875130
Si Si4 0.904163 0.712587 0.618582
Si Si5 0.500000 0.500000 0.500000
Si Si6 0.637868 0.988725 0.233966
Si Si7 0.632581 0.785429 0.759901
Si Si8 0.812469 0.770960 0.958588
O O1 0.969995 0.261533 0.313799
O O2 0.016087 0.213253 0.113384
O O3 0.953484 0.857928 0.431262
O O4 0.744215 0.084459 0.276672
O O5 0.451299 0.735833 0.164668
O O6 0.524696 0.395475 0.419422
O O7 0.483001 0.394611 0.205206
O O8 0.732915 0.614858 0.142246
O O9 0.825616 0.454067 0.736743
O O10 0.778474 0.024097 0.879076
O O11 0.697771 0.122021 0.048947
O O12 0.769124 0.849556 0.622876
O O13 0.632284 0.716235 0.350674
O O14 0.466214 0.033334 0.260159
O O15 0.717315 0.690580 0.898211
#
# Coordination Sequence:
#
# PCOD9023581 Si02
#       8
#     2   2   2   2   1   2   2   2
#     4  10  24  42  64  91 140 169 218 262 330 383
#     4  11  22  42  66 101 126 173 217 278 313 392
#     4  11  22  40  71  94 130 166 228 263 333 374
#     4   9  22  45  65  97 129 175 214 274 315 399
#     4  12  26  42  64  94 142 162 216 272 328 370
#     4  12  24  42  66 101 128 174 213 281 318 389
#     4  10  22  39  74  93 126 168 230 262 325 374
#     4  11  21  41  67  95 129 178 211 266 322 396
#
# _framework density 24.377739999999999
#
# number of rings (size 3 to 8) (size 9 to 14) (size 15 to 20)
#    0.000    1.333    2.667    3.200    3.733    3.733 
#    0.000    4.000    0.000    0.000    0.000    0.000 
#    0.000    0.000    0.000    0.000    0.000    0.000 
#
# Total GULP energy -83589.573168 kJ/mol
# GULP energy per Si atom -5572.638211 kJ/mol
# Density = 2.432225 g / cm^3
# Si number density = 24.377740 Si / 1000 Ang^3
#
#
#
# Elastic Constant Matrix: (Units=GPa)
#
#
# Indices 1 2 3 4 5 6 
#
# 1 88.8699 9.1393 12.8494 -5.7917 -4.9808 18.8363
# 2 9.1393 74.9344 14.5928 -1.6733 -3.5535 13.4198
# 3 12.8494 14.5928 124.8247 3.0216 -29.5897 13.9133
# 4 -5.7917 -1.6733 3.0216 34.2217 7.0588 -5.3842
# 5 -4.9808 -3.5535 -29.5897 7.0588 16.2622 -4.4779
# 6 18.8363 13.4198 13.9133 -5.3842 -4.4779 27.4965
#
#
#
# Elastic Compliance Matrix: (Units=1/GPa)
#
#
# Indices 1 2 3 4 5 6 
#
# 1 0.013216 0.000041 -0.000151 0.000657 0.001105 -0.008689
# 2 0.000041 0.014740 -0.001113 -0.000115 -0.000609 -0.006780
# 3 -0.000151 -0.001113 0.016554 -0.008912 0.032550 -0.004174
# 4 0.000657 -0.000115 -0.008912 0.037424 -0.030501 0.006477
# 5 0.001105 -0.000609 0.032550 -0.030501 0.133859 -0.001103
# 6 -0.008689 -0.006780 -0.004174 0.006477 -0.001103 0.048830
#
#
# Mechanical properties :
#
#
# Convention : Reuss Voigt Hill
#
# Bulk Modulus (GPa) = 23.77405 40.19912 31.98658
# Shear Modulus (GPa) = 17.78786 32.39925 25.09356
#
# Velocity S-wave (km/s) = 2.70418 3.64957 3.21185
# Velocity P-wave (km/s) = 4.41856 5.85534 5.18694
#
# Compressibility (1/GPa) = 0.04206267
#
# Stress axis : x y z
#
# Youngs Moduli (GPa) = 75.66364 67.84451 60.40891
#
# Poissons Ratio (x) = -0.00275 0.00911
# Poissons Ratio (y) = -0.00307 0.06725
# Poissons Ratio (z) = 0.01141 0.07553
#
# Static dielectric constant tensor:
#      x y z
#    x 1.946090 -0.045480 0.024190 
#    y -0.045480 2.092330 -0.052510 
#    z 0.024190 -0.052510 2.011400 
# 
# From -- ./inp_files/358629.got.cif
#   From: 2010.05.17/outbox.cif.g08.bks.cpg/sg2_180_cif.got.tgz:358629.got - 2010.06.03 11:33:40.
