data_PCOD9023915
_publ_section_title
;
Structure prediction by ZEFSAII (Michael W. Deem and Ramdas Pophale) SiO2 
 PCOD9023915
Probable space group: P -1
;
_chemical_formula_sum "Si O2"
_cell_formula_units_Z 10
_cell_length_a 7.156498
_cell_length_b 10.740899
_cell_length_c 7.156516
_cell_angle_alpha 94.009569
_cell_angle_beta 39.989566
_cell_angle_gamma 103.045803
_cell_volume 339.702321
_symmetry_space_group_name_H-M "P -1"
_symmetry_group_IT_number 2
_symmetry_cell_setting 'triclinic'
loop_
_space_group_symop_operation_xyz
x,y,z
-x,-y,-z
loop_
_atom_site_type_symbol
_atom_site_label
_atom_site_fract_x
_atom_site_fract_y
_atom_site_fract_z
Si Si1 0.574497 0.250001 0.175503
Si Si2 0.013787 0.123173 0.370140
Si Si3 0.375336 0.023769 0.800328
Si Si4 0.493318 0.623174 0.390612
Si Si5 0.175902 0.476229 0.148431
O O1 0.275091 0.232958 0.276678
O O2 0.490359 0.267042 0.457870
O O3 0.668744 0.116127 0.080148
O O4 0.803728 0.383876 0.947384
O O5 0.676385 0.134360 0.646868
O O6 0.110128 0.081255 0.086992
O O7 0.000000 0.000000 0.500000
O O8 0.500000 0.000000 0.500000
O O9 0.500000 0.500000 0.500000
O O10 0.168250 0.581257 0.528872
O O11 0.781232 0.634361 0.042023
O O12 0.500000 0.500000 0.000000
#
# Coordination Sequence:
#
# PCOD9023915 Si02
#       5
#     2   2   2   2   2
#     4  10  22  40  64  84 122 164 198 258 312 356
#     4  10  22  40  62  91 121 159 208 253 306 373
#     4  11  24  40  61  92 124 159 208 255 306 374
#     4  10  22  40  62  91 121 159 208 253 306 373
#     4  11  24  40  61  92 124 159 208 255 306 374
#
# _framework density 29.437538
#
# number of rings (size 3 to 8) (size 9 to 14) (size 15 to 20)
#    0.000    1.600    0.000    6.000    0.000   17.600 
#    0.000    0.000    0.000    0.000    0.000    0.000 
#    0.000    0.000    0.000    0.000    0.000    0.000 
#
# Total GULP energy -55959.006865 kJ/mol
# GULP energy per Si atom -5595.900687 kJ/mol
# Density = 2.937054 g / cm^3
# Si number density = 29.437538 Si / 1000 Ang^3
#
#
#
# Elastic Constant Matrix: (Units=GPa)
#
#
# Indices 1 2 3 4 5 6 
#
# 1 95.7839 7.8047 25.1750 1.6526 -8.7801 1.0915
# 2 7.8047 181.7440 38.6734 -21.4927 -2.6913 -13.7906
# 3 25.1750 38.6734 203.5662 26.3651 -27.0614 1.5485
# 4 1.6526 -21.4927 26.3651 38.1850 -2.4760 9.5382
# 5 -8.7801 -2.6913 -27.0614 -2.4760 55.9215 -1.5388
# 6 1.0915 -13.7906 1.5485 9.5382 -1.5388 45.8594
#
#
#
# Elastic Compliance Matrix: (Units=1/GPa)
#
#
# Indices 1 2 3 4 5 6 
#
# 1 0.010873 -0.000165 -0.001218 0.000430 0.001120 -0.000319
# 2 -0.000165 0.006542 -0.001892 0.004710 -0.000389 0.001042
# 3 -0.001218 -0.001892 0.006470 -0.005424 0.002621 0.000458
# 4 0.000430 0.004710 -0.005424 0.033873 -0.000982 -0.005489
# 5 0.001120 -0.000389 0.002621 -0.000982 0.019281 0.000619
# 6 -0.000319 0.001042 0.000458 -0.005489 0.000619 0.023274
#
#
# Mechanical properties :
#
#
# Convention : Reuss Voigt Hill
#
# Bulk Modulus (GPa) = 57.68462 69.37780 63.53121
# Shear Modulus (GPa) = 44.38878 55.28925 49.83901
#
# Velocity S-wave (km/s) = 3.88738 4.33851 4.11912
# Velocity P-wave (km/s) = 6.30770 6.97967 6.65218
#
# Compressibility (1/GPa) = 0.01733564
#
# Stress axis : x y z
#
# Youngs Moduli (GPa) = 91.97502 152.84985 154.56053
#
# Poissons Ratio (x) = 0.02515 0.18820
# Poissons Ratio (y) = 0.01514 0.29248
# Poissons Ratio (z) = 0.11200 0.28925
#
# Static dielectric constant tensor:
#      x y z
#    x 2.465530 0.104810 0.066000 
#    y 0.104810 2.283030 0.003100 
#    z 0.066000 0.003100 2.165850 
# 
# From -- ./inp_files/51985.got.cif
#   From: 2010.05.17/outbox.cif.g08.bks.cpg/sg2_26_cif.got.tgz:51985.got - 2010.06.03 11:33:40.
