data_PCOD9023157
_publ_section_title
;
Structure prediction by ZEFSAII (Michael W. Deem and Ramdas Pophale) SiO2 
 PCOD9023157
Probable space group: P -1
;
_chemical_formula_sum "Si O2"
_cell_formula_units_Z 12
_cell_length_a 8.957952
_cell_length_b 13.693800
_cell_length_c 8.358648
_cell_angle_alpha 129.989377
_cell_angle_beta 74.032468
_cell_angle_gamma 67.185884
_cell_volume 485.161867
_symmetry_space_group_name_H-M "P -1"
_symmetry_group_IT_number 2
_symmetry_cell_setting 'triclinic'
loop_
_space_group_symop_operation_xyz
x,y,z
-x,-y,-z
loop_
_atom_site_type_symbol
_atom_site_label
_atom_site_fract_x
_atom_site_fract_y
_atom_site_fract_z
Si Si1 0.940770 0.139145 0.802123
Si Si2 0.878757 0.267463 0.405180
Si Si3 0.668574 0.168791 0.204508
Si Si4 0.515562 0.140811 0.661090
Si Si5 0.703182 0.468222 0.980645
Si Si6 0.727169 0.619999 0.686789
O O1 0.799176 0.348064 0.989370
O O2 0.789522 0.166370 0.013757
O O3 0.000000 0.000000 0.500000
O O4 0.210006 0.007896 0.626987
O O5 0.709068 0.249097 0.414612
O O6 0.904335 0.310626 0.619316
O O7 0.756949 0.450699 0.526743
O O8 0.145561 0.060971 0.056548
O O9 0.413359 0.277814 0.332015
O O10 0.500000 0.000000 0.500000
O O11 0.359924 0.342805 0.818206
O O12 0.438920 0.223390 0.953661
O O13 0.500000 0.500000 0.000000
O O14 0.000000 0.500000 0.500000
#
# Coordination Sequence:
#
# PCOD9023157 Si02
#       6
#     2   2   2   2   2   2
#     4  12  20  40  73  93 127 170 223 273 321 384
#     4  10  22  39  66  96 129 163 226 270 321 387
#     4  11  22  41  68 101 125 170 220 274 324 387
#     4  11  25  42  64  97 135 169 220 273 329 386
#     4  11  20  40  68  99 124 171 218 273 324 386
#     4  11  24  42  62  92 139 174 209 268 336 390
#
# _framework density 24.734012
#
# number of rings (size 3 to 8) (size 9 to 14) (size 15 to 20)
#    0.000    1.000    5.000    1.500    2.333    1.333 
#    0.000    0.000    0.000    0.000    0.000    0.000 
#    0.000    0.000    0.000    0.000    0.000    0.000 
#
# Total GULP energy -67098.110721 kJ/mol
# GULP energy per Si atom -5591.509227 kJ/mol
# Density = 2.467772 g / cm^3
# Si number density = 24.734012 Si / 1000 Ang^3
#
#
#
# Elastic Constant Matrix: (Units=GPa)
#
#
# Indices 1 2 3 4 5 6 
#
# 1 109.0517 21.7366 52.0928 12.0276 -2.6171 -2.6083
# 2 21.7366 98.5252 63.8993 12.8280 15.9443 -5.9929
# 3 52.0928 63.8993 126.7902 31.9551 16.3500 -3.3728
# 4 12.0276 12.8280 31.9551 53.0851 9.7269 -0.8035
# 5 -2.6171 15.9443 16.3500 9.7269 43.7592 13.4602
# 6 -2.6083 -5.9929 -3.3728 -0.8035 13.4602 33.5508
#
#
#
# Elastic Compliance Matrix: (Units=1/GPa)
#
#
# Indices 1 2 3 4 5 6 
#
# 1 0.011717 0.000431 -0.005400 -0.000027 0.002773 -0.000668
# 2 0.000431 0.015952 -0.007980 0.001712 -0.004378 0.003878
# 3 -0.005400 -0.007980 0.015944 -0.006039 -0.002180 0.000487
# 4 -0.000027 0.001712 -0.006039 0.022828 -0.004014 0.001854
# 5 0.002773 -0.004378 -0.002180 -0.004014 0.030335 -0.013052
# 6 -0.000668 0.003878 0.000487 0.001854 -0.013052 0.035776
#
#
# Mechanical properties :
#
#
# Convention : Reuss Voigt Hill
#
# Bulk Modulus (GPa) = 56.45146 67.75826 62.10486
# Shear Modulus (GPa) = 30.42213 39.18827 34.80520
#
# Velocity S-wave (km/s) = 3.51090 3.98476 3.75531
# Velocity P-wave (km/s) = 6.26962 6.97318 6.63074
#
# Compressibility (1/GPa) = 0.01771434
#
# Stress axis : x y z
#
# Youngs Moduli (GPa) = 85.34609 62.68936 62.72115
#
# Poissons Ratio (x) = -0.02704 0.33870
# Poissons Ratio (y) = -0.03682 0.50053
# Poissons Ratio (z) = 0.46087 0.50028
#
# Static dielectric constant tensor:
#      x y z
#    x 1.821370 0.008470 -0.020710 
#    y 0.008470 1.990270 -0.087500 
#    z -0.020710 -0.087500 2.086260 
# 
# From -- ./inp_files/209239.got.cif
#   From: 2010.05.17/outbox.cif.g08.bks.cpg/sg2_105_cif.got.tgz:209239.got - 2010.06.03 11:33:40.
