data_PCOD9023846
_publ_section_title
;
Structure prediction by ZEFSAII (Michael W. Deem and Ramdas Pophale) SiO2 
 PCOD9023846
Probable space group: P -1
;
_chemical_formula_sum "Si O2"
_cell_formula_units_Z 13
_cell_length_a 13.264906
_cell_length_b 27.364023
_cell_length_c 14.223676
_cell_angle_alpha 161.047013
_cell_angle_beta 158.373334
_cell_angle_gamma 19.910145
_cell_volume 531.696641
_symmetry_space_group_name_H-M "P -1"
_symmetry_group_IT_number 2
_symmetry_cell_setting 'triclinic'
loop_
_space_group_symop_operation_xyz
x,y,z
-x,-y,-z
loop_
_atom_site_type_symbol
_atom_site_label
_atom_site_fract_x
_atom_site_fract_y
_atom_site_fract_z
Si Si1 0.443926 0.965200 0.597918
Si Si2 0.461812 0.267172 0.502970
Si Si3 0.035902 0.341211 0.611657
Si Si4 0.562194 0.490801 0.722391
Si Si5 0.786231 0.343634 0.085058
Si Si6 0.500000 0.000000 0.500000
Si Si7 0.722322 0.115412 0.253111
O O1 0.098796 0.984457 0.328677
O O2 0.743371 0.770206 0.489345
O O3 0.462532 0.051298 0.672281
O O4 0.499411 0.059483 0.904362
O O5 0.328741 0.465944 0.714575
O O6 0.643657 0.151023 0.359630
O O7 0.164799 0.247202 0.235535
O O8 0.665826 0.248236 0.736831
O O9 0.675916 0.428754 0.425663
O O10 0.172845 0.190087 0.533921
O O11 0.142393 0.480241 0.979973
O O12 0.365438 0.605459 0.851107
O O13 0.652917 0.296138 0.472970
#
# Coordination Sequence:
#
# PCOD9023846 Si02
#       7
#     2   2   2   2   2   1   2
#     4  10  22  40  62  80 116 154 199 224 288 365
#     4   9  17  30  51  80 116 152 185 223 276 339
#     4  10  22  40  62  80 116 154 199 224 288 365
#     4  11  21  36  61  93 116 145 194 249 285 316
#     4   9  17  30  51  80 116 152 185 223 276 339
#     4   8  24  42  66  78 108 162 202 210 288 390
#     4  11  21  36  61  93 116 145 194 249 285 316
#
# _framework density 24.450033000000001
#
# number of rings (size 3 to 8) (size 9 to 14) (size 15 to 20)
#    0.923    1.231    0.000    3.692    0.000    7.385 
#    0.000    4.615    0.000   18.462    0.000    0.000 
#    0.000    0.000    0.000    0.000    0.000    0.000 
#
# Total GULP energy -72447.176635 kJ/mol
# GULP energy per Si atom -5572.859741 kJ/mol
# Density = 2.439438 g / cm^3
# Si number density = 24.450033 Si / 1000 Ang^3
#
#
#
# Elastic Constant Matrix: (Units=GPa)
#
#
# Indices 1 2 3 4 5 6 
#
# 1 77.2969 22.3328 27.9542 -8.2463 -25.3159 7.9003
# 2 22.3328 69.7908 24.3622 3.0832 -37.4231 27.7584
# 3 27.9542 24.3622 126.2482 -34.2851 -2.4404 0.2778
# 4 -8.2463 3.0832 -34.2851 35.5554 11.5230 -5.5991
# 5 -25.3159 -37.4231 -2.4404 11.5230 -2.4987 -2.9203
# 6 7.9003 27.7584 0.2778 -5.5991 -2.9203 45.9467
#
#
#
# Elastic Compliance Matrix: (Units=1/GPa)
#
#
# Indices 1 2 3 4 5 6 
#
# 1 0.014339 -0.007947 -0.000231 0.005495 -0.003915 0.002758
# 2 -0.007947 0.008040 0.000859 0.003697 -0.018749 -0.004238
# 3 -0.000231 0.000859 0.009741 0.006494 0.008950 0.000822
# 4 0.005495 0.003697 0.006494 0.029751 0.018003 0.001552
# 5 -0.003915 -0.018749 0.008950 0.018003 -0.020468 0.012839
# 6 0.002758 -0.004238 0.000822 0.001552 0.012839 0.024850
#
#
# Mechanical properties :
#
#
# Convention : Reuss Voigt Hill
#
# Bulk Modulus (GPa) = 57.19916 46.95938 52.07927
# Shear Modulus (GPa) = 57.65775 29.04646 43.35210
#
# Velocity S-wave (km/s) = 4.86139 3.45047 4.21538
# Velocity P-wave (km/s) = 7.41322 5.92640 6.71111
#
# Compressibility (1/GPa) = 0.01748277
#
# Stress axis : x y z
#
# Youngs Moduli (GPa) = 69.74114 124.37163 102.65825
#
# Poissons Ratio (x) = 0.98833 0.02371
# Poissons Ratio (y) = 0.55420 -0.08816
# Poissons Ratio (z) = 0.01611 -0.10681
#
# Static dielectric constant tensor:
#      x y z
#    x 1.941480 0.025460 0.050310 
#    y 0.025460 1.901210 0.052460 
#    z 0.050310 0.052460 1.913340 
# 
# From -- ./inp_files/486800.got.cif
#   From: 2010.05.17/outbox.cif.g08.bks.cpg/sg2_244_cif.got.tgz:486800.got - 2010.06.03 11:33:40.
