data_PCOD9023515
_publ_section_title
;
Structure prediction by ZEFSAII (Michael W. Deem and Ramdas Pophale) SiO2 
 PCOD9023515
Probable space group: P -1
;
_chemical_formula_sum "Si O2"
_cell_formula_units_Z 16
_cell_length_a 9.416923
_cell_length_b 8.242549
_cell_length_c 16.765670
_cell_angle_alpha 103.305018
_cell_angle_beta 34.629832
_cell_angle_gamma 97.452373
_cell_volume 715.466602
_symmetry_space_group_name_H-M "P -1"
_symmetry_group_IT_number 2
_symmetry_cell_setting 'triclinic'
loop_
_space_group_symop_operation_xyz
x,y,z
-x,-y,-z
loop_
_atom_site_type_symbol
_atom_site_label
_atom_site_fract_x
_atom_site_fract_y
_atom_site_fract_z
Si Si1 0.180784 0.168260 0.512029
Si Si2 0.790161 0.231404 0.568099
Si Si3 0.632008 0.730115 0.106102
Si Si4 0.560125 0.364313 0.077153
Si Si5 0.031841 0.265298 0.298567
Si Si6 0.755777 0.119905 0.819430
Si Si7 0.360684 0.634583 0.639179
Si Si8 0.145039 0.639712 0.905573
O O1 0.442705 0.234176 0.416782
O O2 0.032143 0.251946 0.514092
O O3 0.989114 0.195658 0.677668
O O4 0.216869 0.968921 0.458828
O O5 0.538619 0.293525 0.739292
O O6 0.840944 0.299693 0.465045
O O7 0.647036 0.546295 0.037409
O O8 0.470605 0.858844 0.137662
O O9 0.909178 0.772821 0.004604
O O10 0.259561 0.377688 0.213005
O O11 0.659799 0.310774 0.113330
O O12 0.671770 0.225464 0.947575
O O13 0.882427 0.288167 0.288302
O O14 0.157826 0.073977 0.226204
O O15 0.500000 0.500000 0.500000
O O16 0.276450 0.571683 0.756350
O O17 0.000000 0.500000 0.000000
#
# Coordination Sequence:
#
# PCOD9023515 Si02
#       8
#     2   2   2   2   2   2   2   2
#     4   9  21  41  66  96 135 176 224 268 342 386
#     4   9  20  41  67  96 132 179 221 272 328 412
#     4  10  22  39  70  94 132 174 229 273 338 391
#     4  11  23  39  68  95 133 176 231 274 333 397
#     4  11  25  41  65  99 139 177 227 271 345 395
#     4  10  22  42  66  97 135 183 216 276 331 417
#     4  12  28  42  68 101 140 172 229 288 330 399
#     4  10  25  44  62  98 133 173 219 274 344 389
#
# _framework density 22.363029000000001
#
# number of rings (size 3 to 8) (size 9 to 14) (size 15 to 20)
#    0.000    1.750    0.000    3.000   10.500    3.500 
#    0.000    1.875    0.000    0.000    0.000    0.000 
#    0.000    0.000    0.000    0.000    0.000    0.000 
#
# Total GULP energy -89505.987469 kJ/mol
# GULP energy per Si atom -5594.124217 kJ/mol
# Density = 2.231213 g / cm^3
# Si number density = 22.363029 Si / 1000 Ang^3
#
#
#
# Elastic Constant Matrix: (Units=GPa)
#
#
# Indices 1 2 3 4 5 6 
#
# 1 165.1093 33.6897 54.1730 -12.3174 -7.6838 -5.7666
# 2 33.6897 44.2691 13.8272 -0.6197 -2.3342 -5.4265
# 3 54.1730 13.8272 111.1081 2.0019 17.2041 0.5801
# 4 -12.3174 -0.6197 2.0019 26.9530 -4.3679 -4.1615
# 5 -7.6838 -2.3342 17.2041 -4.3679 45.7282 -4.4488
# 6 -5.7666 -5.4265 0.5801 -4.1615 -4.4488 32.4368
#
#
#
# Elastic Compliance Matrix: (Units=1/GPa)
#
#
# Indices 1 2 3 4 5 6 
#
# 1 0.009232 -0.005079 -0.004552 0.005363 0.003718 0.002071
# 2 -0.005079 0.027319 -0.001122 -0.000828 0.001249 0.003753
# 3 -0.004552 -0.001122 0.012409 -0.004435 -0.006170 -0.002634
# 4 0.005363 -0.000828 -0.004435 0.042167 0.007265 0.007301
# 5 0.003718 0.001249 -0.006170 0.007265 0.026107 0.005493
# 6 0.002071 0.003753 -0.002634 0.007301 0.005493 0.033562
#
#
# Mechanical properties :
#
#
# Convention : Reuss Voigt Hill
#
# Bulk Modulus (GPa) = 36.42492 58.20737 47.31615
# Shear Modulus (GPa) = 27.55540 35.61003 31.58271
#
# Velocity S-wave (km/s) = 3.51406 3.99477 3.76210
# Velocity P-wave (km/s) = 5.72610 6.88204 6.33051
#
# Compressibility (1/GPa) = 0.02745373
#
# Stress axis : x y z
#
# Youngs Moduli (GPa) = 108.31863 36.60483 80.58969
#
# Poissons Ratio (x) = 0.18591 0.36688
# Poissons Ratio (y) = 0.55013 0.09039
# Poissons Ratio (z) = 0.49311 0.04105
#
# Static dielectric constant tensor:
#      x y z
#    x 1.845410 -0.031300 -0.010720 
#    y -0.031300 1.823940 0.007300 
#    z -0.010720 0.007300 1.852570 
# 
# From -- ./inp_files/495108.got.cif
#   From: 2010.05.17/outbox.cif.g08.bks.cpg/sg2_248_cif.got.tgz:495108.got - 2010.06.03 11:33:40.
