data_PCOD9023568
_publ_section_title
;
Structure prediction by ZEFSAII (Michael W. Deem and Ramdas Pophale) SiO2 
 PCOD9023568
Probable space group: P -1
;
_chemical_formula_sum "Si O2"
_cell_formula_units_Z 16
_cell_length_a 14.291239
_cell_length_b 8.783001
_cell_length_c 9.534926
_cell_angle_alpha 108.214115
_cell_angle_beta 103.035724
_cell_angle_gamma 130.075619
_cell_volume 704.164849
_symmetry_space_group_name_H-M "P -1"
_symmetry_group_IT_number 2
_symmetry_cell_setting 'triclinic'
loop_
_space_group_symop_operation_xyz
x,y,z
-x,-y,-z
loop_
_atom_site_type_symbol
_atom_site_label
_atom_site_fract_x
_atom_site_fract_y
_atom_site_fract_z
Si Si1 0.121198 0.997218 0.861212
Si Si2 0.351606 0.096781 0.778122
Si Si3 0.117962 0.559947 0.453673
Si Si4 0.277039 0.189237 0.254539
Si Si5 0.928631 0.787003 0.296850
Si Si6 0.402837 0.716871 0.909255
Si Si7 0.601555 0.590484 0.362459
Si Si8 0.111007 0.728616 0.210778
O O1 0.254996 0.057398 0.858483
O O2 0.125198 0.170924 0.836163
O O3 0.151149 0.050195 0.052734
O O4 0.962930 0.713887 0.676827
O O5 0.341468 0.208587 0.676855
O O6 0.275754 0.826053 0.645649
O O7 0.522944 0.280966 0.932166
O O8 0.134060 0.643968 0.324774
O O9 0.000000 0.500000 0.500000
O O10 0.438183 0.437926 0.314482
O O11 0.285397 0.289607 0.434910
O O12 0.254154 0.977545 0.242841
O O13 0.777466 0.499474 0.211744
O O14 0.035458 0.787378 0.273227
O O15 0.000000 0.000000 0.500000
O O16 0.428656 0.621271 0.770357
O O17 0.500000 0.000000 0.000000
O O18 0.000000 0.500000 0.000000
#
# Coordination Sequence:
#
# PCOD9023568 Si02
#       8
#     2   2   2   2   2   2   2   2
#     4  11  22  42  72 101 136 185 235 291 343 421
#     4  11  21  44  69 102 136 180 245 284 349 413
#     4  10  22  39  72  99 132 186 236 285 336 419
#     4  11  23  40  70  98 134 180 224 279 360 418
#     4  12  27  46  72 103 143 187 243 294 343 418
#     4  12  27  41  70 106 139 178 236 302 344 404
#     4  11  22  43  70  97 134 179 231 285 350 426
#     4  12  25  45  68 102 143 181 229 288 358 417
#
# _framework density 22.721951000000001
#
# number of rings (size 3 to 8) (size 9 to 14) (size 15 to 20)
#    0.000    0.750    5.000    3.375    7.000    0.500 
#    0.000    0.000    0.000    3.000    0.000    0.000 
#    0.000    0.000    0.000    0.000    0.000    0.000 
#
# Total GULP energy -89288.624507 kJ/mol
# GULP energy per Si atom -5580.539032 kJ/mol
# Density = 2.267023 g / cm^3
# Si number density = 22.721951 Si / 1000 Ang^3
#
#
#
# Elastic Constant Matrix: (Units=GPa)
#
#
# Indices 1 2 3 4 5 6 
#
# 1 41.9156 10.7191 17.9506 10.2590 2.2143 2.5352
# 2 10.7191 125.8400 41.1814 11.4232 -5.4532 -7.3450
# 3 17.9506 41.1814 146.8863 6.6056 -20.2826 -0.0653
# 4 10.2590 11.4232 6.6056 49.5775 -3.0312 1.6805
# 5 2.2143 -5.4532 -20.2826 -3.0312 17.6000 7.7989
# 6 2.5352 -7.3450 -0.0653 1.6805 7.7989 23.1442
#
#
#
# Elastic Compliance Matrix: (Units=1/GPa)
#
#
# Indices 1 2 3 4 5 6 
#
# 1 0.027762 -0.000869 -0.004249 -0.005589 -0.009788 0.000375
# 2 -0.000869 0.009200 -0.002688 -0.001846 -0.002173 0.003873
# 3 -0.004249 -0.002688 0.009893 0.001177 0.013521 -0.005002
# 4 -0.005589 -0.001846 0.001177 0.022161 0.007058 -0.003958
# 5 -0.009788 -0.002173 0.013521 0.007058 0.087241 -0.029489
# 6 0.000375 0.003873 -0.005002 -0.003958 -0.029489 0.054606
#
#
# Mechanical properties :
#
#
# Convention : Reuss Voigt Hill
#
# Bulk Modulus (GPa) = 32.00862 50.48270 41.24566
# Shear Modulus (GPa) = 21.10687 34.38374 27.74531
#
# Velocity S-wave (km/s) = 3.05112 3.89426 3.49819
# Velocity P-wave (km/s) = 5.15074 6.51814 5.87436
#
# Compressibility (1/GPa) = 0.03124159
#
# Stress axis : x y z
#
# Youngs Moduli (GPa) = 36.02080 108.69691 101.08290
#
# Poissons Ratio (x) = 0.09447 0.42950
# Poissons Ratio (y) = 0.03131 0.27175
# Poissons Ratio (z) = 0.15305 0.29222
#
# Static dielectric constant tensor:
#      x y z
#    x 1.883700 0.060880 0.024670 
#    y 0.060880 2.031040 0.011650 
#    z 0.024670 0.011650 1.896300 
# 
# From -- ./inp_files/298660.got.cif
#   From: 2010.05.17/outbox.cif.g08.bks.cpg/sg2_150_cif.got.tgz:298660.got - 2010.06.03 11:33:40.
