data_PCOD9023333
_publ_section_title
;
Structure prediction by ZEFSAII (Michael W. Deem and Ramdas Pophale) SiO2 
 PCOD9023333
Probable space group: P -1
;
_chemical_formula_sum "Si O2"
_cell_formula_units_Z 14
_cell_length_a 14.296176
_cell_length_b 8.747828
_cell_length_c 9.198180
_cell_angle_alpha 98.445142
_cell_angle_beta 61.654186
_cell_angle_gamma 140.262788
_cell_volume 596.518356
_symmetry_space_group_name_H-M "P -1"
_symmetry_group_IT_number 2
_symmetry_cell_setting 'triclinic'
loop_
_space_group_symop_operation_xyz
x,y,z
-x,-y,-z
loop_
_atom_site_type_symbol
_atom_site_label
_atom_site_fract_x
_atom_site_fract_y
_atom_site_fract_z
Si Si1 0.704966 0.286491 0.375116
Si Si2 0.875520 0.978493 0.506232
Si Si3 0.042197 0.196609 0.097588
Si Si4 0.330096 0.691076 0.120778
Si Si5 0.592756 0.418804 0.660531
Si Si6 0.800355 0.135461 0.091524
Si Si7 0.936939 0.346826 0.700139
O O1 0.691692 0.449419 0.455212
O O2 0.851979 0.388526 0.390658
O O3 0.500000 0.000000 0.500000
O O4 0.761989 0.268621 0.182341
O O5 0.676109 0.684643 0.638869
O O6 0.900658 0.172835 0.586727
O O7 0.000000 0.000000 0.500000
O O8 0.938290 0.052125 0.305031
O O9 0.247250 0.477572 0.030310
O O10 0.953588 0.238164 0.088190
O O11 0.000000 0.000000 0.000000
O O12 0.365464 0.632751 0.231940
O O13 0.169281 0.623454 0.253738
O O14 0.500000 0.000000 0.000000
O O15 0.380355 0.165069 0.775251
O O16 0.855368 0.190699 0.891709
#
# Coordination Sequence:
#
# PCOD9023333 Si02
#       7
#     2   2   2   2   2   2   2
#     4  10  22  39  68 101 139 181 238 297 361 421
#     4  12  25  46  72 103 143 197 241 299 371 445
#     4  12  28  46  75 107 151 190 250 307 372 434
#     4  12  26  46  74 113 145 196 252 300 364 444
#     4  11  25  47  73 104 150 192 245 299 365 449
#     4  11  25  44  70 110 141 188 240 308 369 424
#     4  12  24  43  77 103 146 194 243 299 371 440
#
# _framework density 23.469519999999999
#
# number of rings (size 3 to 8) (size 9 to 14) (size 15 to 20)
#    0.000    0.571    5.714    1.286    2.000    3.429 
#    2.571    0.000    0.000    0.000    0.000    0.000 
#    0.000    0.000    0.000    0.000    0.000    0.000 
#
# Total GULP energy -78292.136629 kJ/mol
# GULP energy per Si atom -5592.295474 kJ/mol
# Density = 2.341610 g / cm^3
# Si number density = 23.469520 Si / 1000 Ang^3
#
#
#
# Elastic Constant Matrix: (Units=GPa)
#
#
# Indices 1 2 3 4 5 6 
#
# 1 41.2530 28.0833 39.8479 -14.8281 -9.9703 7.3590
# 2 28.0833 197.9339 74.2030 -10.7902 -7.0055 16.7380
# 3 39.8479 74.2030 149.6499 6.1229 19.9978 0.0257
# 4 -14.8281 -10.7902 6.1229 57.3151 -1.4359 -8.2124
# 5 -9.9703 -7.0055 19.9978 -1.4359 37.4605 -8.3267
# 6 7.3590 16.7380 0.0257 -8.2124 -8.3267 29.6434
#
#
#
# Elastic Compliance Matrix: (Units=1/GPa)
#
#
# Indices 1 2 3 4 5 6 
#
# 1 0.054305 0.001532 -0.019248 0.016637 0.025057 -0.002682
# 2 0.001532 0.006944 -0.004395 0.001860 0.003502 -0.002799
# 3 -0.019248 -0.004395 0.016271 -0.007777 -0.014716 0.000958
# 4 0.016637 0.001860 -0.007777 0.023845 0.010836 0.004476
# 5 0.025057 0.003502 -0.014716 0.010836 0.043878 0.007142
# 6 -0.002682 -0.002799 0.000958 0.004476 0.007142 0.039226
#
#
# Mechanical properties :
#
#
# Convention : Reuss Voigt Hill
#
# Bulk Modulus (GPa) = 30.03167 74.78948 52.41058
# Shear Modulus (GPa) = 20.85147 41.33064 31.09105
#
# Velocity S-wave (km/s) = 2.98392 4.20102 3.64365
# Velocity P-wave (km/s) = 4.96946 7.44763 6.33099
#
# Compressibility (1/GPa) = 0.03329818
#
# Stress axis : x y z
#
# Youngs Moduli (GPa) = 18.41452 144.00127 61.45853
#
# Poissons Ratio (x) = -0.22054 1.18296
# Poissons Ratio (y) = -0.02820 0.27009
# Poissons Ratio (z) = 0.35444 0.63284
#
# Static dielectric constant tensor:
#      x y z
#    x 1.837990 0.008380 0.005540 
#    y 0.008380 1.981470 0.020000 
#    z 0.005540 0.020000 1.918290 
# 
# From -- ./inp_files/186471.got.cif
#   From: 2010.05.17/outbox.cif.g08.bks.cpg/sg2_94_cif.got.tgz:186471.got - 2010.06.03 11:33:40.
