data_PCOD9023270
_publ_section_title
;
Structure prediction by ZEFSAII (Michael W. Deem and Ramdas Pophale) SiO2 
 PCOD9023270
Probable space group: P -1
;
_chemical_formula_sum "Si O2"
_cell_formula_units_Z 16
_cell_length_a 15.952892
_cell_length_b 5.196635
_cell_length_c 24.981055
_cell_angle_alpha 53.885163
_cell_angle_beta 155.235247
_cell_angle_gamma 124.651351
_cell_volume 697.391674
_symmetry_space_group_name_H-M "P -1"
_symmetry_group_IT_number 2
_symmetry_cell_setting 'triclinic'
loop_
_space_group_symop_operation_xyz
x,y,z
-x,-y,-z
loop_
_atom_site_type_symbol
_atom_site_label
_atom_site_fract_x
_atom_site_fract_y
_atom_site_fract_z
Si Si1 0.808987 0.856126 0.834541
Si Si2 0.483767 0.875056 0.445859
Si Si3 0.494518 0.070866 0.090529
Si Si4 0.843238 0.332631 0.547428
Si Si5 0.064178 0.759637 0.715302
Si Si6 0.765333 0.435195 0.059583
Si Si7 0.537809 0.698513 0.265499
Si Si8 0.216641 0.041423 0.074214
O O1 0.718591 0.035614 0.711136
O O2 0.813511 0.043868 0.870707
O O3 0.643909 0.563475 0.789481
O O4 0.045286 0.823046 0.967920
O O5 0.500000 0.500000 0.500000
O O6 0.500000 0.000000 0.500000
O O7 0.665029 0.068955 0.494908
O O8 0.357461 0.899051 0.985892
O O9 0.540727 0.795602 0.193608
O O10 0.705241 0.225402 0.171632
O O11 0.372735 0.325993 0.019518
O O12 0.741244 0.579920 0.419692
O O13 0.934023 0.530402 0.626932
O O14 0.998702 0.119232 0.635207
O O15 0.060087 0.628671 0.789870
O O16 0.823905 0.613792 0.015730
O O17 0.451989 0.004398 0.205993
#
# Coordination Sequence:
#
# PCOD9023270 Si02
#       8
#     2   2   2   2   2   2   2   2
#     4  10  22  41  66  96 127 174 218 272 319 396
#     4  11  26  45  67  96 136 178 212 264 328 393
#     4  11  23  43  71  94 133 172 220 274 336 373
#     4  11  27  42  69  93 138 172 219 270 324 392
#     4  12  25  44  66 102 130 176 222 269 323 399
#     4  11  23  42  67  98 133 171 216 279 326 388
#     4  10  23  42  64  93 134 172 219 272 328 384
#     4  10  22  39  67  95 129 169 225 269 328 381
#
# _framework density 22.942633000000001
#
# number of rings (size 3 to 8) (size 9 to 14) (size 15 to 20)
#    0.000    1.250    1.250    3.375   10.500    1.000 
#    0.000    0.000    0.000    0.000    0.000    0.000 
#    0.000    0.000    0.000    0.000    0.000    0.000 
#
# Total GULP energy -89356.119345 kJ/mol
# GULP energy per Si atom -5584.757459 kJ/mol
# Density = 2.289041 g / cm^3
# Si number density = 22.942633 Si / 1000 Ang^3
#
#
#
# Elastic Constant Matrix: (Units=GPa)
#
#
# Indices 1 2 3 4 5 6 
#
# 1 63.7527 22.3690 35.3364 -9.7898 -15.6322 -12.0535
# 2 22.3690 74.6829 35.9572 -2.9415 -17.6838 -10.6156
# 3 35.3364 35.9572 139.9326 -15.2377 -28.2905 -14.2669
# 4 -9.7898 -2.9415 -15.2377 36.7433 1.1325 -4.7703
# 5 -15.6322 -17.6838 -28.2905 1.1325 33.5575 0.3459
# 6 -12.0535 -10.6156 -14.2669 -4.7703 0.3459 42.4458
#
#
#
# Elastic Compliance Matrix: (Units=1/GPa)
#
#
# Indices 1 2 3 4 5 6 
#
# 1 0.021199 -0.002858 -0.002317 0.004920 0.006198 0.005029
# 2 -0.002858 0.017056 -0.002251 -0.000164 0.005738 0.002632
# 3 -0.002317 -0.002251 0.010214 0.003580 0.006198 0.002564
# 4 0.004920 -0.000164 0.003580 0.030646 0.004128 0.005970
# 5 0.006198 0.005738 0.006198 0.004128 0.040741 0.005410
# 6 0.005029 0.002632 0.002564 0.005970 0.005410 0.027135
#
#
# Mechanical properties :
#
#
# Convention : Reuss Voigt Hill
#
# Bulk Modulus (GPa) = 29.74640 51.74371 40.74505
# Shear Modulus (GPa) = 28.89390 34.86304 31.87847
#
# Velocity S-wave (km/s) = 3.55265 3.90240 3.73162
# Velocity P-wave (km/s) = 5.46096 6.55038 6.03032
#
# Compressibility (1/GPa) = 0.03361751
#
# Stress axis : x y z
#
# Youngs Moduli (GPa) = 47.17277 58.63131 97.90285
#
# Poissons Ratio (x) = 0.16754 0.22688
# Poissons Ratio (y) = 0.13480 0.22033
# Poissons Ratio (z) = 0.10932 0.13195
#
# Static dielectric constant tensor:
#      x y z
#    x 1.934350 -0.013000 0.049440 
#    y -0.013000 1.953710 -0.021030 
#    z 0.049440 -0.021030 1.851120 
# 
# From -- ./inp_files/90150.got.cif
#   From: 2010.05.17/outbox.cif.g08.bks.cpg/sg2_46_cif.got.tgz:90150.got - 2010.06.03 11:33:40.
