data_PCOD9023213
_publ_section_title
;
Structure prediction by ZEFSAII (Michael W. Deem and Ramdas Pophale) SiO2 
 PCOD9023213
Probable space group: P -1
;
_chemical_formula_sum "Si O2"
_cell_formula_units_Z 16
_cell_length_a 8.586268
_cell_length_b 11.620105
_cell_length_c 17.384365
_cell_angle_alpha 30.836467
_cell_angle_beta 122.236819
_cell_angle_gamma 120.410424
_cell_volume 747.375303
_symmetry_space_group_name_H-M "P -1"
_symmetry_group_IT_number 2
_symmetry_cell_setting 'triclinic'
loop_
_space_group_symop_operation_xyz
x,y,z
-x,-y,-z
loop_
_atom_site_type_symbol
_atom_site_label
_atom_site_fract_x
_atom_site_fract_y
_atom_site_fract_z
Si Si1 0.903019 0.873369 0.971520
Si Si2 0.594556 0.688816 0.473417
Si Si3 0.929771 0.294827 0.157076
Si Si4 0.021190 0.131357 0.693110
Si Si5 0.717116 0.461387 0.407350
Si Si6 0.542936 0.171501 0.119347
Si Si7 0.874641 0.540092 0.739943
Si Si8 0.464846 0.748338 0.103218
O O1 0.678947 0.836477 0.928376
O O2 0.972438 0.013308 0.831824
O O3 0.971865 0.627558 0.135405
O O4 0.000000 0.000000 0.000000
O O5 0.500000 0.500000 0.500000
O O6 0.457429 0.672349 0.519658
O O7 0.797129 0.650434 0.580209
O O8 0.582578 0.923832 0.295614
O O9 0.720189 0.321803 0.117083
O O10 0.058089 0.298459 0.264422
O O11 0.945842 0.066659 0.243479
O O12 0.000000 0.500000 0.000000
O O13 0.860313 0.279993 0.537443
O O14 0.190374 0.328612 0.637007
O O15 0.635964 0.598286 0.238089
O O16 0.590089 0.228108 0.011489
O O17 0.698767 0.375398 0.818684
O O18 0.500000 0.000000 0.000000
#
# Coordination Sequence:
#
# PCOD9023213 Si02
#       8
#     2   2   2   2   2   2   2   2
#     4  12  23  40  66 108 138 169 225 297 351 395
#     4  11  22  41  66 104 137 168 219 291 355 400
#     4  12  24  47  69  92 134 197 241 263 328 433
#     4  11  22  42  69  97 138 181 224 289 337 409
#     4  10  22  39  67 103 132 172 232 283 346 394
#     4  12  24  40  68  95 136 179 220 285 344 396
#     4  11  25  43  70  96 134 185 231 273 340 426
#     4  11  20  40  66  97 128 179 231 274 333 415
#
# _framework density 21.408253999999999
#
# number of rings (size 3 to 8) (size 9 to 14) (size 15 to 20)
#    0.000    0.750    3.750    6.000    0.000    1.000 
#    2.250    2.500    2.750    0.000    0.000    0.000 
#    0.000    0.000    0.000    0.000    0.000    0.000 
#
# Total GULP energy -89291.154822 kJ/mol
# GULP energy per Si atom -5580.697176 kJ/mol
# Density = 2.135953 g / cm^3
# Si number density = 21.408254 Si / 1000 Ang^3
#
#
#
# Elastic Constant Matrix: (Units=GPa)
#
#
# Indices 1 2 3 4 5 6 
#
# 1 78.6429 26.5574 41.4772 -5.9998 24.1784 21.3808
# 2 26.5574 105.5747 38.0912 8.1143 29.1213 3.2925
# 3 41.4772 38.0912 161.3013 20.5816 42.2585 3.7107
# 4 -5.9998 8.1143 20.5816 36.4934 7.3750 2.4026
# 5 24.1784 29.1213 42.2585 7.3750 29.7474 3.9037
# 6 21.3808 3.2925 3.7107 2.4026 3.9037 34.0954
#
#
#
# Elastic Compliance Matrix: (Units=1/GPa)
#
#
# Indices 1 2 3 4 5 6 
#
# 1 0.023384 -0.001200 -0.002874 0.009509 -0.014366 -0.013260
# 2 -0.001200 0.013065 0.000621 -0.000972 -0.012578 0.000932
# 3 -0.002874 0.000621 0.010557 -0.004184 -0.012536 0.002324
# 4 0.009509 -0.000972 -0.004184 0.033665 -0.008282 -0.006837
# 5 -0.014366 -0.012578 -0.012536 -0.008282 0.077029 0.003352
# 6 -0.013260 0.000932 0.002324 -0.006837 0.003352 0.037400
#
#
# Mechanical properties :
#
#
# Convention : Reuss Voigt Hill
#
# Bulk Modulus (GPa) = 24.93778 61.97449 43.45614
# Shear Modulus (GPa) = 23.21566 36.02678 29.62122
#
# Velocity S-wave (km/s) = 3.29663 4.10670 3.72376
# Velocity P-wave (km/s) = 5.11511 7.17624 6.23148
#
# Compressibility (1/GPa) = 0.04009980
#
# Stress axis : x y z
#
# Youngs Moduli (GPa) = 42.76414 76.54097 94.72689
#
# Poissons Ratio (x) = 0.09184 0.27227
# Poissons Ratio (y) = 0.05131 -0.05885
# Poissons Ratio (z) = 0.12291 -0.04755
#
# Static dielectric constant tensor:
#      x y z
#    x 1.854910 0.092120 0.031570 
#    y 0.092120 1.936520 0.067180 
#    z 0.031570 0.067180 1.777930 
# 
# From -- ./inp_files/558899.got.cif
#   From: 2010.05.17/outbox.cif.g08.bks.cpg/sg2_280_cif.got.tgz:558899.got - 2010.06.03 11:33:40.
