data_PCOD9023237
_publ_section_title
;
Structure prediction by ZEFSAII (Michael W. Deem and Ramdas Pophale) SiO2 
 PCOD9023237
Probable space group: P -1
;
_chemical_formula_sum "Si O2"
_cell_formula_units_Z 12
_cell_length_a 8.866719
_cell_length_b 10.108253
_cell_length_c 7.008131
_cell_angle_alpha 58.413709
_cell_angle_beta 107.021779
_cell_angle_gamma 118.153386
_cell_volume 470.888924
_symmetry_space_group_name_H-M "P -1"
_symmetry_group_IT_number 2
_symmetry_cell_setting 'triclinic'
loop_
_space_group_symop_operation_xyz
x,y,z
-x,-y,-z
loop_
_atom_site_type_symbol
_atom_site_label
_atom_site_fract_x
_atom_site_fract_y
_atom_site_fract_z
Si Si1 0.387045 0.226012 0.606168
Si Si2 0.844266 0.353957 0.243319
Si Si3 0.058248 0.731687 0.035816
Si Si4 0.412261 0.533861 0.179277
Si Si5 0.749195 0.798766 0.031044
Si Si6 0.347999 0.901359 0.302099
O O1 0.345490 0.336508 0.347441
O O2 0.547289 0.365707 0.677921
O O3 0.245106 0.165722 0.764673
O O4 0.461612 0.093221 0.658295
O O5 0.748178 0.230058 0.469466
O O6 0.985621 0.534587 0.221763
O O7 0.928398 0.269376 0.186342
O O8 0.712403 0.405125 0.030387
O O9 0.239872 0.829861 0.124711
O O10 0.925698 0.807167 0.008573
O O11 0.603797 0.609528 0.105442
O O12 0.669316 0.921180 0.813947
#
# Coordination Sequence:
#
# PCOD9023237 Si02
#       6
#     2   2   2   2   2   2
#     4   9  20  40  68  89 120 160 209 253 300 366
#     4  11  25  40  67  90 124 165 208 260 296 370
#     4  11  24  43  59  91 128 165 212 245 304 371
#     4   9  20  42  61  96 115 160 213 246 307 353
#     4  10  22  39  67  92 124 166 199 257 313 365
#     4  12  23  41  65  92 129 164 199 255 316 367
#
# _framework density 25.483720000000002
#
# number of rings (size 3 to 8) (size 9 to 14) (size 15 to 20)
#    1.000    0.667    1.667    2.500    0.000    6.667 
#    0.000    1.667    0.000    0.000    0.000    0.000 
#    0.000    0.000    0.000    0.000    0.000    0.000 
#
# Total GULP energy -67200.122085 kJ/mol
# GULP energy per Si atom -5600.010174 kJ/mol
# Density = 2.542572 g / cm^3
# Si number density = 25.483720 Si / 1000 Ang^3
#
#
#
# Elastic Constant Matrix: (Units=GPa)
#
#
# Indices 1 2 3 4 5 6 
#
# 1 110.1401 15.2762 17.0756 -14.7504 -3.4028 -45.4135
# 2 15.2762 73.4858 20.1700 -6.0415 -2.4224 -16.3815
# 3 17.0756 20.1700 125.4651 -12.5492 -12.0085 -22.2818
# 4 -14.7504 -6.0415 -12.5492 21.1875 -3.3331 7.2506
# 5 -3.4028 -2.4224 -12.0085 -3.3331 37.3468 -1.6682
# 6 -45.4135 -16.3815 -22.2818 7.2506 -1.6682 54.8370
#
#
#
# Elastic Compliance Matrix: (Units=1/GPa)
#
#
# Indices 1 2 3 4 5 6 
#
# 1 0.014893 -0.000048 0.001109 0.007403 0.002902 0.011880
# 2 -0.000048 0.015035 -0.001462 0.002299 0.000866 0.003580
# 3 0.001109 -0.001462 0.009622 0.005344 0.003747 0.003799
# 4 0.007403 0.002299 0.005344 0.056795 0.007687 0.001713
# 5 0.002902 0.000866 0.003747 0.007687 0.029168 0.004055
# 6 0.011880 0.003580 0.003799 0.001713 0.004055 0.030584
#
#
# Mechanical properties :
#
#
# Convention : Reuss Voigt Hill
#
# Bulk Modulus (GPa) = 25.80758 46.01495 35.91126
# Shear Modulus (GPa) = 29.44360 39.77888 34.61124
#
# Velocity S-wave (km/s) = 3.40279 3.95518 3.68933
# Velocity P-wave (km/s) = 5.05843 6.24129 5.68073
#
# Compressibility (1/GPa) = 0.03874831
#
# Stress axis : x y z
#
# Youngs Moduli (GPa) = 67.14346 66.51195 103.92684
#
# Poissons Ratio (x) = 0.00318 -0.11522
# Poissons Ratio (y) = 0.00321 0.15193
# Poissons Ratio (z) = -0.07444 0.09723
#
# Static dielectric constant tensor:
#      x y z
#    x 1.963030 -0.020440 -0.021310 
#    y -0.020440 2.110640 0.017680 
#    z -0.021310 0.017680 1.956820 
# 
# From -- ./inp_files/160625.got.cif
#   From: 2010.05.17/outbox.cif.g08.bks.cpg/sg2_81_cif.got.tgz:160625.got - 2010.06.03 11:33:40.
