data_PCOD9023234
_publ_section_title
;
Structure prediction by ZEFSAII (Michael W. Deem and Ramdas Pophale) SiO2 
 PCOD9023234
Probable space group: P -1
;
_chemical_formula_sum "Si O2"
_cell_formula_units_Z 14
_cell_length_a 18.730482
_cell_length_b 23.753455
_cell_length_c 5.411168
_cell_angle_alpha 79.048471
_cell_angle_beta 81.006555
_cell_angle_gamma 13.940705
_cell_volume 565.425146
_symmetry_space_group_name_H-M "P -1"
_symmetry_group_IT_number 2
_symmetry_cell_setting 'triclinic'
loop_
_space_group_symop_operation_xyz
x,y,z
-x,-y,-z
loop_
_atom_site_type_symbol
_atom_site_label
_atom_site_fract_x
_atom_site_fract_y
_atom_site_fract_z
Si Si1 0.983761 0.186753 0.864779
Si Si2 0.800151 0.732964 0.045946
Si Si3 0.927010 0.107740 0.763713
Si Si4 0.693037 0.027575 0.639785
Si Si5 0.971804 0.345678 0.269034
Si Si6 0.510238 0.356074 0.452244
Si Si7 0.986066 0.576395 0.582546
O O1 0.869118 0.211099 0.850113
O O2 0.719202 0.437502 0.785394
O O3 0.192822 0.041645 0.636178
O O4 0.144307 0.065923 0.142437
O O5 0.867381 0.647370 0.326792
O O6 0.815052 0.685541 0.825738
O O7 0.055396 0.585593 0.987506
O O8 0.500000 0.000000 0.000000
O O9 0.657540 0.293831 0.582992
O O10 0.224093 0.882552 0.622775
O O11 0.000000 0.000000 0.000000
O O12 0.341457 0.304457 0.627547
O O13 0.797117 0.881506 0.733449
O O14 0.675423 0.542482 0.353155
O O15 0.096303 0.291386 0.463277
#
# Coordination Sequence:
#
# PCOD9023234 Si02
#       7
#     2   2   2   2   2   2   2
#     4  11  26  41  64  90 134 164 220 266 318 374
#     4  10  22  42  69  98 132 169 204 260 321 379
#     4  11  26  40  66  88 131 168 223 264 328 375
#     4  11  24  41  65  98 123 173 217 261 313 377
#     4   9  24  39  69  89 132 165 218 256 322 378
#     4  10  24  43  60  95 123 175 212 271 321 377
#     4  10  22  39  67  91 135 162 212 258 316 374
#
# _framework density 24.76013
#
# number of rings (size 3 to 8) (size 9 to 14) (size 15 to 20)
#    0.857    0.857    0.000    2.571   14.000    0.571 
#    0.000    1.429    0.000    0.000    0.000    0.000 
#    0.000    0.000    0.000    0.000    0.000    0.000 
#
# Total GULP energy -78365.315121 kJ/mol
# GULP energy per Si atom -5597.522509 kJ/mol
# Density = 2.470377 g / cm^3
# Si number density = 24.760130 Si / 1000 Ang^3
#
#
#
# Elastic Constant Matrix: (Units=GPa)
#
#
# Indices 1 2 3 4 5 6 
#
# 1 84.5334 8.1090 -6.6851 6.1742 1.1624 7.9803
# 2 8.1090 85.0214 43.4676 -0.3938 5.8972 -18.5047
# 3 -6.6851 43.4676 130.9718 1.5757 6.2346 -4.5512
# 4 6.1742 -0.3938 1.5757 31.9072 4.6711 2.9507
# 5 1.1624 5.8972 6.2346 4.6711 44.9433 0.9245
# 6 7.9803 -18.5047 -4.5512 2.9507 0.9245 25.4844
#
#
#
# Elastic Compliance Matrix: (Units=1/GPa)
#
#
# Indices 1 2 3 4 5 6 
#
# 1 0.012999 -0.003388 0.001594 -0.002114 0.000231 -0.006010
# 2 -0.003388 0.017917 -0.005581 0.000200 -0.001780 0.013116
# 3 0.001594 -0.005581 0.009503 -0.000514 -0.000517 -0.002776
# 4 -0.002114 0.000200 -0.000514 0.032520 -0.003220 -0.002933
# 5 0.000231 -0.001780 -0.000517 -0.003220 0.022924 -0.001916
# 6 -0.006010 0.013116 -0.002776 -0.002933 -0.001916 0.050559
#
#
# Mechanical properties :
#
#
# Convention : Reuss Voigt Hill
#
# Bulk Modulus (GPa) = 38.95954 43.36774 41.16364
# Shear Modulus (GPa) = 29.45837 37.50931 33.48384
#
# Velocity S-wave (km/s) = 3.45302 3.89640 3.68139
# Velocity P-wave (km/s) = 5.62732 6.14783 5.89332
#
# Compressibility (1/GPa) = 0.02566766
#
# Stress axis : x y z
#
# Youngs Moduli (GPa) = 76.92703 55.81155 105.22704
#
# Poissons Ratio (x) = 0.18912 -0.16770
# Poissons Ratio (y) = 0.26067 0.58731
# Poissons Ratio (z) = -0.12260 0.31151
#
# Static dielectric constant tensor:
#      x y z
#    x 1.972010 0.020850 -0.009320 
#    y 0.020850 1.941250 0.035470 
#    z -0.009320 0.035470 2.031700 
# 
# From -- ./inp_files/125334.got.cif
#   From: 2010.05.17/outbox.cif.g08.bks.cpg/sg2_63_cif.got.tgz:125334.got - 2010.06.03 11:33:40.
