data_PCOD9023761
_publ_section_title
;
Structure prediction by ZEFSAII (Michael W. Deem and Ramdas Pophale) SiO2 
 PCOD9023761
Probable space group: P -1
;
_chemical_formula_sum "Si O2"
_cell_formula_units_Z 14
_cell_length_a 4.901403
_cell_length_b 23.025191
_cell_length_c 6.610034
_cell_angle_alpha 107.879731
_cell_angle_beta 54.641544
_cell_angle_gamma 114.663425
_cell_volume 550.716589
_symmetry_space_group_name_H-M "P -1"
_symmetry_group_IT_number 2
_symmetry_cell_setting 'triclinic'
loop_
_space_group_symop_operation_xyz
x,y,z
-x,-y,-z
loop_
_atom_site_type_symbol
_atom_site_label
_atom_site_fract_x
_atom_site_fract_y
_atom_site_fract_z
Si Si1 0.832910 0.312570 0.045844
Si Si2 0.987239 0.983419 0.220136
Si Si3 0.882254 0.761839 0.839967
Si Si4 0.295645 0.790198 0.321674
Si Si5 0.595681 0.426677 0.152788
Si Si6 0.783152 0.085223 0.635292
Si Si7 0.013147 0.454324 0.633205
O O1 0.426909 0.271825 0.222121
O O2 0.823946 0.384231 0.101064
O O3 0.068804 0.291123 0.082735
O O4 0.871509 0.280951 0.778451
O O5 0.578164 0.939787 0.364306
O O6 0.230703 0.944288 0.166020
O O7 0.039555 0.050322 0.385370
O O8 0.000000 0.000000 0.000000
O O9 0.222672 0.792111 0.591941
O O10 0.699984 0.806144 0.090580
O O11 0.128894 0.839377 0.337707
O O12 0.210577 0.407438 0.401834
O O13 0.750046 0.499511 0.246908
O O14 0.652997 0.424984 0.883559
O O15 0.000000 0.500000 0.500000
#
# Coordination Sequence:
#
# PCOD9023761 Si02
#       7
#     2   2   2   2   2   2   2
#     4  10  26  42  66  96 127 170 210 265 315 379
#     4  10  22  40  61  90 120 165 201 260 309 368
#     4  10  26  42  66  94 130 166 216 252 326 368
#     4  10  26  42  66  96 127 170 210 265 315 379
#     4  10  23  38  61  90 123 156 214 249 313 372
#     4  10  23  38  61  90 123 156 214 249 313 372
#     4  10  22  40  61  90 120 165 201 260 309 368
#
# _framework density 25.421424999999999
#
# number of rings (size 3 to 8) (size 9 to 14) (size 15 to 20)
#    0.857    1.143    0.000    0.857   10.000    0.000 
#    0.000    0.000    0.000    0.000    0.000    0.000 
#    0.000    0.000    0.000    0.000    0.000    0.000 
#
# Total GULP energy -78067.525925 kJ/mol
# GULP energy per Si atom -5576.251852 kJ/mol
# Density = 2.536356 g / cm^3
# Si number density = 25.421425 Si / 1000 Ang^3
#
#
#
# Elastic Constant Matrix: (Units=GPa)
#
#
# Indices 1 2 3 4 5 6 
#
# 1 92.3057 27.5305 34.3552 3.1449 6.1036 -27.4939
# 2 27.5305 118.8743 46.6604 10.5565 -7.2016 -44.8822
# 3 34.3552 46.6604 205.8365 -3.6493 -20.3834 -28.8839
# 4 3.1449 10.5565 -3.6493 25.6599 -13.8262 7.2238
# 5 6.1036 -7.2016 -20.3834 -13.8262 32.4050 -1.5144
# 6 -27.4939 -44.8822 -28.8839 7.2238 -1.5144 43.5220
#
#
#
# Elastic Compliance Matrix: (Units=1/GPa)
#
#
# Indices 1 2 3 4 5 6 
#
# 1 0.015597 0.002533 -0.002433 -0.011151 -0.008083 0.012420
# 2 0.002533 0.017786 -0.002146 -0.015809 -0.003637 0.021015
# 3 -0.002433 -0.002146 0.006464 0.005615 0.006435 -0.000168
# 4 -0.011151 -0.015809 0.005615 0.073569 0.032073 -0.030715
# 5 -0.008083 -0.003637 0.006435 0.032073 0.048922 -0.008207
# 6 0.012420 0.021015 -0.000168 -0.030715 -0.008207 0.057195
#
#
# Mechanical properties :
#
#
# Convention : Reuss Voigt Hill
#
# Bulk Modulus (GPa) = 27.96823 70.45654 49.21239
# Shear Modulus (GPa) = 21.22739 40.88208 31.05473
#
# Velocity S-wave (km/s) = 2.89281 4.01456 3.49893
# Velocity P-wave (km/s) = 4.70993 7.01886 5.97695
#
# Compressibility (1/GPa) = 0.03575485
#
# Stress axis : x y z
#
# Youngs Moduli (GPa) = 64.11330 56.22411 154.70413
#
# Poissons Ratio (x) = -0.14239 0.37634
# Poissons Ratio (y) = -0.16237 0.33201
# Poissons Ratio (z) = 0.15596 0.12066
#
# Static dielectric constant tensor:
#      x y z
#    x 2.086820 0.062230 -0.072810 
#    y 0.062230 1.995250 -0.029790 
#    z -0.072810 -0.029790 2.120600 
# 
# From -- ./inp_files/10936.got.cif
#   From: 2010.05.17/outbox.cif.g08.bks.cpg/sg2_6_cif.got.tgz:10936.got - 2010.06.03 11:33:40.
