data_PCOD9023945
_publ_section_title
;
Structure prediction by ZEFSAII (Michael W. Deem and Ramdas Pophale) SiO2 
 PCOD9023945
Probable space group: P -1
;
_chemical_formula_sum "Si O2"
_cell_formula_units_Z 14
_cell_length_a 8.441901
_cell_length_b 7.616070
_cell_length_c 9.881921
_cell_angle_alpha 68.980904
_cell_angle_beta 107.955151
_cell_angle_gamma 107.501508
_cell_volume 551.101892
_symmetry_space_group_name_H-M "P -1"
_symmetry_group_IT_number 2
_symmetry_cell_setting 'triclinic'
loop_
_space_group_symop_operation_xyz
x,y,z
-x,-y,-z
loop_
_atom_site_type_symbol
_atom_site_label
_atom_site_fract_x
_atom_site_fract_y
_atom_site_fract_z
Si Si1 0.423011 0.681055 0.478569
Si Si2 0.052842 0.036053 0.656990
Si Si3 0.195224 0.444658 0.703524
Si Si4 0.601252 0.760423 0.988727
Si Si5 0.149388 0.573552 0.230086
Si Si6 0.243911 0.828913 0.952502
Si Si7 0.285405 0.192903 0.297282
O O1 0.500000 0.500000 0.500000
O O2 0.295084 0.612097 0.588415
O O3 0.307918 0.711989 0.312623
O O4 0.583860 0.829918 0.541587
O O5 0.151429 0.251506 0.653369
O O6 0.163890 0.887385 0.778183
O O7 0.000000 0.000000 0.500000
O O8 0.875779 0.983256 0.707445
O O9 0.017207 0.471637 0.708959
O O10 0.312239 0.393705 0.869704
O O11 0.408405 0.742596 0.991507
O O12 0.621383 0.763700 0.832720
O O13 0.699581 0.968688 0.011213
O O14 0.209647 0.378797 0.264383
O O15 0.117445 0.684395 0.055469
#
# Coordination Sequence:
#
# PCOD9023945 Si02
#       7
#     2   2   2   2   2   2   2
#     4  10  22  40  62  92 129 166 203 254 312 365
#     4  11  24  43  65  93 123 161 209 259 308 371
#     4  11  23  42  66  89 129 171 204 252 315 372
#     4  10  22  41  64  92 124 167 211 254 309 370
#     4  11  23  40  63  93 127 166 207 254 314 370
#     4  10  23  42  64  89 127 167 204 255 318 373
#     4  11  24  40  65  95 127 162 211 261 303 366
#
# _framework density 25.403652999999998
#
# number of rings (size 3 to 8) (size 9 to 14) (size 15 to 20)
#    0.000    1.429    0.000    5.571    0.000   11.429 
#    0.000    2.143    0.000    0.000    0.000    0.000 
#    0.000    0.000    0.000    0.000    0.000    0.000 
#
# Total GULP energy -78546.144084 kJ/mol
# GULP energy per Si atom -5610.438863 kJ/mol
# Density = 2.534583 g / cm^3
# Si number density = 25.403653 Si / 1000 Ang^3
#
#
#
# Elastic Constant Matrix: (Units=GPa)
#
#
# Indices 1 2 3 4 5 6 
#
# 1 78.0219 -13.9885 19.1773 -2.1380 -0.1929 -5.4645
# 2 -13.9885 44.7446 11.9378 0.3104 22.4860 3.6528
# 3 19.1773 11.9378 117.9681 9.5829 10.3263 -12.0100
# 4 -2.1380 0.3104 9.5829 31.3586 7.3410 -0.9541
# 5 -0.1929 22.4860 10.3263 7.3410 43.6589 0.2230
# 6 -5.4645 3.6528 -12.0100 -0.9541 0.2230 44.4356
#
#
#
# Elastic Compliance Matrix: (Units=1/GPa)
#
#
# Indices 1 2 3 4 5 6 
#
# 1 0.014928 0.007078 -0.003017 0.002662 -0.003316 0.000512
# 2 0.007078 0.034748 -0.003830 0.005403 -0.017854 -0.002815
# 3 -0.003017 -0.003830 0.009856 -0.003136 0.000142 0.002540
# 4 0.002662 0.005403 -0.003136 0.034815 -0.007882 -0.000177
# 5 -0.003316 -0.017854 0.000142 -0.007882 0.033373 0.000762
# 6 0.000512 -0.002815 0.002540 -0.000177 0.000762 0.023478
#
#
# Mechanical properties :
#
#
# Convention : Reuss Voigt Hill
#
# Bulk Modulus (GPa) = 16.66810 30.55420 23.61115
# Shear Modulus (GPa) = 29.28547 38.79783 34.04165
#
# Velocity S-wave (km/s) = 3.39898 3.91225 3.66461
# Velocity P-wave (km/s) = 4.68825 5.69747 5.21732
#
# Compressibility (1/GPa) = 0.05999483
#
# Stress axis : x y z
#
# Youngs Moduli (GPa) = 66.98804 28.77855 101.46480
#
# Poissons Ratio (x) = -0.20369 0.30610
# Poissons Ratio (y) = -0.47414 0.38858
# Poissons Ratio (z) = 0.20209 0.11021
#
# Static dielectric constant tensor:
#      x y z
#    x 1.959270 0.022270 0.031360 
#    y 0.022270 2.018310 0.019870 
#    z 0.031360 0.019870 1.966500 
# 
# From -- ./inp_files/157665.got.cif
#   From: 2010.05.17/outbox.cif.g08.bks.cpg/sg2_79_cif.got.tgz:157665.got - 2010.06.03 11:33:40.
