data_PCOD9023008
_publ_section_title
;
Structure prediction by ZEFSAII (Michael W. Deem and Ramdas Pophale) SiO2 
 PCOD9023008
Probable space group: P -1
;
_chemical_formula_sum "Si O2"
_cell_formula_units_Z 16
_cell_length_a 8.714318
_cell_length_b 11.025375
_cell_length_c 13.233825
_cell_angle_alpha 144.635930
_cell_angle_beta 78.037054
_cell_angle_gamma 116.252768
_cell_volume 630.497448
_symmetry_space_group_name_H-M "P -1"
_symmetry_group_IT_number 2
_symmetry_cell_setting 'triclinic'
loop_
_space_group_symop_operation_xyz
x,y,z
-x,-y,-z
loop_
_atom_site_type_symbol
_atom_site_label
_atom_site_fract_x
_atom_site_fract_y
_atom_site_fract_z
Si Si1 0.346510 0.698491 0.765426
Si Si2 0.084214 0.215955 0.399450
Si Si3 0.070003 0.814861 0.384626
Si Si4 0.363716 0.055910 0.265279
Si Si5 0.263835 0.541986 0.899628
Si Si6 0.396664 0.175057 0.670219
Si Si7 0.977821 0.216770 0.195619
Si Si8 0.651578 0.287360 0.545789
O O1 0.264064 0.468285 0.547245
O O2 0.538713 0.875522 0.811783
O O3 0.343830 0.606154 0.817154
O O4 0.198414 0.787000 0.829313
O O5 0.985565 0.238464 0.527085
O O6 0.169383 0.040874 0.278906
O O7 0.967056 0.177974 0.291356
O O8 0.950280 0.588410 0.179960
O O9 0.000000 0.000000 0.500000
O O10 0.279446 0.982859 0.466932
O O11 0.505231 0.249684 0.454974
O O12 0.330405 0.791028 0.113759
O O13 0.317781 0.357096 0.819108
O O14 0.585799 0.321186 0.688976
O O15 0.368497 0.981603 0.627938
O O16 0.157911 0.474986 0.334166
O O17 0.000000 0.000000 0.000000
#
# Coordination Sequence:
#
# PCOD9023008 Si02
#       8
#     2   2   2   2   2   2   2   2
#     4  11  23  41  66  97 137 176 216 274 340 402
#     4  11  23  41  69  98 134 181 221 274 344 402
#     4   9  19  41  66  88 130 174 227 260 333 393
#     4  12  24  38  67 103 136 172 222 277 335 404
#     4  10  22  39  65  96 133 172 226 269 333 391
#     4  10  23  43  68  92 129 194 216 282 324 409
#     4  12  27  44  68 103 138 175 227 288 340 400
#     4  11  24  43  66  95 140 173 234 267 346 395
#
# _framework density 25.376788000000001
#
# number of rings (size 3 to 8) (size 9 to 14) (size 15 to 20)
#    0.000    1.250    1.250    5.625    5.250    0.500 
#    0.000   10.625    0.000    0.000    0.000    0.000 
#    0.000    0.000    0.000    0.000    0.000    0.000 
#
# Total GULP energy -89318.322841 kJ/mol
# GULP energy per Si atom -5582.395178 kJ/mol
# Density = 2.531903 g / cm^3
# Si number density = 25.376788 Si / 1000 Ang^3
#
#
#
# Elastic Constant Matrix: (Units=GPa)
#
#
# Indices 1 2 3 4 5 6 
#
# 1 82.1975 25.6375 18.7797 2.0304 -8.9245 -15.4111
# 2 25.6375 102.3297 18.6130 3.0809 -1.3106 4.5452
# 3 18.7797 18.6130 111.8168 14.3093 -4.3403 -5.7252
# 4 2.0304 3.0809 14.3093 25.8776 -7.7809 -1.9275
# 5 -8.9245 -1.3106 -4.3403 -7.7809 40.5719 8.1410
# 6 -15.4111 4.5452 -5.7252 -1.9275 8.1410 39.1479
#
#
#
# Elastic Compliance Matrix: (Units=1/GPa)
#
#
# Indices 1 2 3 4 5 6 
#
# 1 0.014973 -0.003709 -0.001684 0.001251 0.002089 0.005706
# 2 -0.003709 0.011085 -0.001306 -0.000560 -0.000115 -0.002942
# 3 -0.001684 -0.001306 0.010159 -0.005429 -0.000531 0.000817
# 4 0.001251 -0.000560 -0.005429 0.044061 0.008075 0.000254
# 5 0.002089 -0.000115 -0.000531 0.008075 0.027511 -0.004566
# 6 0.005706 -0.002942 0.000817 0.000254 -0.004566 0.029214
#
#
# Mechanical properties :
#
#
# Convention : Reuss Voigt Hill
#
# Bulk Modulus (GPa) = 43.82219 46.93382 45.37801
# Shear Modulus (GPa) = 31.64380 36.67372 34.15876
#
# Velocity S-wave (km/s) = 3.53506 3.80566 3.67285
# Velocity P-wave (km/s) = 5.82823 6.15188 5.99224
#
# Compressibility (1/GPa) = 0.02281949
#
# Stress axis : x y z
#
# Youngs Moduli (GPa) = 66.78567 90.21002 98.43116
#
# Poissons Ratio (x) = 0.33463 0.16578
# Poissons Ratio (y) = 0.24774 0.12851
# Poissons Ratio (z) = 0.11248 0.11778
#
# Static dielectric constant tensor:
#      x y z
#    x 2.144420 -0.011840 0.026780 
#    y -0.011840 2.147350 0.052440 
#    z 0.026780 0.052440 1.985320 
# 
# From -- ./inp_files/501164.got.cif
#   From: 2010.05.17/outbox.cif.g08.bks.cpg/sg2_251_cif.got.tgz:501164.got - 2010.06.03 11:33:40.
