data_PCOD9023013
_publ_section_title
;
Structure prediction by ZEFSAII (Michael W. Deem and Ramdas Pophale) SiO2 
 PCOD9023013
Probable space group: P -1
;
_chemical_formula_sum "Si O2"
_cell_formula_units_Z 14
_cell_length_a 8.794742
_cell_length_b 11.617042
_cell_length_c 7.631418
_cell_angle_alpha 83.502288
_cell_angle_beta 126.238277
_cell_angle_gamma 101.851201
_cell_volume 615.435470
_symmetry_space_group_name_H-M "P -1"
_symmetry_group_IT_number 2
_symmetry_cell_setting 'triclinic'
loop_
_space_group_symop_operation_xyz
x,y,z
-x,-y,-z
loop_
_atom_site_type_symbol
_atom_site_label
_atom_site_fract_x
_atom_site_fract_y
_atom_site_fract_z
Si Si1 0.161157 0.976444 0.324475
Si Si2 0.449844 0.833047 0.072338
Si Si3 0.484282 0.045602 0.259431
Si Si4 0.913925 0.363661 0.501874
Si Si5 0.001702 0.803011 0.712333
Si Si6 0.910232 0.744493 0.047596
Si Si7 0.500692 0.634832 0.939726
O O1 0.303110 0.904307 0.537880
O O2 0.000616 0.879057 0.142471
O O3 0.310226 0.043859 0.271667
O O4 0.076909 0.073648 0.362686
O O5 0.551484 0.900731 0.960826
O O6 0.489811 0.702960 0.104901
O O7 0.227333 0.834265 0.895973
O O8 0.504159 0.909163 0.266068
O O9 0.690016 0.348821 0.299189
O O10 0.000000 0.500000 0.500000
O O11 0.016513 0.279073 0.457895
O O12 0.961418 0.331494 0.738231
O O13 0.922968 0.736581 0.848148
O O14 0.693667 0.695365 0.965642
O O15 0.500000 0.500000 0.000000
#
# Coordination Sequence:
#
# PCOD9023013 Si02
#       7
#     2   2   2   2   2   2   2
#     4  11  23  40  64 105 139 178 223 274 344 409
#     4  10  22  40  63  96 134 177 224 278 338 400
#     4  10  22  39  65  96 143 177 217 277 337 415
#     4  11  26  50  71  99 136 179 236 286 342 400
#     4  11  25  43  69 105 135 180 228 276 346 413
#     4  12  25  45  72  99 143 181 223 291 336 407
#     4  11  24  45  70  95 133 180 232 288 337 401
#
# _framework density 22.748121999999999
#
# number of rings (size 3 to 8) (size 9 to 14) (size 15 to 20)
#    0.000    1.143    2.857    3.000    6.000    2.857 
#    0.000    0.714    0.000    0.000    0.000    0.000 
#    0.000    0.000    0.000    0.000    0.000    0.000 
#
# Total GULP energy -78245.966267 kJ/mol
# GULP energy per Si atom -5588.997590 kJ/mol
# Density = 2.269635 g / cm^3
# Si number density = 22.748122 Si / 1000 Ang^3
#
#
#
# Elastic Constant Matrix: (Units=GPa)
#
#
# Indices 1 2 3 4 5 6 
#
# 1 128.5262 50.7920 27.1022 -0.4715 15.7152 4.7935
# 2 50.7920 122.3136 13.5347 -6.7153 6.7345 -10.7565
# 3 27.1022 13.5347 79.3875 -5.4420 12.1399 5.6994
# 4 -0.4715 -6.7153 -5.4420 36.9449 5.7332 5.0422
# 5 15.7152 6.7345 12.1399 5.7332 38.7207 4.8634
# 6 4.7935 -10.7565 5.6994 5.0422 4.8634 30.9207
#
#
#
# Elastic Compliance Matrix: (Units=1/GPa)
#
#
# Indices 1 2 3 4 5 6 
#
# 1 0.010251 -0.004074 -0.002299 -0.000279 -0.002419 -0.002157
# 2 -0.004074 0.010406 -0.000487 0.001302 -0.000729 0.004244
# 3 -0.002299 -0.000487 0.014386 0.002886 -0.003623 -0.002366
# 4 -0.000279 0.001302 0.002886 0.029020 -0.004811 -0.004011
# 5 -0.002419 -0.000729 -0.003623 -0.004811 0.029161 -0.003013
# 6 -0.002157 0.004244 -0.002366 -0.004011 -0.003013 0.035716
#
#
# Mechanical properties :
#
#
# Convention : Reuss Voigt Hill
#
# Bulk Modulus (GPa) = 46.90015 57.00945 51.95480
# Shear Modulus (GPa) = 33.38509 37.23715 35.31112
#
# Velocity S-wave (km/s) = 3.83508 4.05029 3.94415
# Velocity P-wave (km/s) = 6.34605 6.85483 6.60534
#
# Compressibility (1/GPa) = 0.02132189
#
# Stress axis : x y z
#
# Youngs Moduli (GPa) = 97.55617 96.09622 69.51147
#
# Poissons Ratio (x) = 0.39150 0.15983
# Poissons Ratio (y) = 0.39744 0.03387
# Poissons Ratio (z) = 0.22431 0.04682
#
# Static dielectric constant tensor:
#      x y z
#    x 1.847590 -0.013030 -0.004410 
#    y -0.013030 1.896010 -0.025020 
#    z -0.004410 -0.025020 1.945540 
# 
# From -- ./inp_files/178407.got.cif
#   From: 2010.05.17/outbox.cif.g08.bks.cpg/sg2_90_cif.got.tgz:178407.got - 2010.06.03 11:33:40.
