data_PCOD9023718
_publ_section_title
;
Structure prediction by ZEFSAII (Michael W. Deem and Ramdas Pophale) SiO2 
 PCOD9023718
Probable space group: P -1
;
_chemical_formula_sum "Si O2"
_cell_formula_units_Z 16
_cell_length_a 5.803549
_cell_length_b 14.772267
_cell_length_c 9.247593
_cell_angle_alpha 103.295359
_cell_angle_beta 77.257964
_cell_angle_gamma 72.162792
_cell_volume 697.296600
_symmetry_space_group_name_H-M "P -1"
_symmetry_group_IT_number 2
_symmetry_cell_setting 'triclinic'
loop_
_space_group_symop_operation_xyz
x,y,z
-x,-y,-z
loop_
_atom_site_type_symbol
_atom_site_label
_atom_site_fract_x
_atom_site_fract_y
_atom_site_fract_z
Si Si1 0.371915 0.750308 0.780707
Si Si2 0.166921 0.443239 0.324372
Si Si3 0.089478 0.619428 0.929486
Si Si4 0.856134 0.090295 0.660113
Si Si5 0.033844 0.259255 0.754296
Si Si6 0.719829 0.046780 0.973905
Si Si7 0.469564 0.573907 0.213527
Si Si8 0.499749 0.747428 0.452917
O O1 0.647284 0.665093 0.691315
O O2 0.211506 0.694256 0.865534
O O3 0.318665 0.781381 0.631139
O O4 0.383273 0.840824 0.906846
O O5 0.326146 0.508202 0.277459
O O6 0.000000 0.500000 0.500000
O O7 0.025620 0.421796 0.199835
O O8 0.288505 0.512155 0.924949
O O9 0.887969 0.690375 0.099030
O O10 0.027595 0.149523 0.722318
O O11 0.761913 0.050283 0.798514
O O12 0.637823 0.172443 0.624919
O O13 0.000000 0.000000 0.500000
O O14 0.739805 0.337468 0.814933
O O15 0.209671 0.257866 0.592877
O O16 0.500000 0.000000 0.000000
O O17 0.000000 0.000000 0.000000
O O18 0.531574 0.636425 0.356383
#
# Coordination Sequence:
#
# PCOD9023718 Si02
#       8
#     2   2   2   2   2   2   2   2
#     4  11  25  44  69 106 141 194 244 305 372 438
#     4  11  23  39  67  98 144 191 244 298 362 442
#     4  11  23  40  68  95 148 182 243 297 361 436
#     4  11  27  49  73 105 142 188 241 308 380 450
#     4  11  24  41  68 100 141 182 240 294 372 438
#     4  12  30  52  83 113 149 192 255 315 383 454
#     4  10  22  40  61 101 137 189 237 288 363 432
#     4  11  25  43  71  97 146 185 239 299 364 446
#
# _framework density 22.945761000000001
#
# number of rings (size 3 to 8) (size 9 to 14) (size 15 to 20)
#    0.000    1.000    1.250    4.125    7.000    6.500 
#    0.000    0.000    0.000    0.000    0.000    0.000 
#    0.000    0.000    0.000    0.000    0.000    0.000 
#
# Total GULP energy -89336.510614 kJ/mol
# GULP energy per Si atom -5583.531913 kJ/mol
# Density = 2.289354 g / cm^3
# Si number density = 22.945761 Si / 1000 Ang^3
#
#
#
# Elastic Constant Matrix: (Units=GPa)
#
#
# Indices 1 2 3 4 5 6 
#
# 1 68.2800 43.2047 19.0542 3.6007 0.2413 24.2169
# 2 43.2047 117.9250 59.0984 14.0165 -6.9359 22.9404
# 3 19.0542 59.0984 158.8595 10.2163 -15.0907 19.3552
# 4 3.6007 14.0165 10.2163 49.6572 -1.3908 7.6835
# 5 0.2413 -6.9359 -15.0907 -1.3908 24.5881 -4.2828
# 6 24.2169 22.9404 19.3552 7.6835 -4.2828 42.7369
#
#
#
# Elastic Compliance Matrix: (Units=1/GPa)
#
#
# Indices 1 2 3 4 5 6 
#
# 1 0.022289 -0.007000 0.000701 0.001641 -0.003381 -0.009824
# 2 -0.007000 0.013490 -0.003788 -0.002329 0.001241 -0.001016
# 3 0.000701 -0.003788 0.008187 -0.000309 0.003644 -0.001651
# 4 0.001641 -0.002329 -0.000309 0.021257 -0.000250 -0.003387
# 5 -0.003381 0.001241 0.003644 -0.000250 0.043982 0.004052
# 6 -0.009824 -0.001016 -0.001651 -0.003387 0.004052 0.031274
#
#
# Mechanical properties :
#
#
# Convention : Reuss Voigt Hill
#
# Bulk Modulus (GPa) = 42.02954 65.30877 53.66916
# Shear Modulus (GPa) = 29.65886 38.31026 33.98456
#
# Velocity S-wave (km/s) = 3.59912 4.09051 3.85266
# Velocity P-wave (km/s) = 5.96894 7.12978 6.57503
#
# Compressibility (1/GPa) = 0.02379279
#
# Stress axis : x y z
#
# Youngs Moduli (GPa) = 44.86489 74.12718 122.14428
#
# Poissons Ratio (x) = 0.51891 -0.08562
# Poissons Ratio (y) = 0.31407 0.46262
# Poissons Ratio (z) = -0.03145 0.28076
#
# Static dielectric constant tensor:
#      x y z
#    x 2.011180 -0.059160 0.084610 
#    y -0.059160 1.848940 -0.015140 
#    z 0.084610 -0.015140 1.981670 
# 
# From -- ./inp_files/40019.got.cif
#   From: 2010.05.17/outbox.cif.g08.bks.cpg/sg2_21_cif.got.tgz:40019.got - 2010.06.03 11:33:40.
