data_PCOD9023918
_publ_section_title
;
Structure prediction by ZEFSAII (Michael W. Deem and Ramdas Pophale) SiO2 
 PCOD9023918
Probable space group: P -1
;
_chemical_formula_sum "Si O2"
_cell_formula_units_Z 16
_cell_length_a 4.999284
_cell_length_b 17.212715
_cell_length_c 7.941786
_cell_angle_alpha 87.995246
_cell_angle_beta 90.597443
_cell_angle_gamma 63.673752
_cell_volume 611.888929
_symmetry_space_group_name_H-M "P -1"
_symmetry_group_IT_number 2
_symmetry_cell_setting 'triclinic'
loop_
_space_group_symop_operation_xyz
x,y,z
-x,-y,-z
loop_
_atom_site_type_symbol
_atom_site_label
_atom_site_fract_x
_atom_site_fract_y
_atom_site_fract_z
Si Si1 0.871493 0.548878 0.758450
Si Si2 0.585360 0.116202 0.509171
Si Si3 0.932994 0.633923 0.408699
Si Si4 0.105977 0.872311 0.997794
Si Si5 0.727375 0.809530 0.816231
Si Si6 0.241905 0.620510 0.923056
Si Si7 0.175146 0.060589 0.690063
Si Si8 0.312493 0.704509 0.241846
O O1 0.909207 0.601907 0.595761
O O2 0.529478 0.595423 0.810938
O O3 0.950325 0.453852 0.696126
O O4 0.100711 0.554094 0.897856
O O5 0.377340 0.189434 0.375370
O O6 0.411921 0.098886 0.664507
O O7 0.878823 0.119700 0.577347
O O8 0.692521 0.031399 0.396204
O O9 0.619970 0.696213 0.316591
O O10 0.142106 0.681532 0.389652
O O11 0.145672 0.793109 0.130849
O O12 0.923252 0.949335 0.121437
O O13 0.433787 0.845943 0.929891
O O14 0.896164 0.869585 0.845213
O O15 0.964509 0.713117 0.872680
O O16 0.649987 0.367590 0.893113
#
# Coordination Sequence:
#
# PCOD9023918 Si02
#       8
#     2   2   2   2   2   2   2   2
#     4  11  24  41  61  87 118 153 197 246 296 354
#     4  10  22  40  62  91 124 157 198 244 290 347
#     4  11  24  41  61  87 118 153 197 246 296 354
#     4  11  23  40  61  88 122 157 198 245 292 349
#     4  11  23  40  61  88 122 157 198 245 292 349
#     4  11  23  40  60  87 120 154 197 245 294 350
#     4  10  22  40  62  91 124 157 198 244 290 347
#     4  11  23  40  60  87 120 154 197 245 294 350
#
# _framework density 26.148537999999999
#
# number of rings (size 3 to 8) (size 9 to 14) (size 15 to 20)
#    0.000    1.250    0.000    6.750    0.000    9.000 
#    0.000    0.000    0.000    0.000    0.000    0.000 
#    0.000    0.000    0.000    0.000    0.000    0.000 
#
# Total GULP energy -89726.997822 kJ/mol
# GULP energy per Si atom -5607.937364 kJ/mol
# Density = 2.608902 g / cm^3
# Si number density = 26.148538 Si / 1000 Ang^3
#
#
#
# Elastic Constant Matrix: (Units=GPa)
#
#
# Indices 1 2 3 4 5 6 
#
# 1 113.6099 10.2119 13.6947 20.5281 -17.1767 -15.9700
# 2 10.2119 63.3038 13.0381 14.3145 -8.3256 -19.9255
# 3 13.6947 13.0381 88.1567 16.1876 -13.3754 -6.2306
# 4 20.5281 14.3145 16.1876 44.8042 -4.7263 -2.0219
# 5 -17.1767 -8.3256 -13.3754 -4.7263 56.2515 7.2390
# 6 -15.9700 -19.9255 -6.2306 -2.0219 7.2390 30.1873
#
#
#
# Elastic Compliance Matrix: (Units=1/GPa)
#
#
# Indices 1 2 3 4 5 6 
#
# 1 0.010719 0.001521 -0.000253 -0.004804 0.002294 0.005751
# 2 0.001521 0.021913 -0.001103 -0.006541 0.001049 0.014351
# 3 -0.000253 -0.001103 0.012667 -0.003820 0.002330 0.000938
# 4 -0.004804 -0.006541 -0.003820 0.027703 -0.000279 -0.005725
# 5 0.002294 0.001049 0.002330 -0.000279 0.019459 -0.002298
# 6 0.005751 0.014351 0.000938 -0.005725 -0.002298 0.046003
#
#
# Mechanical properties :
#
#
# Convention : Reuss Voigt Hill
#
# Bulk Modulus (GPa) = 21.91567 37.66219 29.78893
# Shear Modulus (GPa) = 32.60653 41.45697 37.03175
#
# Velocity S-wave (km/s) = 3.53508 3.98608 3.76734
# Velocity P-wave (km/s) = 5.00618 5.96821 5.50824
#
# Compressibility (1/GPa) = 0.04562945
#
# Stress axis : x y z
#
# Youngs Moduli (GPa) = 93.29094 45.63521 78.94458
#
# Poissons Ratio (x) = -0.06942 0.02001
# Poissons Ratio (y) = -0.14191 0.08704
# Poissons Ratio (z) = 0.02365 0.05032
#
# Static dielectric constant tensor:
#      x y z
#    x 1.951840 0.036650 0.006170 
#    y 0.036650 2.159950 0.051180 
#    z 0.006170 0.051180 2.056670 
# 
# From -- ./inp_files/141369.got.cif
#   From: 2010.05.17/outbox.cif.g08.bks.cpg/sg2_71_cif.got.tgz:141369.got - 2010.06.03 11:33:40.
