data_PCOD9023443
_publ_section_title
;
Structure prediction by ZEFSAII (Michael W. Deem and Ramdas Pophale) SiO2 
 PCOD9023443
Probable space group: P -1
;
_chemical_formula_sum "Si O2"
_cell_formula_units_Z 14
_cell_length_a 5.030531
_cell_length_b 5.543739
_cell_length_c 26.249772
_cell_angle_alpha 119.454369
_cell_angle_beta 58.283451
_cell_angle_gamma 95.088568
_cell_volume 527.795678
_symmetry_space_group_name_H-M "P -1"
_symmetry_group_IT_number 2
_symmetry_cell_setting 'triclinic'
loop_
_space_group_symop_operation_xyz
x,y,z
-x,-y,-z
loop_
_atom_site_type_symbol
_atom_site_label
_atom_site_fract_x
_atom_site_fract_y
_atom_site_fract_z
Si Si1 0.778562 0.731503 0.456986
Si Si2 0.537774 0.800222 0.590588
Si Si3 0.677011 0.664012 0.679267
Si Si4 0.634491 0.832873 0.917558
Si Si5 0.964655 0.172466 0.726839
Si Si6 0.378699 0.384585 0.948169
Si Si7 0.302403 0.532364 0.790784
O O1 0.817979 0.771521 0.517899
O O2 0.633298 0.455757 0.432402
O O3 0.103435 0.653897 0.383878
O O4 0.500000 0.000000 0.500000
O O5 0.640184 0.768424 0.635535
O O6 0.253563 0.085587 0.647435
O O7 0.365630 0.652009 0.741443
O O8 0.842766 0.883342 0.715336
O O9 0.507872 0.543437 0.905167
O O10 0.020159 0.753286 0.870423
O O11 0.503297 0.045158 0.906185
O O12 0.500000 0.000000 0.000000
O O13 0.654356 0.411673 0.765947
O O14 0.135192 0.271988 0.768615
O O15 0.500000 0.500000 0.000000
O O16 0.000000 0.500000 0.000000
#
# Coordination Sequence:
#
# PCOD9023443 Si02
#       7
#     2   2   2   2   2   2   2
#     4  10  22  39  69 103 141 190 244 302 372 435
#     4  10  22  42  68 103 142 189 245 308 360 440
#     4  11  25  45  72 100 151 190 249 306 372 446
#     4  10  25  49  76 115 150 198 251 318 381 456
#     4  11  26  47  69 104 145 190 246 300 371 441
#     4  10  22  43  74 105 148 186 237 300 374 444
#     4  12  28  45  76 105 145 197 247 302 381 451
#
# _framework density 26.525414999999999
#
# number of rings (size 3 to 8) (size 9 to 14) (size 15 to 20)
#    0.000    1.429    1.429    1.714    8.000    5.143 
#    2.571    0.000    0.000    0.000    0.000    0.000 
#    0.000    0.000    0.000    0.000    0.000    0.000 
#
# Total GULP energy -78359.560587 kJ/mol
# GULP energy per Si atom -5597.111471 kJ/mol
# Density = 2.646504 g / cm^3
# Si number density = 26.525415 Si / 1000 Ang^3
#
#
#
# Elastic Constant Matrix: (Units=GPa)
#
#
# Indices 1 2 3 4 5 6 
#
# 1 109.9439 18.9869 22.0632 4.6167 -15.4397 -8.9402
# 2 18.9869 132.1211 36.6028 3.5742 -16.5308 -15.3930
# 3 22.0632 36.6028 185.1294 -5.8249 -35.0856 -6.6881
# 4 4.6167 3.5742 -5.8249 37.6872 -0.5110 -10.3785
# 5 -15.4397 -16.5308 -35.0856 -0.5110 51.8495 10.3761
# 6 -8.9402 -15.3930 -6.6881 -10.3785 10.3761 47.1593
#
#
#
# Elastic Compliance Matrix: (Units=1/GPa)
#
#
# Indices 1 2 3 4 5 6 
#
# 1 0.009760 -0.000857 -0.000606 -0.000953 0.002049 0.000824
# 2 -0.000857 0.008443 -0.001284 -0.000302 0.001146 0.002093
# 3 -0.000606 -0.001284 0.006488 0.001196 0.003852 -0.000198
# 4 -0.000953 -0.000302 0.001196 0.028593 -0.000550 0.006304
# 5 0.002049 0.001146 0.003852 -0.000550 0.023668 -0.004020
# 6 0.000824 0.002093 -0.000198 0.006304 -0.004020 0.024288
#
#
# Mechanical properties :
#
#
# Convention : Reuss Voigt Hill
#
# Bulk Modulus (GPa) = 52.08698 64.72225 58.40462
# Shear Modulus (GPa) = 44.19632 50.64197 47.41914
#
# Velocity S-wave (km/s) = 4.08632 4.37416 4.23269
# Velocity P-wave (km/s) = 6.47637 7.06853 6.77892
#
# Compressibility (1/GPa) = 0.01919865
#
# Stress axis : x y z
#
# Youngs Moduli (GPa) = 102.46096 118.44124 154.12568
#
# Poissons Ratio (x) = 0.10146 0.09335
# Poissons Ratio (y) = 0.08777 0.19788
# Poissons Ratio (z) = 0.06206 0.15207
#
# Static dielectric constant tensor:
#      x y z
#    x 2.106540 -0.042970 0.006420 
#    y -0.042970 2.173160 0.026560 
#    z 0.006420 0.026560 2.120140 
# 
# From -- ./inp_files/114064.got.cif
#   From: 2010.05.17/outbox.cif.g08.bks.cpg/sg2_58_cif.got.tgz:114064.got - 2010.06.03 11:33:40.
