data_PCOD9023092
_publ_section_title
;
Structure prediction by ZEFSAII (Michael W. Deem and Ramdas Pophale) SiO2 
 PCOD9023092
Probable space group: P -1
;
_chemical_formula_sum "Si O2"
_cell_formula_units_Z 16
_cell_length_a 8.286146
_cell_length_b 12.542725
_cell_length_c 12.679120
_cell_angle_alpha 69.567329
_cell_angle_beta 35.146682
_cell_angle_gamma 78.381958
_cell_volume 702.178260
_symmetry_space_group_name_H-M "P -1"
_symmetry_group_IT_number 2
_symmetry_cell_setting 'triclinic'
loop_
_space_group_symop_operation_xyz
x,y,z
-x,-y,-z
loop_
_atom_site_type_symbol
_atom_site_label
_atom_site_fract_x
_atom_site_fract_y
_atom_site_fract_z
Si Si1 0.075824 0.660030 0.383156
Si Si2 0.545967 0.874659 0.054495
Si Si3 0.703689 0.915437 0.194859
Si Si4 0.634443 0.745788 0.468534
Si Si5 0.026339 0.738830 0.858817
Si Si6 0.596437 0.548622 0.089787
Si Si7 0.493585 0.869700 0.699125
Si Si8 0.670568 0.672184 0.781659
O O1 0.280133 0.778746 0.202450
O O2 0.283307 0.567686 0.286617
O O3 0.812925 0.650344 0.445881
O O4 0.955084 0.669986 0.562018
O O5 0.578031 0.878556 0.162145
O O6 0.833088 0.827093 0.881966
O O7 0.500000 0.000000 0.000000
O O8 0.737171 0.807884 0.285949
O O9 0.502283 0.996768 0.330498
O O10 0.000000 0.000000 0.000000
O O11 0.672634 0.839843 0.512005
O O12 0.294732 0.712057 0.657233
O O13 0.180996 0.805921 0.853081
O O14 0.818276 0.618732 0.027296
O O15 0.571000 0.413972 0.125291
O O16 0.668991 0.615778 0.916422
O O17 0.593903 0.799898 0.767993
#
# Coordination Sequence:
#
# PCOD9023092 Si02
#       8
#     2   2   2   2   2   2   2   2
#     4  10  22  40  63  87 125 157 199 250 301 358
#     4  11  24  37  57  92 120 160 201 246 293 365
#     4  12  21  34  60  85 120 159 193 242 296 356
#     4   9  21  39  57  84 120 158 197 242 294 361
#     4   9  21  40  58  82 121 153 196 249 295 348
#     4  10  22  39  66  87 121 155 203 258 297 361
#     4   9  21  37  57  83 116 155 195 237 295 353
#     4  10  22  40  62  91 117 160 205 245 312 353
#
# _framework density 22.786238000000001
#
# number of rings (size 3 to 8) (size 9 to 14) (size 15 to 20)
#    0.750    1.250    1.250    1.500    7.000    1.500 
#    0.000    3.125    0.000    1.500    0.000    0.000 
#    0.000    0.000    0.000    0.000    0.000    0.000 
#
# Total GULP energy -89273.824818 kJ/mol
# GULP energy per Si atom -5579.614051 kJ/mol
# Density = 2.273438 g / cm^3
# Si number density = 22.786238 Si / 1000 Ang^3
#
#
#
# Elastic Constant Matrix: (Units=GPa)
#
#
# Indices 1 2 3 4 5 6 
#
# 1 63.0581 12.3420 22.0616 2.1959 5.0032 -13.3257
# 2 12.3420 67.8784 3.3176 -2.4390 -9.8801 -11.7618
# 3 22.0616 3.3176 91.8789 14.5068 -4.5135 -21.2337
# 4 2.1959 -2.4390 14.5068 23.8069 -7.7157 -3.1276
# 5 5.0032 -9.8801 -4.5135 -7.7157 35.0446 -5.6670
# 6 -13.3257 -11.7618 -21.2337 -3.1276 -5.6670 32.4069
#
#
#
# Elastic Compliance Matrix: (Units=1/GPa)
#
#
# Indices 1 2 3 4 5 6 
#
# 1 0.018813 -0.003182 -0.003693 -0.000524 -0.003611 0.003479
# 2 -0.003182 0.018009 0.001641 0.004852 0.008136 0.008194
# 3 -0.003693 0.001641 0.014891 -0.006484 0.002889 0.008713
# 4 -0.000524 0.004852 -0.006484 0.051164 0.012590 0.004436
# 5 -0.003611 0.008136 0.002889 0.012590 0.036254 0.010916
# 6 0.003479 0.008194 0.008713 0.004436 0.010916 0.043308
#
#
# Mechanical properties :
#
#
# Convention : Reuss Voigt Hill
#
# Bulk Modulus (GPa) = 24.24513 33.13977 28.69245
# Shear Modulus (GPa) = 24.19487 30.59130 27.39309
#
# Velocity S-wave (km/s) = 3.26209 3.66804 3.47100
# Velocity P-wave (km/s) = 4.98515 5.70216 5.35567
#
# Compressibility (1/GPa) = 0.04124540
#
# Stress axis : x y z
#
# Youngs Moduli (GPa) = 53.15401 55.52771 67.15571
#
# Poissons Ratio (x) = 0.17668 0.24801
# Poissons Ratio (y) = 0.16913 -0.11021
# Poissons Ratio (z) = 0.19630 -0.09112
#
# Static dielectric constant tensor:
#      x y z
#    x 1.849010 0.008150 -0.020150 
#    y 0.008150 1.878170 0.047670 
#    z -0.020150 0.047670 1.891070 
# 
# From -- ./inp_files/504048.got.cif
#   From: 2010.05.17/outbox.cif.g08.bks.cpg/sg2_253_cif.got.tgz:504048.got - 2010.06.03 11:33:40.
