data_PCOD9023696
_publ_section_title
;
Structure prediction by ZEFSAII (Michael W. Deem and Ramdas Pophale) SiO2 
 PCOD9023696
Probable space group: P -1
;
_chemical_formula_sum "Si O2"
_cell_formula_units_Z 16
_cell_length_a 9.606449
_cell_length_b 8.448552
_cell_length_c 12.912156
_cell_angle_alpha 74.194000
_cell_angle_beta 88.087466
_cell_angle_gamma 137.865462
_cell_volume 629.895209
_symmetry_space_group_name_H-M "P -1"
_symmetry_group_IT_number 2
_symmetry_cell_setting 'triclinic'
loop_
_space_group_symop_operation_xyz
x,y,z
-x,-y,-z
loop_
_atom_site_type_symbol
_atom_site_label
_atom_site_fract_x
_atom_site_fract_y
_atom_site_fract_z
Si Si1 0.312465 0.366781 0.447292
Si Si2 0.901101 0.104017 0.042308
Si Si3 0.234464 0.270169 0.239640
Si Si4 0.908349 0.267972 0.215135
Si Si5 0.680524 0.105090 0.892661
Si Si6 0.897516 0.135685 0.554303
Si Si7 0.323448 0.432284 0.864611
Si Si8 0.504574 0.927219 0.693804
O O1 0.500000 0.500000 0.500000
O O2 0.364500 0.445428 0.311491
O O3 0.184869 0.072117 0.492974
O O4 0.158615 0.379580 0.481898
O O5 0.836996 0.181734 0.113068
O O6 0.827896 0.855605 0.123344
O O7 0.773730 0.021969 0.953182
O O8 0.164781 0.359252 0.970117
O O9 0.041376 0.221645 0.237341
O O10 0.124653 0.993943 0.317771
O O11 0.440796 0.427333 0.132531
O O12 0.099415 0.578528 0.169212
O O13 0.687448 0.114438 0.310665
O O14 0.589070 0.017312 0.794376
O O15 0.500000 0.000000 0.000000
O O16 0.719538 0.114931 0.579765
O O17 0.384010 0.635866 0.747879
#
# Coordination Sequence:
#
# PCOD9023696 Si02
#       8
#     2   2   2   2   2   2   2   2
#     4   9  18  39  69  93 121 153 198 261 316 375
#     4  11  23  38  61  87 125 169 222 262 300 356
#     4   9  21  38  60  92 120 155 207 248 313 376
#     4  12  24  41  58  90 131 168 207 256 319 370
#     4  12  23  38  60  87 124 178 215 249 311 362
#     4   8  20  40  62  99 115 157 206 253 312 372
#     4  10  22  40  60  93 117 167 220 261 306 351
#     4  11  23  41  64  88 130 165 211 263 304 377
#
# _framework density 25.401049
#
# number of rings (size 3 to 8) (size 9 to 14) (size 15 to 20)
#    0.750    1.000    2.500    1.875    0.000    8.000 
#    0.000    0.625    0.000    1.500    0.000    0.000 
#    0.000    0.000    0.000    0.000    0.000    0.000 
#
# Total GULP energy -89294.445555 kJ/mol
# GULP energy per Si atom -5580.902847 kJ/mol
# Density = 2.534323 g / cm^3
# Si number density = 25.401049 Si / 1000 Ang^3
#
#
#
# Elastic Constant Matrix: (Units=GPa)
#
#
# Indices 1 2 3 4 5 6 
#
# 1 177.5785 16.4321 32.7173 4.0614 -45.6679 26.6256
# 2 16.4321 58.1684 6.3180 18.5789 1.5125 0.5296
# 3 32.7173 6.3180 71.1410 10.2375 -35.8778 14.5959
# 4 4.0614 18.5789 10.2375 19.3770 6.5184 6.6405
# 5 -45.6679 1.5125 -35.8778 6.5184 55.9632 -6.6452
# 6 26.6256 0.5296 14.5959 6.6405 -6.6452 36.4513
#
#
#
# Elastic Compliance Matrix: (Units=1/GPa)
#
#
# Indices 1 2 3 4 5 6 
#
# 1 0.008195 -0.002373 0.001022 -0.000584 0.006881 -0.005000
# 2 -0.002373 0.027286 0.004121 -0.031439 0.004367 0.006211
# 3 0.001022 0.004121 0.028385 -0.025095 0.021404 -0.003699
# 4 -0.000584 -0.031439 -0.025095 0.110369 -0.030316 -0.014702
# 5 0.006881 0.004367 0.021404 -0.030316 0.040530 -0.000749
# 6 -0.005000 0.006211 -0.003699 -0.014702 -0.000749 0.035019
#
#
# Mechanical properties :
#
#
# Convention : Reuss Voigt Hill
#
# Bulk Modulus (GPa) = 14.40814 46.42475 30.41645
# Shear Modulus (GPa) = 18.69992 39.11966 28.90979
#
# Velocity S-wave (km/s) = 2.71622 3.92864 3.37728
# Velocity P-wave (km/s) = 3.93976 6.23661 5.21618
#
# Compressibility (1/GPa) = 0.06940520
#
# Stress axis : x y z
#
# Youngs Moduli (GPa) = 122.02083 36.64910 35.22958
#
# Poissons Ratio (x) = 0.08697 -0.03600
# Poissons Ratio (y) = 0.28957 -0.14516
# Poissons Ratio (z) = -0.12470 -0.15101
#
# Static dielectric constant tensor:
#      x y z
#    x 2.060880 0.003130 0.009500 
#    y 0.003130 2.023950 -0.035630 
#    z 0.009500 -0.035630 2.103340 
# 
# From -- ./inp_files/494883.got.cif
#   From: 2010.05.17/outbox.cif.g08.bks.cpg/sg2_248_cif.got.tgz:494883.got - 2010.06.03 11:33:40.
