data_PCOD9023769
_publ_section_title
;
Structure prediction by ZEFSAII (Michael W. Deem and Ramdas Pophale) SiO2 
 PCOD9023769
Probable space group: P -1
;
_chemical_formula_sum "Si O2"
_cell_formula_units_Z 12
_cell_length_a 5.546712
_cell_length_b 16.573541
_cell_length_c 7.164398
_cell_angle_alpha 121.256583
_cell_angle_beta 63.001628
_cell_angle_gamma 85.597741
_cell_volume 457.551728
_symmetry_space_group_name_H-M "P -1"
_symmetry_group_IT_number 2
_symmetry_cell_setting 'triclinic'
loop_
_space_group_symop_operation_xyz
x,y,z
-x,-y,-z
loop_
_atom_site_type_symbol
_atom_site_label
_atom_site_fract_x
_atom_site_fract_y
_atom_site_fract_z
Si Si1 0.209831 0.388760 0.376153
Si Si2 0.675625 0.521185 0.212175
Si Si3 0.195582 0.668529 0.270926
Si Si4 0.571373 0.135822 0.253222
Si Si5 0.547045 0.781711 0.232146
Si Si6 0.241028 0.096757 0.963187
O O1 0.058765 0.339331 0.520171
O O2 0.000000 0.500000 0.500000
O O3 0.404236 0.420800 0.494295
O O4 0.289335 0.312488 0.080132
O O5 0.465964 0.599359 0.229049
O O6 0.706959 0.403846 0.034631
O O7 0.000000 0.500000 0.000000
O O8 0.225003 0.776068 0.350618
O O9 0.373244 0.217735 0.577333
O O10 0.391899 0.128054 0.125733
O O11 0.880317 0.149282 0.124597
O O12 0.677409 0.024117 0.181883
O O13 0.597999 0.874824 0.230853
#
# Coordination Sequence:
#
# PCOD9023769 Si02
#       6
#     2   2   2   2   2   2
#     4  11  24  42  62  95 136 189 233 285 345 407
#     4   9  19  40  61  82 125 178 226 281 337 389
#     4  10  22  40  61  90 130 174 231 291 331 411
#     4  10  24  49  75 106 146 179 236 288 356 431
#     4  12  24  41  69 103 136 184 237 290 358 418
#     4  10  24  49  76 106 143 186 225 296 359 428
#
# _framework density 26.226542999999999
#
# number of rings (size 3 to 8) (size 9 to 14) (size 15 to 20)
#    0.000    1.667    0.000    4.500    2.333    4.000 
#   15.000    5.000    0.000    0.000    0.000    0.000 
#    0.000    0.000    0.000    0.000    0.000    0.000 
#
# Total GULP energy -66962.111949 kJ/mol
# GULP energy per Si atom -5580.175996 kJ/mol
# Density = 2.616685 g / cm^3
# Si number density = 26.226543 Si / 1000 Ang^3
#
#
#
# Elastic Constant Matrix: (Units=GPa)
#
#
# Indices 1 2 3 4 5 6 
#
# 1 72.2739 25.5991 50.4058 -7.1896 16.4642 31.9936
# 2 25.5991 144.2768 16.1646 -23.5624 -8.8483 35.5143
# 3 50.4058 16.1646 209.8570 -21.4624 28.5322 10.0043
# 4 -7.1896 -23.5624 -21.4624 45.9450 -0.1218 -6.8464
# 5 16.4642 -8.8483 28.5322 -0.1218 30.2729 6.9137
# 6 31.9936 35.5143 10.0043 -6.8464 6.9137 45.1913
#
#
#
# Elastic Compliance Matrix: (Units=1/GPa)
#
#
# Indices 1 2 3 4 5 6 
#
# 1 0.025561 -0.000664 -0.004583 -0.000844 -0.006184 -0.015741
# 2 -0.000664 0.009883 -0.000638 0.003568 0.005571 -0.007467
# 3 -0.004583 -0.000638 0.006659 0.002558 -0.004732 0.003384
# 4 -0.000844 0.003568 0.002558 0.024827 -0.001072 0.001152
# 5 -0.006184 0.005571 -0.004732 -0.001072 0.043809 -0.005817
# 6 -0.015741 -0.007467 0.003384 0.001152 -0.005817 0.039456
#
#
# Mechanical properties :
#
#
# Convention : Reuss Voigt Hill
#
# Bulk Modulus (GPa) = 32.96917 67.86075 50.41496
# Shear Modulus (GPa) = 29.05684 46.56439 37.81061
#
# Velocity S-wave (km/s) = 3.33215 4.21820 3.80108
# Velocity P-wave (km/s) = 5.23474 7.04665 6.20717
#
# Compressibility (1/GPa) = 0.03033137
#
# Stress axis : x y z
#
# Youngs Moduli (GPa) = 39.12176 101.18503 150.17484
#
# Poissons Ratio (x) = 0.06719 0.68833
# Poissons Ratio (y) = 0.02598 0.09585
# Poissons Ratio (z) = 0.17931 0.06458
#
# Static dielectric constant tensor:
#      x y z
#    x 3.307920 1.058870 -1.271440 
#    y 1.058870 2.975910 -1.034180 
#    z -1.271440 -1.034180 3.468350 
# 
# From -- ./inp_files/8273.got.cif
#   From: 2010.05.17/outbox.cif.g08.bks.cpg/sg2_5_cif.got.tgz:8273.got - 2010.06.03 11:33:40.
