data_PCOD9023860
_publ_section_title
;
Structure prediction by ZEFSAII (Michael W. Deem and Ramdas Pophale) SiO2 
 PCOD9023860
Probable space group: P -1
;
_chemical_formula_sum "Si O2"
_cell_formula_units_Z 16
_cell_length_a 19.493895
_cell_length_b 9.617475
_cell_length_c 6.846681
_cell_angle_alpha 45.582834
_cell_angle_beta 117.992056
_cell_angle_gamma 125.533166
_cell_volume 741.773431
_symmetry_space_group_name_H-M "P -1"
_symmetry_group_IT_number 2
_symmetry_cell_setting 'triclinic'
loop_
_space_group_symop_operation_xyz
x,y,z
-x,-y,-z
loop_
_atom_site_type_symbol
_atom_site_label
_atom_site_fract_x
_atom_site_fract_y
_atom_site_fract_z
Si Si1 0.912409 0.956539 0.811330
Si Si2 0.152328 0.088092 0.819529
Si Si3 0.575539 0.167036 0.566686
Si Si4 0.381527 0.518914 0.370047
Si Si5 0.588832 0.536177 0.978241
Si Si6 0.331176 0.126417 0.963221
Si Si7 0.922324 0.287142 0.169628
Si Si8 0.817227 0.563677 0.779460
O O1 0.871569 0.745142 0.830813
O O2 0.925791 0.161435 0.494901
O O3 0.848632 0.921420 0.941291
O O4 0.000000 0.000000 0.000000
O O5 0.233254 0.059954 0.866178
O O6 0.157832 0.309013 0.519369
O O7 0.079305 0.882771 0.831824
O O8 0.557613 0.271893 0.635829
O O9 0.500000 0.000000 0.500000
O O10 0.620196 0.370659 0.287963
O O11 0.635676 0.055264 0.821895
O O12 0.413290 0.506897 0.208882
O O13 0.377075 0.314665 0.686962
O O14 0.284037 0.503885 0.254607
O O15 0.500000 0.500000 0.000000
O O16 0.648318 0.770465 0.894646
O O17 0.846363 0.369334 0.008466
O O18 0.000000 0.500000 0.000000
#
# Coordination Sequence:
#
# PCOD9023860 Si02
#       8
#     2   2   2   2   2   2   2   2
#     4  11  23  38  61  92 124 162 206 249 305 358
#     4  10  22  40  62  87 122 164 200 256 302 362
#     4  11  23  41  60  93 121 155 206 255 309 372
#     4  10  24  41  66  87 123 167 202 259 312 364
#     4  11  23  42  60  91 122 156 206 256 310 370
#     4  10  22  42  63  88 123 159 208 252 314 369
#     4  11  23  38  61  91 126 161 205 252 300 362
#     4  10  22  42  61  90 123 160 210 248 304 368
#
# _framework density 21.569931
#
# number of rings (size 3 to 8) (size 9 to 14) (size 15 to 20)
#    0.000    1.500    1.250    3.000    0.000    9.500 
#    0.000    0.000    0.000    0.000    0.000    0.000 
#    0.000    0.000    0.000    0.000    0.000    0.000 
#
# Total GULP energy -89317.393430 kJ/mol
# GULP energy per Si atom -5582.337089 kJ/mol
# Density = 2.152084 g / cm^3
# Si number density = 21.569931 Si / 1000 Ang^3
#
#
#
# Elastic Constant Matrix: (Units=GPa)
#
#
# Indices 1 2 3 4 5 6 
#
# 1 74.4271 18.4278 43.9045 -1.5441 2.2965 -9.7380
# 2 18.4278 106.8998 44.3922 7.0049 -15.0204 -15.7616
# 3 43.9045 44.3922 135.3169 3.8342 7.1307 -35.9735
# 4 -1.5441 7.0049 3.8342 33.3316 -13.4766 -0.3958
# 5 2.2965 -15.0204 7.1307 -13.4766 42.0624 6.8644
# 6 -9.7380 -15.7616 -35.9735 -0.3958 6.8644 35.6781
#
#
#
# Elastic Compliance Matrix: (Units=1/GPa)
#
#
# Indices 1 2 3 4 5 6 
#
# 1 0.016807 -0.000800 -0.005704 0.001832 0.000614 -0.001616
# 2 -0.000800 0.011789 -0.003796 -0.000127 0.004818 0.000234
# 3 -0.005704 -0.003796 0.014219 -0.003638 -0.006634 0.012339
# 4 0.001832 -0.000127 -0.003638 0.035623 0.012746 -0.005281
# 5 0.000614 0.004818 -0.006634 0.012746 0.032380 -0.010481
# 6 -0.001616 0.000234 0.012339 -0.005281 -0.010481 0.042090
#
#
# Mechanical properties :
#
#
# Convention : Reuss Voigt Hill
#
# Bulk Modulus (GPa) = 45.01799 58.89920 51.95859
# Shear Modulus (GPa) = 27.63768 36.20902 31.92335
#
# Velocity S-wave (km/s) = 3.58342 4.10162 3.85124
# Velocity P-wave (km/s) = 6.16743 7.05666 6.62698
#
# Compressibility (1/GPa) = 0.02221334
#
# Stress axis : x y z
#
# Youngs Moduli (GPa) = 59.49982 84.82779 70.32814
#
# Poissons Ratio (x) = 0.06789 0.40118
# Poissons Ratio (y) = 0.04762 0.26695
# Poissons Ratio (z) = 0.33941 0.32199
#
# Static dielectric constant tensor:
#      x y z
#    x 1.896560 0.057800 0.004680 
#    y 0.057800 1.825650 0.028060 
#    z 0.004680 0.028060 1.767680 
# 
# From -- ./inp_files/53378.got.cif
#   From: 2010.05.17/outbox.cif.g08.bks.cpg/sg2_27_cif.got.tgz:53378.got - 2010.06.03 11:33:40.
