data_PCOD9023046
_publ_section_title
;
Structure prediction by ZEFSAII (Michael W. Deem and Ramdas Pophale) SiO2 
 PCOD9023046
Probable space group: P -1
;
_chemical_formula_sum "Si O2"
_cell_formula_units_Z 14
_cell_length_a 12.343012
_cell_length_b 5.528797
_cell_length_c 9.827620
_cell_angle_alpha 73.532968
_cell_angle_beta 131.296808
_cell_angle_gamma 103.411956
_cell_volume 482.259610
_symmetry_space_group_name_H-M "P -1"
_symmetry_group_IT_number 2
_symmetry_cell_setting 'triclinic'
loop_
_space_group_symop_operation_xyz
x,y,z
-x,-y,-z
loop_
_atom_site_type_symbol
_atom_site_label
_atom_site_fract_x
_atom_site_fract_y
_atom_site_fract_z
Si Si1 0.250675 0.004645 0.527252
Si Si2 0.472229 0.349760 0.784302
Si Si3 0.210388 0.983649 0.048935
Si Si4 0.000000 0.500000 0.500000
Si Si5 0.075836 0.259871 0.152685
Si Si6 0.609670 0.250511 0.552506
Si Si7 0.000000 0.000000 0.500000
Si Si8 0.711847 0.549664 0.121142
O O1 0.390575 0.085770 0.716635
O O2 0.202159 0.252657 0.367220
O O3 0.276667 0.812135 0.459697
O O4 0.119249 0.866423 0.523545
O O5 0.471283 0.522375 0.619346
O O6 0.375176 0.462814 0.807033
O O7 0.629603 0.351693 0.982036
O O8 0.142859 0.132398 0.096435
O O9 0.301548 0.771785 0.229906
O O10 0.304348 0.177151 0.004518
O O11 0.062606 0.890500 0.865177
O O12 0.882968 0.522779 0.270307
O O13 0.910540 0.728908 0.468335
O O14 0.000000 0.500000 0.000000
O O15 0.500000 0.000000 0.500000
#
# Coordination Sequence:
#
# PCOD9023046 Si02
#       8
#     2   2   2   1   2   2   1   2
#     4  11  25  43  70 109 143 197 258 314 395 460
#     4  11  24  47  71 105 146 196 255 322 393 473
#     4  10  22  43  68 100 138 189 252 308 385 464
#     4  12  26  48  76 112 158 202 256 318 402 460
#     4  10  22  39  65  98 139 184 244 310 379 462
#     4  11  23  47  72  99 149 200 252 321 387 473
#     4  12  26  48  78 112 152 206 250 330 390 478
#     4  11  24  46  73 106 147 196 255 320 396 466
#
# _framework density 29.030006
#
# number of rings (size 3 to 8) (size 9 to 14) (size 15 to 20)
#    0.000    1.143    2.857    2.571    2.000    2.857 
#    5.143    2.143    0.000    0.000    0.000    0.000 
#    0.000    0.000    0.000    0.000    0.000    0.000 
#
# Total GULP energy -78056.276929 kJ/mol
# GULP energy per Si atom -5575.448352 kJ/mol
# Density = 2.896393 g / cm^3
# Si number density = 29.030006 Si / 1000 Ang^3
#
#
#
# Elastic Constant Matrix: (Units=GPa)
#
#
# Indices 1 2 3 4 5 6 
#
# 1 108.5672 19.2022 17.1501 -15.4723 1.0386 3.1238
# 2 19.2022 64.3643 50.3120 -20.1233 -3.9248 -1.6376
# 3 17.1501 50.3120 183.3262 15.0012 18.8343 9.9574
# 4 -15.4723 -20.1233 15.0012 65.5324 7.7001 0.8780
# 5 1.0386 -3.9248 18.8343 7.7001 50.3848 -2.8281
# 6 3.1238 -1.6376 9.9574 0.8780 -2.8281 54.2294
#
#
#
# Elastic Compliance Matrix: (Units=1/GPa)
#
#
# Indices 1 2 3 4 5 6 
#
# 1 0.009938 -0.002104 -0.000417 0.001867 -0.000533 -0.000617
# 2 -0.002104 0.025437 -0.008019 0.008667 0.003834 0.002421
# 3 -0.000417 -0.008019 0.008466 -0.004090 -0.003261 -0.001876
# 4 0.001867 0.008667 -0.004090 0.019381 -0.000765 0.000552
# 5 -0.000533 0.003834 -0.003261 -0.000765 0.021599 0.001884
# 6 -0.000617 0.002421 -0.001876 0.000552 0.001884 0.018983
#
#
# Mechanical properties :
#
#
# Convention : Reuss Voigt Hill
#
# Bulk Modulus (GPa) = 43.93140 58.84290 51.38715
# Shear Modulus (GPa) = 37.74461 52.00221 44.87341
#
# Velocity S-wave (km/s) = 3.60973 4.23700 3.93588
# Velocity P-wave (km/s) = 5.70434 6.65206 6.19634
#
# Compressibility (1/GPa) = 0.02276276
#
# Stress axis : x y z
#
# Youngs Moduli (GPa) = 100.62720 39.31215 118.11804
#
# Poissons Ratio (x) = 0.08269 0.04924
# Poissons Ratio (y) = 0.21167 0.94717
# Poissons Ratio (z) = 0.04195 0.31524
#
# Static dielectric constant tensor:
#      x y z
#    x 1.917660 -0.583200 -0.234510 
#    y -0.583200 1.711640 -0.318780 
#    z -0.234510 -0.318780 2.284960 
# 
# From -- ./inp_files/441782.got.cif
#   From: 2010.05.17/outbox.cif.g08.bks.cpg/sg2_221_cif.got.tgz:441782.got - 2010.06.03 11:33:40.
