data_PCOD9023637
_publ_section_title
;
Structure prediction by ZEFSAII (Michael W. Deem and Ramdas Pophale) SiO2 
 PCOD9023637
Probable space group: P -1
;
_chemical_formula_sum "Si O2"
_cell_formula_units_Z 14
_cell_length_a 12.229564
_cell_length_b 12.393548
_cell_length_c 6.513259
_cell_angle_alpha 91.613155
_cell_angle_beta 72.476745
_cell_angle_gamma 141.094665
_cell_volume 555.093458
_symmetry_space_group_name_H-M "P -1"
_symmetry_group_IT_number 2
_symmetry_cell_setting 'triclinic'
loop_
_space_group_symop_operation_xyz
x,y,z
-x,-y,-z
loop_
_atom_site_type_symbol
_atom_site_label
_atom_site_fract_x
_atom_site_fract_y
_atom_site_fract_z
Si Si1 0.383700 0.053311 0.109523
Si Si2 0.076061 0.283101 0.953465
Si Si3 0.875610 0.829074 0.414283
Si Si4 0.502056 0.333857 0.312218
Si Si5 0.992601 0.710599 0.558997
Si Si6 0.655363 0.124417 0.234986
Si Si7 0.810886 0.436263 0.359561
O O1 0.202732 0.876741 0.342436
O O2 0.418664 0.203635 0.158976
O O3 0.574843 0.139082 0.095511
O O4 0.339994 0.985203 0.897433
O O5 0.021871 0.135234 0.849718
O O6 0.311178 0.455988 0.853140
O O7 0.057716 0.380666 0.838386
O O8 0.983263 0.233721 0.220278
O O9 0.669585 0.728441 0.496345
O O10 0.857078 0.700974 0.535436
O O11 0.000000 0.000000 0.500000
O O12 0.596779 0.320414 0.419034
O O13 0.879292 0.514613 0.554944
O O14 0.818849 0.321714 0.265745
O O15 0.500000 0.000000 0.500000
#
# Coordination Sequence:
#
# PCOD9023637 Si02
#       7
#     2   2   2   2   2   2   2
#     4  10  22  40  59  89 124 148 199 258 285 352
#     4   9  22  38  59  86 124 158 198 237 298 355
#     4  11  21  39  60  89 124 158 200 249 286 343
#     4   9  19  41  58  81 129 157 190 252 286 346
#     4  11  22  38  62  91 120 161 196 242 303 346
#     4  10  22  40  65  87 113 160 203 236 310 357
#     4   8  21  39  58  85 125 151 196 251 292 347
#
# _framework density 25.220976
#
# number of rings (size 3 to 8) (size 9 to 14) (size 15 to 20)
#    0.857    1.429    1.429    0.429    2.000    4.000 
#    0.000    1.429    0.000    0.000    0.000    0.000 
#    0.000    0.000    0.000    0.000    0.000    0.000 
#
# Total GULP energy -78144.722769 kJ/mol
# GULP energy per Si atom -5581.765912 kJ/mol
# Density = 2.516357 g / cm^3
# Si number density = 25.220976 Si / 1000 Ang^3
#
#
#
# Elastic Constant Matrix: (Units=GPa)
#
#
# Indices 1 2 3 4 5 6 
#
# 1 81.2574 5.9087 18.0716 18.0570 -22.4654 6.3485
# 2 5.9087 136.1936 66.9220 61.1857 -12.8134 2.0983
# 3 18.0716 66.9220 189.4329 59.0623 -20.8820 -5.9171
# 4 18.0570 61.1857 59.0623 59.1023 -6.7676 -2.6178
# 5 -22.4654 -12.8134 -20.8820 -6.7676 37.2184 10.8540
# 6 6.3485 2.0983 -5.9171 -2.6178 10.8540 34.1431
#
#
#
# Elastic Compliance Matrix: (Units=1/GPa)
#
#
# Indices 1 2 3 4 5 6 
#
# 1 0.018727 0.004929 0.001098 -0.010682 0.014286 -0.008955
# 2 0.004929 0.015487 -0.000093 -0.016911 0.006732 -0.005321
# 3 0.001098 -0.000093 0.008080 -0.007893 0.003918 -0.000649
# 4 -0.010682 -0.016911 -0.007893 0.044691 -0.011083 0.008607
# 5 0.014286 0.006732 0.003918 -0.011083 0.042916 -0.016884
# 6 -0.008955 -0.005321 -0.000649 0.008607 -0.016884 0.037195
#
#
# Mechanical properties :
#
#
# Convention : Reuss Voigt Hill
#
# Bulk Modulus (GPa) = 18.46315 65.40982 41.93648
# Shear Modulus (GPa) = 28.85474 47.15819 38.00646
#
# Velocity S-wave (km/s) = 3.38609 4.32881 3.88614
# Velocity P-wave (km/s) = 4.75646 7.13973 6.06629
#
# Compressibility (1/GPa) = 0.05416194
#
# Stress axis : x y z
#
# Youngs Moduli (GPa) = 53.39817 64.57084 123.76666
#
# Poissons Ratio (x) = -0.31829 -0.13587
# Poissons Ratio (y) = -0.26322 0.01151
# Poissons Ratio (z) = -0.05862 0.00601
#
# Static dielectric constant tensor:
#      x y z
#    x 2.072300 0.035390 -0.000180 
#    y 0.035390 2.041900 0.049110 
#    z -0.000180 0.049110 2.082060 
# 
# From -- ./inp_files/98387.got.cif
#   From: 2010.05.17/outbox.cif.g08.bks.cpg/sg2_50_cif.got.tgz:98387.got - 2010.06.03 11:33:40.
