data_PCOD9023193
_publ_section_title
;
Structure prediction by ZEFSAII (Michael W. Deem and Ramdas Pophale) SiO2 
 PCOD9023193
Probable space group: P -1
;
_chemical_formula_sum "Si O2"
_cell_formula_units_Z 14
_cell_length_a 11.913440
_cell_length_b 5.289106
_cell_length_c 13.308654
_cell_angle_alpha 105.099981
_cell_angle_beta 71.399672
_cell_angle_gamma 128.285016
_cell_volume 621.632295
_symmetry_space_group_name_H-M "P -1"
_symmetry_group_IT_number 2
_symmetry_cell_setting 'triclinic'
loop_
_space_group_symop_operation_xyz
x,y,z
-x,-y,-z
loop_
_atom_site_type_symbol
_atom_site_label
_atom_site_fract_x
_atom_site_fract_y
_atom_site_fract_z
Si Si1 0.423585 0.754620 0.590696
Si Si2 0.973360 0.323935 0.644980
Si Si3 0.201360 0.372730 0.464551
Si Si4 0.658461 0.176110 0.699752
Si Si5 0.420302 0.675890 0.053487
Si Si6 0.192731 0.697316 0.796528
Si Si7 0.837136 0.758745 0.061746
O O1 0.295677 0.410417 0.540128
O O2 0.328745 0.814181 0.697355
O O3 0.500000 0.000000 0.500000
O O4 0.550582 0.828089 0.639343
O O5 0.824689 0.296321 0.681640
O O6 0.108950 0.507989 0.544931
O O7 0.049078 0.460602 0.744692
O O8 0.911115 0.959051 0.595694
O O9 0.318631 0.580934 0.367404
O O10 0.592638 0.224621 0.821269
O O11 0.500000 0.500000 0.000000
O O12 0.261992 0.436915 0.025298
O O13 0.500000 0.000000 0.000000
O O14 0.184607 0.490264 0.872213
O O15 0.204135 0.010896 0.859513
O O16 0.000000 0.000000 0.000000
#
# Coordination Sequence:
#
# PCOD9023193 Si02
#       7
#     2   2   2   2   2   2   2
#     4   9  20  44  63 100 133 180 224 276 344 419
#     4  10  22  39  66  99 131 172 224 274 344 405
#     4   9  21  40  62  96 134 169 223 276 341 408
#     4  11  22  39  68  91 133 174 227 275 343 400
#     4  12  28  47  72 102 141 182 235 289 343 405
#     4  11  25  46  70 100 141 179 226 286 346 404
#     4  12  26  47  72 103 137 184 236 288 345 409
#
# _framework density 22.521350999999999
#
# number of rings (size 3 to 8) (size 9 to 14) (size 15 to 20)
#    0.000    1.429    0.000    4.286    6.000    0.571 
#   18.000    0.000    0.000    0.000    0.000    0.000 
#    0.000    0.000    0.000    0.000    0.000    0.000 
#
# Total GULP energy -78051.111617 kJ/mol
# GULP energy per Si atom -5575.079401 kJ/mol
# Density = 2.247009 g / cm^3
# Si number density = 22.521351 Si / 1000 Ang^3
#
#
#
# Elastic Constant Matrix: (Units=GPa)
#
#
# Indices 1 2 3 4 5 6 
#
# 1 112.9886 22.8906 43.6680 6.5318 7.7521 16.5985
# 2 22.8906 141.7277 115.8447 22.3306 23.6206 19.6739
# 3 43.6680 115.8447 261.0656 17.0902 15.4284 7.5473
# 4 6.5318 22.3306 17.0902 48.3614 17.2490 4.3280
# 5 7.7521 23.6206 15.4284 17.2490 48.1419 12.8394
# 6 16.5985 19.6739 7.5473 4.3280 12.8394 48.2004
#
#
#
# Elastic Compliance Matrix: (Units=1/GPa)
#
#
# Indices 1 2 3 4 5 6 
#
# 1 0.009943 0.000313 -0.001663 -0.000553 -0.000171 -0.003196
# 2 0.000313 0.012636 -0.005220 -0.002774 -0.002652 -0.003492
# 3 -0.001663 -0.005220 0.006351 0.000134 0.000316 0.001613
# 4 -0.000553 -0.002774 0.000134 0.024639 -0.007727 0.001147
# 5 -0.000171 -0.002652 0.000316 -0.007727 0.026150 -0.005180
# 6 -0.003196 -0.003492 0.001613 0.001147 -0.005180 0.024297
#
#
# Mechanical properties :
#
#
# Convention : Reuss Voigt Hill
#
# Bulk Modulus (GPa) = 63.33559 97.84316 80.58937
# Shear Modulus (GPa) = 40.84318 51.16597 46.00458
#
# Velocity S-wave (km/s) = 4.26318 4.77160 4.52454
# Velocity P-wave (km/s) = 7.23992 8.59631 7.94711
#
# Compressibility (1/GPa) = 0.01578891
#
# Stress axis : x y z
#
# Youngs Moduli (GPa) = 100.57213 79.14026 157.45607
#
# Poissons Ratio (x) = -0.02476 0.26190
# Poissons Ratio (y) = -0.03147 0.82193
# Poissons Ratio (z) = 0.16728 0.41312
#
# Static dielectric constant tensor:
#      x y z
#    x 1.957180 0.065240 -0.009050 
#    y 0.065240 1.906500 0.002160 
#    z -0.009050 0.002160 1.823130 
# 
# From -- ./inp_files/98697.got.cif
#   From: 2010.05.17/outbox.cif.g08.bks.cpg/sg2_50_cif.got.tgz:98697.got - 2010.06.03 11:33:40.
