data_PCOD9023461
_publ_section_title
;
Structure prediction by ZEFSAII (Michael W. Deem and Ramdas Pophale) SiO2 
 PCOD9023461
Probable space group: P -1
;
_chemical_formula_sum "Si O2"
_cell_formula_units_Z 14
_cell_length_a 11.805549
_cell_length_b 9.019059
_cell_length_c 17.339180
_cell_angle_alpha 41.396960
_cell_angle_beta 153.037653
_cell_angle_gamma 137.190919
_cell_volume 540.361566
_symmetry_space_group_name_H-M "P -1"
_symmetry_group_IT_number 2
_symmetry_cell_setting 'triclinic'
loop_
_space_group_symop_operation_xyz
x,y,z
-x,-y,-z
loop_
_atom_site_type_symbol
_atom_site_label
_atom_site_fract_x
_atom_site_fract_y
_atom_site_fract_z
Si Si1 0.892001 0.464934 0.206464
Si Si2 0.528662 0.827999 0.834455
Si Si3 0.793542 0.145062 0.122006
Si Si4 0.589456 0.452624 0.435251
Si Si5 0.390758 0.272033 0.231717
Si Si6 0.813360 0.279751 0.909317
Si Si7 0.817826 0.670334 0.343725
O O1 0.741916 0.311183 0.244934
O O2 0.867560 0.295524 0.184353
O O3 0.187613 0.575077 0.361707
O O4 0.736207 0.667299 0.027791
O O5 0.531727 0.892721 0.720855
O O6 0.626602 0.043580 0.863367
O O7 0.928343 0.927140 0.283919
O O8 0.834899 0.285834 0.012841
O O9 0.500000 0.000000 0.000000
O O10 0.493785 0.262917 0.384769
O O11 0.337749 0.527014 0.284608
O O12 0.737726 0.662870 0.387717
O O13 0.549373 0.526988 0.201152
O O14 0.090463 0.261967 0.053669
O O15 0.000000 0.500000 0.500000
#
# Coordination Sequence:
#
# PCOD9023461 Si02
#       7
#     2   2   2   2   2   2   2
#     4  11  24  41  67 104 129 167 223 283 315 382
#     4  11  23  40  70  94 135 169 223 267 332 386
#     4  12  22  44  66  98 129 177 220 265 326 394
#     4  10  23  40  66  95 134 169 219 269 328 378
#     4  10  24  44  65  95 136 177 211 267 333 397
#     4  12  24  43  69  96 133 178 219 262 332 397
#     4  10  22  39  69  94 129 165 224 267 322 375
#
# _framework density 25.908579
#
# number of rings (size 3 to 8) (size 9 to 14) (size 15 to 20)
#    0.857    0.286    2.857    3.429    4.000    3.429 
#    0.000    5.714    0.000    0.000    0.000    0.000 
#    0.000    0.000    0.000    0.000    0.000    0.000 
#
# Total GULP energy -78291.270370 kJ/mol
# GULP energy per Si atom -5592.233598 kJ/mol
# Density = 2.584961 g / cm^3
# Si number density = 25.908579 Si / 1000 Ang^3
#
#
#
# Elastic Constant Matrix: (Units=GPa)
#
#
# Indices 1 2 3 4 5 6 
#
# 1 143.1815 21.7450 34.9410 13.7150 18.7526 -15.2111
# 2 21.7450 84.6256 40.1471 0.3598 3.9632 -20.0155
# 3 34.9410 40.1471 139.3594 30.1195 27.3997 -13.3177
# 4 13.7150 0.3598 30.1195 39.6821 0.0589 0.2170
# 5 18.7526 3.9632 27.3997 0.0589 30.0609 7.2362
# 6 -15.2111 -20.0155 -13.3177 0.2170 7.2362 46.9384
#
#
#
# Elastic Compliance Matrix: (Units=1/GPa)
#
#
# Indices 1 2 3 4 5 6 
#
# 1 0.008589 -0.001361 0.000579 -0.003404 -0.006515 0.003387
# 2 -0.001361 0.015464 -0.005062 0.004145 0.002374 0.004332
# 3 0.000579 -0.005062 0.013752 -0.010595 -0.013173 0.004011
# 4 -0.003404 0.004145 -0.010595 0.034387 0.012222 -0.004385
# 5 -0.006515 0.002374 -0.013173 0.012222 0.052111 -0.012927
# 6 0.003387 0.004332 0.004011 -0.004385 -0.012927 0.027400
#
#
# Mechanical properties :
#
#
# Convention : Reuss Voigt Hill
#
# Bulk Modulus (GPa) = 38.29043 62.31476 50.30259
# Shear Modulus (GPa) = 29.05347 41.35852 35.20600
#
# Velocity S-wave (km/s) = 3.35234 3.99974 3.69026
# Velocity P-wave (km/s) = 5.45852 6.74052 6.13310
#
# Compressibility (1/GPa) = 0.02611619
#
# Stress axis : x y z
#
# Youngs Moduli (GPa) = 116.43129 64.66734 72.71750
#
# Poissons Ratio (x) = 0.08800 -0.04211
# Poissons Ratio (y) = 0.15845 0.36812
# Poissons Ratio (z) = -0.06742 0.32736
#
# Static dielectric constant tensor:
#      x y z
#    x 2.043180 0.018700 -0.030860 
#    y 0.018700 2.041130 -0.046690 
#    z -0.030860 -0.046690 2.133220 
# 
# From -- ./inp_files/566584.got.cif
#   From: 2010.05.17/outbox.cif.g08.bks.cpg/sg2_284_cif.got.tgz:566584.got - 2010.06.03 11:33:40.
