data_PCOD9023956
_publ_section_title
;
Structure prediction by ZEFSAII (Michael W. Deem and Ramdas Pophale) SiO2 
 PCOD9023956
Probable space group: P -1
;
_chemical_formula_sum "Si O2"
_cell_formula_units_Z 15
_cell_length_a 14.175572
_cell_length_b 15.253582
_cell_length_c 6.572098
_cell_angle_alpha 84.768127
_cell_angle_beta 110.266534
_cell_angle_gamma 150.070789
_cell_volume 595.120456
_symmetry_space_group_name_H-M "P -1"
_symmetry_group_IT_number 2
_symmetry_cell_setting 'triclinic'
loop_
_space_group_symop_operation_xyz
x,y,z
-x,-y,-z
loop_
_atom_site_type_symbol
_atom_site_label
_atom_site_fract_x
_atom_site_fract_y
_atom_site_fract_z
Si Si1 0.366154 0.768592 0.784637
Si Si2 0.500000 0.000000 0.500000
Si Si3 0.136047 0.025462 0.302080
Si Si4 0.353464 0.295313 0.097246
Si Si5 0.745186 0.460956 0.958114
Si Si6 0.874431 0.174436 0.528328
Si Si7 0.450387 0.382361 0.688731
Si Si8 0.012650 0.410343 0.272315
O O1 0.202278 0.602043 0.519149
O O2 0.208622 0.706333 0.822746
O O3 0.536281 0.959117 0.737334
O O4 0.416632 0.728080 0.986112
O O5 0.667651 0.071465 0.471511
O O6 0.293045 0.158207 0.193084
O O7 0.212839 0.168508 0.464977
O O8 0.172252 0.964338 0.458199
O O9 0.881909 0.838308 0.082946
O O10 0.498530 0.474092 0.307971
O O11 0.456054 0.367659 0.938805
O O12 0.623928 0.442083 0.740753
O O13 0.891035 0.517710 0.896243
O O14 0.922069 0.642742 0.205769
O O15 0.954483 0.268962 0.347640
#
# Coordination Sequence:
#
# PCOD9023956 Si02
#       8
#     2   1   2   2   2   2   2   2
#     4   9  20  39  62  88 127 170 213 271 320 378
#     4  10  22  40  62  92 134 168 210 268 326 368
#     4  11  23  44  69  96 131 174 218 272 332 393
#     4  10  24  46  67  95 135 167 219 279 327 400
#     4  11  22  40  65  94 125 175 220 262 327 398
#     4  10  23  42  62  94 134 171 213 275 322 383
#     4  11  24  42  67 100 128 173 217 272 338 391
#     4   9  20  40  61  86 126 173 217 259 322 386
#
# _framework density 25.204982999999999
#
# number of rings (size 3 to 8) (size 9 to 14) (size 15 to 20)
#    0.000    1.867    1.333    2.000    3.733    2.133 
#    2.400    2.000    0.000    0.000    0.000    0.000 
#    0.000    0.000    0.000    0.000    0.000    0.000 
#
# Total GULP energy -83645.066411 kJ/mol
# GULP energy per Si atom -5576.337761 kJ/mol
# Density = 2.514762 g / cm^3
# Si number density = 25.204983 Si / 1000 Ang^3
#
#
#
# Elastic Constant Matrix: (Units=GPa)
#
#
# Indices 1 2 3 4 5 6 
#
# 1 40.9209 29.4125 1.5475 -13.7435 7.3417 -9.0115
# 2 29.4125 100.2831 32.3014 -25.4716 -5.7125 -18.5009
# 3 1.5475 32.3014 60.6462 -1.4701 2.0203 -7.6790
# 4 -13.7435 -25.4716 -1.4701 38.0969 -0.5685 -1.5708
# 5 7.3417 -5.7125 2.0203 -0.5685 32.7111 -16.6690
# 6 -9.0115 -18.5009 -7.6790 -1.5708 -16.6690 38.0797
#
#
#
# Elastic Compliance Matrix: (Units=1/GPa)
#
#
# Indices 1 2 3 4 5 6 
#
# 1 0.036360 -0.011949 0.005854 0.005171 -0.010789 -0.000529
# 2 -0.011949 0.022878 -0.010454 0.011319 0.014038 0.012791
# 3 0.005854 -0.010454 0.021750 -0.004199 -0.005523 -0.001899
# 4 0.005171 0.011319 -0.004199 0.036055 0.007020 0.010437
# 5 -0.010789 0.014038 -0.005523 0.007020 0.048474 0.024662
# 6 -0.000529 0.012791 -0.001899 0.010437 0.024662 0.043193
#
#
# Mechanical properties :
#
#
# Convention : Reuss Voigt Hill
#
# Bulk Modulus (GPa) = 20.88104 36.48588 28.68346
# Shear Modulus (GPa) = 19.39709 31.01679 25.20694
#
# Velocity S-wave (km/s) = 2.77713 3.51177 3.16583
# Velocity P-wave (km/s) = 4.31112 5.56331 4.97676
#
# Compressibility (1/GPa) = 0.04789034
#
# Stress axis : x y z
#
# Youngs Moduli (GPa) = 27.50267 43.71017 45.97802
#
# Poissons Ratio (x) = 0.52228 -0.26916
# Poissons Ratio (y) = 0.32862 0.48066
# Poissons Ratio (z) = -0.16100 0.45695
#
# Static dielectric constant tensor:
#      x y z
#    x 2.003060 -0.024340 0.010950 
#    y -0.024340 2.058280 0.002010 
#    z 0.010950 0.002010 2.022690 
# 
# From -- ./inp_files/98184.got.cif
#   From: 2010.05.17/outbox.cif.g08.bks.cpg/sg2_50_cif.got.tgz:98184.got - 2010.06.03 11:33:40.
