data_PCOD9023296
_publ_section_title
;
Structure prediction by ZEFSAII (Michael W. Deem and Ramdas Pophale) SiO2 
 PCOD9023296
Probable space group: P -1
;
_chemical_formula_sum "Si O2"
_cell_formula_units_Z 12
_cell_length_a 8.840892
_cell_length_b 13.024102
_cell_length_c 9.496380
_cell_angle_alpha 111.965352
_cell_angle_beta 31.127444
_cell_angle_gamma 98.774627
_cell_volume 491.129550
_symmetry_space_group_name_H-M "P -1"
_symmetry_group_IT_number 2
_symmetry_cell_setting 'triclinic'
loop_
_space_group_symop_operation_xyz
x,y,z
-x,-y,-z
loop_
_atom_site_type_symbol
_atom_site_label
_atom_site_fract_x
_atom_site_fract_y
_atom_site_fract_z
Si Si1 0.792516 0.349851 0.623163
Si Si2 0.600263 0.778130 0.447420
Si Si3 0.267989 0.631743 0.787438
Si Si4 0.785810 0.098589 0.435598
Si Si5 0.629692 0.587623 0.747831
Si Si6 0.513914 0.020497 0.166152
O O1 0.869751 0.216613 0.449523
O O2 0.720783 0.445597 0.603908
O O3 0.073023 0.374359 0.493010
O O4 0.497871 0.378081 0.975672
O O5 0.348403 0.724236 0.673336
O O6 0.456373 0.870712 0.484486
O O7 0.676687 0.850029 0.553019
O O8 0.897063 0.668114 0.101893
O O9 0.500000 0.500000 0.500000
O O10 0.368867 0.647847 0.874145
O O11 0.621325 0.066520 0.685735
O O12 0.125363 0.000434 0.092763
O O13 0.500000 0.000000 0.000000
#
# Coordination Sequence:
#
# PCOD9023296 Si02
#       6
#     2   2   2   2   2   2
#     4  10  22  39  67  97 136 186 224 288 348 415
#     4  12  27  47  74 104 147 190 234 295 359 420
#     4  12  26  44  73 103 146 186 240 285 357 426
#     4  12  25  47  74 102 146 185 243 287 366 421
#     4  10  22  40  63 101 140 177 236 281 344 412
#     4  12  28  47  74 108 141 185 246 300 356 420
#
# _framework density 24.433468999999999
#
# number of rings (size 3 to 8) (size 9 to 14) (size 15 to 20)
#    0.000    0.667    0.000    7.000    7.000    4.000 
#    0.000    0.000    0.000    0.000    0.000    0.000 
#    0.000    0.000    0.000    0.000    0.000    0.000 
#
# Total GULP energy -67193.193739 kJ/mol
# GULP energy per Si atom -5599.432812 kJ/mol
# Density = 2.437786 g / cm^3
# Si number density = 24.433469 Si / 1000 Ang^3
#
#
#
# Elastic Constant Matrix: (Units=GPa)
#
#
# Indices 1 2 3 4 5 6 
#
# 1 75.2252 21.8250 24.7176 1.8970 5.3819 -20.2456
# 2 21.8250 97.2086 31.9427 -9.3438 24.1235 -0.2234
# 3 24.7176 31.9427 120.7002 1.8788 -8.2879 -8.0052
# 4 1.8970 -9.3438 1.8788 48.1318 0.6676 5.6937
# 5 5.3819 24.1235 -8.2879 0.6676 37.0575 6.1323
# 6 -20.2456 -0.2234 -8.0052 5.6937 6.1323 39.4799
#
#
#
# Elastic Compliance Matrix: (Units=1/GPa)
#
#
# Indices 1 2 3 4 5 6 
#
# 1 0.017624 -0.002610 -0.002469 -0.002163 -0.002910 0.009286
# 2 -0.002610 0.015202 -0.004323 0.003487 -0.010378 -0.001020
# 3 -0.002469 -0.004323 0.010339 -0.001237 0.005486 0.000132
# 4 -0.002163 0.003487 -0.001237 0.022114 -0.001931 -0.004230
# 5 -0.002910 -0.010378 0.005486 -0.001931 0.036387 -0.005812
# 6 0.009286 -0.001020 0.000132 -0.004230 -0.005812 0.031625
#
#
# Mechanical properties :
#
#
# Convention : Reuss Voigt Hill
#
# Bulk Modulus (GPa) = 41.04828 50.01164 45.52996
# Shear Modulus (GPa) = 31.20790 39.24375 35.22583
#
# Velocity S-wave (km/s) = 3.57776 4.01202 3.80110
# Velocity P-wave (km/s) = 5.82268 6.47879 6.15948
#
# Compressibility (1/GPa) = 0.02436156
#
# Stress axis : x y z
#
# Youngs Moduli (GPa) = 56.74139 65.78055 96.71771
#
# Poissons Ratio (x) = 0.17169 0.23876
# Poissons Ratio (y) = 0.14809 0.41813
# Poissons Ratio (z) = 0.14007 0.28438
#
# Static dielectric constant tensor:
#      x y z
#    x 1.965270 0.001720 0.012390 
#    y 0.001720 1.945900 0.097480 
#    z 0.012390 0.097480 1.924800 
# 
# From -- ./inp_files/38260.got.cif
#   From: 2010.05.17/outbox.cif.g08.bks.cpg/sg2_20_cif.got.tgz:38260.got - 2010.06.03 11:33:40.
