data_PCOD9023992
_publ_section_title
;
Structure prediction by ZEFSAII (Michael W. Deem and Ramdas Pophale) SiO2 
 PCOD9023992
Probable space group: P -1
;
_chemical_formula_sum "Si O2"
_cell_formula_units_Z 16
_cell_length_a 17.814082
_cell_length_b 10.919898
_cell_length_c 11.852026
_cell_angle_alpha 49.094812
_cell_angle_beta 41.530681
_cell_angle_gamma 31.751830
_cell_volume 803.326176
_symmetry_space_group_name_H-M "P -1"
_symmetry_group_IT_number 2
_symmetry_cell_setting 'triclinic'
loop_
_space_group_symop_operation_xyz
x,y,z
-x,-y,-z
loop_
_atom_site_type_symbol
_atom_site_label
_atom_site_fract_x
_atom_site_fract_y
_atom_site_fract_z
Si Si1 0.742509 0.107767 0.282718
Si Si2 0.271841 0.609436 0.710491
Si Si3 0.891831 0.562526 0.254763
Si Si4 0.965691 0.438416 0.689612
Si Si5 0.329252 0.472842 0.969437
Si Si6 0.069179 0.169623 0.100922
Si Si7 0.397349 0.369451 0.470736
Si Si8 0.391327 0.668482 0.125760
O O1 0.700358 0.235405 0.373689
O O2 0.746799 0.264200 0.103724
O O3 0.592028 0.152174 0.386425
O O4 0.905133 0.840059 0.271533
O O5 0.339471 0.434944 0.845439
O O6 0.345317 0.484569 0.584297
O O7 0.077808 0.780536 0.818588
O O8 0.715348 0.666032 0.410331
O O9 0.996774 0.480776 0.297653
O O10 0.988493 0.346040 0.191065
O O11 0.875844 0.751073 0.097321
O O12 0.000000 0.500000 0.500000
O O13 0.789463 0.536176 0.837408
O O14 0.500642 0.314197 0.934976
O O15 0.222085 0.911156 0.125596
O O16 0.361555 0.548386 0.314432
O O17 0.500000 0.500000 0.000000
#
# Coordination Sequence:
#
# PCOD9023992 Si02
#       8
#     2   2   2   2   2   2   2   2
#     4   9  21  37  64  87 116 162 199 253 304 356
#     4   9  19  39  72  84 115 159 214 247 296 364
#     4  10  23  42  62  85 129 167 204 234 311 382
#     4  12  25  38  59  91 124 162 207 248 300 366
#     4   9  22  42  62  87 119 162 204 254 303 355
#     4  10  22  42  67  89 119 171 199 250 305 365
#     4  10  22  40  62  95 119 158 205 256 308 354
#     4  11  26  38  63  96 126 153 208 260 304 351
#
# _framework density 19.917190000000002
#
# number of rings (size 3 to 8) (size 9 to 14) (size 15 to 20)
#    0.750    1.250    1.250    0.750    7.000    4.500 
#    0.000    0.625    0.000    0.000    0.000    0.000 
#    0.000    0.000    0.000    0.000    0.000    0.000 
#
# Total GULP energy -89287.187324 kJ/mol
# GULP energy per Si atom -5580.449208 kJ/mol
# Density = 1.987186 g / cm^3
# Si number density = 19.917190 Si / 1000 Ang^3
#
#
#
# Elastic Constant Matrix: (Units=GPa)
#
#
# Indices 1 2 3 4 5 6 
#
# 1 105.7124 15.3591 52.1894 -0.3842 -11.7712 -26.7699
# 2 15.3591 24.1269 -1.3983 0.1514 -3.9556 -12.4715
# 3 52.1894 -1.3983 123.2325 -4.1176 -10.4764 -9.7093
# 4 -0.3842 0.1514 -4.1176 11.8084 -6.9927 -1.4895
# 5 -11.7712 -3.9556 -10.4764 -6.9927 43.4019 5.6008
# 6 -26.7699 -12.4715 -9.7093 -1.4895 5.6008 25.4864
#
#
#
# Elastic Compliance Matrix: (Units=1/GPa)
#
#
# Indices 1 2 3 4 5 6 
#
# 1 0.016245 -0.003910 -0.005795 0.000841 0.001142 0.012741
# 2 -0.003910 0.057996 0.004794 0.005826 0.002994 0.025782
# 3 -0.005795 0.004794 0.011003 0.004974 0.002292 0.000238
# 4 0.000841 0.005826 0.004974 0.097186 0.016630 0.007655
# 5 0.001142 0.002994 0.002292 0.016630 0.027041 -0.001432
# 6 0.012741 0.025782 0.000238 0.007655 -0.001432 0.066088
#
#
# Mechanical properties :
#
#
# Convention : Reuss Voigt Hill
#
# Bulk Modulus (GPa) = 13.25859 42.81911 28.03885
# Shear Modulus (GPa) = 16.10199 28.60078 22.35139
#
# Velocity S-wave (km/s) = 2.84640 3.79355 3.35358
# Velocity P-wave (km/s) = 4.18019 6.38226 5.39478
#
# Compressibility (1/GPa) = 0.07542279
#
# Stress axis : x y z
#
# Youngs Moduli (GPa) = 61.55583 17.24266 90.88216
#
# Poissons Ratio (x) = 0.06742 0.52669
# Poissons Ratio (y) = 0.24068 -0.43573
# Poissons Ratio (z) = 0.35674 -0.08267
#
# Static dielectric constant tensor:
#      x y z
#    x 1.738470 0.013570 0.009060 
#    y 0.013570 1.683120 0.021010 
#    z 0.009060 0.021010 1.699990 
# 
# From -- ./inp_files/464360.got.cif
#   From: 2010.05.17/outbox.cif.g08.bks.cpg/sg2_233_cif.got.tgz:464360.got - 2010.06.03 11:33:40.
