data_PCOD9023012
_publ_section_title
;
Structure prediction by ZEFSAII (Michael W. Deem and Ramdas Pophale) SiO2 
 PCOD9023012
Probable space group: P -1
;
_chemical_formula_sum "Si O2"
_cell_formula_units_Z 13
_cell_length_a 11.142025
_cell_length_b 6.502617
_cell_length_c 16.309856
_cell_angle_alpha 122.528992
_cell_angle_beta 151.107033
_cell_angle_gamma 57.847071
_cell_volume 475.891521
_symmetry_space_group_name_H-M "P -1"
_symmetry_group_IT_number 2
_symmetry_cell_setting 'triclinic'
loop_
_space_group_symop_operation_xyz
x,y,z
-x,-y,-z
loop_
_atom_site_type_symbol
_atom_site_label
_atom_site_fract_x
_atom_site_fract_y
_atom_site_fract_z
Si Si1 0.751729 0.618745 0.171862
Si Si2 0.982574 0.889477 0.098332
Si Si3 0.590927 0.174183 0.247637
Si Si4 0.543101 0.508380 0.622859
Si Si5 0.903212 0.386117 0.046559
Si Si6 0.827980 0.788187 0.586515
Si Si7 0.000000 0.500000 0.500000
O O1 0.956402 0.457633 0.319665
O O2 0.814739 0.587246 0.107099
O O3 0.703888 0.897625 0.233094
O O4 0.500000 0.500000 0.000000
O O5 0.092045 0.987030 0.268409
O O6 0.713971 0.803385 0.941319
O O7 0.164546 0.720852 0.106031
O O8 0.918334 0.142421 0.060979
O O9 0.604123 0.255818 0.367466
O O10 0.737978 0.364376 0.327844
O O11 0.500000 0.500000 0.500000
O O12 0.832306 0.537625 0.805878
O O13 0.421121 0.283398 0.538717
O O14 0.841219 0.767974 0.493232
#
# Coordination Sequence:
#
# PCOD9023012 Si02
#       7
#     2   2   2   2   2   2   1
#     4  11  19  33  56  92 112 132 177 243 287 308
#     4   9  16  31  55  81 105 145 180 227 266 327
#     4  10  21  35  56  82 114 142 185 225 276 326
#     4  10  17  31  51  81 110 144 180 224 269 325
#     4   9  17  29  52  84 115 129 178 234 282 316
#     4  10  20  35  58  83 113 143 188 222 274 325
#     4  10  24  38  50  80 114 158 184 214 264 344
#
# _framework density 27.317150999999999
#
# number of rings (size 3 to 8) (size 9 to 14) (size 15 to 20)
#    0.000    2.154    6.154    0.000    0.000    3.077 
#    0.000    0.000    0.000    9.231    0.000    0.000 
#    0.000    0.000    0.000    0.000    0.000    0.000 
#
# Total GULP energy -72429.102094 kJ/mol
# GULP energy per Si atom -5571.469392 kJ/mol
# Density = 2.725498 g / cm^3
# Si number density = 27.317151 Si / 1000 Ang^3
#
#
#
# Elastic Constant Matrix: (Units=GPa)
#
#
# Indices 1 2 3 4 5 6 
#
# 1 158.5684 55.4555 28.8107 35.4689 26.3052 -38.9412
# 2 55.4555 144.8083 53.1327 35.1825 -14.0340 -38.6306
# 3 28.8107 53.1327 155.4387 34.5450 40.8023 -10.1941
# 4 35.4689 35.1825 34.5450 53.9349 -17.3139 -15.3696
# 5 26.3052 -14.0340 40.8023 -17.3139 56.4077 6.2624
# 6 -38.9412 -38.6306 -10.1941 -15.3696 6.2624 51.1156
#
#
#
# Elastic Compliance Matrix: (Units=1/GPa)
#
#
# Indices 1 2 3 4 5 6 
#
# 1 0.015453 -0.005015 0.008460 -0.016878 -0.020544 0.007111
# 2 -0.005015 0.012588 -0.007162 0.004600 0.011594 0.004227
# 3 0.008460 -0.007162 0.018865 -0.020817 -0.025953 0.001715
# 4 -0.016878 0.004600 -0.020817 0.052139 0.040388 -0.002804
# 5 -0.020544 0.011594 -0.025953 0.040388 0.062200 -0.007541
# 6 0.007111 0.004227 0.001715 -0.002804 -0.007541 0.028599
#
#
# Mechanical properties :
#
#
# Convention : Reuss Voigt Hill
#
# Bulk Modulus (GPa) = 25.33458 81.51257 53.42358
# Shear Modulus (GPa) = 23.76048 53.71939 38.73994
#
# Velocity S-wave (km/s) = 2.95244 4.43934 3.76992
# Velocity P-wave (km/s) = 4.57350 7.49541 6.20879
#
# Compressibility (1/GPa) = 0.03947174
#
# Stress axis : x y z
#
# Youngs Moduli (GPa) = 64.71281 79.44367 53.00850
#
# Poissons Ratio (x) = 0.39843 -0.44845
# Poissons Ratio (y) = 0.32455 0.37963
# Poissons Ratio (z) = -0.54747 0.56894
#
# Static dielectric constant tensor:
#      x y z
#    x 1.718460 0.289140 0.053680 
#    y 0.289140 2.738420 -0.319800 
#    z 0.053680 -0.319800 2.099280 
# 
# From -- ./inp_files/150881.got.cif
#   From: 2010.05.17/outbox.cif.g08.bks.cpg/sg2_76_cif.got.tgz:150881.got - 2010.06.03 11:33:40.
