data_PCOD9023807
_publ_section_title
;
Structure prediction by ZEFSAII (Michael W. Deem and Ramdas Pophale) SiO2 
 PCOD9023807
Probable space group: P -1
;
_chemical_formula_sum "Si O2"
_cell_formula_units_Z 16
_cell_length_a 11.448358
_cell_length_b 14.465751
_cell_length_c 10.792507
_cell_angle_alpha 101.395249
_cell_angle_beta 121.589806
_cell_angle_gamma 31.803385
_cell_volume 669.269065
_symmetry_space_group_name_H-M "P -1"
_symmetry_group_IT_number 2
_symmetry_cell_setting 'triclinic'
loop_
_space_group_symop_operation_xyz
x,y,z
-x,-y,-z
loop_
_atom_site_type_symbol
_atom_site_label
_atom_site_fract_x
_atom_site_fract_y
_atom_site_fract_z
Si Si1 0.293064 0.761108 0.049273
Si Si2 0.774856 0.386883 0.871330
Si Si3 0.709815 0.002436 0.131768
Si Si4 0.667951 0.049650 0.552930
Si Si5 0.291285 0.174250 0.751012
Si Si6 0.202312 0.833675 0.726425
Si Si7 0.750863 0.575042 0.415193
Si Si8 0.215078 0.177266 0.256321
O O1 0.287692 0.667591 0.097003
O O2 0.610053 0.615384 0.225579
O O3 0.268824 0.764824 0.889685
O O4 0.000000 0.000000 0.000000
O O5 0.461703 0.630653 0.729217
O O6 0.002878 0.216472 0.844076
O O7 0.949596 0.347103 0.054565
O O8 0.648903 0.965438 0.196214
O O9 0.784520 0.061548 0.232453
O O10 0.417559 0.171764 0.920972
O O11 0.542302 0.203164 0.619860
O O12 0.362939 0.186177 0.371236
O O13 0.841528 0.855195 0.665431
O O14 0.885831 0.973602 0.562822
O O15 0.944719 0.392511 0.569870
O O16 0.513687 0.046223 0.723154
O O17 0.000000 0.500000 0.500000
#
# Coordination Sequence:
#
# PCOD9023807 Si02
#       8
#     2   2   2   2   2   2   2   2
#     4  12  22  40  64  95 139 166 209 274 325 384
#     4  11  23  40  67  98 124 174 222 259 326 387
#     4  10  23  48  66  92 132 175 219 271 314 390
#     4  11  23  38  59 101 136 159 207 272 333 380
#     4  10  23  44  69  91 129 174 216 267 330 378
#     4  12  24  40  68  98 130 175 213 267 331 385
#     4  12  23  37  68  99 123 171 216 266 330 383
#     4  10  22  40  61  94 136 161 209 274 321 388
#
# _framework density 23.906679
#
# number of rings (size 3 to 8) (size 9 to 14) (size 15 to 20)
#    0.000    1.000    5.000    1.125    5.250    0.000 
#    2.250    5.000    0.000    0.000    0.000    0.000 
#    0.000    0.000    0.000    0.000    0.000    0.000 
#
# Total GULP energy -89509.042000 kJ/mol
# GULP energy per Si atom -5594.315125 kJ/mol
# Density = 2.385227 g / cm^3
# Si number density = 23.906679 Si / 1000 Ang^3
#
#
#
# Elastic Constant Matrix: (Units=GPa)
#
#
# Indices 1 2 3 4 5 6 
#
# 1 99.9850 8.6031 33.4163 3.3602 21.9683 16.9823
# 2 8.6031 75.1354 9.1052 -14.1814 3.3081 0.7286
# 3 33.4163 9.1052 78.6171 3.6545 21.8723 6.0863
# 4 3.3602 -14.1814 3.6545 24.9715 -2.2850 9.5810
# 5 21.9683 3.3081 21.8723 -2.2850 36.8477 5.8778
# 6 16.9823 0.7286 6.0863 9.5810 5.8778 28.1109
#
#
#
# Elastic Compliance Matrix: (Units=1/GPa)
#
#
# Indices 1 2 3 4 5 6 
#
# 1 0.013450 -0.000732 -0.003871 0.000390 -0.004604 -0.006439
# 2 -0.000732 0.015657 -0.002162 0.010789 0.001540 -0.003495
# 3 -0.003871 -0.002162 0.016952 -0.004720 -0.008179 0.002043
# 4 0.000390 0.010789 -0.004720 0.055254 0.008225 -0.020045
# 5 -0.004604 0.001540 -0.008179 0.008225 0.036040 -0.005826
# 6 -0.006439 -0.003495 0.002043 -0.020045 -0.005826 0.047161
#
#
# Mechanical properties :
#
#
# Convention : Reuss Voigt Hill
#
# Bulk Modulus (GPa) = 30.74045 39.55407 35.14726
# Shear Modulus (GPa) = 23.93612 31.49355 27.71483
#
# Velocity S-wave (km/s) = 3.16766 3.63347 3.40853
# Velocity P-wave (km/s) = 5.12496 5.84670 5.49769
#
# Compressibility (1/GPa) = 0.03253042
#
# Stress axis : x y z
#
# Youngs Moduli (GPa) = 74.34742 63.86737 58.98839
#
# Poissons Ratio (x) = 0.04677 0.22834
# Poissons Ratio (y) = 0.05444 0.12752
# Poissons Ratio (z) = 0.28780 0.13806
#
# Static dielectric constant tensor:
#      x y z
#    x 1.883950 0.005680 0.023170 
#    y 0.005680 1.925760 0.001650 
#    z 0.023170 0.001650 1.993570 
# 
# From -- ./inp_files/240462.got.cif
#   From: 2010.05.17/outbox.cif.g08.bks.cpg/sg2_121_cif.got.tgz:240462.got - 2010.06.03 11:33:40.
