data_PCOD9023776
_publ_section_title
;
Structure prediction by ZEFSAII (Michael W. Deem and Ramdas Pophale) SiO2 
 PCOD9023776
Probable space group: P -1
;
_chemical_formula_sum "Si O2"
_cell_formula_units_Z 15
_cell_length_a 21.263403
_cell_length_b 6.450688
_cell_length_c 18.277917
_cell_angle_alpha 117.780577
_cell_angle_beta 17.660885
_cell_angle_gamma 115.460094
_cell_volume 671.985039
_symmetry_space_group_name_H-M "P -1"
_symmetry_group_IT_number 2
_symmetry_cell_setting 'triclinic'
loop_
_space_group_symop_operation_xyz
x,y,z
-x,-y,-z
loop_
_atom_site_type_symbol
_atom_site_label
_atom_site_fract_x
_atom_site_fract_y
_atom_site_fract_z
Si Si1 0.000000 0.500000 0.500000
Si Si2 0.255387 0.743231 0.755061
Si Si3 0.268970 0.057458 0.075768
Si Si4 0.292778 0.224409 0.760970
Si Si5 0.968392 0.664037 0.395512
Si Si6 0.385663 0.291773 0.310111
Si Si7 0.686822 0.711320 0.081671
Si Si8 0.062186 0.381578 0.810046
O O1 0.186277 0.317037 0.232281
O O2 0.989082 0.641466 0.455772
O O3 0.496061 0.726368 0.506521
O O4 0.203937 0.504597 0.732603
O O5 0.231044 0.966525 0.765637
O O6 0.083321 0.794691 0.016642
O O7 0.086843 0.882255 0.266706
O O8 0.320971 0.082557 0.936017
O O9 0.465933 0.940721 0.881206
O O10 0.351639 0.216631 0.780551
O O11 0.108640 0.416324 0.989664
O O12 0.732608 0.687110 0.632339
O O13 0.087528 0.427491 0.194246
O O14 0.523380 0.515594 0.208782
O O15 0.203765 0.291418 0.572310
#
# Coordination Sequence:
#
# PCOD9023776 Si02
#       8
#     1   2   2   2   2   2   2   2
#     4  10  22  46  72  96 132 156 202 262 310 378
#     4  10  24  38  58  92 123 169 218 265 322 356
#     4  10  24  42  66  98 126 165 206 253 313 385
#     4  11  21  40  61  87 124 170 218 266 313 368
#     4  10  22  43  68  95 124 168 204 253 317 378
#     4  11  23  40  64  94 130 168 214 255 314 378
#     4  10  22  40  61  91 133 166 211 265 311 369
#     4  11  22  41  60  88 128 168 215 270 309 372
#
# _framework density 22.321925
#
# number of rings (size 3 to 8) (size 9 to 14) (size 15 to 20)
#    0.000    1.600    2.667    1.200    1.867    3.733 
#    9.600    6.667    0.000    0.000    0.000    0.000 
#    0.000    0.000    0.000    0.000    0.000    0.000 
#
# Total GULP energy -83519.757155 kJ/mol
# GULP energy per Si atom -5567.983810 kJ/mol
# Density = 2.227112 g / cm^3
# Si number density = 22.321925 Si / 1000 Ang^3
#
#
#
# Elastic Constant Matrix: (Units=GPa)
#
#
# Indices 1 2 3 4 5 6 
#
# 1 74.5693 31.2569 39.0975 -5.9040 -4.8004 -31.8735
# 2 31.2569 72.1583 34.3768 -5.2968 -17.2482 -21.9869
# 3 39.0975 34.3768 80.5797 6.3990 -21.8850 4.1632
# 4 -5.9040 -5.2968 6.3990 39.6309 -4.8999 0.9459
# 5 -4.8004 -17.2482 -21.8850 -4.8999 55.9487 0.9566
# 6 -31.8735 -21.9869 4.1632 0.9459 0.9566 22.0860
#
#
#
# Elastic Compliance Matrix: (Units=1/GPa)
#
#
# Indices 1 2 3 4 5 6 
#
# 1 -0.057202 -0.044026 0.056269 -0.019727 0.004133 -0.136320
# 2 -0.044026 0.000012 0.027602 -0.008453 0.007457 -0.068689
# 3 0.056269 0.027602 -0.033914 0.014742 -0.000595 0.114470
# 4 -0.019727 -0.008453 0.014742 0.020242 0.003937 -0.040700
# 5 0.004133 0.007457 -0.000595 0.003937 0.020426 0.012447
# 6 -0.136320 -0.068689 0.114470 -0.040700 0.012447 -0.240208
#
#
# Mechanical properties :
#
#
# Convention : Reuss Voigt Hill
#
# Bulk Modulus (GPa) = -87.61119 48.52998 -19.54060
# Shear Modulus (GPa) = -13.36404 31.70487 9.17041
#
# Velocity S-wave (km/s) = -2.44948 3.77284 2.02908
# Velocity P-wave (km/s) = 6.87998 6.38492 1.81203
#
# Compressibility (1/GPa) = -0.01141407
#
# Stress axis : x y z
#
# Youngs Moduli (GPa) = -17.48204 86462.93368 -29.48636
#
# Poissons Ratio (x) = 3806.65291 1.65917
# Poissons Ratio (y) = -0.76967 0.81389
# Poissons Ratio (z) = 0.98370 -2386.57841
#
# Static dielectric constant tensor:
#      x y z
#    x 1.854360 -0.013500 0.001110 
#    y -0.013500 1.840400 -0.027140 
#    z 0.001110 -0.027140 1.806310 
# 
# From -- ./inp_files/48074.got.cif
#   From: 2010.05.17/outbox.cif.g08.bks.cpg/sg2_25_cif.got.tgz:48074.got - 2010.06.03 11:33:40.
