data_PCOD9023797
_publ_section_title
;
Structure prediction by ZEFSAII (Michael W. Deem and Ramdas Pophale) SiO2 
 PCOD9023797
Probable space group: P -1
;
_chemical_formula_sum "Si O2"
_cell_formula_units_Z 12
_cell_length_a 13.609692
_cell_length_b 8.348756
_cell_length_c 4.996083
_cell_angle_alpha 64.442185
_cell_angle_beta 92.563429
_cell_angle_gamma 118.738697
_cell_volume 439.442845
_symmetry_space_group_name_H-M "P -1"
_symmetry_group_IT_number 2
_symmetry_cell_setting 'triclinic'
loop_
_space_group_symop_operation_xyz
x,y,z
-x,-y,-z
loop_
_atom_site_type_symbol
_atom_site_label
_atom_site_fract_x
_atom_site_fract_y
_atom_site_fract_z
Si Si1 0.909481 0.280334 0.369517
Si Si2 0.078943 0.024436 0.746485
Si Si3 0.163716 0.473856 0.479183
Si Si4 0.429138 0.289394 0.483452
Si Si5 0.299010 0.086634 0.148780
Si Si6 0.597778 0.164092 0.699125
O O1 0.861876 0.434591 0.316884
O O2 0.045456 0.408224 0.355638
O O3 0.894078 0.157211 0.180715
O O4 0.833451 0.077343 0.697177
O O5 0.172581 0.267774 0.623548
O O6 0.000000 0.000000 0.500000
O O7 0.000000 0.000000 0.000000
O O8 0.287729 0.657608 0.270633
O O9 0.500000 0.500000 0.500000
O O10 0.356987 0.278947 0.220498
O O11 0.534172 0.252943 0.456948
O O12 0.341755 0.140132 0.812857
O O13 0.354545 0.957952 0.368956
O O14 0.500000 0.000000 0.000000
#
# Coordination Sequence:
#
# PCOD9023797 Si02
#       6
#     2   2   2   2   2   2
#     4   9  20  40  68  97 134 169 223 270 335 397
#     4  10  22  40  61  93 131 166 212 266 320 391
#     4   9  19  40  66  98 130 179 216 272 337 392
#     4  11  23  40  63  95 127 172 219 266 328 387
#     4  10  22  41  65  90 129 171 213 277 320 389
#     4   9  20  41  66  92 131 173 224 269 324 397
#
# _framework density 27.307303999999998
#
# number of rings (size 3 to 8) (size 9 to 14) (size 15 to 20)
#    0.000    2.333    0.000    1.000    2.333    3.333 
#    0.000   25.000    0.000    0.000    0.000    0.000 
#    0.000    0.000    0.000    0.000    0.000    0.000 
#
# Total GULP energy -66922.072585 kJ/mol
# GULP energy per Si atom -5576.839382 kJ/mol
# Density = 2.724515 g / cm^3
# Si number density = 27.307304 Si / 1000 Ang^3
#
#
#
# Elastic Constant Matrix: (Units=GPa)
#
#
# Indices 1 2 3 4 5 6 
#
# 1 141.2735 61.7832 23.8973 2.5310 -24.1053 0.2640
# 2 61.7832 197.6154 41.1150 -7.6337 -20.8681 6.6816
# 3 23.8973 41.1150 105.6371 11.1896 -36.7963 17.9083
# 4 2.5310 -7.6337 11.1896 64.0221 6.3616 -14.9301
# 5 -24.1053 -20.8681 -36.7963 6.3616 30.9894 -3.8796
# 6 0.2640 6.6816 17.9083 -14.9301 -3.8796 73.5109
#
#
#
# Elastic Compliance Matrix: (Units=1/GPa)
#
#
# Indices 1 2 3 4 5 6 
#
# 1 0.009282 -0.002510 0.001993 -0.001891 0.008255 -0.000239
# 2 -0.002510 0.006297 -0.002324 0.001386 -0.000725 0.000246
# 3 0.001993 -0.002324 0.020246 -0.007526 0.024952 -0.004940
# 4 -0.001891 0.001386 -0.007526 0.019625 -0.012874 0.005021
# 5 0.008255 -0.000725 0.024952 -0.012874 0.069849 -0.004971
# 6 -0.000239 0.000246 -0.004940 0.005021 -0.004971 0.015543
#
#
# Mechanical properties :
#
#
# Convention : Reuss Voigt Hill
#
# Bulk Modulus (GPa) = 33.17494 77.56856 55.37175
# Shear Modulus (GPa) = 31.93434 54.88652 43.41043
#
# Velocity S-wave (km/s) = 3.42342 4.48812 3.99143
# Velocity P-wave (km/s) = 5.27272 7.43808 6.44696
#
# Compressibility (1/GPa) = 0.03014324
#
# Stress axis : x y z
#
# Youngs Moduli (GPa) = 107.73861 158.80005 49.39239
#
# Poissons Ratio (x) = 0.39856 -0.09845
# Poissons Ratio (y) = 0.27041 0.11480
# Poissons Ratio (z) = -0.21475 0.36910
#
# Static dielectric constant tensor:
#      x y z
#    x 2.312330 -0.079790 0.203560 
#    y -0.079790 2.455470 -0.118510 
#    z 0.203560 -0.118510 2.502360 
# 
# From -- ./inp_files/59835.got.cif
#   From: 2010.05.17/outbox.cif.g08.bks.cpg/sg2_30_cif.got.tgz:59835.got - 2010.06.03 11:33:40.
