data_PCOD9023336
_publ_section_title
;
Structure prediction by ZEFSAII (Michael W. Deem and Ramdas Pophale) SiO2 
 PCOD9023336
Probable space group: P -1
;
_chemical_formula_sum "Si O2"
_cell_formula_units_Z 16
_cell_length_a 5.410200
_cell_length_b 16.854801
_cell_length_c 9.671579
_cell_angle_alpha 118.283337
_cell_angle_beta 91.677232
_cell_angle_gamma 112.098713
_cell_volume 695.922233
_symmetry_space_group_name_H-M "P -1"
_symmetry_group_IT_number 2
_symmetry_cell_setting 'triclinic'
loop_
_space_group_symop_operation_xyz
x,y,z
-x,-y,-z
loop_
_atom_site_type_symbol
_atom_site_label
_atom_site_fract_x
_atom_site_fract_y
_atom_site_fract_z
Si Si1 0.779177 0.126245 0.378273
Si Si2 0.592933 0.286692 0.556381
Si Si3 0.950409 0.388948 0.409898
Si Si4 0.918356 0.884993 0.374516
Si Si5 0.422357 0.887647 0.211831
Si Si6 0.543077 0.276491 0.068249
Si Si7 0.663939 0.429455 0.938995
Si Si8 0.822270 0.750424 0.735723
O O1 0.606479 0.180385 0.486918
O O2 0.038167 0.155815 0.511756
O O3 0.891351 0.169677 0.264367
O O4 0.599457 0.005539 0.275958
O O5 0.884440 0.351874 0.536269
O O6 0.581527 0.353728 0.740700
O O7 0.387637 0.268057 0.409576
O O8 0.714675 0.339118 0.251823
O O9 0.000000 0.500000 0.500000
O O10 0.178815 0.357123 0.334365
O O11 0.152817 0.877001 0.278377
O O12 0.628087 0.851875 0.268076
O O13 0.000000 0.000000 0.500000
O O14 0.341626 0.804672 0.024848
O O15 0.247592 0.217508 0.091273
O O16 0.579730 0.354082 0.008606
O O17 0.500000 0.500000 0.000000
O O18 0.000000 0.500000 0.000000
#
# Coordination Sequence:
#
# PCOD9023336 Si02
#       8
#     2   2   2   2   2   2   2   2
#     4  10  22  41  71  98 147 188 249 277 354 424
#     4  10  24  43  69 105 135 187 244 288 348 436
#     4  10  23  45  72  94 140 188 243 289 356 430
#     4  10  22  39  68 102 140 191 243 282 350 412
#     4  11  25  42  71 108 147 193 230 307 351 417
#     4  11  27  45  70 108 148 181 240 294 370 425
#     4  12  30  47  76 108 144 182 232 309 374 417
#     4  10  25  43  71 103 139 197 238 292 346 444
#
# _framework density 22.991074000000001
#
# number of rings (size 3 to 8) (size 9 to 14) (size 15 to 20)
#    0.000    1.500    0.000    3.000   17.500    1.500 
#    0.000    5.625    0.000    0.000    0.000    0.000 
#    0.000    0.000    0.000    0.000    0.000    0.000 
#
# Total GULP energy -89171.622300 kJ/mol
# GULP energy per Si atom -5573.226394 kJ/mol
# Density = 2.293875 g / cm^3
# Si number density = 22.991074 Si / 1000 Ang^3
#
#
#
# Elastic Constant Matrix: (Units=GPa)
#
#
# Indices 1 2 3 4 5 6 
#
# 1 107.3198 47.5319 30.3839 -11.0015 -33.9298 -14.0256
# 2 47.5319 144.6871 77.5012 9.3196 -26.8266 -12.7617
# 3 30.3839 77.5012 123.1953 -7.4459 -40.3204 13.7476
# 4 -11.0015 9.3196 -7.4459 41.0872 -2.5642 -4.1162
# 5 -33.9298 -26.8266 -40.3204 -2.5642 52.5655 -0.1206
# 6 -14.0256 -12.7617 13.7476 -4.1162 -0.1206 35.4493
#
#
#
# Elastic Compliance Matrix: (Units=1/GPa)
#
#
# Indices 1 2 3 4 5 6 
#
# 1 0.014727 -0.004159 0.001861 0.006230 0.009124 0.004362
# 2 -0.004159 0.013881 -0.009907 -0.005619 -0.003459 0.006529
# 3 0.001861 -0.009907 0.018858 0.005898 0.010876 -0.009422
# 4 0.006230 -0.005619 0.005898 0.028947 0.007093 0.001540
# 5 0.009124 -0.003459 0.010876 0.007093 0.031835 -0.000921
# 6 0.004362 0.006529 -0.009422 0.001540 -0.000921 0.036115
#
#
# Mechanical properties :
#
#
# Convention : Reuss Voigt Hill
#
# Bulk Modulus (GPa) = 43.37533 76.22624 59.80078
# Shear Modulus (GPa) = 28.33510 40.47275 34.40392
#
# Velocity S-wave (km/s) = 3.51442 4.20023 3.87253
# Velocity P-wave (km/s) = 5.94771 7.53321 6.78692
#
# Compressibility (1/GPa) = 0.02305458
#
# Stress axis : x y z
#
# Youngs Moduli (GPa) = 67.90318 72.04086 53.02723
#
# Poissons Ratio (x) = 0.29965 -0.09866
# Poissons Ratio (y) = 0.28244 0.52534
# Poissons Ratio (z) = -0.12634 0.71370
#
# Static dielectric constant tensor:
#      x y z
#    x 2.261130 0.063510 0.046760 
#    y 0.063510 1.893910 -0.048870 
#    z 0.046760 -0.048870 1.930760 
# 
# From -- ./inp_files/138080.got.cif
#   From: 2010.05.17/outbox.cif.g08.bks.cpg/sg2_70_cif.got.tgz:138080.got - 2010.06.03 11:33:40.
