data_PCOD9023591
_publ_section_title
;
Structure prediction by ZEFSAII (Michael W. Deem and Ramdas Pophale) SiO2 
 PCOD9023591
Probable space group: P -1
;
_chemical_formula_sum "Si O2"
_cell_formula_units_Z 13
_cell_length_a 12.127267
_cell_length_b 14.677643
_cell_length_c 11.421319
_cell_angle_alpha 150.703960
_cell_angle_beta 40.123440
_cell_angle_gamma 148.787201
_cell_volume 514.099278
_symmetry_space_group_name_H-M "P -1"
_symmetry_group_IT_number 2
_symmetry_cell_setting 'triclinic'
loop_
_space_group_symop_operation_xyz
x,y,z
-x,-y,-z
loop_
_atom_site_type_symbol
_atom_site_label
_atom_site_fract_x
_atom_site_fract_y
_atom_site_fract_z
Si Si1 0.216880 0.027952 0.758482
Si Si2 0.769670 0.027346 0.787589
Si Si3 0.400951 0.331965 0.150313
Si Si4 0.500000 0.500000 0.500000
Si Si5 0.175071 0.268513 0.866633
Si Si6 0.281416 0.675244 0.388720
Si Si7 0.547538 0.046772 0.210475
O O1 0.130104 0.057240 0.742861
O O2 0.476239 0.183679 0.699558
O O3 0.163393 0.783174 0.559436
O O4 0.212796 0.163705 0.025473
O O5 0.660653 0.761651 0.608771
O O6 0.682806 0.036499 0.742858
O O7 0.681188 0.107710 0.051400
O O8 0.018366 0.184008 0.789547
O O9 0.360414 0.413528 0.393221
O O10 0.587975 0.555990 0.179229
O O11 0.476508 0.174388 0.958859
O O12 0.160030 0.421291 0.148443
O O13 0.328979 0.743380 0.562979
#
# Coordination Sequence:
#
# PCOD9023591 Si02
#       7
#     2   2   2   1   2   2   2
#     4   9  19  36  60  95 121 154 194 246 300 362
#     4  10  23  40  58  87 121 158 205 242 300 354
#     4   9  19  38  61  86 119 157 200 234 301 357
#     4  10  22  40  56  78 122 168 186 236 304 360
#     4  11  22  37  62 100 117 147 205 263 283 348
#     4   9  18  37  63  84 123 161 192 238 309 350
#     4   9  20  41  60  80 120 171 193 232 305 377
#
# _framework density 25.286943999999998
#
# number of rings (size 3 to 8) (size 9 to 14) (size 15 to 20)
#    0.000    2.462    0.000    2.769    4.308    1.846 
#    8.308    6.923    0.000    0.000    0.000    0.000 
#    0.000    0.000    0.000    0.000    0.000    0.000 
#
# Total GULP energy -72424.833682 kJ/mol
# GULP energy per Si atom -5571.141052 kJ/mol
# Density = 2.522939 g / cm^3
# Si number density = 25.286944 Si / 1000 Ang^3
#
#
#
# Elastic Constant Matrix: (Units=GPa)
#
#
# Indices 1 2 3 4 5 6 
#
# 1 155.6326 40.2316 37.1324 10.9584 14.8865 -3.4357
# 2 40.2316 46.3690 21.5045 12.5201 10.8516 -0.5201
# 3 37.1324 21.5045 89.3206 7.9829 21.6418 -3.0129
# 4 10.9584 12.5201 7.9829 26.5003 -8.7808 18.1426
# 5 14.8865 10.8516 21.6418 -8.7808 36.0905 -2.7749
# 6 -3.4357 -0.5201 -3.0129 18.1426 -2.7749 32.1973
#
#
#
# Elastic Compliance Matrix: (Units=1/GPa)
#
#
# Indices 1 2 3 4 5 6 
#
# 1 0.008626 -0.006048 -0.001718 -0.001476 -0.000960 0.001411
# 2 -0.006048 0.040037 0.000711 -0.034692 -0.017015 0.018150
# 3 -0.001718 0.000711 0.016198 -0.014166 -0.012028 0.008289
# 4 -0.001476 -0.034692 -0.014166 0.117473 0.043155 -0.064518
# 5 -0.000960 -0.017015 -0.012028 0.043155 0.049273 -0.021573
# 6 0.001411 0.018150 0.008289 -0.064518 -0.021573 0.066774
#
#
# Mechanical properties :
#
#
# Convention : Reuss Voigt Hill
#
# Bulk Modulus (GPa) = 19.70427 54.33989 37.02208
# Shear Modulus (GPa) = 15.17869 31.78786 23.48328
#
# Velocity S-wave (km/s) = 2.45267 3.54939 3.05072
# Velocity P-wave (km/s) = 3.97869 6.19140 5.20401
#
# Compressibility (1/GPa) = 0.05075042
#
# Stress axis : x y z
#
# Youngs Moduli (GPa) = 115.93412 24.97678 61.73419
#
# Poissons Ratio (x) = 0.15107 0.10603
# Poissons Ratio (y) = 0.70122 -0.04387
# Poissons Ratio (z) = 0.19913 -0.01775
#
# Static dielectric constant tensor:
#      x y z
#    x 1.992130 0.029290 -0.025120 
#    y 0.029290 1.998970 -0.076880 
#    z -0.025120 -0.076880 2.042890 
# 
# From -- ./inp_files/193909.got.cif
#   From: 2010.05.17/outbox.cif.g08.bks.cpg/sg2_97_cif.got.tgz:193909.got - 2010.06.03 11:33:40.
