data_PCOD9023693
_publ_section_title
;
Structure prediction by ZEFSAII (Michael W. Deem and Ramdas Pophale) SiO2 
 PCOD9023693
Probable space group: P -1
;
_chemical_formula_sum "Si O2"
_cell_formula_units_Z 15
_cell_length_a 5.370312
_cell_length_b 23.409692
_cell_length_c 5.091926
_cell_angle_alpha 61.577718
_cell_angle_beta 97.317440
_cell_angle_gamma 80.845674
_cell_volume 540.393927
_symmetry_space_group_name_H-M "P -1"
_symmetry_group_IT_number 2
_symmetry_cell_setting 'triclinic'
loop_
_space_group_symop_operation_xyz
x,y,z
-x,-y,-z
loop_
_atom_site_type_symbol
_atom_site_label
_atom_site_fract_x
_atom_site_fract_y
_atom_site_fract_z
Si Si1 0.000000 0.000000 0.000000
Si Si2 0.983342 0.673135 0.230513
Si Si3 0.547552 0.388859 0.278254
Si Si4 0.781107 0.122901 0.805538
Si Si5 0.377376 0.062382 0.537122
Si Si6 0.944845 0.799360 0.724508
Si Si7 0.442751 0.248780 0.611288
Si Si8 0.764732 0.564500 0.332038
O O1 0.971840 0.058820 0.096944
O O2 0.186619 0.039524 0.766349
O O3 0.163471 0.619446 0.562880
O O4 0.747622 0.719868 0.251082
O O5 0.881495 0.626459 0.118726
O O6 0.116779 0.729217 0.016239
O O7 0.554039 0.310534 0.398481
O O8 0.362645 0.417004 0.440008
O O9 0.458839 0.434132 0.913635
O O10 0.628951 0.078419 0.698182
O O11 0.890300 0.170394 0.525115
O O12 0.629570 0.176943 0.870872
O O13 0.217318 0.137841 0.263832
O O14 0.500000 0.000000 0.500000
O O15 0.727078 0.774044 0.588111
O O16 0.000000 0.500000 0.500000
#
# Coordination Sequence:
#
# PCOD9023693 Si02
#       8
#     1   2   2   2   2   2   2   2
#     4  10  22  40  60  92 126 184 230 302 372 442
#     4  11  25  42  74 106 146 195 248 305 376 451
#     4  11  25  43  76 106 149 195 246 307 373 447
#     4  10  22  41  66  92 137 182 246 307 376 447
#     4  10  23  42  62  92 137 185 243 308 381 452
#     4  10  22  42  65  98 138 186 248 308 375 451
#     4  10  22  42  64 100 141 186 243 309 373 443
#     4  11  26  48  74 111 153 196 245 305 372 451
#
# _framework density 27.757527
#
# number of rings (size 3 to 8) (size 9 to 14) (size 15 to 20)
#    0.000    1.600    1.333    1.600    5.600    4.267 
#    9.600    0.000    0.000    0.000    0.000    0.000 
#    0.000    0.000    0.000    0.000    0.000    0.000 
#
# Total GULP energy -83753.417818 kJ/mol
# GULP energy per Si atom -5583.561188 kJ/mol
# Density = 2.769435 g / cm^3
# Si number density = 27.757527 Si / 1000 Ang^3
#
#
#
# Elastic Constant Matrix: (Units=GPa)
#
#
# Indices 1 2 3 4 5 6 
#
# 1 70.9254 28.5730 4.7483 0.1469 -5.8112 -6.4675
# 2 28.5730 179.2420 28.4910 -24.9895 1.3875 -26.4208
# 3 4.7483 28.4910 54.4383 -13.0424 22.2372 -12.0550
# 4 0.1469 -24.9895 -13.0424 39.6263 -8.8791 9.2466
# 5 -5.8112 1.3875 22.2372 -8.8791 42.1663 -4.9027
# 6 -6.4675 -26.4208 -12.0550 9.2466 -4.9027 58.9033
#
#
#
# Elastic Compliance Matrix: (Units=1/GPa)
#
#
# Indices 1 2 3 4 5 6 
#
# 1 0.015446 -0.002358 -0.001423 -0.001596 0.002716 0.000824
# 2 -0.002358 0.007218 -0.003135 0.003535 0.002062 0.001954
# 3 -0.001423 -0.003135 0.026879 0.003359 -0.013293 0.002305
# 4 -0.001596 0.003535 0.003359 0.029993 0.003943 -0.002282
# 5 0.002716 0.002062 -0.013293 0.003943 0.031925 0.000541
# 6 0.000824 0.001954 0.002305 -0.002282 0.000541 0.018819
#
#
# Mechanical properties :
#
#
# Convention : Reuss Voigt Hill
#
# Bulk Modulus (GPa) = 28.00192 47.58113 37.79152
# Shear Modulus (GPa) = 32.04824 44.32541 38.18683
#
# Velocity S-wave (km/s) = 3.40160 4.00043 3.71311
# Velocity P-wave (km/s) = 5.05349 6.20620 5.65927
#
# Compressibility (1/GPa) = 0.03571183
#
# Stress axis : x y z
#
# Youngs Moduli (GPa) = 64.74356 138.53933 37.20349
#
# Poissons Ratio (x) = 0.32671 0.05292
# Poissons Ratio (y) = 0.15268 0.11663
# Poissons Ratio (z) = 0.09210 0.43429
#
# Static dielectric constant tensor:
#      x y z
#    x 1.878720 0.187770 -0.286390 
#    y 0.187770 2.049150 0.158260 
#    z -0.286390 0.158260 1.854700 
# 
# From -- ./inp_files/12226.got.cif
#   From: 2010.05.17/outbox.cif.g08.bks.cpg/sg2_7_cif.got.tgz:12226.got - 2010.06.03 11:33:40.
