data_PCOD9023178
_publ_section_title
;
Structure prediction by ZEFSAII (Michael W. Deem and Ramdas Pophale) SiO2 
 PCOD9023178
Probable space group: P -1
;
_chemical_formula_sum "Si O2"
_cell_formula_units_Z 16
_cell_length_a 14.714390
_cell_length_b 5.042096
_cell_length_c 13.357232
_cell_angle_alpha 83.455429
_cell_angle_beta 49.530118
_cell_angle_gamma 60.793738
_cell_volume 626.632249
_symmetry_space_group_name_H-M "P -1"
_symmetry_group_IT_number 2
_symmetry_cell_setting 'triclinic'
loop_
_space_group_symop_operation_xyz
x,y,z
-x,-y,-z
loop_
_atom_site_type_symbol
_atom_site_label
_atom_site_fract_x
_atom_site_fract_y
_atom_site_fract_z
Si Si1 0.600991 0.872023 0.193529
Si Si2 0.957486 0.134666 0.861272
Si Si3 0.126597 0.369234 0.623950
Si Si4 0.551553 0.172188 0.529072
Si Si5 0.328224 0.472686 0.044935
Si Si6 0.122854 0.930435 0.490201
Si Si7 0.874817 0.447748 0.110347
Si Si8 0.593422 0.525538 0.797414
O O1 0.528120 0.719514 0.310771
O O2 0.728679 0.785794 0.181696
O O3 0.468482 0.226938 0.259132
O O4 0.657100 0.762638 0.044398
O O5 0.015730 0.355702 0.779377
O O6 0.831019 0.212558 0.871302
O O7 0.087906 0.773155 0.809527
O O8 0.877890 0.246537 0.020943
O O9 0.130039 0.675139 0.575868
O O10 0.281715 0.081218 0.561633
O O11 0.092656 0.242627 0.553627
O O12 0.500000 0.500000 0.500000
O O13 0.500000 0.000000 0.500000
O O14 0.355297 0.368963 0.145800
O O15 0.459501 0.507720 0.924845
O O16 0.268169 0.787487 0.330178
O O17 0.000000 0.000000 0.500000
O O18 0.000000 0.500000 0.000000
#
# Coordination Sequence:
#
# PCOD9023178 Si02
#       8
#     2   2   2   2   2   2   2   2
#     4  11  23  42  67  97 142 174 241 291 355 430
#     4  10  23  42  66 102 141 182 244 292 362 433
#     4  12  26  48  73 105 149 191 244 305 362 444
#     4  12  27  44  72 105 142 195 241 296 365 429
#     4  10  23  43  69 103 134 187 236 299 368 424
#     4  12  27  48  75 107 145 194 242 304 370 440
#     4  10  22  39  66  97 135 186 229 300 354 414
#     4  11  23  44  71 101 139 183 239 300 363 439
#
# _framework density 25.533318000000001
#
# number of rings (size 3 to 8) (size 9 to 14) (size 15 to 20)
#    0.000    1.000    1.250    4.500    5.250    0.000 
#    9.000    0.000    0.000    0.000    0.000    0.000 
#    0.000    0.000    0.000    0.000    0.000    0.000 
#
# Total GULP energy -89447.840922 kJ/mol
# GULP energy per Si atom -5590.490058 kJ/mol
# Density = 2.547520 g / cm^3
# Si number density = 25.533318 Si / 1000 Ang^3
#
#
#
# Elastic Constant Matrix: (Units=GPa)
#
#
# Indices 1 2 3 4 5 6 
#
# 1 114.3049 22.6358 19.2790 4.5431 -12.7979 -28.3664
# 2 22.6358 95.9495 5.8186 -16.3795 -10.0264 -23.0321
# 3 19.2790 5.8186 96.0429 -14.0239 -3.9316 -19.0338
# 4 4.5431 -16.3795 -14.0239 31.5129 -3.5605 -10.9331
# 5 -12.7979 -10.0264 -3.9316 -3.5605 42.9273 12.5932
# 6 -28.3664 -23.0321 -19.0338 -10.9331 12.5932 51.9822
#
#
#
# Elastic Compliance Matrix: (Units=1/GPa)
#
#
# Indices 1 2 3 4 5 6 
#
# 1 0.010464 -0.001555 -0.001391 -0.001436 0.001372 0.003877
# 2 -0.001555 0.015267 0.003235 0.013065 0.001715 0.009432
# 3 -0.001391 0.003235 0.013624 0.010694 0.000166 0.007871
# 4 -0.001436 0.013065 0.010694 0.050321 0.002212 0.018969
# 5 0.001372 0.001715 0.000166 0.002212 0.025520 -0.004148
# 6 0.003877 0.009432 0.007871 0.018969 -0.004148 0.033409
#
#
# Mechanical properties :
#
#
# Convention : Reuss Voigt Hill
#
# Bulk Modulus (GPa) = 25.04377 44.64048 34.84213
# Shear Modulus (GPa) = 30.99057 42.52207 36.75632
#
# Velocity S-wave (km/s) = 3.48764 4.08530 3.79825
# Velocity P-wave (km/s) = 5.10370 6.30667 5.73681
#
# Compressibility (1/GPa) = 0.03993009
#
# Stress axis : x y z
#
# Youngs Moduli (GPa) = 95.56486 65.50222 73.40174
#
# Poissons Ratio (x) = 0.10188 0.10213
# Poissons Ratio (y) = 0.14863 -0.23742
# Poissons Ratio (z) = 0.13297 -0.21187
#
# Static dielectric constant tensor:
#      x y z
#    x 2.023780 0.033210 0.049820 
#    y 0.033210 2.010440 0.076050 
#    z 0.049820 0.076050 2.058290 
# 
# From -- ./inp_files/525685.got.cif
#   From: 2010.05.17/outbox.cif.g08.bks.cpg/sg2_263_cif.got.tgz:525685.got - 2010.06.03 11:33:40.
