data_PCOD9023305
_publ_section_title
;
Structure prediction by ZEFSAII (Michael W. Deem and Ramdas Pophale) SiO2 
 PCOD9023305
Probable space group: P -1
;
_chemical_formula_sum "Si O2"
_cell_formula_units_Z 14
_cell_length_a 12.735930
_cell_length_b 16.381102
_cell_length_c 9.613952
_cell_angle_alpha 53.247438
_cell_angle_beta 52.371726
_cell_angle_gamma 24.898326
_cell_volume 662.782981
_symmetry_space_group_name_H-M "P -1"
_symmetry_group_IT_number 2
_symmetry_cell_setting 'triclinic'
loop_
_space_group_symop_operation_xyz
x,y,z
-x,-y,-z
loop_
_atom_site_type_symbol
_atom_site_label
_atom_site_fract_x
_atom_site_fract_y
_atom_site_fract_z
Si Si1 0.880209 0.512002 0.210338
Si Si2 0.446516 0.438193 0.703563
Si Si3 0.853174 0.482303 0.567766
Si Si4 0.622067 0.851571 0.431374
Si Si5 0.432393 0.588718 0.816428
Si Si6 0.917383 0.989396 0.711557
Si Si7 0.408512 0.963969 0.197163
O O1 0.797959 0.460339 0.260420
O O2 0.987754 0.422870 0.370370
O O3 0.625216 0.737325 0.232146
O O4 0.000000 0.500000 0.000000
O O5 0.500000 0.500000 0.500000
O O6 0.419333 0.502738 0.810481
O O7 0.680743 0.205176 0.748117
O O8 0.696368 0.681607 0.554678
O O9 0.651904 0.524869 0.661144
O O10 0.086504 0.297929 0.668245
O O11 0.430674 0.980786 0.323133
O O12 0.500000 0.000000 0.500000
O O13 0.158040 0.822224 0.788098
O O14 0.500000 0.500000 0.000000
O O15 0.832425 0.934946 0.776609
O O16 0.000000 0.000000 0.500000
O O17 0.500000 0.000000 0.000000
#
# Coordination Sequence:
#
# PCOD9023305 Si02
#       7
#     2   2   2   2   2   2   2
#     4  10  22  39  67  98 128 171 222 275 327 395
#     4  11  22  43  69  99 132 180 232 270 333 414
#     4  10  23  45  61  98 139 165 229 276 323 415
#     4  10  23  41  68  91 131 180 208 272 351 387
#     4  12  27  43  69 100 139 181 220 283 346 391
#     4  11  23  44  72  96 132 178 229 276 330 407
#     4  10  24  40  62 100 130 159 228 276 319 402
#
# _framework density 21.123052999999999
#
# number of rings (size 3 to 8) (size 9 to 14) (size 15 to 20)
#    0.000    1.429    2.857    1.714    6.000    5.143 
#    2.571    0.000    0.000    0.000    0.000    0.000 
#    0.000    0.000    0.000    0.000    0.000    0.000 
#
# Total GULP energy -78072.699474 kJ/mol
# GULP energy per Si atom -5576.621391 kJ/mol
# Density = 2.107498 g / cm^3
# Si number density = 21.123053 Si / 1000 Ang^3
#
#
#
# Elastic Constant Matrix: (Units=GPa)
#
#
# Indices 1 2 3 4 5 6 
#
# 1 152.6087 27.2903 47.6786 -0.6481 -2.4321 9.0905
# 2 27.2903 96.7155 6.0055 -8.6919 12.2694 12.0327
# 3 47.6786 6.0055 97.6698 -4.9175 6.8263 0.8180
# 4 -0.6481 -8.6919 -4.9175 26.2355 -0.0796 10.2970
# 5 -2.4321 12.2694 6.8263 -0.0796 42.5701 4.7049
# 6 9.0905 12.0327 0.8180 10.2970 4.7049 49.6738
#
#
#
# Elastic Compliance Matrix: (Units=1/GPa)
#
#
# Indices 1 2 3 4 5 6 
#
# 1 0.008324 -0.002315 -0.004096 -0.000981 0.001894 -0.000871
# 2 -0.002315 0.012287 0.000920 0.005503 -0.003437 -0.003383
# 3 -0.004096 0.000920 0.012483 0.002522 -0.002500 0.000035
# 4 -0.000981 0.005503 0.002522 0.044440 -0.000822 -0.010329
# 5 0.001894 -0.003437 -0.002500 -0.000822 0.025175 -0.001687
# 6 -0.000871 -0.003383 0.000035 -0.010329 -0.001687 0.023411
#
#
# Mechanical properties :
#
#
# Convention : Reuss Voigt Hill
#
# Bulk Modulus (GPa) = 45.22113 56.54921 50.88517
# Shear Modulus (GPa) = 34.60898 41.43052 38.01975
#
# Velocity S-wave (km/s) = 4.05216 4.43356 4.24715
# Velocity P-wave (km/s) = 6.58394 7.28272 6.94213
#
# Compressibility (1/GPa) = 0.02211355
#
# Stress axis : x y z
#
# Youngs Moduli (GPa) = 120.13310 81.38609 80.11050
#
# Poissons Ratio (x) = 0.18837 0.32811
# Poissons Ratio (y) = 0.27805 -0.07370
# Poissons Ratio (z) = 0.49202 -0.07487
#
# Static dielectric constant tensor:
#      x y z
#    x 1.785880 -0.047010 0.025710 
#    y -0.047010 1.699460 0.083980 
#    z 0.025710 0.083980 1.682600 
# 
# From -- ./inp_files/269726.got.cif
#   From: 2010.05.17/outbox.cif.g08.bks.cpg/sg2_135_cif.got.tgz:269726.got - 2010.06.03 11:33:40.
