data_PCOD9023186
_publ_section_title
;
Structure prediction by ZEFSAII (Michael W. Deem and Ramdas Pophale) SiO2 
 PCOD9023186
Probable space group: P -1
;
_chemical_formula_sum "Si O2"
_cell_formula_units_Z 16
_cell_length_a 4.990380
_cell_length_b 25.960226
_cell_length_c 13.236334
_cell_angle_alpha 147.100550
_cell_angle_beta 103.412331
_cell_angle_gamma 99.298483
_cell_volume 668.945261
_symmetry_space_group_name_H-M "P -1"
_symmetry_group_IT_number 2
_symmetry_cell_setting 'triclinic'
loop_
_space_group_symop_operation_xyz
x,y,z
-x,-y,-z
loop_
_atom_site_type_symbol
_atom_site_label
_atom_site_fract_x
_atom_site_fract_y
_atom_site_fract_z
Si Si1 0.983160 0.381708 0.787274
Si Si2 0.842812 0.108644 0.903277
Si Si3 0.748383 0.331958 0.005138
Si Si4 0.455524 0.457280 0.140667
Si Si5 0.411476 0.292176 0.432957
Si Si6 0.698693 0.867488 0.190151
Si Si7 0.916535 0.076701 0.178022
Si Si8 0.620174 0.849861 0.494846
O O1 0.803427 0.337167 0.583706
O O2 0.673843 0.254048 0.617841
O O3 0.000000 0.500000 0.000000
O O4 0.344977 0.428149 0.961995
O O5 0.545642 0.123466 0.890821
O O6 0.057783 0.147754 0.880081
O O7 0.611873 0.957987 0.648842
O O8 0.162817 0.192599 0.155818
O O9 0.611984 0.259772 0.980101
O O10 0.412504 0.223119 0.723990
O O11 0.750846 0.446215 0.181676
O O12 0.097106 0.363253 0.030382
O O13 0.554171 0.588814 0.386363
O O14 0.154920 0.216856 0.384622
O O15 0.000000 0.000000 0.500000
O O16 0.986185 0.077834 0.301959
O O17 0.500000 0.000000 0.000000
O O18 0.000000 0.000000 0.000000
#
# Coordination Sequence:
#
# PCOD9023186 Si02
#       8
#     2   2   2   2   2   2   2   2
#     4   8  18  39  65  97 133 177 219 258 317 395
#     4  12  26  42  69 103 133 174 221 275 348 391
#     4  11  24  44  69  95 128 171 233 280 328 390
#     4  10  23  44  71  98 132 183 222 266 327 397
#     4  10  23  45  67 100 144 175 219 273 325 400
#     4  12  27  45  69 100 132 171 225 285 339 397
#     4  11  24  39  62  98 138 175 211 259 331 400
#     4  10  22  39  66  98 133 172 219 273 331 394
#
# _framework density 23.918251999999999
#
# number of rings (size 3 to 8) (size 9 to 14) (size 15 to 20)
#    0.000    1.500    2.500    1.125    5.250    5.000 
#    0.000   26.250    0.000    0.000    0.000    0.000 
#    0.000    0.000    0.000    0.000    0.000    0.000 
#
# Total GULP energy -89298.804551 kJ/mol
# GULP energy per Si atom -5581.175284 kJ/mol
# Density = 2.386381 g / cm^3
# Si number density = 23.918252 Si / 1000 Ang^3
#
#
#
# Elastic Constant Matrix: (Units=GPa)
#
#
# Indices 1 2 3 4 5 6 
#
# 1 77.7193 -1.5633 -4.4990 0.6740 -1.1631 -5.1263
# 2 -1.5633 104.8016 10.2204 28.0872 -9.4764 6.5541
# 3 -4.4990 10.2204 60.9122 7.9886 -3.7763 -3.8526
# 4 0.6740 28.0872 7.9886 41.3045 -3.6075 2.6348
# 5 -1.1631 -9.4764 -3.7763 -3.6075 20.2270 -3.0767
# 6 -5.1263 6.5541 -3.8526 2.6348 -3.0767 33.6231
#
#
#
# Elastic Compliance Matrix: (Units=1/GPa)
#
#
# Indices 1 2 3 4 5 6 
#
# 1 0.013118 0.000222 0.001240 -0.000634 0.001322 0.002269
# 2 0.000222 0.012127 -0.000864 -0.007644 0.003946 -0.001469
# 3 0.001240 -0.000864 0.017366 -0.002722 0.002852 0.002822
# 4 -0.000634 -0.007644 -0.002722 0.030114 0.001065 -0.001181
# 5 0.001322 0.003946 0.002852 0.001065 0.052771 0.004505
# 6 0.002269 -0.001469 0.002822 -0.001181 0.004505 0.031202
#
#
# Mechanical properties :
#
#
# Convention : Reuss Voigt Hill
#
# Bulk Modulus (GPa) = 22.82678 27.97216 25.39947
# Shear Modulus (GPa) = 29.39391 34.98258 32.18824
#
# Velocity S-wave (km/s) = 3.50942 3.82853 3.67244
# Velocity P-wave (km/s) = 5.09762 5.59141 5.35021
#
# Compressibility (1/GPa) = 0.04380820
#
# Stress axis : x y z
#
# Youngs Moduli (GPa) = 76.23074 82.46179 57.58388
#
# Poissons Ratio (x) = -0.01834 -0.07142
# Poissons Ratio (y) = -0.01695 0.04975
# Poissons Ratio (z) = -0.09455 0.07125
#
# Static dielectric constant tensor:
#      x y z
#    x 2.017070 0.045150 0.029410 
#    y 0.045150 1.974190 0.017170 
#    z 0.029410 0.017170 2.165570 
# 
# From -- ./inp_files/486163.got.cif
#   From: 2010.05.17/outbox.cif.g08.bks.cpg/sg2_244_cif.got.tgz:486163.got - 2010.06.03 11:33:40.
