data_PCOD9023668
_publ_section_title
;
Structure prediction by ZEFSAII (Michael W. Deem and Ramdas Pophale) SiO2 
 PCOD9023668
Probable space group: P -1
;
_chemical_formula_sum "Si O2"
_cell_formula_units_Z 16
_cell_length_a 12.871320
_cell_length_b 8.754690
_cell_length_c 18.381211
_cell_angle_alpha 49.992989
_cell_angle_beta 37.454705
_cell_angle_gamma 77.468691
_cell_volume 749.429724
_symmetry_space_group_name_H-M "P -1"
_symmetry_group_IT_number 2
_symmetry_cell_setting 'triclinic'
loop_
_space_group_symop_operation_xyz
x,y,z
-x,-y,-z
loop_
_atom_site_type_symbol
_atom_site_label
_atom_site_fract_x
_atom_site_fract_y
_atom_site_fract_z
Si Si1 0.573990 0.065128 0.855110
Si Si2 0.281547 0.263242 0.155185
Si Si3 0.212293 0.374582 0.487567
Si Si4 0.823160 0.020411 0.481400
Si Si5 0.674693 0.563684 0.204027
Si Si6 0.081758 0.493796 0.788912
Si Si7 0.111212 0.862725 0.128636
Si Si8 0.654627 0.381020 0.111054
O O1 0.719518 0.367179 0.666127
O O2 0.700916 0.959521 0.794639
O O3 0.500000 0.000000 0.000000
O O4 0.343671 0.917672 0.984974
O O5 0.058104 0.180452 0.341831
O O6 0.500000 0.500000 0.000000
O O7 0.283611 0.370893 0.041787
O O8 0.428568 0.463119 0.384988
O O9 0.007322 0.239075 0.696601
O O10 0.177572 0.179208 0.506206
O O11 0.824843 0.220121 0.370491
O O12 0.593868 0.854581 0.702000
O O13 0.771918 0.510818 0.232278
O O14 0.660500 0.424961 0.180320
O O15 0.827997 0.865962 0.008318
O O16 0.048421 0.346992 0.778612
O O17 0.836579 0.352716 0.999144
#
# Coordination Sequence:
#
# PCOD9023668 Si02
#       8
#     2   2   2   2   2   2   2   2
#     4  11  22  39  63  88 118 160 204 244 297 356
#     4  11  23  39  59  87 121 155 193 243 304 360
#     4  10  23  40  61  90 121 157 202 248 292 355
#     4  10  22  40  60  87 119 152 202 248 290 357
#     4  10  22  41  63  86 118 161 204 246 298 357
#     4  11  23  38  62  91 120 159 198 247 309 355
#     4  11  23  39  58  88 126 154 196 254 300 357
#     4  10  22  41  61  86 119 155 202 252 292 353
#
# _framework density 21.349567
#
# number of rings (size 3 to 8) (size 9 to 14) (size 15 to 20)
#    0.000    1.500    0.000    6.750    0.000   10.000 
#    0.000    0.000    0.000    0.000    0.000    0.000 
#    0.000    0.000    0.000    0.000    0.000    0.000 
#
# Total GULP energy -89490.197543 kJ/mol
# GULP energy per Si atom -5593.137346 kJ/mol
# Density = 2.130097 g / cm^3
# Si number density = 21.349567 Si / 1000 Ang^3
#
#
#
# Elastic Constant Matrix: (Units=GPa)
#
#
# Indices 1 2 3 4 5 6 
#
# 1 93.1915 16.3995 16.4111 -12.2628 -3.9911 -15.8456
# 2 16.3995 40.9935 10.2909 -8.4618 -6.5237 -12.0182
# 3 16.4111 10.2909 105.2530 -6.5589 -7.9694 -25.4053
# 4 -12.2628 -8.4618 -6.5589 31.3154 -0.1302 -1.6278
# 5 -3.9911 -6.5237 -7.9694 -0.1302 25.2893 -0.5690
# 6 -15.8456 -12.0182 -25.4053 -1.6278 -0.5690 35.8960
#
#
#
# Elastic Compliance Matrix: (Units=1/GPa)
#
#
# Indices 1 2 3 4 5 6 
#
# 1 0.012678 -0.002427 -0.000165 0.004535 0.001456 0.004896
# 2 -0.002427 0.031254 0.001033 0.008298 0.008287 0.010632
# 3 -0.000165 0.001033 0.012146 0.003249 0.004289 0.009084
# 4 0.004535 0.008298 0.003249 0.037108 0.004270 0.008830
# 5 0.001456 0.008287 0.004289 0.004270 0.043448 0.007335
# 6 0.004896 0.010632 0.009084 0.008830 0.007335 0.040525
#
#
# Mechanical properties :
#
#
# Convention : Reuss Voigt Hill
#
# Bulk Modulus (GPa) = 18.88200 36.18232 27.53216
# Shear Modulus (GPa) = 25.26126 31.58926 28.42526
#
# Velocity S-wave (km/s) = 3.44353 3.85076 3.65282
# Velocity P-wave (km/s) = 4.96729 6.06263 5.54208
#
# Compressibility (1/GPa) = 0.05296048
#
# Stress axis : x y z
#
# Youngs Moduli (GPa) = 78.87462 31.99549 82.33480
#
# Poissons Ratio (x) = 0.07767 0.01358
# Poissons Ratio (y) = 0.19146 -0.08509
# Poissons Ratio (z) = 0.01301 -0.03306
#
# Static dielectric constant tensor:
#      x y z
#    x 1.766610 0.017140 -0.029340 
#    y 0.017140 1.742740 -0.002210 
#    z -0.029340 -0.002210 1.790810 
# 
# From -- ./inp_files/279861.got.cif
#   From: 2010.05.17/outbox.cif.g08.bks.cpg/sg2_140_cif.got.tgz:279861.got - 2010.06.03 11:33:40.
