data_PCOD9023709
_publ_section_title
;
Structure prediction by ZEFSAII (Michael W. Deem and Ramdas Pophale) SiO2 
 PCOD9023709
Probable space group: P -1
;
_chemical_formula_sum "Si O2"
_cell_formula_units_Z 16
_cell_length_a 11.636955
_cell_length_b 14.060924
_cell_length_c 9.300992
_cell_angle_alpha 110.442540
_cell_angle_beta 51.553647
_cell_angle_gamma 140.171951
_cell_volume 738.043362
_symmetry_space_group_name_H-M "P -1"
_symmetry_group_IT_number 2
_symmetry_cell_setting 'triclinic'
loop_
_space_group_symop_operation_xyz
x,y,z
-x,-y,-z
loop_
_atom_site_type_symbol
_atom_site_label
_atom_site_fract_x
_atom_site_fract_y
_atom_site_fract_z
Si Si1 0.632380 0.715087 0.448872
Si Si2 0.921996 0.847626 0.016811
Si Si3 0.760755 0.924448 0.689304
Si Si4 0.325997 0.417765 0.397072
Si Si5 0.641669 0.973134 0.360437
Si Si6 0.746707 0.334912 0.653997
Si Si7 0.178151 0.854277 0.404108
Si Si8 0.428755 0.313768 0.043035
O O1 0.604183 0.794627 0.618809
O O2 0.416276 0.573244 0.451789
O O3 0.683218 0.651215 0.486577
O O4 0.825478 0.807370 0.229793
O O5 0.731733 0.730504 0.983118
O O6 0.152625 0.907195 0.846770
O O7 0.000000 0.000000 0.000000
O O8 0.690929 0.837089 0.847889
O O9 0.765076 0.048276 0.729750
O O10 0.000000 0.000000 0.500000
O O11 0.472972 0.429118 0.178496
O O12 0.083768 0.293879 0.457568
O O13 0.459588 0.793260 0.366636
O O14 0.500000 0.000000 0.500000
O O15 0.757476 0.035061 0.458473
O O16 0.742140 0.221211 0.678439
O O17 0.000000 0.500000 0.500000
O O18 0.649342 0.376694 0.844581
#
# Coordination Sequence:
#
# PCOD9023709 Si02
#       8
#     2   2   2   2   2   2   2   2
#     4  10  23  37  63 101 135 164 212 280 327 389
#     4  12  21  35  67  97 122 170 223 269 331 378
#     4  11  20  40  68  97 129 164 221 280 325 387
#     4  10  22  41  64  97 132 170 217 266 336 395
#     4  10  22  40  60  95 132 167 221 272 326 388
#     4  11  27  43  62  95 143 176 216 276 334 393
#     4  11  22  40  68  94 128 179 218 267 336 393
#     4  11  23  40  65  97 133 171 225 272 323 394
#
# _framework density 21.678943
#
# number of rings (size 3 to 8) (size 9 to 14) (size 15 to 20)
#    0.000    1.250    5.000    1.500    1.750    3.000 
#    0.000    1.250    0.000    7.500    0.000    0.000 
#    0.000    0.000    0.000    0.000    0.000    0.000 
#
# Total GULP energy -89136.459929 kJ/mol
# GULP energy per Si atom -5571.028746 kJ/mol
# Density = 2.162960 g / cm^3
# Si number density = 21.678943 Si / 1000 Ang^3
#
#
#
# Elastic Constant Matrix: (Units=GPa)
#
#
# Indices 1 2 3 4 5 6 
#
# 1 75.3388 43.0923 37.3537 -5.0944 -1.9991 -5.3299
# 2 43.0923 95.9844 26.0416 -7.3502 5.6457 6.5335
# 3 37.3537 26.0416 120.0472 -12.8848 -2.0879 8.5256
# 4 -5.0944 -7.3502 -12.8848 32.4556 2.3638 1.3054
# 5 -1.9991 5.6457 -2.0879 2.3638 29.7975 -0.8040
# 6 -5.3299 6.5335 8.5256 1.3054 -0.8040 39.8310
#
#
#
# Elastic Compliance Matrix: (Units=1/GPa)
#
#
# Indices 1 2 3 4 5 6 
#
# 1 0.021240 -0.008769 -0.005167 -0.001140 0.002963 0.005484
# 2 -0.008769 0.015037 -0.000070 0.002425 -0.003737 -0.003780
# 3 -0.005167 -0.000070 0.010544 0.003478 0.000047 -0.003050
# 4 -0.001140 0.002425 0.003478 0.032876 -0.002966 -0.002432
# 5 0.002963 -0.003737 0.000047 -0.002966 0.034754 0.001798
# 6 0.005484 -0.003780 -0.003050 -0.002432 0.001798 0.027229
#
#
# Mechanical properties :
#
#
# Convention : Reuss Voigt Hill
#
# Bulk Modulus (GPa) = 53.16393 56.03841 54.60117
# Shear Modulus (GPa) = 28.41541 32.74234 30.57888
#
# Velocity S-wave (km/s) = 3.62434 3.89051 3.75978
# Velocity P-wave (km/s) = 6.48776 6.78873 6.63995
#
# Compressibility (1/GPa) = 0.01880974
#
# Stress axis : x y z
#
# Youngs Moduli (GPa) = 47.08014 66.50345 94.84324
#
# Poissons Ratio (x) = 0.58315 0.49007
# Poissons Ratio (y) = 0.41284 0.00660
# Poissons Ratio (z) = 0.24327 0.00463
#
# Static dielectric constant tensor:
#      x y z
#    x 1.891520 0.000140 0.058960 
#    y 0.000140 1.891190 0.044220 
#    z 0.058960 0.044220 1.703540 
# 
# From -- ./inp_files/273582.got.cif
#   From: 2010.05.17/outbox.cif.g08.bks.cpg/sg2_137_cif.got.tgz:273582.got - 2010.06.03 11:33:40.
