data_PCOD9023742
_publ_section_title
;
Structure prediction by ZEFSAII (Michael W. Deem and Ramdas Pophale) SiO2 
 PCOD9023742
Probable space group: P -1
;
_chemical_formula_sum "Si O2"
_cell_formula_units_Z 16
_cell_length_a 8.516572
_cell_length_b 8.049589
_cell_length_c 28.018281
_cell_angle_alpha 30.719851
_cell_angle_beta 50.401542
_cell_angle_gamma 53.551744
_cell_volume 750.846880
_symmetry_space_group_name_H-M "P -1"
_symmetry_group_IT_number 2
_symmetry_cell_setting 'triclinic'
loop_
_space_group_symop_operation_xyz
x,y,z
-x,-y,-z
loop_
_atom_site_type_symbol
_atom_site_label
_atom_site_fract_x
_atom_site_fract_y
_atom_site_fract_z
Si Si1 0.375608 0.037640 0.231866
Si Si2 0.149582 0.842900 0.550940
Si Si3 0.524474 0.876631 0.912446
Si Si4 0.941258 0.845376 0.901035
Si Si5 0.546069 0.864358 0.418688
Si Si6 0.680416 0.175758 0.946140
Si Si7 0.957963 0.865635 0.398287
Si Si8 0.691426 0.898940 0.285687
O O1 0.454871 0.948565 0.185183
O O2 0.374850 0.432057 0.139691
O O3 0.527272 0.861923 0.285272
O O4 0.148260 0.956645 0.307771
O O5 0.363966 0.976687 0.462720
O O6 0.188803 0.450928 0.636618
O O7 0.075179 0.923095 0.599075
O O8 0.000000 0.000000 0.500000
O O9 0.739280 0.875588 0.899419
O O10 0.500000 0.500000 0.000000
O O11 0.331689 0.970930 0.961830
O O12 0.882004 0.091168 0.896099
O O13 0.136328 0.903774 0.817747
O O14 0.000000 0.500000 0.000000
O O15 0.500000 0.500000 0.500000
O O16 0.756316 0.876115 0.402706
O O17 0.567790 0.048719 0.318844
O O18 0.500000 0.000000 0.000000
O O19 0.000000 0.500000 0.500000
#
# Coordination Sequence:
#
# PCOD9023742 Si02
#       8
#     2   2   2   2   2   2   2   2
#     4  11  22  40  63  91 124 163 211 263 315 376
#     4  11  23  42  65  92 125 164 206 262 323 380
#     4   9  19  37  58  84 118 159 206 259 311 365
#     4  11  21  37  61  91 124 164 207 254 312 380
#     4  10  22  40  61  88 120 159 209 259 311 373
#     4   9  19  38  62  87 120 163 204 253 312 365
#     4  12  23  40  63  90 123 164 207 260 316 376
#     4  11  22  40  62  91 124 162 209 262 317 381
#
# _framework density 21.309272
#
# number of rings (size 3 to 8) (size 9 to 14) (size 15 to 20)
#    0.000    1.500    0.000    7.875    0.000    0.000 
#    0.000   13.125    0.000    0.000    0.000    0.000 
#    0.000    0.000    0.000    0.000    0.000    0.000 
#
# Total GULP energy -89295.830306 kJ/mol
# GULP energy per Si atom -5580.989394 kJ/mol
# Density = 2.126077 g / cm^3
# Si number density = 21.309272 Si / 1000 Ang^3
#
#
#
# Elastic Constant Matrix: (Units=GPa)
#
#
# Indices 1 2 3 4 5 6 
#
# 1 108.3108 -14.1061 30.3057 13.6875 11.0386 -10.3880
# 2 -14.1061 31.4474 16.9496 18.8716 5.3467 10.3341
# 3 30.3057 16.9496 124.9090 34.3080 1.5719 -5.9707
# 4 13.6875 18.8716 34.3080 49.8645 -1.5359 5.2729
# 5 11.0386 5.3467 1.5719 -1.5359 45.7943 7.5802
# 6 -10.3880 10.3341 -5.9707 5.2729 7.5802 29.1251
#
#
#
# Elastic Compliance Matrix: (Units=1/GPa)
#
#
# Indices 1 2 3 4 5 6 
#
# 1 0.012993 0.011086 -0.002740 -0.006302 -0.004969 0.002573
# 2 0.011086 0.056735 -0.005408 -0.019803 -0.007845 -0.011658
# 3 -0.002740 -0.005408 0.011039 -0.005232 0.000053 0.004138
# 4 -0.006302 -0.019803 -0.005232 0.033464 0.005771 -0.003854
# 5 -0.004969 -0.007845 0.000053 0.005771 0.025233 -0.006590
# 6 0.002573 -0.011658 0.004138 -0.003854 -0.006590 0.042650
#
#
# Mechanical properties :
#
#
# Convention : Reuss Voigt Hill
#
# Bulk Modulus (GPa) = 11.54159 36.77395 24.15777
# Shear Modulus (GPa) = 24.37607 40.39133 32.38370
#
# Velocity S-wave (km/s) = 3.38586 4.35844 3.90256
# Velocity P-wave (km/s) = 4.55119 6.52860 5.62743
#
# Compressibility (1/GPa) = 0.08664320
#
# Stress axis : x y z
#
# Youngs Moduli (GPa) = 76.96511 17.62567 90.59063
#
# Poissons Ratio (x) = -0.19540 0.24824
# Poissons Ratio (y) = -0.85325 0.48990
# Poissons Ratio (z) = 0.21091 0.09532
#
# Static dielectric constant tensor:
#      x y z
#    x 1.546990 -0.120990 0.000510 
#    y -0.120990 1.741270 0.043610 
#    z 0.000510 0.043610 1.781400 
# 
# From -- ./inp_files/616582.got.cif
#   From: 2010.05.17/outbox.cif.g08.bks.cpg/sg2_309_cif.got.tgz:616582.got - 2010.06.03 11:33:40.
