data_PCOD9023136
_publ_section_title
;
Structure prediction by ZEFSAII (Michael W. Deem and Ramdas Pophale) SiO2 
 PCOD9023136
Probable space group: P -1
;
_chemical_formula_sum "Si O2"
_cell_formula_units_Z 16
_cell_length_a 16.189113
_cell_length_b 6.147679
_cell_length_c 12.998606
_cell_angle_alpha 86.987225
_cell_angle_beta 31.588889
_cell_angle_gamma 90.336530
_cell_volume 673.547141
_symmetry_space_group_name_H-M "P -1"
_symmetry_group_IT_number 2
_symmetry_cell_setting 'triclinic'
loop_
_space_group_symop_operation_xyz
x,y,z
-x,-y,-z
loop_
_atom_site_type_symbol
_atom_site_label
_atom_site_fract_x
_atom_site_fract_y
_atom_site_fract_z
Si Si1 0.427338 0.760645 0.839827
Si Si2 0.881478 0.485094 0.472544
Si Si3 0.665854 0.104201 0.610987
Si Si4 0.121115 0.211652 0.342918
Si Si5 0.608151 0.694415 0.436424
Si Si6 0.890508 0.802247 0.261313
Si Si7 0.345067 0.283227 0.940057
Si Si8 0.774719 0.967967 0.091113
O O1 0.522156 0.728777 0.633933
O O2 0.368370 0.527956 0.950023
O O3 0.555306 0.892621 0.774016
O O4 0.285129 0.883581 0.941025
O O5 0.753968 0.280277 0.587893
O O6 0.834917 0.653706 0.604401
O O7 0.909330 0.630323 0.337138
O O8 0.030316 0.372937 0.362260
O O9 0.518487 0.225635 0.718068
O O10 0.792470 0.999965 0.405491
O O11 0.269719 0.150313 0.120587
O O12 0.000000 0.000000 0.500000
O O13 0.500000 0.500000 0.500000
O O14 0.788348 0.670026 0.284156
O O15 0.647652 0.905527 0.316100
O O16 0.061089 0.918007 0.046463
O O17 0.228099 0.256694 0.966273
#
# Coordination Sequence:
#
# PCOD9023136 Si02
#       8
#     2   2   2   2   2   2   2   2
#     4  10  22  40  66  94 135 175 222 272 333 394
#     4  11  23  43  68  95 135 173 217 279 335 391
#     4  10  22  39  66  94 130 175 214 271 329 391
#     4  11  25  44  69  98 131 171 221 280 335 400
#     4  11  22  42  67  95 140 179 221 275 330 395
#     4  11  24  43  67  99 139 173 228 274 332 394
#     4  11  22  41  68  96 131 176 222 269 337 397
#     4  11  22  39  66  98 133 180 222 274 332 390
#
# _framework density 23.754835
#
# number of rings (size 3 to 8) (size 9 to 14) (size 15 to 20)
#    0.000    1.250    1.250    5.250    1.750    3.500 
#    0.000    3.750    0.000    0.000    0.000    0.000 
#    0.000    0.000    0.000    0.000    0.000    0.000 
#
# Total GULP energy -89226.175958 kJ/mol
# GULP energy per Si atom -5576.635997 kJ/mol
# Density = 2.370077 g / cm^3
# Si number density = 23.754835 Si / 1000 Ang^3
#
#
#
# Elastic Constant Matrix: (Units=GPa)
#
#
# Indices 1 2 3 4 5 6 
#
# 1 101.6909 37.1674 34.9966 -21.5714 -26.8170 19.4174
# 2 37.1674 87.2055 50.8021 -23.9418 -11.4301 15.8699
# 3 34.9966 50.8021 131.6362 -26.4229 -19.1118 15.5581
# 4 -21.5714 -23.9418 -26.4229 36.1841 7.5816 -11.6982
# 5 -26.8170 -11.4301 -19.1118 7.5816 39.1393 -15.5930
# 6 19.4174 15.8699 15.5581 -11.6982 -15.5930 50.2710
#
#
#
# Elastic Compliance Matrix: (Units=1/GPa)
#
#
# Indices 1 2 3 4 5 6 
#
# 1 0.014265 -0.003599 -0.000424 0.003936 0.007334 -0.001051
# 2 -0.003599 0.017391 -0.004606 0.005723 -0.001460 -0.001796
# 3 -0.000424 -0.004606 0.010679 0.003936 0.002863 0.000117
# 4 0.003936 0.005723 0.003936 0.037949 0.000738 0.004514
# 5 0.007334 -0.001460 0.002863 0.000738 0.034429 0.007593
# 6 -0.001051 -0.001796 0.000117 0.004514 0.007593 0.024235
#
#
# Mechanical properties :
#
#
# Convention : Reuss Voigt Hill
#
# Bulk Modulus (GPa) = 39.87820 62.94054 51.40937
# Shear Modulus (GPa) = 30.38319 38.28997 34.33658
#
# Velocity S-wave (km/s) = 3.58024 4.01918 3.80604
# Velocity P-wave (km/s) = 5.82363 6.93483 6.40338
#
# Compressibility (1/GPa) = 0.02507636
#
# Stress axis : x y z
#
# Youngs Moduli (GPa) = 70.10078 57.50081 93.64369
#
# Poissons Ratio (x) = 0.20697 0.03972
# Poissons Ratio (y) = 0.25232 0.43130
# Poissons Ratio (z) = 0.02973 0.26483
#
# Static dielectric constant tensor:
#      x y z
#    x 1.934990 -0.003240 -0.024680 
#    y -0.003240 2.076890 0.029890 
#    z -0.024680 0.029890 1.915690 
# 
# From -- ./inp_files/536311.got.cif
#   From: 2010.05.17/outbox.cif.g08.bks.cpg/sg2_269_cif.got.tgz:536311.got - 2010.06.03 11:33:40.
