data_PCOD9023995
_publ_section_title
;
Structure prediction by ZEFSAII (Michael W. Deem and Ramdas Pophale) SiO2 
 PCOD9023995
Probable space group: P -1
;
_chemical_formula_sum "Si O2"
_cell_formula_units_Z 14
_cell_length_a 15.296140
_cell_length_b 15.430013
_cell_length_c 6.201550
_cell_angle_alpha 109.407951
_cell_angle_beta 97.976973
_cell_angle_gamma 26.307466
_cell_volume 565.776629
_symmetry_space_group_name_H-M "P -1"
_symmetry_group_IT_number 2
_symmetry_cell_setting 'triclinic'
loop_
_space_group_symop_operation_xyz
x,y,z
-x,-y,-z
loop_
_atom_site_type_symbol
_atom_site_label
_atom_site_fract_x
_atom_site_fract_y
_atom_site_fract_z
Si Si1 0.544819 0.385527 0.113436
Si Si2 0.240996 0.345475 0.100536
Si Si3 0.021217 0.685816 0.633748
Si Si4 0.854350 0.938449 0.404728
Si Si5 0.206117 0.818194 0.578398
Si Si6 0.279660 0.480781 0.930579
Si Si7 0.287856 0.094468 0.916603
O O1 0.360168 0.587948 0.387463
O O2 0.764532 0.193193 0.162161
O O3 0.500000 0.500000 0.000000
O O4 0.483815 0.342708 0.969734
O O5 0.079845 0.548121 0.376759
O O6 0.200827 0.277393 0.977267
O O7 0.267004 0.390215 0.946969
O O8 0.468669 0.129360 0.118158
O O9 0.232155 0.518115 0.693645
O O10 0.932339 0.854888 0.605539
O O11 0.851035 0.811513 0.852862
O O12 0.720526 0.152717 0.466585
O O13 0.734100 0.958793 0.322844
O O14 0.070513 0.731003 0.162359
O O15 0.000000 0.000000 0.500000
#
# Coordination Sequence:
#
# PCOD9023995 Si02
#       7
#     2   2   2   2   2   2   2
#     4  11  26  41  67 100 129 170 221 273 329 396
#     4  10  22  40  64  89 132 168 214 276 320 393
#     4  10  23  38  65  91 129 173 214 265 331 390
#     4  10  22  41  65  91 130 168 212 271 325 391
#     4  11  24  44  67  91 131 172 215 271 331 391
#     4  10  22  41  61  94 131 165 215 268 328 390
#     4  10  22  40  62  95 125 170 220 265 330 388
#
# _framework density 24.744748999999999
#
# number of rings (size 3 to 8) (size 9 to 14) (size 15 to 20)
#    0.000    1.714    1.429    1.286    2.000   13.714 
#    0.000    2.857    0.000    0.000    0.000    0.000 
#    0.000    0.000    0.000    0.000    0.000    0.000 
#
# Total GULP energy -78256.316682 kJ/mol
# GULP energy per Si atom -5589.736906 kJ/mol
# Density = 2.468843 g / cm^3
# Si number density = 24.744749 Si / 1000 Ang^3
#
#
#
# Elastic Constant Matrix: (Units=GPa)
#
#
# Indices 1 2 3 4 5 6 
#
# 1 99.0020 21.1713 34.2554 -22.9434 20.3967 10.8838
# 2 21.1713 104.2855 26.6081 -18.9218 4.5258 15.9289
# 3 34.2554 26.6081 53.8346 -26.0651 14.5704 7.6880
# 4 -22.9434 -18.9218 -26.0651 54.2976 -5.4995 -3.3774
# 5 20.3967 4.5258 14.5704 -5.4995 35.4765 -4.1821
# 6 10.8838 15.9289 7.6880 -3.3774 -4.1821 44.8540
#
#
#
# Elastic Compliance Matrix: (Units=1/GPa)
#
#
# Indices 1 2 3 4 5 6 
#
# 1 0.014191 -0.000313 -0.005813 0.002354 -0.005684 -0.002688
# 2 -0.000313 0.011521 -0.004366 0.001633 0.000390 -0.003108
# 3 -0.005813 -0.004366 0.031967 0.010413 -0.007907 -0.002471
# 4 0.002354 0.001633 0.010413 0.024681 -0.002163 -0.001279
# 5 -0.005684 0.000390 -0.007907 -0.002163 0.034989 0.005695
# 6 -0.002688 -0.003108 -0.002471 -0.001279 0.005695 0.024909
#
#
# Mechanical properties :
#
#
# Convention : Reuss Voigt Hill
#
# Bulk Modulus (GPa) = 27.25293 46.79908 37.02601
# Shear Modulus (GPa) = 28.49424 38.59809 33.54617
#
# Velocity S-wave (km/s) = 3.39710 3.95378 3.68596
# Velocity P-wave (km/s) = 5.14048 6.30848 5.75419
#
# Compressibility (1/GPa) = 0.03669330
#
# Stress axis : x y z
#
# Youngs Moduli (GPa) = 70.46604 86.80072 31.28221
#
# Poissons Ratio (x) = 0.02720 0.18185
# Poissons Ratio (y) = 0.02208 0.13658
# Poissons Ratio (z) = 0.40964 0.37899
#
# Static dielectric constant tensor:
#      x y z
#    x 1.979950 -0.036920 0.022940 
#    y -0.036920 2.009540 0.016610 
#    z 0.022940 0.016610 1.999160 
# 
# From -- ./inp_files/51929.got.cif
#   From: 2010.05.17/outbox.cif.g08.bks.cpg/sg2_26_cif.got.tgz:51929.got - 2010.06.03 11:33:40.
