data_PCOD9023575
_publ_section_title
;
Structure prediction by ZEFSAII (Michael W. Deem and Ramdas Pophale) SiO2 
 PCOD9023575
Probable space group: P -1
;
_chemical_formula_sum "Si O2"
_cell_formula_units_Z 16
_cell_length_a 7.186158
_cell_length_b 14.581012
_cell_length_c 15.448495
_cell_angle_alpha 44.855092
_cell_angle_beta 81.655596
_cell_angle_gamma 50.837342
_cell_volume 737.405823
_symmetry_space_group_name_H-M "P -1"
_symmetry_group_IT_number 2
_symmetry_cell_setting 'triclinic'
loop_
_space_group_symop_operation_xyz
x,y,z
-x,-y,-z
loop_
_atom_site_type_symbol
_atom_site_label
_atom_site_fract_x
_atom_site_fract_y
_atom_site_fract_z
Si Si1 0.257634 0.298301 0.166357
Si Si2 0.225644 0.505809 0.329056
Si Si3 0.693813 0.927384 0.257832
Si Si4 0.728233 0.397950 0.453852
Si Si5 0.377043 0.267613 0.715631
Si Si6 0.014338 0.220888 0.371761
Si Si7 0.168635 0.046674 0.960043
Si Si8 0.423615 0.760297 0.674151
O O1 0.423430 0.324424 0.188311
O O2 0.143978 0.259244 0.273769
O O3 0.467188 0.114764 0.209548
O O4 0.000000 0.500000 0.000000
O O5 0.487186 0.417632 0.431203
O O6 0.358868 0.352746 0.345427
O O7 0.963582 0.570829 0.349832
O O8 0.064042 0.718899 0.160256
O O9 0.588951 0.834872 0.305044
O O10 0.716985 0.981082 0.125588
O O11 0.007371 0.771642 0.386254
O O12 0.569358 0.607490 0.362826
O O13 0.878548 0.348581 0.383594
O O14 0.576529 0.098782 0.889655
O O15 0.771226 0.263281 0.312100
O O16 0.245128 0.988045 0.534982
O O17 0.000000 0.000000 0.000000
#
# Coordination Sequence:
#
# PCOD9023575 Si02
#       8
#     2   2   2   2   2   2   2   2
#     4  12  27  42  67 101 138 177 219 279 330 400
#     4  10  22  39  73  94 125 174 224 263 329 394
#     4  11  26  43  64 101 135 165 231 274 323 399
#     4  11  22  44  68  99 130 171 222 277 325 388
#     4  11  24  43  68  94 132 173 216 270 339 387
#     4  10  23  45  69  97 135 178 221 270 339 389
#     4  11  24  47  67  94 135 181 213 275 337 396
#     4  10  22  43  71  95 130 179 224 269 329 399
#
# _framework density 21.697686000000001
#
# number of rings (size 3 to 8) (size 9 to 14) (size 15 to 20)
#    0.000    1.250    2.500    3.000    7.000    2.500 
#    4.500    0.000    0.000    0.000    0.000    0.000 
#    0.000    0.000    0.000    0.000    0.000    0.000 
#
# Total GULP energy -89491.665256 kJ/mol
# GULP energy per Si atom -5593.229078 kJ/mol
# Density = 2.164830 g / cm^3
# Si number density = 21.697686 Si / 1000 Ang^3
#
#
#
# Elastic Constant Matrix: (Units=GPa)
#
#
# Indices 1 2 3 4 5 6 
#
# 1 91.8724 35.4660 37.2228 11.4024 24.2425 14.2206
# 2 35.4660 132.6307 45.8600 7.0453 23.7670 16.0838
# 3 37.2228 45.8600 115.2621 11.8656 44.5215 15.9156
# 4 11.4024 7.0453 11.8656 21.4021 6.4793 3.6605
# 5 24.2425 23.7670 44.5215 6.4793 42.1268 5.6609
# 6 14.2206 16.0838 15.9156 3.6605 5.6609 34.9695
#
#
#
# Elastic Compliance Matrix: (Units=1/GPa)
#
#
# Indices 1 2 3 4 5 6 
#
# 1 0.014430 -0.001980 -0.001061 -0.004398 -0.004957 -0.003211
# 2 -0.001980 0.009374 -0.002186 0.000035 -0.001539 -0.002266
# 3 -0.001061 -0.002186 0.016192 -0.002767 -0.014398 -0.003312
# 4 -0.004398 0.000035 -0.002767 0.051609 -0.002233 -0.002009
# 5 -0.004957 -0.001539 -0.014398 -0.002233 0.042669 0.002603
# 6 -0.003211 -0.002266 -0.003312 -0.002009 0.002603 0.032241
#
#
# Mechanical properties :
#
#
# Convention : Reuss Voigt Hill
#
# Bulk Modulus (GPa) = 33.85210 64.09588 48.97399
# Shear Modulus (GPa) = 26.76414 34.44741 30.60578
#
# Velocity S-wave (km/s) = 3.51594 3.98880 3.75981
# Velocity P-wave (km/s) = 5.66727 7.12872 6.43959
#
# Compressibility (1/GPa) = 0.02954027
#
# Stress axis : x y z
#
# Youngs Moduli (GPa) = 69.29976 106.67828 61.75950
#
# Poissons Ratio (x) = 0.21126 0.06553
# Poissons Ratio (y) = 0.13724 0.13503
# Poissons Ratio (z) = 0.07353 0.23323
#
# Static dielectric constant tensor:
#      x y z
#    x 1.808720 -0.007320 -0.020660 
#    y -0.007320 1.758190 0.009700 
#    z -0.020660 0.009700 1.775090 
# 
# From -- ./inp_files/503994.got.cif
#   From: 2010.05.17/outbox.cif.g08.bks.cpg/sg2_252_cif.got.tgz:503994.got - 2010.06.03 11:33:40.
