data_PCOD9023505
_publ_section_title
;
Structure prediction by ZEFSAII (Michael W. Deem and Ramdas Pophale) SiO2 
 PCOD9023505
Probable space group: P -1
;
_chemical_formula_sum "Si O2"
_cell_formula_units_Z 15
_cell_length_a 8.387592
_cell_length_b 15.977140
_cell_length_c 7.804382
_cell_angle_alpha 41.416284
_cell_angle_beta 110.884206
_cell_angle_gamma 127.016102
_cell_volume 543.421758
_symmetry_space_group_name_H-M "P -1"
_symmetry_group_IT_number 2
_symmetry_cell_setting 'triclinic'
loop_
_space_group_symop_operation_xyz
x,y,z
-x,-y,-z
loop_
_atom_site_type_symbol
_atom_site_label
_atom_site_fract_x
_atom_site_fract_y
_atom_site_fract_z
Si Si1 0.596146 0.544073 0.161186
Si Si2 0.799817 0.924365 0.154550
Si Si3 0.624626 0.257818 0.647901
Si Si4 0.388218 0.860805 0.540161
Si Si5 0.245727 0.553610 0.150559
Si Si6 0.005854 0.863389 0.802506
Si Si7 0.016345 0.247090 0.380216
Si Si8 0.000000 0.500000 0.500000
O O1 0.675207 0.431256 0.386226
O O2 0.435613 0.531004 0.258124
O O3 0.500000 0.500000 0.000000
O O4 0.783764 0.716895 0.980157
O O5 0.562627 0.837630 0.147276
O O6 0.816559 0.791989 0.456916
O O7 0.854019 0.052957 0.113467
O O8 0.000000 0.000000 0.000000
O O9 0.545817 0.168888 0.574201
O O10 0.851358 0.314625 0.699627
O O11 0.178355 0.846333 0.432232
O O12 0.500000 0.000000 0.500000
O O13 0.336746 0.714733 0.852900
O O14 0.104108 0.420347 0.168706
O O15 0.116484 0.520584 0.322450
O O16 0.074897 0.805889 0.760775
O O17 0.000000 0.000000 0.500000
#
# Coordination Sequence:
#
# PCOD9023505 Si02
#       8
#     2   2   2   2   2   2   2   1
#     4  12  22  43  84 109 139 190 267 321 360 436
#     4  11  26  46  73 107 155 198 249 317 386 459
#     4  12  26  52  72 113 148 199 262 307 384 462
#     4  12  27  45  77 110 152 200 252 321 381 445
#     4  12  26  49  74 111 147 201 253 314 378 450
#     4  10  22  39  70 108 144 184 247 314 372 435
#     4  11  22  46  70 106 144 195 255 312 367 446
#     4  12  32  48  74 108 164 202 242 306 396 484
#
# _framework density 27.602868999999998
#
# number of rings (size 3 to 8) (size 9 to 14) (size 15 to 20)
#    0.000    0.533    5.333    2.000    7.467    1.600 
#    2.400    1.333    0.000    0.000    0.000    0.000 
#    0.000    0.000    0.000    0.000    0.000    0.000 
#
# Total GULP energy -83660.241471 kJ/mol
# GULP energy per Si atom -5577.349431 kJ/mol
# Density = 2.754004 g / cm^3
# Si number density = 27.602869 Si / 1000 Ang^3
#
#
#
# Elastic Constant Matrix: (Units=GPa)
#
#
# Indices 1 2 3 4 5 6 
#
# 1 97.2840 28.5903 48.0851 -10.8394 -29.0853 -31.9974
# 2 28.5903 194.5086 75.9209 -39.7412 -15.8329 -25.8705
# 3 48.0851 75.9209 117.6264 -33.4955 -23.0620 -14.9266
# 4 -10.8394 -39.7412 -33.4955 65.9550 -1.5812 -5.5930
# 5 -29.0853 -15.8329 -23.0620 -1.5812 76.9919 -8.1873
# 6 -31.9974 -25.8705 -14.9266 -5.5930 -8.1873 51.6633
#
#
#
# Elastic Compliance Matrix: (Units=1/GPa)
#
#
# Indices 1 2 3 4 5 6 
#
# 1 0.019053 0.002195 -0.005213 0.003082 0.007525 0.012920
# 2 0.002195 0.007900 -0.004017 0.003534 0.001837 0.004829
# 3 -0.005213 -0.004017 0.014720 0.004216 0.001672 -0.000266
# 4 0.003082 0.003534 0.004216 0.020710 0.004413 0.007838
# 5 0.007525 0.001837 0.001672 0.004413 0.017796 0.009361
# 6 0.012920 0.004829 -0.000266 0.007838 0.009361 0.032031
#
#
# Mechanical properties :
#
#
# Convention : Reuss Voigt Hill
#
# Bulk Modulus (GPa) = 36.22786 79.40126 57.81456
# Shear Modulus (GPa) = 36.90535 56.04356 46.47446
#
# Velocity S-wave (km/s) = 3.66048 4.51083 4.10772
# Velocity P-wave (km/s) = 5.56944 7.48052 6.59458
#
# Compressibility (1/GPa) = 0.02760306
#
# Stress axis : x y z
#
# Youngs Moduli (GPa) = 52.48421 126.57583 67.93485
#
# Poissons Ratio (x) = -0.27781 0.35414
# Poissons Ratio (y) = -0.11519 0.27291
# Poissons Ratio (z) = 0.27360 0.50848
#
# Static dielectric constant tensor:
#      x y z
#    x 1.153040 -0.627150 -0.058690 
#    y -0.627150 1.775480 -0.007220 
#    z -0.058690 -0.007220 2.247950 
# 
# From -- ./inp_files/199643.got.cif
#   From: 2010.05.17/outbox.cif.g08.bks.cpg/sg2_100_cif.got.tgz:199643.got - 2010.06.03 11:33:40.
