data_PCOD9023660
_publ_section_title
;
Structure prediction by ZEFSAII (Michael W. Deem and Ramdas Pophale) SiO2 
 PCOD9023660
Probable space group: P -1
;
_chemical_formula_sum "Si O2"
_cell_formula_units_Z 15
_cell_length_a 18.627962
_cell_length_b 12.390664
_cell_length_c 6.532148
_cell_angle_alpha 45.215436
_cell_angle_beta 125.917307
_cell_angle_gamma 145.354091
_cell_volume 608.266193
_symmetry_space_group_name_H-M "P -1"
_symmetry_group_IT_number 2
_symmetry_cell_setting 'triclinic'
loop_
_space_group_symop_operation_xyz
x,y,z
-x,-y,-z
loop_
_atom_site_type_symbol
_atom_site_label
_atom_site_fract_x
_atom_site_fract_y
_atom_site_fract_z
Si Si1 0.719993 0.156703 0.690409
Si Si2 0.300092 0.451461 0.535454
Si Si3 0.482185 0.085630 0.661674
Si Si4 0.126321 0.348709 0.668206
Si Si5 0.297850 0.025956 0.686006
Si Si6 0.908229 0.257061 0.585689
Si Si7 0.500000 0.500000 0.000000
Si Si8 0.323688 0.402361 0.190608
O O1 0.816965 0.411199 0.556050
O O2 0.801420 0.123202 0.760568
O O3 0.610040 0.076549 0.457660
O O4 0.667308 0.023158 0.988759
O O5 0.381718 0.684986 0.471194
O O6 0.156380 0.311206 0.546479
O O7 0.335040 0.506146 0.283390
O O8 0.364402 0.378757 0.827727
O O9 0.409160 0.147327 0.540875
O O10 0.500000 0.000000 0.000000
O O11 0.988068 0.206992 0.720990
O O12 0.212735 0.350406 0.953579
O O13 0.278392 0.178915 0.478866
O O14 0.173778 0.800148 0.676396
O O15 0.000000 0.500000 0.500000
O O16 0.447543 0.526786 0.091825
#
# Coordination Sequence:
#
# PCOD9023660 Si02
#       8
#     2   2   2   2   2   2   1   2
#     4  10  23  42  67  95 131 173 221 279 326 385
#     4  11  23  37  62  92 129 169 214 261 324 388
#     4  11  23  39  62  96 132 168 220 269 324 394
#     4  10  23  42  65  91 128 175 220 269 330 387
#     4  11  24  40  66 100 127 168 222 275 335 385
#     4   9  22  45  68  93 129 172 223 277 331 393
#     4  10  22  40  60  84 128 178 210 248 322 388
#     4  11  24  41  64  97 133 174 217 265 326 400
#
# _framework density 24.660256
#
# number of rings (size 3 to 8) (size 9 to 14) (size 15 to 20)
#    0.000    1.600    1.333    2.000    1.867   10.133 
#    0.000    1.333    0.000    0.000    0.000    0.000 
#    0.000    0.000    0.000    0.000    0.000    0.000 
#
# Total GULP energy -83503.870023 kJ/mol
# GULP energy per Si atom -5566.924668 kJ/mol
# Density = 2.460413 g / cm^3
# Si number density = 24.660256 Si / 1000 Ang^3
#
#
#
# Elastic Constant Matrix: (Units=GPa)
#
#
# Indices 1 2 3 4 5 6 
#
# 1 224.7300 -2.9286 22.7183 18.8146 -13.8454 26.6683
# 2 -2.9286 67.6875 5.4170 9.9167 -5.2787 -6.8073
# 3 22.7183 5.4170 58.5168 8.3188 -3.1756 -10.0702
# 4 18.8146 9.9167 8.3188 31.1748 -9.4223 3.7033
# 5 -13.8454 -5.2787 -3.1756 -9.4223 38.3915 5.3324
# 6 26.6683 -6.8073 -10.0702 3.7033 5.3324 28.6904
#
#
#
# Elastic Compliance Matrix: (Units=1/GPa)
#
#
# Indices 1 2 3 4 5 6 
#
# 1 0.005831 0.000189 -0.003148 -0.001168 0.002526 -0.006799
# 2 0.000189 0.016066 0.000000 -0.005648 0.000292 0.004312
# 3 -0.003148 0.000000 0.020981 -0.005794 -0.002417 0.011488
# 4 -0.001168 -0.005648 -0.005794 0.040072 0.009438 -0.009215
# 5 0.002526 0.000292 -0.002417 0.009438 0.030506 -0.010015
# 6 -0.006799 0.004312 0.011488 -0.009215 -0.010015 0.049280
#
#
# Mechanical properties :
#
#
# Convention : Reuss Voigt Hill
#
# Bulk Modulus (GPa) = 27.05710 44.59419 35.82565
# Shear Modulus (GPa) = 27.62843 41.36651 34.49747
#
# Velocity S-wave (km/s) = 3.35081 4.10012 3.74426
# Velocity P-wave (km/s) = 5.09572 6.36689 5.76644
#
# Compressibility (1/GPa) = 0.03695887
#
# Stress axis : x y z
#
# Youngs Moduli (GPa) = 171.50725 62.24402 47.66298
#
# Poissons Ratio (x) = -0.01174 0.15004
# Poissons Ratio (y) = -0.03234 -0.00002
# Poissons Ratio (z) = 0.53991 -0.00002
#
# Static dielectric constant tensor:
#      x y z
#    x 2.043920 -0.036960 -0.052410 
#    y -0.036960 1.849620 0.109610 
#    z -0.052410 0.109610 1.897820 
# 
# From -- ./inp_files/80925.got.cif
#   From: 2010.05.17/outbox.cif.g08.bks.cpg/sg2_41_cif.got.tgz:80925.got - 2010.06.03 11:33:40.
