data_PCOD9023120
_publ_section_title
;
Structure prediction by ZEFSAII (Michael W. Deem and Ramdas Pophale) SiO2 
 PCOD9023120
Probable space group: P -1
;
_chemical_formula_sum "Si O2"
_cell_formula_units_Z 12
_cell_length_a 9.532799
_cell_length_b 9.710922
_cell_length_c 11.466405
_cell_angle_alpha 102.716456
_cell_angle_beta 50.392581
_cell_angle_gamma 133.198038
_cell_volume 550.189459
_symmetry_space_group_name_H-M "P -1"
_symmetry_group_IT_number 2
_symmetry_cell_setting 'triclinic'
loop_
_space_group_symop_operation_xyz
x,y,z
-x,-y,-z
loop_
_atom_site_type_symbol
_atom_site_label
_atom_site_fract_x
_atom_site_fract_y
_atom_site_fract_z
Si Si1 0.516222 0.851592 0.009191
Si Si2 0.988005 0.152084 0.991920
Si Si3 0.289179 0.582233 0.858248
Si Si4 0.245446 0.713409 0.355449
Si Si5 0.220110 0.037219 0.464793
Si Si6 0.306277 0.004253 0.663443
O O1 0.296113 0.696926 0.193843
O O2 0.783366 0.015830 0.970589
O O3 0.462615 0.721052 0.905257
O O4 0.500000 0.000000 0.000000
O O5 0.889613 0.171877 0.168896
O O6 0.222238 0.379267 0.861798
O O7 0.000000 0.000000 0.000000
O O8 0.486096 0.738822 0.679147
O O9 0.000000 0.500000 0.000000
O O10 0.491782 0.803162 0.321589
O O11 0.000000 0.500000 0.500000
O O12 0.219897 0.870102 0.399603
O O13 0.179853 0.014955 0.622979
O O14 0.000000 0.000000 0.500000
O O15 0.500000 0.000000 0.500000
#
# Coordination Sequence:
#
# PCOD9023120 Si02
#       6
#     2   2   2   2   2   2
#     4  11  22  42  68  99 130 171 239 269 319 414
#     4  11  26  43  67 102 135 172 227 288 340 387
#     4  12  24  44  75  96 132 187 225 271 337 410
#     4  10  22  39  66  93 127 177 224 269 324 404
#     4  11  25  42  64 102 136 168 220 281 343 389
#     4   9  21  43  63  91 134 176 221 267 332 414
#
# _framework density 21.810666999999999
#
# number of rings (size 3 to 8) (size 9 to 14) (size 15 to 20)
#    0.000    1.333    3.333    2.000    9.333    3.333 
#    0.000    1.667    0.000    0.000    0.000    0.000 
#    0.000    0.000    0.000    0.000    0.000    0.000 
#
# Total GULP energy -66869.043040 kJ/mol
# GULP energy per Si atom -5572.420253 kJ/mol
# Density = 2.176103 g / cm^3
# Si number density = 21.810667 Si / 1000 Ang^3
#
#
#
# Elastic Constant Matrix: (Units=GPa)
#
#
# Indices 1 2 3 4 5 6 
#
# 1 159.0105 38.0276 -3.6872 -2.1040 15.5236 11.0154
# 2 38.0276 96.9042 26.5342 -27.1469 6.2339 -10.3024
# 3 -3.6872 26.5342 84.9660 -18.6002 11.0200 7.4421
# 4 -2.1040 -27.1469 -18.6002 47.1041 1.8679 9.0840
# 5 15.5236 6.2339 11.0200 1.8679 30.3616 8.3334
# 6 11.0154 -10.3024 7.4421 9.0840 8.3334 33.5464
#
#
#
# Elastic Compliance Matrix: (Units=1/GPa)
#
#
# Indices 1 2 3 4 5 6 
#
# 1 0.007803 -0.003904 0.002195 -0.000253 -0.003029 -0.003427
# 2 -0.003904 0.015332 -0.003898 0.006106 -0.001653 0.005613
# 3 0.002195 -0.003898 0.015300 0.005148 -0.004670 -0.005546
# 4 -0.000253 0.006106 0.005148 0.028052 -0.003067 -0.006018
# 5 -0.003029 -0.001653 -0.004670 -0.003067 0.038701 -0.007261
# 6 -0.003427 0.005613 -0.005546 -0.006018 -0.007261 0.037322
#
#
# Mechanical properties :
#
#
# Convention : Reuss Voigt Hill
#
# Bulk Modulus (GPa) = 36.73386 51.40330 44.06858
# Shear Modulus (GPa) = 30.71276 40.86948 35.79112
#
# Velocity S-wave (km/s) = 3.75661 4.33347 4.05531
# Velocity P-wave (km/s) = 5.97452 6.97551 6.49433
#
# Compressibility (1/GPa) = 0.02722284
#
# Stress axis : x y z
#
# Youngs Moduli (GPa) = 128.15368 65.22162 65.35738
#
# Poissons Ratio (x) = 0.25461 -0.14348
# Poissons Ratio (y) = 0.50028 0.25477
# Poissons Ratio (z) = -0.28133 0.25424
#
# Static dielectric constant tensor:
#      x y z
#    x 1.756180 -0.021280 -0.095880 
#    y -0.021280 1.777520 0.078080 
#    z -0.095880 0.078080 1.968050 
# 
# From -- ./inp_files/149828.got.cif
#   From: 2010.05.17/outbox.cif.g08.bks.cpg/sg2_75_cif.got.tgz:149828.got - 2010.06.03 11:33:40.
