data_PCOD9023963
_publ_section_title
;
Structure prediction by ZEFSAII (Michael W. Deem and Ramdas Pophale) SiO2 
 PCOD9023963
Probable space group: P -1
;
_chemical_formula_sum "Si O2"
_cell_formula_units_Z 16
_cell_length_a 8.966282
_cell_length_b 21.504635
_cell_length_c 5.663933
_cell_angle_alpha 113.775062
_cell_angle_beta 124.092754
_cell_angle_gamma 47.828480
_cell_volume 669.646604
_symmetry_space_group_name_H-M "P -1"
_symmetry_group_IT_number 2
_symmetry_cell_setting 'triclinic'
loop_
_space_group_symop_operation_xyz
x,y,z
-x,-y,-z
loop_
_atom_site_type_symbol
_atom_site_label
_atom_site_fract_x
_atom_site_fract_y
_atom_site_fract_z
Si Si1 0.541778 0.949768 0.207483
Si Si2 0.701438 0.527549 0.980739
Si Si3 0.884822 0.767526 0.394639
Si Si4 0.580980 0.702370 0.034640
Si Si5 0.908454 0.995220 0.160826
Si Si6 0.653993 0.325120 0.580810
Si Si7 0.892262 0.194327 0.996203
Si Si8 0.308464 0.517077 0.608112
O O1 0.769271 0.857110 0.294227
O O2 0.500000 0.000000 0.500000
O O3 0.500000 0.000000 0.000000
O O4 0.352351 0.935010 0.989520
O O5 0.683565 0.613332 0.122925
O O6 0.442422 0.558448 0.773094
O O7 0.796007 0.482564 0.736864
O O8 0.810126 0.469293 0.222703
O O9 0.129106 0.698656 0.406702
O O10 0.941512 0.785788 0.727464
O O11 0.732127 0.735158 0.223398
O O12 0.539257 0.678395 0.707839
O O13 0.322464 0.775065 0.984349
O O14 0.000000 0.000000 0.500000
O O15 0.964719 0.903428 0.070221
O O16 0.000000 0.000000 0.000000
O O17 0.519283 0.420276 0.682553
O O18 0.768330 0.252041 0.755842
#
# Coordination Sequence:
#
# PCOD9023963 Si02
#       8
#     2   2   2   2   2   2   2   2
#     4  12  25  46  65  89 126 166 210 262 323 379
#     4   9  17  34  61  94 123 166 214 258 306 381
#     4  11  25  41  63  93 128 168 210 270 320 384
#     4  10  22  40  63  94 126 166 215 260 321 377
#     4  12  27  44  68  93 122 164 215 265 316 383
#     4  10  22  40  62  93 125 171 209 264 314 385
#     4  11  23  42  64  88 128 164 209 264 323 378
#     4   9  17  34  62  90 126 168 211 256 315 369
#
# _framework density 23.893201000000001
#
# number of rings (size 3 to 8) (size 9 to 14) (size 15 to 20)
#    0.000    1.500    2.500    2.250    5.250    1.000 
#    0.000    0.625    0.000    0.750    0.000    0.000 
#    0.000    0.000    0.000    0.000    0.000    0.000 
#
# Total GULP energy -89193.798783 kJ/mol
# GULP energy per Si atom -5574.612424 kJ/mol
# Density = 2.383882 g / cm^3
# Si number density = 23.893201 Si / 1000 Ang^3
#
#
#
# Elastic Constant Matrix: (Units=GPa)
#
#
# Indices 1 2 3 4 5 6 
#
# 1 73.3404 22.6711 58.5771 5.5982 -1.2676 20.7904
# 2 22.6711 53.8788 -4.5954 12.9015 3.9159 17.8823
# 3 58.5771 -4.5954 123.3780 12.7699 -0.1192 14.5378
# 4 5.5982 12.9015 12.7699 40.5516 13.8319 -4.2255
# 5 -1.2676 3.9159 -0.1192 13.8319 48.1611 0.0080
# 6 20.7904 17.8823 14.5378 -4.2255 0.0080 34.2768
#
#
#
# Elastic Compliance Matrix: (Units=1/GPa)
#
#
# Indices 1 2 3 4 5 6 
#
# 1 0.030997 -0.013828 -0.015111 0.004150 0.000712 -0.004666
# 2 -0.013828 0.033983 0.011197 -0.014441 0.001051 -0.015871
# 3 -0.015111 0.011197 0.017065 -0.007677 0.000940 -0.004860
# 4 0.004150 -0.014441 -0.007677 0.035460 -0.008922 0.012646
# 5 0.000712 0.001051 0.000940 -0.008922 0.023262 -0.002484
# 6 -0.004666 -0.015871 -0.004860 0.012646 -0.002484 0.043905
#
#
# Mechanical properties :
#
#
# Convention : Reuss Voigt Hill
#
# Bulk Modulus (GPa) = 21.47757 44.87811 33.17784
# Shear Modulus (GPa) = 21.21551 36.19420 28.70486
#
# Velocity S-wave (km/s) = 2.98305 3.89631 3.46986
# Velocity P-wave (km/s) = 4.56873 6.25021 5.47442
#
# Compressibility (1/GPa) = 0.04656021
#
# Stress axis : x y z
#
# Youngs Moduli (GPa) = 32.26106 29.42655 58.60056
#
# Poissons Ratio (x) = 0.40692 0.88550
# Poissons Ratio (y) = 0.44612 -0.65615
# Poissons Ratio (z) = 0.48749 -0.32949
#
# Static dielectric constant tensor:
#      x y z
#    x 2.039800 0.042890 -0.086150 
#    y 0.042890 1.893600 0.018200 
#    z -0.086150 0.018200 1.938290 
# 
# From -- ./inp_files/53588.got.cif
#   From: 2010.05.17/outbox.cif.g08.bks.cpg/sg2_27_cif.got.tgz:53588.got - 2010.06.03 11:33:40.
