data_PCOD9023088
_publ_section_title
;
Structure prediction by ZEFSAII (Michael W. Deem and Ramdas Pophale) SiO2 
 PCOD9023088
Probable space group: P -1
;
_chemical_formula_sum "Si O2"
_cell_formula_units_Z 14
_cell_length_a 14.232867
_cell_length_b 19.697095
_cell_length_c 11.499899
_cell_angle_alpha 147.877982
_cell_angle_beta 26.970233
_cell_angle_gamma 158.342920
_cell_volume 536.269563
_symmetry_space_group_name_H-M "P -1"
_symmetry_group_IT_number 2
_symmetry_cell_setting 'triclinic'
loop_
_space_group_symop_operation_xyz
x,y,z
-x,-y,-z
loop_
_atom_site_type_symbol
_atom_site_label
_atom_site_fract_x
_atom_site_fract_y
_atom_site_fract_z
Si Si1 0.368924 0.178625 0.111979
Si Si2 0.675881 0.244793 0.403239
Si Si3 0.664202 0.489407 0.897993
Si Si4 0.057924 0.541552 0.827205
Si Si5 0.599802 0.103979 0.920493
Si Si6 0.280592 0.379481 0.367379
Si Si7 0.822199 0.056193 0.229976
O O1 0.377360 0.114870 0.134393
O O2 0.716715 0.341844 0.922277
O O3 0.191488 0.002008 0.969947
O O4 0.253777 0.268835 0.342040
O O5 0.574917 0.305027 0.694795
O O6 0.798325 0.365911 0.324650
O O7 0.983713 0.333084 0.247044
O O8 0.436751 0.028964 0.323205
O O9 0.500000 0.500000 0.000000
O O10 0.579594 0.484349 0.115416
O O11 0.257791 0.516024 0.620739
O O12 0.104422 0.686799 0.066230
O O13 0.500000 0.000000 0.000000
O O14 0.031310 0.244218 0.345717
O O15 0.500000 0.000000 0.500000
O O16 0.000000 0.000000 0.000000
#
# Coordination Sequence:
#
# PCOD9023088 Si02
#       7
#     2   2   2   2   2   2   2
#     4  11  23  42  69  96 138 179 234 300 353 424
#     4  10  23  43  67  97 138 179 229 286 351 427
#     4  11  22  39  69 100 137 179 220 284 358 429
#     4  11  21  44  68  94 135 178 238 286 347 424
#     4  10  25  45  68  95 130 188 239 292 354 424
#     4  11  23  40  69 108 136 178 233 289 365 426
#     4  10  22  39  66 109 146 181 226 298 371 437
#
# _framework density 26.106273999999999
#
# number of rings (size 3 to 8) (size 9 to 14) (size 15 to 20)
#    0.000    1.429    4.286    0.429    2.000    2.857 
#    0.000    2.143    0.000    0.000    0.000    0.000 
#    0.000    0.000    0.000    0.000    0.000    0.000 
#
# Total GULP energy -78049.791930 kJ/mol
# GULP energy per Si atom -5574.985138 kJ/mol
# Density = 2.604686 g / cm^3
# Si number density = 26.106274 Si / 1000 Ang^3
#
#
#
# Elastic Constant Matrix: (Units=GPa)
#
#
# Indices 1 2 3 4 5 6 
#
# 1 166.6822 20.6853 18.5509 -3.1464 -24.6054 -26.8295
# 2 20.6853 101.3560 51.1440 19.6821 -3.2439 -0.8231
# 3 18.5509 51.1440 131.7489 18.9619 -20.5953 -16.7346
# 4 -3.1464 19.6821 18.9619 50.2133 2.9334 0.8428
# 5 -24.6054 -3.2439 -20.5953 2.9334 41.4915 6.7247
# 6 -26.8295 -0.8231 -16.7346 0.8428 6.7247 31.1203
#
#
#
# Elastic Compliance Matrix: (Units=1/GPa)
#
#
# Indices 1 2 3 4 5 6 
#
# 1 0.007736 -0.002030 0.001026 0.000561 0.003875 0.006315
# 2 -0.002030 0.013467 -0.005246 -0.003250 -0.001924 -0.003712
# 3 0.001026 -0.005246 0.011390 -0.002576 0.005088 0.005841
# 4 0.000561 -0.003250 -0.002576 0.022367 -0.002615 -0.001028
# 5 0.003875 -0.001924 0.005088 -0.002615 0.028986 -0.000167
# 6 0.006315 -0.003712 0.005841 -0.001028 -0.000167 0.040685
#
#
# Mechanical properties :
#
#
# Convention : Reuss Voigt Hill
#
# Bulk Modulus (GPa) = 49.76929 64.50528 57.13729
# Shear Modulus (GPa) = 34.76317 45.19215 39.97766
#
# Velocity S-wave (km/s) = 3.65307 4.16514 3.91748
# Velocity P-wave (km/s) = 6.07443 6.92052 6.51123
#
# Compressibility (1/GPa) = 0.02009271
#
# Stress axis : x y z
#
# Youngs Moduli (GPa) = 129.26041 74.25390 87.79374
#
# Poissons Ratio (x) = 0.15075 -0.09008
# Poissons Ratio (y) = 0.26242 0.46061
# Poissons Ratio (z) = -0.13262 0.38957
#
# Static dielectric constant tensor:
#      x y z
#    x 2.233580 -0.167520 -0.026020 
#    y -0.167520 2.227510 -0.057550 
#    z -0.026020 -0.057550 2.128660 
# 
# From -- ./inp_files/457723.got.cif
#   From: 2010.05.17/outbox.cif.g08.bks.cpg/sg2_229_cif.got.tgz:457723.got - 2010.06.03 11:33:40.
