data_PCOD9023765
_publ_section_title
;
Structure prediction by ZEFSAII (Michael W. Deem and Ramdas Pophale) SiO2 
 PCOD9023765
Probable space group: P -1
;
_chemical_formula_sum "Si O2"
_cell_formula_units_Z 12
_cell_length_a 8.655564
_cell_length_b 12.839206
_cell_length_c 8.542327
_cell_angle_alpha 62.170911
_cell_angle_beta 119.061465
_cell_angle_gamma 141.118982
_cell_volume 514.014034
_symmetry_space_group_name_H-M "P -1"
_symmetry_group_IT_number 2
_symmetry_cell_setting 'triclinic'
loop_
_space_group_symop_operation_xyz
x,y,z
-x,-y,-z
loop_
_atom_site_type_symbol
_atom_site_label
_atom_site_fract_x
_atom_site_fract_y
_atom_site_fract_z
Si Si1 0.829431 0.532671 0.344730
Si Si2 0.241525 0.185180 0.332743
Si Si3 0.897026 0.198950 0.957620
Si Si4 0.159930 0.682088 0.879888
Si Si5 0.207661 0.324440 0.489204
Si Si6 0.395717 0.052472 0.299907
O O1 0.535713 0.361930 0.333033
O O2 0.871208 0.666771 0.384594
O O3 0.000000 0.500000 0.500000
O O4 0.913614 0.617269 0.157815
O O5 0.190990 0.189043 0.489620
O O6 0.235539 0.056464 0.336060
O O7 0.057849 0.179112 0.143954
O O8 0.745674 0.069710 0.832060
O O9 0.734603 0.195681 0.004759
O O10 0.377346 0.766493 0.799489
O O11 0.957581 0.670034 0.705844
O O12 0.000000 0.500000 0.000000
O O13 0.500000 0.500000 0.500000
O O14 0.500000 0.000000 0.500000
#
# Coordination Sequence:
#
# PCOD9023765 Si02
#       6
#     2   2   2   2   2   2
#     4  11  20  38  66  95 126 166 212 258 306 373
#     4  10  22  40  61  90 126 168 210 257 313 376
#     4  11  23  40  61  92 128 164 208 262 317 372
#     4  11  23  42  66  92 123 164 211 257 310 377
#     4   9  20  37  60  93 123 157 207 259 306 362
#     4  12  25  43  64  92 127 167 211 263 318 372
#
# _framework density 23.345663999999999
#
# number of rings (size 3 to 8) (size 9 to 14) (size 15 to 20)
#    0.000    1.333    0.000    6.500    0.000    4.000 
#    0.000   10.833    0.000    0.000    0.000    0.000 
#    0.000    0.000    0.000    0.000    0.000    0.000 
#
# Total GULP energy -67019.159045 kJ/mol
# GULP energy per Si atom -5584.929920 kJ/mol
# Density = 2.329253 g / cm^3
# Si number density = 23.345664 Si / 1000 Ang^3
#
#
#
# Elastic Constant Matrix: (Units=GPa)
#
#
# Indices 1 2 3 4 5 6 
#
# 1 171.4719 43.6691 48.6248 0.9707 -43.8557 -27.7872
# 2 43.6691 106.5658 15.7936 20.7481 -20.8041 -14.4100
# 3 48.6248 15.7936 64.5881 12.1481 -23.9651 -8.8277
# 4 0.9707 20.7481 12.1481 44.9620 -0.5875 -12.6681
# 5 -43.8557 -20.8041 -23.9651 -0.5875 40.3345 4.3535
# 6 -27.7872 -14.4100 -8.8277 -12.6681 4.3535 48.5324
#
#
#
# Elastic Compliance Matrix: (Units=1/GPa)
#
#
# Indices 1 2 3 4 5 6 
#
# 1 0.010148 -0.002212 -0.004632 0.003439 0.006693 0.004608
# 2 -0.002212 0.012179 0.001596 -0.005739 0.004664 0.000724
# 3 -0.004632 0.001596 0.023394 -0.007005 0.009650 -0.000617
# 4 0.003439 -0.005739 -0.007005 0.028569 -0.003698 0.006780
# 5 0.006693 0.004664 0.009650 -0.003698 0.039894 0.002428
# 6 0.004608 0.000724 -0.000617 0.006780 0.002428 0.024898
#
#
# Mechanical properties :
#
#
# Convention : Reuss Voigt Hill
#
# Bulk Modulus (GPa) = 28.38963 62.08897 45.23930
# Shear Modulus (GPa) = 30.99417 42.40167 36.69792
#
# Velocity S-wave (km/s) = 3.64761 4.26638 3.96907
# Velocity P-wave (km/s) = 5.47056 7.13600 6.35805
#
# Compressibility (1/GPa) = 0.03522412
#
# Stress axis : x y z
#
# Youngs Moduli (GPa) = 98.54222 82.10633 42.74604
#
# Poissons Ratio (x) = 0.18159 0.19802
# Poissons Ratio (y) = 0.21794 -0.06820
# Poissons Ratio (z) = 0.45649 -0.13100
#
# Static dielectric constant tensor:
#      x y z
#    x 1.853670 -0.065840 -0.020220 
#    y -0.065840 1.957530 0.009710 
#    z -0.020220 0.009710 1.773760 
# 
# From -- ./inp_files/144412.got.cif
#   From: 2010.05.17/outbox.cif.g08.bks.cpg/sg2_73_cif.got.tgz:144412.got - 2010.06.03 11:33:40.
