data_PCOD9023276
_publ_section_title
;
Structure prediction by ZEFSAII (Michael W. Deem and Ramdas Pophale) SiO2 
 PCOD9023276
Probable space group: P -1
;
_chemical_formula_sum "Si O2"
_cell_formula_units_Z 14
_cell_length_a 12.583665
_cell_length_b 6.035664
_cell_length_c 16.385996
_cell_angle_alpha 135.022657
_cell_angle_beta 46.885161
_cell_angle_gamma 110.323631
_cell_volume 619.385206
_symmetry_space_group_name_H-M "P -1"
_symmetry_group_IT_number 2
_symmetry_cell_setting 'triclinic'
loop_
_space_group_symop_operation_xyz
x,y,z
-x,-y,-z
loop_
_atom_site_type_symbol
_atom_site_label
_atom_site_fract_x
_atom_site_fract_y
_atom_site_fract_z
Si Si1 0.741270 0.899516 0.331747
Si Si2 0.964789 0.857724 0.774039
Si Si3 0.826331 0.447704 0.632033
Si Si4 0.468986 0.375282 0.074924
Si Si5 0.610826 0.618053 0.633529
Si Si6 0.664989 0.382782 0.121477
Si Si7 0.180553 0.243173 0.571909
O O1 0.707438 0.680769 0.221051
O O2 0.741923 0.741044 0.378332
O O3 0.629798 0.259034 0.491944
O O4 0.909408 0.947578 0.250979
O O5 0.934162 0.667869 0.659392
O O6 0.046999 0.563801 0.712976
O O7 0.811709 0.098129 0.948499
O O8 0.707968 0.488405 0.779681
O O9 0.723924 0.577976 0.640976
O O10 0.886148 0.065586 0.485741
O O11 0.571697 0.503778 0.119464
O O12 0.500000 0.500000 0.000000
O O13 0.500000 0.000000 0.000000
O O14 0.445593 0.740834 0.790165
O O15 0.685024 0.796402 0.574340
#
# Coordination Sequence:
#
# PCOD9023276 Si02
#       7
#     2   2   2   2   2   2   2
#     4  10  23  44  62  95 135 181 231 277 349 423
#     4  11  23  41  63  97 138 174 237 279 352 418
#     4  10  22  39  67  95 134 180 227 290 345 411
#     4  11  25  46  70 107 143 178 236 296 363 418
#     4   9  22  42  66  93 131 168 243 279 355 407
#     4  11  23  44  69  97 135 179 224 296 349 417
#     4  10  23  40  63  97 133 185 223 287 340 425
#
# _framework density 22.603058999999998
#
# number of rings (size 3 to 8) (size 9 to 14) (size 15 to 20)
#    0.000    1.714    1.429    1.286    4.000    8.571 
#    5.143    0.000    0.000    0.000    0.000    0.000 
#    0.000    0.000    0.000    0.000    0.000    0.000 
#
# Total GULP energy -78183.461988 kJ/mol
# GULP energy per Si atom -5584.532999 kJ/mol
# Density = 2.255161 g / cm^3
# Si number density = 22.603059 Si / 1000 Ang^3
#
#
#
# Elastic Constant Matrix: (Units=GPa)
#
#
# Indices 1 2 3 4 5 6 
#
# 1 98.3826 63.2370 39.9086 -5.2070 32.7807 24.3488
# 2 63.2370 100.4473 42.0905 -16.7053 20.7805 -2.8166
# 3 39.9086 42.0905 102.1495 -13.3080 3.2495 1.0135
# 4 -5.2070 -16.7053 -13.3080 33.7394 10.4585 2.1524
# 5 32.7807 20.7805 3.2495 10.4585 55.8436 5.9020
# 6 24.3488 -2.8166 1.0135 2.1524 5.9020 26.4664
#
#
#
# Elastic Compliance Matrix: (Units=1/GPa)
#
#
# Indices 1 2 3 4 5 6 
#
# 1 0.036779 -0.019775 -0.005708 -0.001086 -0.010169 -0.033367
# 2 -0.019775 0.025357 -0.001856 0.007881 -0.001376 0.020628
# 3 -0.005708 -0.001856 0.012970 0.002313 0.002449 0.003823
# 4 -0.001086 0.007881 0.002313 0.037171 -0.009480 0.000840
# 5 -0.010169 -0.001376 0.002449 -0.009480 0.025579 0.004182
# 6 -0.033367 0.020628 0.003823 0.000840 0.004182 0.069528
#
#
# Mechanical properties :
#
#
# Convention : Reuss Voigt Hill
#
# Bulk Modulus (GPa) = 48.95454 65.71682 57.33568
# Shear Modulus (GPa) = 18.59619 33.59278 26.09448
#
# Velocity S-wave (km/s) = 2.87144 3.85932 3.40143
# Velocity P-wave (km/s) = 5.71830 6.99975 6.39122
#
# Compressibility (1/GPa) = 0.02042712
#
# Stress axis : x y z
#
# Youngs Moduli (GPa) = 27.18913 39.43749 77.10169
#
# Poissons Ratio (x) = 0.77988 0.44008
# Poissons Ratio (y) = 0.53767 0.14313
# Poissons Ratio (z) = 0.15519 0.07321
#
# Static dielectric constant tensor:
#      x y z
#    x 1.822510 0.019800 0.005060 
#    y 0.019800 1.928170 -0.001670 
#    z 0.005060 -0.001670 1.867380 
# 
# From -- ./inp_files/67335.got.cif
#   From: 2010.05.17/outbox.cif.g08.bks.cpg/sg2_34_cif.got.tgz:67335.got - 2010.06.03 11:33:40.
