data_PCOD9023767
_publ_section_title
;
Structure prediction by ZEFSAII (Michael W. Deem and Ramdas Pophale) SiO2 
 PCOD9023767
Probable space group: P -1
;
_chemical_formula_sum "Si O2"
_cell_formula_units_Z 12
_cell_length_a 4.927332
_cell_length_b 9.225827
_cell_length_c 12.136078
_cell_angle_alpha 56.774627
_cell_angle_beta 92.673792
_cell_angle_gamma 102.853342
_cell_volume 448.018194
_symmetry_space_group_name_H-M "P -1"
_symmetry_group_IT_number 2
_symmetry_cell_setting 'triclinic'
loop_
_space_group_symop_operation_xyz
x,y,z
-x,-y,-z
loop_
_atom_site_type_symbol
_atom_site_label
_atom_site_fract_x
_atom_site_fract_y
_atom_site_fract_z
Si Si1 0.323278 0.696290 0.107834
Si Si2 0.990912 0.186723 0.744085
Si Si3 0.428859 0.947943 0.815123
Si Si4 0.985377 0.339535 0.217967
Si Si5 0.299224 0.132413 0.438203
Si Si6 0.340439 0.533427 0.643755
O O1 0.506751 0.594034 0.228253
O O2 0.134653 0.781734 0.151179
O O3 0.120964 0.539906 0.098434
O O4 0.495330 0.840618 0.967931
O O5 0.217868 0.069294 0.795509
O O6 0.138956 0.387419 0.625174
O O7 0.714552 0.075895 0.723285
O O8 0.246724 0.798508 0.795146
O O9 0.850818 0.378630 0.315807
O O10 0.240485 0.246095 0.284269
O O11 0.423797 0.293167 0.459836
O O12 0.500000 0.000000 0.500000
O O13 0.000000 0.000000 0.500000
#
# Coordination Sequence:
#
# PCOD9023767 Si02
#       6
#     2   2   2   2   2   2
#     4  10  22  40  61  90 129 175 214 239 292 364
#     4  11  24  39  60  89 131 174 210 240 295 367
#     4  12  25  37  62  92 134 169 203 252 299 358
#     4  10  24  40  63  97 126 156 208 264 312 350
#     4  11  22  41  71  92 113 155 210 263 309 375
#     4  10  22  42  62  96 121 161 213 251 303 373
#
# _framework density 26.784628000000001
#
# number of rings (size 3 to 8) (size 9 to 14) (size 15 to 20)
#    0.000    1.333    3.333    1.500    9.333    0.667 
#    0.000    0.000    0.000    6.000    0.000    0.000 
#    0.000    0.000    0.000    0.000    0.000    0.000 
#
# Total GULP energy -67119.033909 kJ/mol
# GULP energy per Si atom -5593.252826 kJ/mol
# Density = 2.672367 g / cm^3
# Si number density = 26.784628 Si / 1000 Ang^3
#
#
#
# Elastic Constant Matrix: (Units=GPa)
#
#
# Indices 1 2 3 4 5 6 
#
# 1 172.0231 63.4744 37.9718 -27.5982 6.6971 -1.1573
# 2 63.4744 221.4424 59.1209 -56.3532 -14.7288 23.2054
# 3 37.9718 59.1209 70.5931 -23.9520 6.7023 2.8870
# 4 -27.5982 -56.3532 -23.9520 46.2520 11.0618 -16.1560
# 5 6.6971 -14.7288 6.7023 11.0618 25.7243 -22.4701
# 6 -1.1573 23.2054 2.8870 -16.1560 -22.4701 59.2452
#
#
#
# Elastic Compliance Matrix: (Units=1/GPa)
#
#
# Indices 1 2 3 4 5 6 
#
# 1 0.007177 -0.001107 -0.001669 0.002902 -0.003068 0.000283
# 2 -0.001107 0.007605 -0.004165 0.005659 0.003288 -0.000007
# 3 -0.001669 -0.004165 0.022643 0.008021 -0.013392 -0.002397
# 4 0.002902 0.005659 0.008021 0.038670 -0.013833 0.002748
# 5 -0.003068 0.003288 -0.013392 -0.013833 0.070420 0.022241
# 6 0.000283 -0.000007 -0.002397 0.002748 0.022241 0.026189
#
#
# Mechanical properties :
#
#
# Convention : Reuss Voigt Hill
#
# Bulk Modulus (GPa) = 42.47688 87.24364 64.86026
# Shear Modulus (GPa) = 25.71584 46.47705 36.09644
#
# Velocity S-wave (km/s) = 3.10190 4.17011 3.67502
# Velocity P-wave (km/s) = 5.35931 7.47191 6.50198
#
# Compressibility (1/GPa) = 0.02354222
#
# Stress axis : x y z
#
# Youngs Moduli (GPa) = 139.33510 131.49638 44.16442
#
# Poissons Ratio (x) = 0.14553 0.07372
# Poissons Ratio (y) = 0.15421 0.18395
# Poissons Ratio (z) = 0.23257 0.54771
#
# Static dielectric constant tensor:
#      x y z
#    x 2.108220 0.089800 -0.061160 
#    y 0.089800 2.155300 0.038260 
#    z -0.061160 0.038260 2.131470 
# 
# From -- ./inp_files/478906.got.cif
#   From: 2010.05.17/outbox.cif.g08.bks.cpg/sg2_240_cif.got.tgz:478906.got - 2010.06.03 11:33:40.
