data_PCOD9023919
_publ_section_title
;
Structure prediction by ZEFSAII (Michael W. Deem and Ramdas Pophale) SiO2 
 PCOD9023919
Probable space group: P -1
;
_chemical_formula_sum "Si O2"
_cell_formula_units_Z 15
_cell_length_a 11.164718
_cell_length_b 13.225698
_cell_length_c 16.345445
_cell_angle_alpha 154.622331
_cell_angle_beta 138.350709
_cell_angle_gamma 38.068873
_cell_volume 631.912134
_symmetry_space_group_name_H-M "P -1"
_symmetry_group_IT_number 2
_symmetry_cell_setting 'triclinic'
loop_
_space_group_symop_operation_xyz
x,y,z
-x,-y,-z
loop_
_atom_site_type_symbol
_atom_site_label
_atom_site_fract_x
_atom_site_fract_y
_atom_site_fract_z
Si Si1 0.154622 0.379498 0.419728
Si Si2 0.817916 0.103513 0.225428
Si Si3 0.410397 0.428220 0.996191
Si Si4 0.877528 0.331157 0.834927
Si Si5 0.261352 0.997685 0.071523
Si Si6 0.593287 0.191782 0.326626
Si Si7 0.475772 0.911504 0.331278
Si Si8 0.000000 0.000000 0.500000
O O1 0.185918 0.612955 0.563821
O O2 0.102297 0.214142 0.203478
O O3 0.000000 0.500000 0.500000
O O4 0.345042 0.170771 0.407810
O O5 0.645270 0.096621 0.190004
O O6 0.012679 0.893932 0.209454
O O7 0.807579 0.045426 0.083168
O O8 0.304479 0.479481 0.067112
O O9 0.381704 0.702428 0.145642
O O10 0.359153 0.256040 0.774800
O O11 0.635617 0.262545 0.015126
O O12 0.860313 0.196872 0.644216
O O13 0.000000 0.500000 0.000000
O O14 0.436347 0.097717 0.217898
O O15 0.500000 0.500000 0.500000
O O16 0.804058 0.079038 0.397318
O O17 0.500000 0.000000 0.500000
#
# Coordination Sequence:
#
# PCOD9023919 Si02
#       8
#     2   2   2   2   2   2   2   1
#     4  11  24  42  63  96 133 174 226 277 336 400
#     4  11  24  41  66  97 130 178 223 274 342 402
#     4  10  22  40  62  91 124 163 216 272 326 394
#     4  11  25  41  63  95 132 170 218 272 331 397
#     4  11  24  42  67  97 132 175 224 278 339 410
#     4  11  23  43  69  98 137 177 222 276 343 405
#     4  10  22  40  64  89 120 166 217 268 332 386
#     4  10  26  42  64 100 138 178 224 272 336 412
#
# _framework density 23.737477999999999
#
# number of rings (size 3 to 8) (size 9 to 14) (size 15 to 20)
#    0.000    1.333    1.333    3.600    3.733    4.800 
#    0.000    0.000    0.000    0.000    0.000    0.000 
#    0.000    0.000    0.000    0.000    0.000    0.000 
#
# Total GULP energy -83550.896332 kJ/mol
# GULP energy per Si atom -5570.059755 kJ/mol
# Density = 2.368345 g / cm^3
# Si number density = 23.737478 Si / 1000 Ang^3
#
#
#
# Elastic Constant Matrix: (Units=GPa)
#
#
# Indices 1 2 3 4 5 6 
#
# 1 99.3301 4.1612 42.9598 2.7351 -41.0972 10.8451
# 2 4.1612 86.5907 64.0950 10.1997 -1.0166 23.3374
# 3 42.9598 64.0950 149.2665 -3.2832 -52.6931 10.5146
# 4 2.7351 10.1997 -3.2832 45.4217 19.8980 -11.6464
# 5 -41.0972 -1.0166 -52.6931 19.8980 65.9188 -1.9515
# 6 10.8451 23.3374 10.5146 -11.6464 -1.9515 35.5957
#
#
#
# Elastic Compliance Matrix: (Units=1/GPa)
#
#
# Indices 1 2 3 4 5 6 
#
# 1 0.017157 0.005382 -0.002712 -0.010144 0.011358 -0.010651
# 2 0.005382 0.028507 -0.014440 -0.010600 -0.005134 -0.019814
# 3 -0.002712 -0.014440 0.017488 0.001005 0.011944 0.006111
# 4 -0.010144 -0.010600 0.001005 0.037714 -0.016442 0.021182
# 5 0.011358 -0.005134 0.011944 -0.016442 0.036476 -0.007002
# 6 -0.010651 -0.019814 0.006111 0.021182 -0.007002 0.049070
#
#
# Mechanical properties :
#
#
# Convention : Reuss Voigt Hill
#
# Bulk Modulus (GPa) = 25.24497 61.95770 43.60133
# Shear Modulus (GPa) = 22.40603 44.31867 33.36235
#
# Velocity S-wave (km/s) = 3.07564 4.32561 3.75303
# Velocity P-wave (km/s) = 4.82400 7.14883 6.09822
#
# Compressibility (1/GPa) = 0.03961185
#
# Stress axis : x y z
#
# Youngs Moduli (GPa) = 58.28688 35.07944 57.18137
#
# Poissons Ratio (x) = -0.18879 0.15507
# Poissons Ratio (y) = -0.31368 0.82568
# Poissons Ratio (z) = 0.15807 0.50653
#
# Static dielectric constant tensor:
#      x y z
#    x 2.019600 -0.027040 -0.020810 
#    y -0.027040 1.846000 -0.006410 
#    z -0.020810 -0.006410 1.921130 
# 
# From -- ./inp_files/519411.got.cif
#   From: 2010.05.17/outbox.cif.g08.bks.cpg/sg2_260_cif.got.tgz:519411.got - 2010.06.03 11:33:40.
