data_PCOD9023687
_publ_section_title
;
Structure prediction by ZEFSAII (Michael W. Deem and Ramdas Pophale) SiO2 
 PCOD9023687
Probable space group: P -1
;
_chemical_formula_sum "Si O2"
_cell_formula_units_Z 16
_cell_length_a 8.941640
_cell_length_b 8.289125
_cell_length_c 14.345596
_cell_angle_alpha 63.725758
_cell_angle_beta 57.544571
_cell_angle_gamma 59.636719
_cell_volume 752.378237
_symmetry_space_group_name_H-M "P -1"
_symmetry_group_IT_number 2
_symmetry_cell_setting 'triclinic'
loop_
_space_group_symop_operation_xyz
x,y,z
-x,-y,-z
loop_
_atom_site_type_symbol
_atom_site_label
_atom_site_fract_x
_atom_site_fract_y
_atom_site_fract_z
Si Si1 0.198170 0.411632 0.403448
Si Si2 0.363838 0.973443 0.471655
Si Si3 0.319326 0.553901 0.976719
Si Si4 0.558640 0.802613 0.255569
Si Si5 0.174692 0.983056 0.878198
Si Si6 0.118075 0.691811 0.183893
Si Si7 0.551330 0.178048 0.903479
Si Si8 0.432207 0.582369 0.604586
O O1 0.172281 0.530735 0.285920
O O2 0.381558 0.425035 0.395286
O O3 0.000000 0.500000 0.500000
O O4 0.228784 0.187245 0.438209
O O5 0.475971 0.887855 0.361081
O O6 0.299209 0.803758 0.577797
O O7 0.500000 0.000000 0.500000
O O8 0.146955 0.591822 0.097757
O O9 0.500000 0.500000 0.000000
O O10 0.283123 0.756268 0.883984
O O11 0.374438 0.373613 0.935929
O O12 0.404741 0.836709 0.217225
O O13 0.654380 0.571944 0.288978
O O14 0.686813 0.920660 0.148583
O O15 0.083013 0.134222 0.786476
O O16 0.000000 0.000000 0.000000
O O17 0.269396 0.799175 0.112111
O O18 0.500000 0.000000 0.000000
O O19 0.500000 0.500000 0.500000
#
# Coordination Sequence:
#
# PCOD9023687 Si02
#       8
#     2   2   2   2   2   2   2   2
#     4  11  23  40  65  92 121 162 211 259 312 369
#     4   9  22  39  66  91 119 163 215 252 305 387
#     4   9  20  38  63  91 123 161 213 245 292 383
#     4  11  21  38  69  90 125 163 206 261 311 356
#     4  10  22  40  63  93 125 167 209 248 302 370
#     4  10  22  40  60  91 127 163 205 251 312 375
#     4  11  22  38  65  92 124 159 205 261 306 368
#     4   9  20  41  62  92 121 155 209 259 308 367
#
# _framework density 21.265899999999998
#
# number of rings (size 3 to 8) (size 9 to 14) (size 15 to 20)
#    0.000    2.000    1.250    2.250   10.500    0.000 
#    0.000    8.125    0.000    0.000    0.000    0.000 
#    0.000    0.000    0.000    0.000    0.000    0.000 
#
# Total GULP energy -89128.219171 kJ/mol
# GULP energy per Si atom -5570.513698 kJ/mol
# Density = 2.121750 g / cm^3
# Si number density = 21.265900 Si / 1000 Ang^3
#
#
#
# Elastic Constant Matrix: (Units=GPa)
#
#
# Indices 1 2 3 4 5 6 
#
# 1 38.4150 40.3492 17.1367 0.9694 14.8149 -0.4106
# 2 40.3492 187.9855 54.0822 -45.9959 2.2824 0.3950
# 3 17.1367 54.0822 78.2029 -19.5541 12.8999 4.5349
# 4 0.9694 -45.9959 -19.5541 42.3719 2.3686 7.1199
# 5 14.8149 2.2824 12.8999 2.3686 40.5135 -5.8987
# 6 -0.4106 0.3950 4.5349 7.1199 -5.8987 31.4108
#
#
#
# Elastic Compliance Matrix: (Units=1/GPa)
#
#
# Indices 1 2 3 4 5 6 
#
# 1 0.046950 -0.012960 -0.003169 -0.016191 -0.014156 0.002246
# 2 -0.012960 0.011789 -0.002918 0.011826 0.004048 -0.001817
# 3 -0.003169 -0.002918 0.018384 0.006583 -0.005675 -0.005217
# 4 -0.016191 0.011826 0.006583 0.041732 -0.000873 -0.010934
# 5 -0.014156 0.004048 -0.005675 -0.000873 0.032492 0.006883
# 6 0.002246 -0.001817 -0.005217 -0.010934 0.006883 0.036413
#
#
# Mechanical properties :
#
#
# Convention : Reuss Voigt Hill
#
# Bulk Modulus (GPa) = 25.62257 58.63774 42.13015
# Shear Modulus (GPa) = 20.93239 35.72826 28.33032
#
# Velocity S-wave (km/s) = 3.14079 4.10332 3.65388
# Velocity P-wave (km/s) = 5.02270 7.07694 6.13639
#
# Compressibility (1/GPa) = 0.03902809
#
# Stress axis : x y z
#
# Youngs Moduli (GPa) = 21.29945 84.82376 54.39366
#
# Poissons Ratio (x) = 1.09931 0.17238
# Poissons Ratio (y) = 0.27604 0.15874
# Poissons Ratio (z) = 0.06750 0.24755
#
# Static dielectric constant tensor:
#      x y z
#    x 1.781890 -0.031000 0.025250 
#    y -0.031000 1.834980 -0.015820 
#    z 0.025250 -0.015820 1.774660 
# 
# From -- ./inp_files/355539.got.cif
#   From: 2010.05.17/outbox.cif.g08.bks.cpg/sg2_178_cif.got.tgz:355539.got - 2010.06.03 11:33:40.
