data_PCOD9023507
_publ_section_title
;
Structure prediction by ZEFSAII (Michael W. Deem and Ramdas Pophale) SiO2 
 PCOD9023507
Probable space group: P -1
;
_chemical_formula_sum "Si O2"
_cell_formula_units_Z 14
_cell_length_a 11.268878
_cell_length_b 7.253551
_cell_length_c 8.990152
_cell_angle_alpha 90.251792
_cell_angle_beta 111.165249
_cell_angle_gamma 53.169644
_cell_volume 525.908791
_symmetry_space_group_name_H-M "P -1"
_symmetry_group_IT_number 2
_symmetry_cell_setting 'triclinic'
loop_
_space_group_symop_operation_xyz
x,y,z
-x,-y,-z
loop_
_atom_site_type_symbol
_atom_site_label
_atom_site_fract_x
_atom_site_fract_y
_atom_site_fract_z
Si Si1 0.642431 0.980434 0.149976
Si Si2 0.725286 0.300659 0.184601
Si Si3 0.643835 0.183151 0.636700
Si Si4 0.270099 0.576011 0.149458
Si Si5 0.815173 0.742874 0.935541
Si Si6 0.316612 0.349095 0.598521
Si Si7 0.088200 0.829626 0.345951
O O1 0.684874 0.847572 0.325677
O O2 0.611424 0.226315 0.146667
O O3 0.295516 0.334573 0.154069
O O4 0.500000 0.000000 0.000000
O O5 0.663683 0.530039 0.252400
O O6 0.746042 0.339751 0.023828
O O7 0.910747 0.066234 0.313835
O O8 0.601830 0.415715 0.702067
O O9 0.471533 0.233504 0.557201
O O10 0.768523 0.144755 0.567151
O O11 0.757978 0.955670 0.799146
O O12 0.107030 0.772095 0.177134
O O13 0.000000 0.500000 0.000000
O O14 0.789016 0.824417 0.094612
O O15 0.152726 0.580390 0.447651
#
# Coordination Sequence:
#
# PCOD9023507 Si02
#       7
#     2   2   2   2   2   2   2
#     4  12  25  41  66 100 132 162 220 268 325 386
#     4  12  23  43  69  95 129 171 219 271 318 378
#     4  10  24  42  66  91 134 164 221 258 322 385
#     4  10  22  39  70  90 125 164 219 264 317 368
#     4  12  22  39  67  97 123 166 216 268 313 378
#     4  12  25  43  66  94 138 171 208 271 329 382
#     4  10  24  46  63  96 131 173 220 261 321 391
#
# _framework density 26.620584000000001
#
# number of rings (size 3 to 8) (size 9 to 14) (size 15 to 20)
#    0.857    0.000    4.286    3.000    2.000    1.714 
#    2.571    0.714    0.000    0.000    0.000    0.000 
#    0.000    0.000    0.000    0.000    0.000    0.000 
#
# Total GULP energy -78396.255908 kJ/mol
# GULP energy per Si atom -5599.732565 kJ/mol
# Density = 2.655999 g / cm^3
# Si number density = 26.620584 Si / 1000 Ang^3
#
#
#
# Elastic Constant Matrix: (Units=GPa)
#
#
# Indices 1 2 3 4 5 6 
#
# 1 91.0516 32.2474 33.3249 -7.8547 -20.9502 3.1874
# 2 32.2474 106.5012 9.8747 0.2421 -4.8261 11.1043
# 3 33.3249 9.8747 103.3351 -23.8026 -24.5750 0.0135
# 4 -7.8547 0.2421 -23.8026 48.4773 7.2673 5.8567
# 5 -20.9502 -4.8261 -24.5750 7.2673 49.9898 -14.2041
# 6 3.1874 11.1043 0.0135 5.8567 -14.2041 60.7675
#
#
#
# Elastic Compliance Matrix: (Units=1/GPa)
#
#
# Indices 1 2 3 4 5 6 
#
# 1 0.014580 -0.004016 -0.003274 -0.000005 0.004398 0.000998
# 2 -0.004016 0.010770 -0.000098 -0.000328 -0.001215 -0.002010
# 3 -0.003274 -0.000098 0.012976 0.005082 0.004470 0.000742
# 4 -0.000005 -0.000328 0.005082 0.023701 -0.001728 -0.002629
# 5 0.004398 -0.001215 0.004470 -0.001728 0.025946 0.006222
# 6 0.000998 -0.002010 0.000742 -0.002629 0.006222 0.018479
#
#
# Mechanical properties :
#
#
# Convention : Reuss Voigt Hill
#
# Bulk Modulus (GPa) = 42.46289 50.19800 46.33045
# Shear Modulus (GPa) = 38.73691 46.87631 42.80661
#
# Velocity S-wave (km/s) = 3.81878 4.20087 4.01437
# Velocity P-wave (km/s) = 5.95230 6.51364 6.23928
#
# Compressibility (1/GPa) = 0.02354997
#
# Stress axis : x y z
#
# Youngs Moduli (GPa) = 68.58879 92.85166 77.06725
#
# Poissons Ratio (x) = 0.37288 0.25228
# Poissons Ratio (y) = 0.27544 0.00757
# Poissons Ratio (z) = 0.22453 0.00912
#
# Static dielectric constant tensor:
#      x y z
#    x 2.165810 0.000340 0.056100 
#    y 0.000340 2.013950 0.054000 
#    z 0.056100 0.054000 2.101070 
# 
# From -- ./inp_files/212725.got.cif
#   From: 2010.05.17/outbox.cif.g08.bks.cpg/sg2_107_cif.got.tgz:212725.got - 2010.06.03 11:33:40.
