data_PCOD9023347
_publ_section_title
;
Structure prediction by ZEFSAII (Michael W. Deem and Ramdas Pophale) SiO2 
 PCOD9023347
Probable space group: P -1
;
_chemical_formula_sum "Si O2"
_cell_formula_units_Z 16
_cell_length_a 22.850020
_cell_length_b 12.190863
_cell_length_c 5.250504
_cell_angle_alpha 58.781306
_cell_angle_beta 63.322046
_cell_angle_gamma 32.156202
_cell_volume 665.545039
_symmetry_space_group_name_H-M "P -1"
_symmetry_group_IT_number 2
_symmetry_cell_setting 'triclinic'
loop_
_space_group_symop_operation_xyz
x,y,z
-x,-y,-z
loop_
_atom_site_type_symbol
_atom_site_label
_atom_site_fract_x
_atom_site_fract_y
_atom_site_fract_z
Si Si1 0.255845 0.445569 0.723285
Si Si2 0.149927 0.994605 0.056970
Si Si3 0.057680 0.812041 0.921239
Si Si4 0.126531 0.476745 0.562512
Si Si5 0.885988 0.782930 0.652265
Si Si6 0.283214 0.144378 0.278954
Si Si7 0.368181 0.486446 0.177950
Si Si8 0.495008 0.361189 0.586092
O O1 0.177573 0.668000 0.762117
O O2 0.163510 0.514662 0.662364
O O3 0.336933 0.393452 0.445318
O O4 0.311799 0.244063 0.016654
O O5 0.132397 0.115233 0.703056
O O6 0.256202 0.743915 0.086979
O O7 0.160179 0.059120 0.217235
O O8 0.042165 0.073677 0.203482
O O9 0.093112 0.626844 0.220739
O O10 0.000000 0.000000 0.000000
O O11 0.233582 0.232361 0.553180
O O12 0.017087 0.566118 0.697067
O O13 0.819029 0.756495 0.796097
O O14 0.385089 0.890777 0.356391
O O15 0.443185 0.427707 0.327057
O O16 0.424081 0.402222 0.894446
O O17 0.500000 0.500000 0.500000
#
# Coordination Sequence:
#
# PCOD9023347 Si02
#       8
#     2   2   2   2   2   2   2   2
#     4  11  26  44  71 110 151 194 235 297 371 442
#     4  11  23  42  70 109 144 189 238 302 357 420
#     4  10  22  39  68 103 154 192 238 288 358 442
#     4  10  23  43  66 110 148 191 239 289 365 440
#     4  11  24  44  73 109 145 196 239 293 365 432
#     4  11  27  46  74 100 149 193 245 305 359 431
#     4  12  28  46  77 107 146 187 248 302 367 428
#     4  12  29  54  78 106 135 189 255 312 362 422
#
# _framework density 24.040444999999998
#
# number of rings (size 3 to 8) (size 9 to 14) (size 15 to 20)
#    0.000    1.000    1.250    3.750   12.250    2.500 
#    0.000    0.000    0.000    0.000    0.000    0.000 
#    0.000    0.000    0.000    0.000    0.000    0.000 
#
# Total GULP energy -89592.207588 kJ/mol
# GULP energy per Si atom -5599.512974 kJ/mol
# Density = 2.398573 g / cm^3
# Si number density = 24.040445 Si / 1000 Ang^3
#
#
#
# Elastic Constant Matrix: (Units=GPa)
#
#
# Indices 1 2 3 4 5 6 
#
# 1 53.1759 1.7169 -6.9969 -5.5299 -1.7659 3.7663
# 2 1.7169 155.5557 10.1631 8.3166 -10.7492 5.6877
# 3 -6.9969 10.1631 71.9769 1.5298 -13.7340 0.4310
# 4 -5.5299 8.3166 1.5298 33.4919 3.4053 4.5494
# 5 -1.7659 -10.7492 -13.7340 3.4053 42.8048 3.4971
# 6 3.7663 5.6877 0.4310 4.5494 3.4971 34.9921
#
#
#
# Elastic Compliance Matrix: (Units=1/GPa)
#
#
# Indices 1 2 3 4 5 6 
#
# 1 0.019697 -0.000352 0.002167 0.003466 0.001362 -0.002676
# 2 -0.000352 0.006719 -0.000617 -0.001736 0.001694 -0.000990
# 3 0.002167 -0.000617 0.015143 -0.000579 0.004899 -0.000734
# 4 0.003466 -0.001736 -0.000579 0.031695 -0.002679 -0.003937
# 5 0.001362 0.001694 0.004899 -0.002679 0.025850 -0.002717
# 6 -0.002676 -0.000990 -0.000734 -0.003937 -0.002717 0.029819
#
#
# Mechanical properties :
#
#
# Convention : Reuss Voigt Hill
#
# Bulk Modulus (GPa) = 22.75116 32.27498 27.51307
# Shear Modulus (GPa) = 35.41599 40.64613 38.03106
#
# Velocity S-wave (km/s) = 3.84237 4.11632 3.98170
# Velocity P-wave (km/s) = 5.40086 6.00388 5.71034
#
# Compressibility (1/GPa) = 0.04395381
#
# Stress axis : x y z
#
# Youngs Moduli (GPa) = 50.76869 148.83553 66.03896
#
# Poissons Ratio (x) = 0.05243 -0.14309
# Poissons Ratio (y) = 0.01788 0.04074
# Poissons Ratio (z) = -0.11001 0.09182
#
# Static dielectric constant tensor:
#      x y z
#    x 1.945320 0.017620 0.009960 
#    y 0.017620 1.897890 0.048520 
#    z 0.009960 0.048520 2.065600 
# 
# From -- ./inp_files/123560.got.cif
#   From: 2010.05.17/outbox.cif.g08.bks.cpg/sg2_62_cif.got.tgz:123560.got - 2010.06.03 11:33:40.
