data_PCOD9023317
_publ_section_title
;
Structure prediction by ZEFSAII (Michael W. Deem and Ramdas Pophale) SiO2 
 PCOD9023317
Probable space group: P -1
;
_chemical_formula_sum "Si O2"
_cell_formula_units_Z 12
_cell_length_a 21.677444
_cell_length_b 8.782180
_cell_length_c 5.316629
_cell_angle_alpha 84.154915
_cell_angle_beta 98.590883
_cell_angle_gamma 150.030945
_cell_volume 499.151708
_symmetry_space_group_name_H-M "P -1"
_symmetry_group_IT_number 2
_symmetry_cell_setting 'triclinic'
loop_
_space_group_symop_operation_xyz
x,y,z
-x,-y,-z
loop_
_atom_site_type_symbol
_atom_site_label
_atom_site_fract_x
_atom_site_fract_y
_atom_site_fract_z
Si Si1 0.961097 0.829621 0.254297
Si Si2 0.451950 0.641057 0.002744
Si Si3 0.391454 0.776793 0.262101
Si Si4 0.654646 0.836521 0.283146
Si Si5 0.776565 0.339050 0.569715
Si Si6 0.085262 0.546360 0.949492
O O1 0.816868 0.488789 0.294652
O O2 0.997579 0.730382 0.249041
O O3 0.000000 0.000000 0.500000
O O4 0.000000 0.000000 0.000000
O O5 0.366960 0.560831 0.153740
O O6 0.532019 0.675570 0.167457
O O7 0.385602 0.423746 0.756827
O O8 0.554333 0.984197 0.938459
O O9 0.278369 0.627686 0.340041
O O10 0.500000 0.000000 0.500000
O O11 0.692352 0.008432 0.530563
O O12 0.782126 0.122206 0.146463
O O13 0.881786 0.493117 0.788292
O O14 0.000000 0.500000 0.000000
#
# Coordination Sequence:
#
# PCOD9023317 Si02
#       6
#     2   2   2   2   2   2
#     4  11  24  47  74 102 137 186 238 296 356 417
#     4  10  22  39  67  99 141 177 234 283 351 425
#     4  11  22  40  64 100 133 181 225 287 351 423
#     4  10  22  41  64  98 137 188 227 290 351 417
#     4  11  23  43  71  98 145 183 233 295 355 418
#     4  11  25  46  70  99 142 188 242 295 353 420
#
# _framework density 24.040787000000002
#
# number of rings (size 3 to 8) (size 9 to 14) (size 15 to 20)
#    0.000    1.333    5.000    0.000    0.000    6.000 
#    3.000    0.000    0.000    0.000    0.000    0.000 
#    0.000    0.000    0.000    0.000    0.000    0.000 
#
# Total GULP energy -66804.120509 kJ/mol
# GULP energy per Si atom -5567.010042 kJ/mol
# Density = 2.398607 g / cm^3
# Si number density = 24.040787 Si / 1000 Ang^3
#
#
#
# Elastic Constant Matrix: (Units=GPa)
#
#
# Indices 1 2 3 4 5 6 
#
# 1 203.0909 43.9452 49.4435 11.9408 -56.3035 -6.5630
# 2 43.9452 71.0603 18.1686 11.1203 -17.4195 -19.1500
# 3 49.4435 18.1686 72.7714 10.8038 -22.2319 -2.2507
# 4 11.9408 11.1203 10.8038 53.3129 -7.0714 -20.8611
# 5 -56.3035 -17.4195 -22.2319 -7.0714 45.8185 14.4185
# 6 -6.5630 -19.1500 -2.2507 -20.8611 14.4185 37.2786
#
#
#
# Elastic Compliance Matrix: (Units=1/GPa)
#
#
# Indices 1 2 3 4 5 6 
#
# 1 0.008889 -0.003697 -0.002021 -0.001503 0.009920 -0.005134
# 2 -0.003697 0.019249 -0.002632 0.001188 -0.001576 0.010353
# 3 -0.002021 -0.002632 0.018131 -0.003881 0.006365 -0.005247
# 4 -0.001503 0.001188 -0.003881 0.025298 -0.004400 0.015970
# 5 0.009920 -0.001576 0.006365 -0.004400 0.041199 -0.017076
# 6 -0.005134 0.010353 -0.005247 0.015970 -0.017076 0.046464
#
#
# Mechanical properties :
#
#
# Convention : Reuss Voigt Hill
#
# Bulk Modulus (GPa) = 33.81950 63.33745 48.57848
# Shear Modulus (GPa) = 26.91271 42.97302 34.94286
#
# Velocity S-wave (km/s) = 3.34946 4.23248 3.81659
# Velocity P-wave (km/s) = 5.39042 7.09141 6.29860
#
# Compressibility (1/GPa) = 0.02956874
#
# Stress axis : x y z
#
# Youngs Moduli (GPa) = 112.50462 51.94978 55.15555
#
# Poissons Ratio (x) = 0.19204 0.11148
# Poissons Ratio (y) = 0.41589 0.14517
# Poissons Ratio (z) = 0.22740 0.13673
#
# Static dielectric constant tensor:
#      x y z
#    x 1.949120 -0.017230 -0.042570 
#    y -0.017230 2.066730 0.019290 
#    z -0.042570 0.019290 1.979380 
# 
# From -- ./inp_files/51498.got.cif
#   From: 2010.05.17/outbox.cif.g08.bks.cpg/sg2_26_cif.got.tgz:51498.got - 2010.06.03 11:33:40.
