data_PCOD9023096
_publ_section_title
;
Structure prediction by ZEFSAII (Michael W. Deem and Ramdas Pophale) SiO2 
 PCOD9023096
Probable space group: P -1
;
_chemical_formula_sum "Si O2"
_cell_formula_units_Z 16
_cell_length_a 8.373480
_cell_length_b 16.660149
_cell_length_c 12.221432
_cell_angle_alpha 55.132735
_cell_angle_beta 50.224222
_cell_angle_gamma 35.282601
_cell_volume 752.157429
_symmetry_space_group_name_H-M "P -1"
_symmetry_group_IT_number 2
_symmetry_cell_setting 'triclinic'
loop_
_space_group_symop_operation_xyz
x,y,z
-x,-y,-z
loop_
_atom_site_type_symbol
_atom_site_label
_atom_site_fract_x
_atom_site_fract_y
_atom_site_fract_z
Si Si1 0.665223 0.835056 0.368952
Si Si2 0.744053 0.407022 0.804582
Si Si3 0.994575 0.524703 0.228339
Si Si4 0.079099 0.072531 0.695583
Si Si5 0.401495 0.359743 0.467163
Si Si6 0.391029 0.219909 0.216764
Si Si7 0.456782 0.319085 0.896980
Si Si8 0.077586 0.119131 0.415446
O O1 0.741973 0.886748 0.388933
O O2 0.669753 0.721376 0.491585
O O3 0.938066 0.752092 0.231018
O O4 0.345658 0.971365 0.353921
O O5 0.694711 0.513114 0.657708
O O6 0.507943 0.403337 0.877028
O O7 0.808636 0.443944 0.859561
O O8 0.763548 0.587846 0.382542
O O9 0.803510 0.588832 0.150548
O O10 0.224475 0.358849 0.249341
O O11 0.045619 0.074952 0.579437
O O12 0.760336 0.192675 0.797626
O O13 0.282186 0.918595 0.775803
O O14 0.755377 0.238763 0.413931
O O15 0.197323 0.187470 0.329524
O O16 0.406347 0.253497 0.060232
#
# Coordination Sequence:
#
# PCOD9023096 Si02
#       8
#     2   2   2   2   2   2   2   2
#     4   9  19  36  57  89 125 146 196 259 303 346
#     4  10  24  38  64  93 124 162 203 252 310 364
#     4  11  23  40  64  90 128 160 207 250 308 365
#     4  10  22  39  66  88 118 161 210 248 307 361
#     4  11  22  37  60  94 126 157 197 264 310 351
#     4  11  24  38  66  90 124 162 204 253 304 363
#     4  11  23  45  63  88 127 167 201 251 307 365
#     4  11  22  37  63  94 115 161 208 251 304 362
#
# _framework density 21.272141999999999
#
# number of rings (size 3 to 8) (size 9 to 14) (size 15 to 20)
#    0.000    1.500    1.250    4.875    8.750    1.500 
#    0.000    0.000    2.750    7.500    0.000    0.000 
#    0.000    0.000    0.000    0.000    0.000    0.000 
#
# Total GULP energy -89331.943522 kJ/mol
# GULP energy per Si atom -5583.246470 kJ/mol
# Density = 2.122373 g / cm^3
# Si number density = 21.272142 Si / 1000 Ang^3
#
#
#
# Elastic Constant Matrix: (Units=GPa)
#
#
# Indices 1 2 3 4 5 6 
#
# 1 112.2315 55.1617 29.2450 -8.2362 10.3144 -12.5433
# 2 55.1617 130.7315 24.9752 -14.2322 6.6637 -4.2777
# 3 29.2450 24.9752 62.4056 -8.9309 10.9287 -4.5271
# 4 -8.2362 -14.2322 -8.9309 21.4622 -3.2028 -0.2897
# 5 10.3144 6.6637 10.9287 -3.2028 14.2463 -0.6549
# 6 -12.5433 -4.2777 -4.5271 -0.2897 -0.6549 34.1901
#
#
#
# Elastic Compliance Matrix: (Units=1/GPa)
#
#
# Indices 1 2 3 4 5 6 
#
# 1 0.012722 -0.004417 -0.003128 0.000017 -0.004575 0.003613
# 2 -0.004417 0.010253 -0.001517 0.004551 0.000566 -0.000489
# 3 -0.003128 -0.001517 0.020966 0.004746 -0.011984 0.001249
# 4 0.000017 0.004551 0.004746 0.052528 0.006108 0.001766
# 5 -0.004575 0.000566 -0.011984 0.006108 0.083737 -0.001539
# 6 0.003613 -0.000489 0.001249 0.001766 -0.001539 0.030663
#
#
# Mechanical properties :
#
#
# Convention : Reuss Voigt Hill
#
# Bulk Modulus (GPa) = 38.73466 58.23693 48.48579
# Shear Modulus (GPa) = 21.04379 27.04550 24.04464
#
# Velocity S-wave (km/s) = 3.14867 3.56954 3.36569
# Velocity P-wave (km/s) = 5.60959 6.66524 6.16007
#
# Compressibility (1/GPa) = 0.02581667
#
# Stress axis : x y z
#
# Youngs Moduli (GPa) = 78.60542 97.52895 47.69633
#
# Poissons Ratio (x) = 0.43078 0.14921
# Poissons Ratio (y) = 0.34720 0.07235
# Poissons Ratio (z) = 0.24590 0.14794
#
# Static dielectric constant tensor:
#      x y z
#    x 1.804440 -0.003410 -0.008310 
#    y -0.003410 1.788600 0.040340 
#    z -0.008310 0.040340 1.758840 
# 
# From -- ./inp_files/263510.got.cif
#   From: 2010.05.17/outbox.cif.g08.bks.cpg/sg2_132_cif.got.tgz:263510.got - 2010.06.03 11:33:40.
