data_PCOD9023644
_publ_section_title
;
Structure prediction by ZEFSAII (Michael W. Deem and Ramdas Pophale) SiO2 
 PCOD9023644
Probable space group: P -1
;
_chemical_formula_sum "Si O2"
_cell_formula_units_Z 16
_cell_length_a 12.290479
_cell_length_b 11.867731
_cell_length_c 6.699480
_cell_angle_alpha 98.590349
_cell_angle_beta 53.875446
_cell_angle_gamma 93.165972
_cell_volume 779.795752
_symmetry_space_group_name_H-M "P -1"
_symmetry_group_IT_number 2
_symmetry_cell_setting 'triclinic'
loop_
_space_group_symop_operation_xyz
x,y,z
-x,-y,-z
loop_
_atom_site_type_symbol
_atom_site_label
_atom_site_fract_x
_atom_site_fract_y
_atom_site_fract_z
Si Si1 0.995593 0.674992 0.415229
Si Si2 0.746042 0.652154 0.432169
Si Si3 0.365458 0.116333 0.377886
Si Si4 0.653550 0.031509 0.010725
Si Si5 0.761614 0.211023 0.642649
Si Si6 0.653820 0.467379 0.777977
Si Si7 0.160618 0.975733 0.811417
Si Si8 0.130645 0.448430 0.121087
O O1 0.855173 0.708892 0.474443
O O2 0.965846 0.622187 0.651170
O O3 0.106902 0.765064 0.358606
O O4 0.054446 0.569209 0.190411
O O5 0.628805 0.748599 0.563974
O O6 0.698533 0.536206 0.552537
O O7 0.817225 0.621962 0.140607
O O8 0.506409 0.053627 0.271485
O O9 0.241050 0.071110 0.628036
O O10 0.345546 0.080297 0.159035
O O11 0.770458 0.029573 0.047260
O O12 0.671354 0.132991 0.858037
O O13 0.689670 0.332440 0.697704
O O14 0.806309 0.139893 0.380080
O O15 0.744189 0.517483 0.869581
O O16 0.500000 0.500000 0.000000
O O17 0.000000 0.000000 0.000000
#
# Coordination Sequence:
#
# PCOD9023644 Si02
#       8
#     2   2   2   2   2   2   2   2
#     4   9  20  36  55  83 125 155 195 253 305 363
#     4  11  22  35  64  90 119 164 205 249 307 370
#     4  10  24  42  63  93 123 168 208 257 314 371
#     4  10  23  45  64  85 129 165 209 261 315 366
#     4  10  23  39  63  91 123 165 204 255 319 363
#     4  10  22  40  59  90 127 160 206 255 303 375
#     4  11  26  40  65  96 120 162 215 263 315 369
#     4   9  20  36  53  85 118 162 202 239 306 365
#
# _framework density 20.518191999999999
#
# number of rings (size 3 to 8) (size 9 to 14) (size 15 to 20)
#    0.000    2.000    0.000    2.250    5.250    5.500 
#    0.000    0.000    0.000    0.000    0.000    0.000 
#    0.000    0.000    0.000    0.000    0.000    0.000 
#
# Total GULP energy -89358.930170 kJ/mol
# GULP energy per Si atom -5584.933136 kJ/mol
# Density = 2.047149 g / cm^3
# Si number density = 20.518192 Si / 1000 Ang^3
#
#
#
# Elastic Constant Matrix: (Units=GPa)
#
#
# Indices 1 2 3 4 5 6 
#
# 1 79.7906 12.8527 37.6074 6.2707 -17.4559 -6.7611
# 2 12.8527 76.3184 40.5560 9.7097 5.1090 -5.0158
# 3 37.6074 40.5560 101.9551 10.1408 -4.8574 -9.8707
# 4 6.2707 9.7097 10.1408 20.2121 7.6148 -5.4733
# 5 -17.4559 5.1090 -4.8574 7.6148 33.7178 -0.4953
# 6 -6.7611 -5.0158 -9.8707 -5.4733 -0.4953 24.4841
#
#
#
# Elastic Compliance Matrix: (Units=1/GPa)
#
#
# Indices 1 2 3 4 5 6 
#
# 1 0.017827 0.000080 -0.005371 -0.006156 0.009857 0.001597
# 2 0.000080 0.017304 -0.006644 -0.004032 -0.002628 -0.000066
# 3 -0.005371 -0.006644 0.014964 -0.002271 0.000934 0.002700
# 4 -0.006156 -0.004032 -0.002271 0.063755 -0.017148 0.010464
# 5 0.009857 -0.002628 0.000934 -0.017148 0.039159 -0.000481
# 6 0.001597 -0.000066 0.002700 0.010464 -0.000481 0.044688
#
#
# Mechanical properties :
#
#
# Convention : Reuss Voigt Hill
#
# Bulk Modulus (GPa) = 38.12932 48.89960 43.51446
# Shear Modulus (GPa) = 21.70998 26.81934 24.26466
#
# Velocity S-wave (km/s) = 3.25635 3.61931 3.44261
# Velocity P-wave (km/s) = 5.72380 6.43039 6.08736
#
# Compressibility (1/GPa) = 0.02622654
#
# Stress axis : x y z
#
# Youngs Moduli (GPa) = 56.09502 57.78848 66.82776
#
# Poissons Ratio (x) = -0.00464 0.35894
# Poissons Ratio (y) = -0.00450 0.44397
# Poissons Ratio (z) = 0.30129 0.38392
#
# Static dielectric constant tensor:
#      x y z
#    x 1.751840 -0.012560 -0.027330 
#    y -0.012560 1.743940 -0.010310 
#    z -0.027330 -0.010310 1.721040 
# 
# From -- ./inp_files/71005.got.cif
#   From: 2010.05.17/outbox.cif.g08.bks.cpg/sg2_36_cif.got.tgz:71005.got - 2010.06.03 11:33:40.
