data_PCOD9023338
_publ_section_title
;
Structure prediction by ZEFSAII (Michael W. Deem and Ramdas Pophale) SiO2 
 PCOD9023338
Probable space group: P -1
;
_chemical_formula_sum "Si O2"
_cell_formula_units_Z 10
_cell_length_a 5.710845
_cell_length_b 15.044152
_cell_length_c 15.819560
_cell_angle_alpha 18.478924
_cell_angle_beta 110.096868
_cell_angle_gamma 113.732817
_cell_volume 390.938166
_symmetry_space_group_name_H-M "P -1"
_symmetry_group_IT_number 2
_symmetry_cell_setting 'triclinic'
loop_
_space_group_symop_operation_xyz
x,y,z
-x,-y,-z
loop_
_atom_site_type_symbol
_atom_site_label
_atom_site_fract_x
_atom_site_fract_y
_atom_site_fract_z
Si Si1 0.512219 0.843606 0.413500
Si Si2 0.996349 0.558466 0.545344
Si Si3 0.161320 0.854160 0.961922
Si Si4 0.384587 0.732210 0.823018
Si Si5 0.963979 0.622091 0.749981
O O1 0.280722 0.575936 0.601426
O O2 0.776509 0.773997 0.539183
O O3 0.434314 0.007063 0.337497
O O4 0.585972 0.032597 0.167175
O O5 0.000000 0.500000 0.500000
O O6 0.802786 0.313253 0.797383
O O7 0.940981 0.868801 0.277181
O O8 0.976945 0.613672 0.094797
O O9 0.205892 0.825683 0.645105
O O10 0.500000 0.500000 0.000000
O O11 0.204345 0.562758 0.028895
#
# Coordination Sequence:
#
# PCOD9023338 Si02
#       5
#     2   2   2   2   2
#     4  11  25  44  74  99 147 188 233 287 355 409
#     4  12  28  47  74 106 137 184 241 291 356 418
#     4  11  25  48  71 103 145 180 233 295 347 423
#     4  10  22  39  68 102 143 187 232 282 344 418
#     4  10  22  42  66 105 140 188 230 282 349 419
#
# _framework density 25.579491999999998
#
# number of rings (size 3 to 8) (size 9 to 14) (size 15 to 20)
#    0.000    1.200    2.000    2.400    8.400    2.400 
#    0.000    0.000    0.000    0.000    0.000    0.000 
#    0.000    0.000    0.000    0.000    0.000    0.000 
#
# Total GULP energy -56010.884084 kJ/mol
# GULP energy per Si atom -5601.088408 kJ/mol
# Density = 2.552127 g / cm^3
# Si number density = 25.579492 Si / 1000 Ang^3
#
#
#
# Elastic Constant Matrix: (Units=GPa)
#
#
# Indices 1 2 3 4 5 6 
#
# 1 66.3507 69.8366 36.1802 9.0826 4.8319 -27.5042
# 2 69.8366 163.4214 49.7636 11.0900 3.9384 -50.9411
# 3 36.1802 49.7636 130.5148 13.2722 5.5273 -31.4881
# 4 9.0826 11.0900 13.2722 37.2530 -19.6921 -8.5017
# 5 4.8319 3.9384 5.5273 -19.6921 55.7472 2.4435
# 6 -27.5042 -50.9411 -31.4881 -8.5017 2.4435 49.4556
#
#
#
# Elastic Compliance Matrix: (Units=1/GPa)
#
#
# Indices 1 2 3 4 5 6 
#
# 1 0.029874 -0.010453 -0.002924 -0.003992 -0.003122 0.003453
# 2 -0.010453 0.012970 -0.000286 0.000399 -0.000167 0.007441
# 3 -0.002924 -0.000286 0.009912 -0.002813 -0.001878 0.003999
# 4 -0.003992 0.000399 -0.002813 0.036172 0.013288 0.001961
# 5 -0.003122 -0.000167 -0.001878 0.013288 0.023187 -0.001966
# 6 0.003453 0.007441 0.003999 0.001961 -0.001966 0.032785
#
#
# Mechanical properties :
#
#
# Convention : Reuss Voigt Hill
#
# Bulk Modulus (GPa) = 39.32608 74.64978 56.98793
# Shear Modulus (GPa) = 27.66978 42.12492 34.89735
#
# Velocity S-wave (km/s) = 3.29252 4.06251 3.69761
# Velocity P-wave (km/s) = 5.46458 7.15906 6.36843
#
# Compressibility (1/GPa) = 0.02542842
#
# Stress axis : x y z
#
# Youngs Moduli (GPa) = 33.47429 77.10357 100.88611
#
# Poissons Ratio (x) = 0.80599 0.29503
# Poissons Ratio (y) = 0.34992 0.02883
# Poissons Ratio (z) = 0.09789 0.02203
#
# Static dielectric constant tensor:
#      x y z
#    x 2.048160 0.032250 0.010990 
#    y 0.032250 1.974130 -0.021320 
#    z 0.010990 -0.021320 2.055970 
# 
# From -- ./inp_files/1674.got.cif
#   From: 2010.05.17/outbox.cif.g08.bks.cpg/sg2_1_cif.got.tgz:1674.got - 2010.06.03 11:33:40.
