data_PCOD9023231
_publ_section_title
;
Structure prediction by ZEFSAII (Michael W. Deem and Ramdas Pophale) SiO2 
 PCOD9023231
Probable space group: P -1
;
_chemical_formula_sum "Si O2"
_cell_formula_units_Z 14
_cell_length_a 8.328148
_cell_length_b 9.569601
_cell_length_c 10.861688
_cell_angle_alpha 107.485595
_cell_angle_beta 113.485007
_cell_angle_gamma 114.708218
_cell_volume 597.287308
_symmetry_space_group_name_H-M "P -1"
_symmetry_group_IT_number 2
_symmetry_cell_setting 'triclinic'
loop_
_space_group_symop_operation_xyz
x,y,z
-x,-y,-z
loop_
_atom_site_type_symbol
_atom_site_label
_atom_site_fract_x
_atom_site_fract_y
_atom_site_fract_z
Si Si1 0.266147 0.810845 0.051608
Si Si2 0.973707 0.441932 0.311827
Si Si3 0.995354 0.802962 0.418277
Si Si4 0.278131 0.129839 0.770528
Si Si5 0.679579 0.012670 0.642591
Si Si6 0.237629 0.119002 0.037787
Si Si7 0.613554 0.339715 0.364481
O O1 0.478267 0.815523 0.133137
O O2 0.206232 0.826542 0.176510
O O3 0.317358 0.991256 0.046348
O O4 0.086308 0.645796 0.864055
O O5 0.766350 0.324335 0.311592
O O6 0.007683 0.635346 0.367383
O O7 0.193291 0.483398 0.450411
O O8 0.141444 0.946025 0.389558
O O9 0.756896 0.750394 0.300508
O O10 0.114112 0.922607 0.608278
O O11 0.222437 0.143148 0.896636
O O12 0.500000 0.000000 0.500000
O O13 0.537576 0.823710 0.626747
O O14 0.425010 0.313330 0.213661
O O15 0.000000 0.000000 0.000000
#
# Coordination Sequence:
#
# PCOD9023231 Si02
#       7
#     2   2   2   2   2   2   2
#     4  11  23  38  69  95 128 173 220 261 332 387
#     4  11  23  40  65 101 132 169 209 279 327 384
#     4  11  24  41  66  95 136 169 222 268 323 382
#     4  11  22  40  67  94 122 184 225 256 314 402
#     4  11  20  40  64  93 128 172 217 265 311 392
#     4  11  23  43  68  95 129 171 225 269 313 397
#     4  10  22  39  67  91 130 167 211 267 324 375
#
# _framework density 23.439305999999998
#
# number of rings (size 3 to 8) (size 9 to 14) (size 15 to 20)
#    0.000    1.143    4.286    3.000    6.000    1.143 
#    0.000    0.714    6.286    0.000    0.000    0.000 
#    0.000    0.000    0.000    0.000    0.000    0.000 
#
# Total GULP energy -78150.858834 kJ/mol
# GULP energy per Si atom -5582.204202 kJ/mol
# Density = 2.338596 g / cm^3
# Si number density = 23.439306 Si / 1000 Ang^3
#
#
#
# Elastic Constant Matrix: (Units=GPa)
#
#
# Indices 1 2 3 4 5 6 
#
# 1 60.6079 2.5911 38.6993 6.9070 13.2379 21.4621
# 2 2.5911 58.0523 20.7960 2.9207 -5.4439 17.9147
# 3 38.6993 20.7960 236.3434 -14.2499 8.2995 2.1336
# 4 6.9070 2.9207 -14.2499 33.5241 1.4562 -0.5795
# 5 13.2379 -5.4439 8.2995 1.4562 44.1797 -4.1927
# 6 21.4621 17.9147 2.1336 -0.5795 -4.1927 29.0094
#
#
#
# Elastic Compliance Matrix: (Units=1/GPa)
#
#
# Indices 1 2 3 4 5 6 
#
# 1 0.037023 0.011456 -0.007056 -0.011751 -0.011369 -0.035824
# 2 0.011456 0.026048 -0.004303 -0.006818 -0.001524 -0.024601
# 3 -0.007056 -0.004303 0.005926 0.004435 0.001054 0.007683
# 4 -0.011751 -0.006818 0.004435 0.034878 0.001985 0.013561
# 5 -0.011369 -0.001524 0.001054 0.001985 0.026842 0.013194
# 6 -0.035824 -0.024601 0.007683 0.013561 0.013194 0.077781
#
#
# Mechanical properties :
#
#
# Convention : Reuss Voigt Hill
#
# Bulk Modulus (GPa) = 14.45295 53.24180 33.84737
# Shear Modulus (GPa) = 21.61052 40.87046 31.24049
#
# Velocity S-wave (km/s) = 3.03970 4.18026 3.65475
# Velocity P-wave (km/s) = 4.30107 6.78701 5.68167
#
# Compressibility (1/GPa) = 0.06919005
#
# Stress axis : x y z
#
# Youngs Moduli (GPa) = 27.00988 38.39084 168.74280
#
# Poissons Ratio (x) = -0.43979 1.19067
# Poissons Ratio (y) = -0.30941 0.72613
# Poissons Ratio (z) = 0.19058 0.16520
#
# Static dielectric constant tensor:
#      x y z
#    x 1.937990 -0.013730 0.032480 
#    y -0.013730 1.916760 0.028640 
#    z 0.032480 0.028640 1.947630 
# 
# From -- ./inp_files/390766.got.cif
#   From: 2010.05.17/outbox.cif.g08.bks.cpg/sg2_196_cif.got.tgz:390766.got - 2010.06.03 11:33:40.
