data_PCOD9023195
_publ_section_title
;
Structure prediction by ZEFSAII (Michael W. Deem and Ramdas Pophale) SiO2 
 PCOD9023195
Probable space group: P -1
;
_chemical_formula_sum "Si O2"
_cell_formula_units_Z 12
_cell_length_a 6.882246
_cell_length_b 9.261645
_cell_length_c 11.172533
_cell_angle_alpha 72.576478
_cell_angle_beta 132.877417
_cell_angle_gamma 88.614821
_cell_volume 470.727662
_symmetry_space_group_name_H-M "P -1"
_symmetry_group_IT_number 2
_symmetry_cell_setting 'triclinic'
loop_
_space_group_symop_operation_xyz
x,y,z
-x,-y,-z
loop_
_atom_site_type_symbol
_atom_site_label
_atom_site_fract_x
_atom_site_fract_y
_atom_site_fract_z
Si Si1 0.140939 0.221892 0.288687
Si Si2 0.226675 0.847968 0.195410
Si Si3 0.835631 0.690477 0.367491
Si Si4 0.750504 0.111089 0.520375
Si Si5 0.808274 0.477037 0.816344
Si Si6 0.527588 0.392617 0.921068
O O1 0.419511 0.172624 0.333559
O O2 0.171111 0.390710 0.303382
O O3 0.151134 0.077971 0.416551
O O4 0.837442 0.262691 0.091093
O O5 0.545481 0.784728 0.293094
O O6 0.247217 0.881613 0.335343
O O7 0.127002 0.693932 0.172419
O O8 0.000000 0.000000 0.000000
O O9 0.702580 0.691191 0.178190
O O10 0.000000 0.500000 0.500000
O O11 0.048352 0.789310 0.452991
O O12 0.533747 0.493787 0.777638
O O13 0.000000 0.500000 0.000000
O O14 0.500000 0.500000 0.000000
#
# Coordination Sequence:
#
# PCOD9023195 Si02
#       6
#     2   2   2   2   2   2
#     4  10  23  44  62 100 136 182 222 275 349 408
#     4  11  24  42  70 102 135 181 229 283 350 402
#     4  11  26  45  70 106 136 176 237 286 334 414
#     4  11  24  44  70  95 144 177 225 290 341 402
#     4   9  19  38  62  91 131 171 222 269 330 409
#     4  10  22  39  66  99 133 175 226 277 337 406
#
# _framework density 25.492446000000001
#
# number of rings (size 3 to 8) (size 9 to 14) (size 15 to 20)
#    0.000    1.667    0.000    5.000    7.000    4.000 
#    3.000    1.667    0.000    0.000    0.000    0.000 
#    0.000    0.000    0.000    0.000    0.000    0.000 
#
# Total GULP energy -66876.603959 kJ/mol
# GULP energy per Si atom -5573.050330 kJ/mol
# Density = 2.543442 g / cm^3
# Si number density = 25.492446 Si / 1000 Ang^3
#
#
#
# Elastic Constant Matrix: (Units=GPa)
#
#
# Indices 1 2 3 4 5 6 
#
# 1 136.7155 69.8065 58.0173 -5.3196 29.8467 3.8939
# 2 69.8065 204.4732 61.0419 -13.4292 6.3850 30.3012
# 3 58.0173 61.0419 161.2994 -10.4550 48.5355 11.1497
# 4 -5.3196 -13.4292 -10.4550 53.1879 1.6194 -11.6598
# 5 29.8467 6.3850 48.5355 1.6194 38.4491 19.9441
# 6 3.8939 30.3012 11.1497 -11.6598 19.9441 55.5192
#
#
#
# Elastic Compliance Matrix: (Units=1/GPa)
#
#
# Indices 1 2 3 4 5 6 
#
# 1 0.012369 -0.005170 0.001544 0.002297 -0.014616 0.007377
# 2 -0.005170 0.008938 -0.005098 -0.001579 0.013536 -0.008686
# 3 0.001544 -0.005098 0.014196 0.004347 -0.023151 0.009053
# 4 0.002297 -0.001579 0.004347 0.021825 -0.012556 0.008921
# 5 -0.014616 0.013536 -0.023151 -0.012556 0.082485 -0.033981
# 6 0.007377 -0.008686 0.009053 0.008921 -0.033981 0.034498
#
#
# Mechanical properties :
#
#
# Convention : Reuss Voigt Hill
#
# Bulk Modulus (GPa) = 55.38377 97.80215 76.59296
# Shear Modulus (GPa) = 25.28117 50.33940 37.81029
#
# Velocity S-wave (km/s) = 3.15256 4.44856 3.85541
# Velocity P-wave (km/s) = 5.91813 8.05200 7.06608
#
# Compressibility (1/GPa) = 0.01805583
#
# Stress axis : x y z
#
# Youngs Moduli (GPa) = 80.84934 111.87845 70.44449
#
# Poissons Ratio (x) = 0.57836 -0.10879
# Poissons Ratio (y) = 0.41795 0.35914
# Poissons Ratio (z) = -0.12486 0.57038
#
# Static dielectric constant tensor:
#      x y z
#    x 2.156220 0.004140 -0.011610 
#    y 0.004140 2.141680 -0.047250 
#    z -0.011610 -0.047250 2.117520 
# 
# From -- ./inp_files/490864.got.cif
#   From: 2010.05.17/outbox.cif.g08.bks.cpg/sg2_246_cif.got.tgz:490864.got - 2010.06.03 11:33:40.
