data_PCOD9023509
_publ_section_title
;
Structure prediction by ZEFSAII (Michael W. Deem and Ramdas Pophale) SiO2 
 PCOD9023509
Probable space group: P -1
;
_chemical_formula_sum "Si O2"
_cell_formula_units_Z 16
_cell_length_a 12.780192
_cell_length_b 8.051225
_cell_length_c 12.507757
_cell_angle_alpha 110.739160
_cell_angle_beta 87.242289
_cell_angle_gamma 36.446222
_cell_volume 572.382648
_symmetry_space_group_name_H-M "P -1"
_symmetry_group_IT_number 2
_symmetry_cell_setting 'triclinic'
loop_
_space_group_symop_operation_xyz
x,y,z
-x,-y,-z
loop_
_atom_site_type_symbol
_atom_site_label
_atom_site_fract_x
_atom_site_fract_y
_atom_site_fract_z
Si Si1 0.275163 0.333226 0.460836
Si Si2 0.776915 0.735375 0.105169
Si Si3 0.801423 0.777008 0.360522
Si Si4 0.133299 0.868913 0.702384
Si Si5 0.616090 0.314400 0.160947
Si Si6 0.937899 0.896027 0.445294
Si Si7 0.761064 0.338824 0.970050
Si Si8 0.318763 0.996563 0.212835
O O1 0.298106 0.199654 0.539756
O O2 0.283215 0.526995 0.537072
O O3 0.036436 0.657353 0.492464
O O4 0.395391 0.056411 0.292991
O O5 0.752015 0.798371 0.247775
O O6 0.602764 0.124833 0.143800
O O7 0.789125 0.508981 0.026548
O O8 0.000000 0.500000 0.000000
O O9 0.733185 0.078053 0.467822
O O10 0.070133 0.370706 0.270367
O O11 0.280173 0.754754 0.752655
O O12 0.981916 0.212334 0.708721
O O13 0.961897 0.999785 0.804055
O O14 0.383443 0.740682 0.231009
O O15 0.771149 0.181945 0.032103
O O16 0.000000 0.000000 0.500000
O O17 0.498871 0.713393 0.044774
#
# Coordination Sequence:
#
# PCOD9023509 Si02
#       8
#     2   2   2   2   2   2   2   2
#     4  10  22  39  70  91 131 182 222 267 339 402
#     4  12  23  41  72 100 132 178 232 271 325 415
#     4  11  21  42  68  94 125 187 224 263 339 407
#     4  11  19  39  66  96 124 185 221 263 338 409
#     4  10  22  40  68  94 139 165 228 271 335 387
#     4   9  18  34  58  92 125 163 223 269 307 397
#     4  10  23  42  69  98 138 173 223 280 337 388
#     4   9  23  43  63  98 142 168 218 290 334 387
#
# _framework density 27.953329
#
# number of rings (size 3 to 8) (size 9 to 14) (size 15 to 20)
#    0.750    1.000    2.500    2.625    1.750    0.500 
#    0.000   18.750    0.000    0.000    0.000    0.000 
#    0.000    0.000    0.000    0.000    0.000    0.000 
#
# Total GULP energy -89123.237416 kJ/mol
# GULP energy per Si atom -5570.202338 kJ/mol
# Density = 2.788971 g / cm^3
# Si number density = 27.953329 Si / 1000 Ang^3
#
#
#
# Elastic Constant Matrix: (Units=GPa)
#
#
# Indices 1 2 3 4 5 6 
#
# 1 145.5782 43.0349 34.4203 -0.2488 27.2055 16.8357
# 2 43.0349 139.9910 43.5445 -28.5028 2.1712 7.6376
# 3 34.4203 43.5445 123.6450 -20.6769 5.3877 -3.3867
# 4 -0.2488 -28.5028 -20.6769 57.2746 2.1513 -6.0513
# 5 27.2055 2.1712 5.3877 2.1513 53.2028 17.8255
# 6 16.8357 7.6376 -3.3867 -6.0513 17.8255 43.5308
#
#
#
# Elastic Compliance Matrix: (Units=1/GPa)
#
#
# Indices 1 2 3 4 5 6 
#
# 1 0.008896 -0.002380 -0.001856 -0.001894 -0.003521 -0.001989
# 2 -0.002380 0.009306 -0.002063 0.003744 0.001174 -0.000833
# 3 -0.001856 -0.002063 0.009925 0.002865 -0.000975 0.002650
# 4 -0.001894 0.003744 0.002865 0.020816 -0.001606 0.003850
# 5 -0.003521 0.001174 -0.000975 -0.001606 0.023673 -0.008837
# 6 -0.001989 -0.000833 0.002650 0.003850 -0.008837 0.028248
#
#
# Mechanical properties :
#
#
# Convention : Reuss Voigt Hill
#
# Bulk Modulus (GPa) = 64.39175 72.35707 68.37441
# Shear Modulus (GPa) = 42.14472 50.01593 46.08033
#
# Velocity S-wave (km/s) = 3.88710 4.23456 4.06454
# Velocity P-wave (km/s) = 6.57507 7.06044 6.82207
#
# Compressibility (1/GPa) = 0.01552994
#
# Stress axis : x y z
#
# Youngs Moduli (GPa) = 112.40530 107.45643 100.75568
#
# Poissons Ratio (x) = 0.25574 0.18702
# Poissons Ratio (y) = 0.26752 0.20783
# Poissons Ratio (z) = 0.20864 0.22165
#
# Static dielectric constant tensor:
#      x y z
#    x 2.274900 0.113270 0.061240 
#    y 0.113270 2.438710 0.174850 
#    z 0.061240 0.174850 2.218570 
# 
# From -- ./inp_files/447840.got.cif
#   From: 2010.05.17/outbox.cif.g08.bks.cpg/sg2_224_cif.got.tgz:447840.got - 2010.06.03 11:33:40.
