data_PCOD9023629
_publ_section_title
;
Structure prediction by ZEFSAII (Michael W. Deem and Ramdas Pophale) SiO2 
 PCOD9023629
Probable space group: P -1
;
_chemical_formula_sum "Si O2"
_cell_formula_units_Z 14
_cell_length_a 27.181264
_cell_length_b 4.844647
_cell_length_c 5.974929
_cell_angle_alpha 83.313414
_cell_angle_beta 115.497490
_cell_angle_gamma 63.485575
_cell_volume 587.255854
_symmetry_space_group_name_H-M "P -1"
_symmetry_group_IT_number 2
_symmetry_cell_setting 'triclinic'
loop_
_space_group_symop_operation_xyz
x,y,z
-x,-y,-z
loop_
_atom_site_type_symbol
_atom_site_label
_atom_site_fract_x
_atom_site_fract_y
_atom_site_fract_z
Si Si1 0.103554 0.765360 0.795748
Si Si2 0.356516 0.094494 0.985302
Si Si3 0.134272 0.235905 0.288965
Si Si4 0.014349 0.733691 0.243984
Si Si5 0.576935 0.583012 0.072666
Si Si6 0.546331 0.237701 0.426018
Si Si7 0.201824 0.536256 0.641357
O O1 0.058018 0.754525 0.518154
O O2 0.166053 0.701487 0.791315
O O3 0.123535 0.466440 0.035215
O O4 0.055846 0.122844 0.792501
O O5 0.387073 0.226880 0.857097
O O6 0.279225 0.333149 0.826266
O O7 0.379393 0.727196 0.982172
O O8 0.392883 0.060239 0.293417
O O9 0.063558 0.379398 0.255250
O O10 0.177890 0.302108 0.535576
O O11 0.172563 0.841149 0.378909
O O12 0.000000 0.000000 0.000000
O O13 0.570065 0.416235 0.294473
O O14 0.503867 0.815497 0.803853
O O15 0.500000 0.500000 0.500000
#
# Coordination Sequence:
#
# PCOD9023629 Si02
#       7
#     2   2   2   2   2   2   2
#     4   9  19  38  62  87 119 158 196 249 303 346
#     4  11  23  39  59  88 122 160 198 239 294 354
#     4  10  22  40  59  86 119 156 202 249 296 353
#     4   8  16  36  63  90 116 150 200 252 301 350
#     4  10  22  40  63  89 120 153 195 248 296 345
#     4   9  21  40  65  92 118 152 197 246 296 349
#     4  11  24  39  58  86 122 160 202 241 288 359
#
# _framework density 23.839694999999999
#
# number of rings (size 3 to 8) (size 9 to 14) (size 15 to 20)
#    0.000    2.286    0.000    1.286    0.000   12.571 
#    0.000   24.286    0.000    0.000    0.000    0.000 
#    0.000    0.000    0.000    0.000    0.000    0.000 
#
# Total GULP energy -78368.871790 kJ/mol
# GULP energy per Si atom -5597.776556 kJ/mol
# Density = 2.378543 g / cm^3
# Si number density = 23.839695 Si / 1000 Ang^3
#
#
#
# Elastic Constant Matrix: (Units=GPa)
#
#
# Indices 1 2 3 4 5 6 
#
# 1 142.3350 38.1224 67.8166 -16.0618 20.4438 -17.6764
# 2 38.1224 79.1309 33.6639 -18.1099 10.1071 1.8054
# 3 67.8166 33.6639 120.2333 -17.4375 8.6132 -28.1454
# 4 -16.0618 -18.1099 -17.4375 35.1405 -13.0453 2.3069
# 5 20.4438 10.1071 8.6132 -13.0453 38.2893 -6.8864
# 6 -17.6764 1.8054 -28.1454 2.3069 -6.8864 43.9941
#
#
#
# Elastic Compliance Matrix: (Units=1/GPa)
#
#
# Indices 1 2 3 4 5 6 
#
# 1 0.010671 -0.002672 -0.004894 -0.000426 -0.003915 0.000676
# 2 -0.002672 0.016893 -0.003341 0.005696 -0.001128 -0.004380
# 3 -0.004894 -0.003341 0.014070 0.003610 0.002898 0.007436
# 4 -0.000426 0.005696 0.003610 0.036881 0.010775 0.001658
# 5 -0.003915 -0.001128 0.002898 0.010775 0.032394 0.004833
# 6 0.000676 -0.004380 0.007436 0.001658 0.004833 0.028609
#
#
# Mechanical properties :
#
#
# Convention : Reuss Voigt Hill
#
# Bulk Modulus (GPa) = 50.45328 68.98944 59.72136
# Shear Modulus (GPa) = 29.77274 36.95785 33.36530
#
# Velocity S-wave (km/s) = 3.53777 3.94161 3.74514
# Velocity P-wave (km/s) = 6.15608 7.05101 6.61869
#
# Compressibility (1/GPa) = 0.01982032
#
# Stress axis : x y z
#
# Youngs Moduli (GPa) = 93.70919 59.19451 71.07330
#
# Poissons Ratio (x) = 0.15815 0.34784
# Poissons Ratio (y) = 0.25037 0.23748
# Poissons Ratio (z) = 0.45862 0.19779
#
# Static dielectric constant tensor:
#      x y z
#    x 1.868640 -0.011700 -0.011670 
#    y -0.011700 1.958660 0.060710 
#    z -0.011670 0.060710 1.921440 
# 
# From -- ./inp_files/9439.got.cif
#   From: 2010.05.17/outbox.cif.g08.bks.cpg/sg2_5_cif.got.tgz:9439.got - 2010.06.03 11:33:40.
