data_PCOD9023863
_publ_section_title
;
Structure prediction by ZEFSAII (Michael W. Deem and Ramdas Pophale) SiO2 
 PCOD9023863
Probable space group: P -1
;
_chemical_formula_sum "Si O2"
_cell_formula_units_Z 14
_cell_length_a 14.906059
_cell_length_b 14.128885
_cell_length_c 7.420043
_cell_angle_alpha 92.631924
_cell_angle_beta 105.599354
_cell_angle_gamma 151.924466
_cell_volume 553.132669
_symmetry_space_group_name_H-M "P -1"
_symmetry_group_IT_number 2
_symmetry_cell_setting 'triclinic'
loop_
_space_group_symop_operation_xyz
x,y,z
-x,-y,-z
loop_
_atom_site_type_symbol
_atom_site_label
_atom_site_fract_x
_atom_site_fract_y
_atom_site_fract_z
Si Si1 0.135392 0.725856 0.761403
Si Si2 0.740179 0.988521 0.858647
Si Si3 0.615706 0.212313 0.538783
Si Si4 0.214856 0.302925 0.097053
Si Si5 0.543346 0.731071 0.050009
Si Si6 0.007992 0.064219 0.320334
Si Si7 0.641505 0.249126 0.935093
O O1 0.839110 0.435452 0.533334
O O2 0.340050 0.938493 0.734282
O O3 0.223186 0.709082 0.891730
O O4 0.198627 0.870256 0.949783
O O5 0.596155 0.909899 0.620481
O O6 0.548331 0.734134 0.834783
O O7 0.981378 0.156625 0.945353
O O8 0.759054 0.370466 0.814379
O O9 0.500000 0.000000 0.500000
O O10 0.442650 0.562793 0.128990
O O11 0.145898 0.146758 0.924527
O O12 0.238005 0.306502 0.326392
O O13 0.847931 0.008380 0.268145
O O14 0.371626 0.660485 0.981163
O O15 0.000000 0.000000 0.500000
#
# Coordination Sequence:
#
# PCOD9023863 Si02
#       7
#     2   2   2   2   2   2   2
#     4  10  22  43  58  87 134 167 212 267 305 376
#     4  10  23  42  60  94 129 165 216 263 313 377
#     4  12  24  36  62  93 125 173 221 257 313 374
#     4  10  22  43  68  88 131 166 202 270 323 382
#     4  10  22  42  65  90 121 167 207 261 325 372
#     4  10  23  43  65  96 126 158 211 261 324 399
#     4  10  22  40  62  87 126 171 210 261 321 366
#
# _framework density 25.310385
#
# number of rings (size 3 to 8) (size 9 to 14) (size 15 to 20)
#    0.000    1.714    1.429    1.714    4.000    2.286 
#    7.714    0.000    0.000    0.000    0.000    0.000 
#    0.000    0.000    0.000    0.000    0.000    0.000 
#
# Total GULP energy -77969.327373 kJ/mol
# GULP energy per Si atom -5569.237670 kJ/mol
# Density = 2.525278 g / cm^3
# Si number density = 25.310385 Si / 1000 Ang^3
#
#
#
# Elastic Constant Matrix: (Units=GPa)
#
#
# Indices 1 2 3 4 5 6 
#
# 1 111.8440 0.7885 30.3504 -1.1281 16.3356 7.1875
# 2 0.7885 136.6812 23.9166 -27.4813 -2.8222 17.5053
# 3 30.3504 23.9166 64.6356 -36.8371 17.4096 0.7440
# 4 -1.1281 -27.4813 -36.8371 48.4893 0.5256 6.7489
# 5 16.3356 -2.8222 17.4096 0.5256 45.0287 -6.5600
# 6 7.1875 17.5053 0.7440 6.7489 -6.5600 28.6156
#
#
#
# Elastic Compliance Matrix: (Units=1/GPa)
#
#
# Indices 1 2 3 4 5 6 
#
# 1 0.011447 0.000510 -0.008428 -0.005571 -0.001074 -0.001900
# 2 0.000510 0.009615 0.000563 0.007001 -0.001034 -0.007912
# 3 -0.008428 0.000563 0.043466 0.034873 -0.015750 -0.011193
# 4 -0.005571 0.007001 0.034873 0.053871 -0.014541 -0.019829
# 5 -0.001074 -0.001034 -0.015750 -0.014541 0.030502 0.011734
# 6 -0.001900 -0.007912 -0.011193 -0.019829 0.011734 0.047921
#
#
# Mechanical properties :
#
#
# Convention : Reuss Voigt Hill
#
# Bulk Modulus (GPa) = 20.07328 47.03019 33.55174
# Shear Modulus (GPa) = 21.91652 41.63372 31.77512
#
# Velocity S-wave (km/s) = 2.94583 4.06017 3.54703
# Velocity P-wave (km/s) = 4.41799 6.37194 5.48271
#
# Compressibility (1/GPa) = 0.04981746
#
# Stress axis : x y z
#
# Youngs Moduli (GPa) = 87.35748 104.00927 23.00639
#
# Poissons Ratio (x) = -0.05301 0.19389
# Poissons Ratio (y) = -0.04453 -0.01295
# Poissons Ratio (z) = 0.73621 -0.05852
#
# Static dielectric constant tensor:
#      x y z
#    x 1.974030 -0.090400 -0.016050 
#    y -0.090400 2.115550 0.022320 
#    z -0.016050 0.022320 1.990770 
# 
# From -- ./inp_files/138833.got.cif
#   From: 2010.05.17/outbox.cif.g08.bks.cpg/sg2_70_cif.got.tgz:138833.got - 2010.06.03 11:33:40.
