data_PCOD9023526
_publ_section_title
;
Structure prediction by ZEFSAII (Michael W. Deem and Ramdas Pophale) SiO2 
 PCOD9023526
Probable space group: P -1
;
_chemical_formula_sum "Si O2"
_cell_formula_units_Z 16
_cell_length_a 12.185236
_cell_length_b 12.098490
_cell_length_c 11.099629
_cell_angle_alpha 65.040009
_cell_angle_beta 39.247916
_cell_angle_gamma 95.203261
_cell_volume 643.627311
_symmetry_space_group_name_H-M "P -1"
_symmetry_group_IT_number 2
_symmetry_cell_setting 'triclinic'
loop_
_space_group_symop_operation_xyz
x,y,z
-x,-y,-z
loop_
_atom_site_type_symbol
_atom_site_label
_atom_site_fract_x
_atom_site_fract_y
_atom_site_fract_z
Si Si1 0.449131 0.850782 0.958229
Si Si2 0.440150 0.347794 0.042591
Si Si3 0.918165 0.455200 0.229356
Si Si4 0.289401 0.256049 0.591177
Si Si5 0.042279 0.367178 0.665772
Si Si6 0.426529 0.111118 0.882690
Si Si7 0.007571 0.055788 0.167337
Si Si8 0.836032 0.664241 0.912174
O O1 0.490762 0.013574 0.812299
O O2 0.588316 0.801815 0.809161
O O3 0.515532 0.876456 0.031183
O O4 0.158862 0.697062 0.233306
O O5 0.686357 0.455746 0.699373
O O6 0.211198 0.268263 0.188332
O O7 0.500000 0.500000 0.000000
O O8 0.027859 0.609504 0.157055
O O9 0.618445 0.306374 0.571187
O O10 0.000000 0.500000 0.000000
O O11 0.001484 0.367498 0.250658
O O12 0.089863 0.250759 0.708388
O O13 0.194234 0.172582 0.841217
O O14 0.562009 0.461997 0.267936
O O15 0.248866 0.119528 0.601093
O O16 0.146637 0.021261 0.143334
O O17 0.031117 0.192409 0.160696
#
# Coordination Sequence:
#
# PCOD9023526 Si02
#       8
#     2   2   2   2   2   2   2   2
#     4  11  22  42  68  98 138 176 224 282 346 412
#     4  11  23  40  68  99 131 179 226 280 342 411
#     4  12  25  44  69 100 138 185 233 280 343 415
#     4  10  22  39  70  98 128 182 229 290 339 407
#     4  11  22  43  68  98 133 179 231 279 346 408
#     4  11  23  42  68 100 136 183 225 282 346 409
#     4  11  20  43  67  96 136 175 238 280 347 403
#     4  11  23  41  61  97 137 172 230 281 341 406
#
# _framework density 24.859107000000002
#
# number of rings (size 3 to 8) (size 9 to 14) (size 15 to 20)
#    0.000    1.000    3.750    3.750    1.750    0.000 
#    6.750    1.250    0.000    0.000    0.000    0.000 
#    0.000    0.000    0.000    0.000    0.000    0.000 
#
# Total GULP energy -89374.723410 kJ/mol
# GULP energy per Si atom -5585.920213 kJ/mol
# Density = 2.480253 g / cm^3
# Si number density = 24.859107 Si / 1000 Ang^3
#
#
#
# Elastic Constant Matrix: (Units=GPa)
#
#
# Indices 1 2 3 4 5 6 
#
# 1 58.3279 -19.1149 -1.4102 2.5231 -8.4305 -4.4236
# 2 -19.1149 125.9467 21.2263 -19.7509 -5.3345 10.0700
# 3 -1.4102 21.2263 26.8464 -6.6092 0.9830 4.7529
# 4 2.5231 -19.7509 -6.6092 36.2783 0.4170 2.8483
# 5 -8.4305 -5.3345 0.9830 0.4170 35.7933 8.1492
# 6 -4.4236 10.0700 4.7529 2.8483 8.1492 38.7831
#
#
#
# Elastic Compliance Matrix: (Units=1/GPa)
#
#
# Indices 1 2 3 4 5 6 
#
# 1 0.018949 0.003382 -0.001924 0.000079 0.004909 0.000482
# 2 0.003382 0.010633 -0.006794 0.004478 0.003089 -0.002521
# 3 -0.001924 -0.006794 0.044470 0.004862 -0.001862 -0.003871
# 4 0.000079 0.004478 0.004862 0.031206 0.001165 -0.004286
# 5 0.004909 0.003089 -0.001862 0.001165 0.031103 -0.006635
# 6 0.000482 -0.002521 -0.003871 -0.004286 -0.006635 0.028677
#
#
# Mechanical properties :
#
#
# Convention : Reuss Voigt Hill
#
# Bulk Modulus (GPa) = 15.77798 23.61372 19.69585
# Shear Modulus (GPa) = 25.40178 36.19892 30.80035
#
# Velocity S-wave (km/s) = 3.20008 3.82011 3.52376
# Velocity P-wave (km/s) = 4.47378 5.38306 4.94934
#
# Compressibility (1/GPa) = 0.06337948
#
# Stress axis : x y z
#
# Youngs Moduli (GPa) = 52.77338 94.04900 22.48719
#
# Poissons Ratio (x) = -0.31807 0.04327
# Poissons Ratio (y) = -0.17848 0.15277
# Poissons Ratio (z) = 0.10155 0.63893
#
# Static dielectric constant tensor:
#      x y z
#    x 2.006860 -0.033510 0.047600 
#    y -0.033510 2.027020 -0.069720 
#    z 0.047600 -0.069720 2.039880 
# 
# From -- ./inp_files/285186.got.cif
#   From: 2010.05.17/outbox.cif.g08.bks.cpg/sg2_143_cif.got.tgz:285186.got - 2010.06.03 11:33:40.
