data_PCOD9023912
_publ_section_title
;
Structure prediction by ZEFSAII (Michael W. Deem and Ramdas Pophale) SiO2 
 PCOD9023912
Probable space group: P -1
;
_chemical_formula_sum "Si O2"
_cell_formula_units_Z 15
_cell_length_a 9.061060
_cell_length_b 15.918051
_cell_length_c 9.337983
_cell_angle_alpha 93.224003
_cell_angle_beta 63.610831
_cell_angle_gamma 47.021768
_cell_volume 738.273774
_symmetry_space_group_name_H-M "P -1"
_symmetry_group_IT_number 2
_symmetry_cell_setting 'triclinic'
loop_
_space_group_symop_operation_xyz
x,y,z
-x,-y,-z
loop_
_atom_site_type_symbol
_atom_site_label
_atom_site_fract_x
_atom_site_fract_y
_atom_site_fract_z
Si Si1 0.421500 0.569492 0.887123
Si Si2 0.823616 0.473625 0.214260
Si Si3 0.000000 0.000000 0.000000
Si Si4 0.632674 0.033110 0.579336
Si Si5 0.942526 0.425091 0.489961
Si Si6 0.460536 0.114148 0.341318
Si Si7 0.823031 0.181312 0.844826
Si Si8 0.403445 0.288920 0.826608
O O1 0.311186 0.546234 0.820238
O O2 0.688890 0.501920 0.701377
O O3 0.500000 0.500000 0.000000
O O4 0.202832 0.730163 0.027093
O O5 0.862529 0.441925 0.361345
O O6 0.649157 0.628387 0.276704
O O7 0.116237 0.372402 0.011209
O O8 0.272650 0.946566 0.833531
O O9 0.132978 0.918502 0.088160
O O10 0.459720 0.115450 0.516118
O O11 0.590213 0.134624 0.696164
O O12 0.547367 0.982983 0.693711
O O13 0.936841 0.901531 0.378511
O O14 0.000000 0.500000 0.500000
O O15 0.200827 0.265998 0.406759
O O16 0.546616 0.284804 0.887551
#
# Coordination Sequence:
#
# PCOD9023912 Si02
#       8
#     2   2   1   2   2   2   2   2
#     4  12  25  44  74  97 138 182 228 286 338 408
#     4  11  26  42  69 105 135 177 234 284 342 405
#     4  10  22  40  62  90 132 172 218 274 332 402
#     4  10  23  40  69  97 132 177 231 274 330 411
#     4  12  25  45  69 103 140 178 225 289 347 400
#     4  10  22  40  65  97 130 172 229 268 342 401
#     4  11  23  44  65 100 132 180 227 275 342 404
#     4  11  23  43  69  98 136 178 232 279 341 405
#
# _framework density 20.317665999999999
#
# number of rings (size 3 to 8) (size 9 to 14) (size 15 to 20)
#    0.000    1.067    1.333    4.800    9.333    1.067 
#    2.400    1.333    0.000    0.000    0.000    0.000 
#    0.000    0.000    0.000    0.000    0.000    0.000 
#
# Total GULP energy -83600.969527 kJ/mol
# GULP energy per Si atom -5573.397968 kJ/mol
# Density = 2.027142 g / cm^3
# Si number density = 20.317666 Si / 1000 Ang^3
#
#
#
# Elastic Constant Matrix: (Units=GPa)
#
#
# Indices 1 2 3 4 5 6 
#
# 1 119.1034 58.9199 54.7016 -2.6545 -1.4053 7.2894
# 2 58.9199 109.7202 56.5332 -5.7794 -12.4831 -3.6766
# 3 54.7016 56.5332 107.3774 -7.6151 -20.5903 16.6234
# 4 -2.6545 -5.7794 -7.6151 35.1711 1.7198 8.6737
# 5 -1.4053 -12.4831 -20.5903 1.7198 34.3148 2.1504
# 6 7.2894 -3.6766 16.6234 8.6737 2.1504 36.0517
#
#
#
# Elastic Compliance Matrix: (Units=1/GPa)
#
#
# Indices 1 2 3 4 5 6 
#
# 1 0.013051 -0.005111 -0.004674 -0.000510 -0.004064 -0.000639
# 2 -0.005111 0.015295 -0.006066 -0.000599 0.001403 0.005451
# 3 -0.004674 -0.006066 0.018483 0.004638 0.009077 -0.009853
# 4 -0.000510 -0.000599 0.004638 0.031640 0.001573 -0.009803
# 5 -0.004064 0.001403 0.009077 0.001573 0.035211 -0.005700
# 6 -0.000639 0.005451 -0.009853 -0.009803 -0.005700 0.035665
#
#
# Mechanical properties :
#
#
# Convention : Reuss Voigt Hill
#
# Bulk Modulus (GPa) = 66.10983 75.16783 70.63883
# Shear Modulus (GPa) = 26.86875 32.17729 29.52302
#
# Velocity S-wave (km/s) = 3.64047 3.98390 3.81605
# Velocity P-wave (km/s) = 7.09080 7.63142 7.36607
#
# Compressibility (1/GPa) = 0.01512634
#
# Stress axis : x y z
#
# Youngs Moduli (GPa) = 76.62338 65.38134 54.10342
#
# Poissons Ratio (x) = 0.33413 0.25290
# Poissons Ratio (y) = 0.39159 0.32821
# Poissons Ratio (z) = 0.35816 0.39663
#
# Static dielectric constant tensor:
#      x y z
#    x 1.743000 0.009810 0.010490 
#    y 0.009810 1.748480 0.011690 
#    z 0.010490 0.011690 1.691720 
# 
# From -- ./inp_files/180676.got.cif
#   From: 2010.05.17/outbox.cif.g08.bks.cpg/sg2_91_cif.got.tgz:180676.got - 2010.06.03 11:33:40.
