data_PCOD9023997
_publ_section_title
;
Structure prediction by ZEFSAII (Michael W. Deem and Ramdas Pophale) SiO2 
 PCOD9023997
Probable space group: P -1
;
_chemical_formula_sum "Si O2"
_cell_formula_units_Z 16
_cell_length_a 11.724538
_cell_length_b 8.652010
_cell_length_c 21.421819
_cell_angle_alpha 52.324178
_cell_angle_beta 145.078622
_cell_angle_gamma 137.991280
_cell_volume 832.504824
_symmetry_space_group_name_H-M "P -1"
_symmetry_group_IT_number 2
_symmetry_cell_setting 'triclinic'
loop_
_space_group_symop_operation_xyz
x,y,z
-x,-y,-z
loop_
_atom_site_type_symbol
_atom_site_label
_atom_site_fract_x
_atom_site_fract_y
_atom_site_fract_z
Si Si1 0.211918 0.757794 0.260129
Si Si2 0.423505 0.752937 0.735652
Si Si3 0.307567 0.426406 0.878160
Si Si4 0.698587 0.951900 0.121215
Si Si5 0.608975 0.634431 0.273963
Si Si6 0.967425 0.772916 0.509782
Si Si7 0.216845 0.383920 0.264332
Si Si8 0.558416 0.367392 0.507089
O O1 0.211895 0.568031 0.262513
O O2 0.371878 0.788219 0.385139
O O3 0.948759 0.666589 0.185578
O O4 0.335028 0.001974 0.220885
O O5 0.376865 0.640017 0.810727
O O6 0.421212 0.572812 0.730850
O O7 0.213191 0.790006 0.614401
O O8 0.298650 0.228237 0.880610
O O9 0.500000 0.500000 0.000000
O O10 0.639493 0.832811 0.192394
O O11 0.954311 0.185948 0.178020
O O12 0.500000 0.000000 0.000000
O O13 0.386503 0.527187 0.247358
O O14 0.841130 0.734799 0.396178
O O15 0.786893 0.555224 0.524942
O O16 0.000000 0.000000 0.500000
O O17 0.342455 0.269701 0.386022
O O18 0.500000 0.500000 0.500000
#
# Coordination Sequence:
#
# PCOD9023997 Si02
#       8
#     2   2   2   2   2   2   2   2
#     4  11  22  39  66  93 129 166 209 263 309 375
#     4  11  23  41  62  93 129 166 206 259 320 372
#     4  11  25  45  65  92 126 166 217 263 312 377
#     4  11  25  43  67  91 122 170 211 263 315 369
#     4  10  24  41  60  93 130 162 208 258 315 378
#     4  11  21  36  62  93 129 167 208 255 312 376
#     4  10  22  40  62  95 126 164 210 257 313 370
#     4   9  19  35  56  94 126 160 204 250 306 367
#
# _framework density 19.219107000000001
#
# number of rings (size 3 to 8) (size 9 to 14) (size 15 to 20)
#    0.000    1.500    1.250    4.125    5.250    4.000 
#    0.000    1.875    0.000    0.000    0.000    0.000 
#    0.000    0.000    0.000    0.000    0.000    0.000 
#
# Total GULP energy -89426.029989 kJ/mol
# GULP energy per Si atom -5589.126874 kJ/mol
# Density = 1.917536 g / cm^3
# Si number density = 19.219107 Si / 1000 Ang^3
#
#
#
# Elastic Constant Matrix: (Units=GPa)
#
#
# Indices 1 2 3 4 5 6 
#
# 1 118.4312 42.8634 74.2114 -5.3723 5.0233 26.7946
# 2 42.8634 105.5712 64.6317 -1.8038 -6.0857 18.4578
# 3 74.2114 64.6317 143.5331 0.4480 -1.0279 24.5000
# 4 -5.3723 -1.8038 0.4480 27.0087 -3.7065 0.8187
# 5 5.0233 -6.0857 -1.0279 -3.7065 30.5494 1.9839
# 6 26.7946 18.4578 24.5000 0.8187 1.9839 29.7858
#
#
#
# Elastic Compliance Matrix: (Units=1/GPa)
#
#
# Indices 1 2 3 4 5 6 
#
# 1 0.014271 -0.001105 -0.005628 0.002820 -0.001929 -0.007473
# 2 -0.001105 0.013843 -0.005010 0.001336 0.003174 -0.003711
# 3 -0.005628 -0.005010 0.012496 -0.001558 0.000294 -0.002088
# 4 0.002820 0.001336 -0.001558 0.038442 0.004638 -0.003449
# 5 -0.001929 0.003174 0.000294 0.004638 0.034444 -0.002896
# 6 -0.007473 -0.003711 -0.002088 -0.003449 -0.002896 0.044600
#
#
# Mechanical properties :
#
#
# Convention : Reuss Voigt Hill
#
# Bulk Modulus (GPa) = 58.39828 81.21651 69.80739
# Shear Modulus (GPa) = 26.69669 29.85739 28.27704
#
# Velocity S-wave (km/s) = 3.73107 3.94576 3.83991
# Velocity P-wave (km/s) = 7.00090 7.94409 7.48736
#
# Compressibility (1/GPa) = 0.01712379
#
# Stress axis : x y z
#
# Youngs Moduli (GPa) = 70.07415 72.24029 80.02509
#
# Poissons Ratio (x) = 0.07984 0.45037
# Poissons Ratio (y) = 0.07744 0.40091
# Poissons Ratio (z) = 0.39437 0.36191
#
# Static dielectric constant tensor:
#      x y z
#    x 1.657790 0.006930 -0.019340 
#    y 0.006930 1.648160 -0.012700 
#    z -0.019340 -0.012700 1.653940 
# 
# From -- ./inp_files/278072.got.cif
#   From: 2010.05.17/outbox.cif.g08.bks.cpg/sg2_140_cif.got.tgz:278072.got - 2010.06.03 11:33:40.
