data_PCOD9023905
_publ_section_title
;
Structure prediction by ZEFSAII (Michael W. Deem and Ramdas Pophale) SiO2 
 PCOD9023905
Probable space group: P -1
;
_chemical_formula_sum "Si O2"
_cell_formula_units_Z 10
_cell_length_a 8.204316
_cell_length_b 10.554301
_cell_length_c 5.109162
_cell_angle_alpha 122.017486
_cell_angle_beta 88.965855
_cell_angle_gamma 95.781385
_cell_volume 372.874472
_symmetry_space_group_name_H-M "P -1"
_symmetry_group_IT_number 2
_symmetry_cell_setting 'triclinic'
loop_
_space_group_symop_operation_xyz
x,y,z
-x,-y,-z
loop_
_atom_site_type_symbol
_atom_site_label
_atom_site_fract_x
_atom_site_fract_y
_atom_site_fract_z
Si Si1 0.295668 0.566502 0.328995
Si Si2 0.678232 0.635225 0.411701
Si Si3 0.813216 0.848033 0.252650
Si Si4 0.152847 0.801815 0.268922
Si Si5 0.514376 0.107717 0.871929
O O1 0.482393 0.644346 0.452623
O O2 0.255687 0.462751 0.467220
O O3 0.176852 0.687815 0.377408
O O4 0.302873 0.462889 0.959134
O O5 0.772145 0.794462 0.493868
O O6 0.645817 0.804527 0.049884
O O7 0.979059 0.778063 0.103366
O O8 0.842667 0.028385 0.434091
O O9 0.309905 0.798843 0.071486
O O10 0.500000 0.000000 0.500000
O O11 0.500000 0.000000 0.000000
#
# Coordination Sequence:
#
# PCOD9023905 Si02
#       5
#     2   2   2   2   2
#     4  10  22  41  65  94 129 170 216 264 322 386
#     4  10  22  41  65  94 129 170 216 264 322 386
#     4  10  22  42  68  99 131 171 220 267 323 389
#     4  10  22  42  68  99 131 171 220 267 323 389
#     4  10  22  40  62  90 128 166 205 262 321 368
#
# _framework density 26.818674999999999
#
# number of rings (size 3 to 8) (size 9 to 14) (size 15 to 20)
#    0.000    2.000    2.000    0.000    0.000    8.800 
#    0.000    8.000    0.000    0.000    0.000    0.000 
#    0.000    0.000    0.000    0.000    0.000    0.000 
#
# Total GULP energy -56060.416757 kJ/mol
# GULP energy per Si atom -5606.041676 kJ/mol
# Density = 2.675763 g / cm^3
# Si number density = 26.818675 Si / 1000 Ang^3
#
#
#
# Elastic Constant Matrix: (Units=GPa)
#
#
# Indices 1 2 3 4 5 6 
#
# 1 222.8558 67.8295 25.5056 -20.7990 5.0100 -40.0588
# 2 67.8295 236.1918 49.0765 -32.3971 -3.9544 -50.3376
# 3 25.5056 49.0765 81.9626 -25.6431 7.5618 -11.2905
# 4 -20.7990 -32.3971 -25.6431 55.2333 3.4415 4.0058
# 5 5.0100 -3.9544 7.5618 3.4415 22.0632 -2.2852
# 6 -40.0588 -50.3376 -11.2905 4.0058 -2.2852 48.0567
#
#
#
# Elastic Compliance Matrix: (Units=1/GPa)
#
#
# Indices 1 2 3 4 5 6 
#
# 1 0.005526 -0.000531 -0.000342 0.001401 -0.001057 0.003803
# 2 -0.000531 0.006407 -0.002554 0.001811 0.002445 0.005634
# 3 -0.000342 -0.002554 0.016520 0.006479 -0.007048 0.000046
# 4 0.001401 0.001811 0.006479 0.022872 -0.005531 0.002418
# 5 -0.001057 0.002445 -0.007048 -0.005531 0.049575 0.002842
# 6 0.003803 0.005634 0.000046 0.002418 0.002842 0.029824
#
#
# Mechanical properties :
#
#
# Convention : Reuss Voigt Hill
#
# Bulk Modulus (GPa) = 46.29847 91.75929 69.02888
# Shear Modulus (GPa) = 34.53558 51.64386 43.08972
#
# Velocity S-wave (km/s) = 3.59241 4.39300 4.01272
# Velocity P-wave (km/s) = 5.87437 7.74728 6.87490
#
# Compressibility (1/GPa) = 0.02159899
#
# Stress axis : x y z
#
# Youngs Moduli (GPa) = 180.96181 156.07696 60.53351
#
# Poissons Ratio (x) = 0.08288 0.02070
# Poissons Ratio (y) = 0.09609 0.15460
# Poissons Ratio (z) = 0.06190 0.39860
#
# Static dielectric constant tensor:
#      x y z
#    x 2.139720 0.029890 0.013550 
#    y 0.029890 2.054370 0.066870 
#    z 0.013550 0.066870 2.331350 
# 
# From -- ./inp_files/16520.got.cif
#   From: 2010.05.17/outbox.cif.g08.bks.cpg/sg2_9_cif.got.tgz:16520.got - 2010.06.03 11:33:40.
