data_PCOD9023555
_publ_section_title
;
Structure prediction by ZEFSAII (Michael W. Deem and Ramdas Pophale) SiO2 
 PCOD9023555
Probable space group: P -1
;
_chemical_formula_sum "Si O2"
_cell_formula_units_Z 14
_cell_length_a 12.058040
_cell_length_b 11.840472
_cell_length_c 10.264028
_cell_angle_alpha 105.856171
_cell_angle_beta 47.491176
_cell_angle_gamma 67.472532
_cell_volume 622.630614
_symmetry_space_group_name_H-M "P -1"
_symmetry_group_IT_number 2
_symmetry_cell_setting 'triclinic'
loop_
_space_group_symop_operation_xyz
x,y,z
-x,-y,-z
loop_
_atom_site_type_symbol
_atom_site_label
_atom_site_fract_x
_atom_site_fract_y
_atom_site_fract_z
Si Si1 0.803375 0.597460 0.574052
Si Si2 0.391381 0.747983 0.412190
Si Si3 0.761974 0.905526 0.275338
Si Si4 0.077115 0.731461 0.717417
Si Si5 0.240214 0.965487 0.161380
Si Si6 0.261782 0.732150 0.237033
Si Si7 0.976430 0.429016 0.869770
O O1 0.894365 0.595451 0.365574
O O2 0.000000 0.500000 0.500000
O O3 0.811017 0.452036 0.501042
O O4 0.530051 0.818721 0.898283
O O5 0.288640 0.801070 0.363240
O O6 0.296976 0.690052 0.541604
O O7 0.283164 0.928899 0.625312
O O8 0.687858 0.580531 0.119331
O O9 0.888571 0.774794 0.261559
O O10 0.500000 0.000000 0.500000
O O11 0.947273 0.770518 0.964682
O O12 0.860700 0.932240 0.867514
O O13 0.254970 0.817891 0.142540
O O14 0.011537 0.156545 0.493142
O O15 0.500000 0.500000 0.000000
O O16 0.000000 0.500000 0.000000
#
# Coordination Sequence:
#
# PCOD9023555 Si02
#       7
#     2   2   2   2   2   2   2
#     4  12  26  46  73 107 147 189 245 299 358 438
#     4  11  25  42  70 103 134 185 241 299 361 425
#     4  12  24  44  68  96 143 187 240 292 355 439
#     4  11  25  44  68 106 143 181 245 307 352 428
#     4  10  22  39  71  97 140 185 231 286 370 416
#     4  10  22  44  68 104 145 179 234 300 366 431
#     4  12  25  46  71 100 143 199 236 293 370 427
#
# _framework density 22.485242
#
# number of rings (size 3 to 8) (size 9 to 14) (size 15 to 20)
#    0.000    0.857    2.857    3.857    0.000    8.000 
#    0.000    0.000    0.000    0.000    0.000    0.000 
#    0.000    0.000    0.000    0.000    0.000    0.000 
#
# Total GULP energy -78256.406848 kJ/mol
# GULP energy per Si atom -5589.743346 kJ/mol
# Density = 2.243407 g / cm^3
# Si number density = 22.485242 Si / 1000 Ang^3
#
#
#
# Elastic Constant Matrix: (Units=GPa)
#
#
# Indices 1 2 3 4 5 6 
#
# 1 71.4286 17.4249 39.2182 -6.3160 -6.9843 3.3415
# 2 17.4249 130.1325 51.6074 -7.5767 -0.5568 -11.2818
# 3 39.2182 51.6074 163.5850 5.3097 -27.2503 -8.5910
# 4 -6.3160 -7.5767 5.3097 47.9892 -3.3401 1.2870
# 5 -6.9843 -0.5568 -27.2503 -3.3401 32.8226 4.2260
# 6 3.3415 -11.2818 -8.5910 1.2870 4.2260 45.5894
#
#
#
# Elastic Compliance Matrix: (Units=1/GPa)
#
#
# Indices 1 2 3 4 5 6 
#
# 1 0.016713 -0.000767 -0.003814 0.002627 0.000940 -0.002295
# 2 -0.000767 0.009277 -0.003139 0.001469 -0.002717 0.001971
# 3 -0.003814 -0.003139 0.009190 -0.001579 0.006518 0.000675
# 4 0.002627 0.001469 -0.001579 0.021726 0.001598 -0.000888
# 5 0.000940 -0.002717 0.006518 0.001598 0.036574 -0.002948
# 6 -0.002295 0.001971 0.000675 -0.000888 -0.002948 0.023016
#
#
# Mechanical properties :
#
#
# Convention : Reuss Voigt Hill
#
# Bulk Modulus (GPa) = 50.66210 64.62743 57.64477
# Shear Modulus (GPa) = 36.09665 42.40662 39.25163
#
# Velocity S-wave (km/s) = 4.01103 4.34749 4.18264
# Velocity P-wave (km/s) = 6.63561 7.34884 7.00131
#
# Compressibility (1/GPa) = 0.01973862
#
# Stress axis : x y z
#
# Youngs Moduli (GPa) = 59.83430 107.79325 108.81107
#
# Poissons Ratio (x) = 0.08271 0.41500
# Poissons Ratio (y) = 0.04591 0.34161
# Poissons Ratio (z) = 0.22821 0.33841
#
# Static dielectric constant tensor:
#      x y z
#    x 1.844050 0.032100 0.009070 
#    y 0.032100 1.824230 -0.028480 
#    z 0.009070 -0.028480 1.803260 
# 
# From -- ./inp_files/426286.got.cif
#   From: 2010.05.17/outbox.cif.g08.bks.cpg/sg2_214_cif.got.tgz:426286.got - 2010.06.03 11:33:40.
