data_PCOD9023801
_publ_section_title
;
Structure prediction by ZEFSAII (Michael W. Deem and Ramdas Pophale) SiO2 
 PCOD9023801
Probable space group: P -1
;
_chemical_formula_sum "Si O2"
_cell_formula_units_Z 16
_cell_length_a 7.950227
_cell_length_b 7.442144
_cell_length_c 18.255694
_cell_angle_alpha 126.283497
_cell_angle_beta 67.019935
_cell_angle_gamma 117.620477
_cell_volume 761.213301
_symmetry_space_group_name_H-M "P -1"
_symmetry_group_IT_number 2
_symmetry_cell_setting 'triclinic'
loop_
_space_group_symop_operation_xyz
x,y,z
-x,-y,-z
loop_
_atom_site_type_symbol
_atom_site_label
_atom_site_fract_x
_atom_site_fract_y
_atom_site_fract_z
Si Si1 0.708444 0.176252 0.521491
Si Si2 0.764146 0.069665 0.926650
Si Si3 0.050003 0.451501 0.332153
Si Si4 0.037098 0.055473 0.362253
Si Si5 0.956865 0.644568 0.170332
Si Si6 0.171154 0.343794 0.126855
Si Si7 0.552278 0.373664 0.121451
Si Si8 0.278314 0.431283 0.504824
O O1 0.769848 0.320597 0.620996
O O2 0.746141 0.387491 0.508251
O O3 0.855786 0.040750 0.440765
O O4 0.500000 0.000000 0.500000
O O5 0.943108 0.198641 0.877567
O O6 0.828348 0.923799 0.944507
O O7 0.597363 0.849550 0.864337
O O8 0.661258 0.250683 0.017042
O O9 0.040800 0.236697 0.337979
O O10 0.072442 0.366680 0.226814
O O11 0.862840 0.534303 0.399195
O O12 0.211497 0.178577 0.416331
O O13 0.021547 0.810269 0.269790
O O14 0.726319 0.546230 0.178639
O O15 0.057748 0.442450 0.110909
O O16 0.401182 0.478295 0.131102
O O17 0.500000 0.500000 0.500000
#
# Coordination Sequence:
#
# PCOD9023801 Si02
#       8
#     2   2   2   2   2   2   2   2
#     4   9  19  31  57  76 108 160 186 240 301 341
#     4   9  21  46  60  91 134 151 202 269 291 371
#     4   9  18  39  54  76 123 154 191 254 296 347
#     4   9  19  37  53  81 117 154 197 246 299 351
#     4  12  22  39  67  92 122 165 205 250 311 363
#     4  10  22  40  61  94 119 158 213 244 301 380
#     4   9  22  44  63  90 127 164 197 253 320 358
#     4   9  19  36  55  79 115 158 196 239 306 351
#
# _framework density 21.019075000000001
#
# number of rings (size 3 to 8) (size 9 to 14) (size 15 to 20)
#    0.750    1.750    1.250    1.875    1.750    3.000 
#    9.000    2.500    0.000    0.000    0.000    0.000 
#    0.000    0.000    0.000    0.000    0.000    0.000 
#
# Total GULP energy -89123.016850 kJ/mol
# GULP energy per Si atom -5570.188553 kJ/mol
# Density = 2.097123 g / cm^3
# Si number density = 21.019075 Si / 1000 Ang^3
#
#
#
# Elastic Constant Matrix: (Units=GPa)
#
#
# Indices 1 2 3 4 5 6 
#
# 1 93.6426 21.2061 -4.9048 8.4432 -4.6936 21.7608
# 2 21.2061 65.6689 4.6275 9.9719 3.9809 16.3467
# 3 -4.9048 4.6275 31.7776 13.4867 -5.2827 12.5216
# 4 8.4432 9.9719 13.4867 15.8964 -0.9784 4.8201
# 5 -4.6936 3.9809 -5.2827 -0.9784 14.2921 9.9665
# 6 21.7608 16.3467 12.5216 4.8201 9.9665 39.7833
#
#
#
# Elastic Compliance Matrix: (Units=1/GPa)
#
#
# Indices 1 2 3 4 5 6 
#
# 1 0.025311 -0.000419 0.037616 -0.032709 0.042555 -0.032210
# 2 -0.000419 0.019208 0.007507 -0.015401 0.002330 -0.008744
# 3 0.037616 0.007507 0.128036 -0.103325 0.104672 -0.077662
# 4 -0.032709 -0.015401 -0.103325 0.156080 -0.073112 0.056146
# 5 0.042555 0.002330 0.104672 -0.073112 0.182570 -0.094058
# 6 -0.032210 -0.008744 -0.077662 0.056146 -0.094058 0.087552
#
#
# Mechanical properties :
#
#
# Convention : Reuss Voigt Hill
#
# Bulk Modulus (GPa) = 3.81732 25.88298 14.85015
# Shear Modulus (GPa) = 8.37983 25.33838 16.85911
#
# Velocity S-wave (km/s) = 1.99886 3.47579 2.83518
# Velocity P-wave (km/s) = 2.67344 5.33375 4.21878
#
# Compressibility (1/GPa) = 0.26196409
#
# Stress axis : x y z
#
# Youngs Moduli (GPa) = 39.50810 52.06070 7.81029
#
# Poissons Ratio (x) = 0.02183 -0.29379
# Poissons Ratio (y) = 0.01657 -0.05863
# Poissons Ratio (z) = -1.48614 -0.39084
#
# Static dielectric constant tensor:
#      x y z
#    x 1.705040 -0.062860 -0.000160 
#    y -0.062860 1.797330 0.033400 
#    z -0.000160 0.033400 1.763710 
# 
# From -- ./inp_files/586886.got.cif
#   From: 2010.05.17/outbox.cif.g08.bks.cpg/sg2_294_cif.got.tgz:586886.got - 2010.06.03 11:33:40.
