data_PCOD9023126
_publ_section_title
;
Structure prediction by ZEFSAII (Michael W. Deem and Ramdas Pophale) SiO2 
 PCOD9023126
Probable space group: P -1
;
_chemical_formula_sum "Si O2"
_cell_formula_units_Z 14
_cell_length_a 6.904876
_cell_length_b 11.635574
_cell_length_c 10.768563
_cell_angle_alpha 66.555216
_cell_angle_beta 133.825258
_cell_angle_gamma 92.785856
_cell_volume 537.951696
_symmetry_space_group_name_H-M "P -1"
_symmetry_group_IT_number 2
_symmetry_cell_setting 'triclinic'
loop_
_space_group_symop_operation_xyz
x,y,z
-x,-y,-z
loop_
_atom_site_type_symbol
_atom_site_label
_atom_site_fract_x
_atom_site_fract_y
_atom_site_fract_z
Si Si1 0.760671 0.530436 0.163010
Si Si2 0.917292 0.018195 0.724050
Si Si3 0.616361 0.003643 0.358596
Si Si4 0.257342 0.742860 0.094515
Si Si5 0.316861 0.478285 0.307252
Si Si6 0.213769 0.192770 0.919443
Si Si7 0.232349 0.271866 0.507831
O O1 0.734802 0.670815 0.153423
O O2 0.974294 0.529997 0.143899
O O3 0.965716 0.398292 0.380238
O O4 0.500000 0.500000 0.000000
O O5 0.665945 0.025705 0.707268
O O6 0.746492 0.061813 0.502387
O O7 0.098499 0.109791 0.806031
O O8 0.105851 0.859884 0.881311
O O9 0.840510 0.857970 0.495549
O O10 0.503542 0.097346 0.151948
O O11 0.358914 0.582315 0.181178
O O12 0.526022 0.767100 0.264813
O O13 0.029022 0.769103 0.096202
O O14 0.500000 0.500000 0.500000
O O15 0.359536 0.322872 0.417836
#
# Coordination Sequence:
#
# PCOD9023126 Si02
#       7
#     2   2   2   2   2   2   2
#     4   9  19  31  52  76  97 133 175 207 250 305
#     4  10  18  26  49  78 108 128 169 198 260 301
#     4  10  18  29  48  78 105 133 162 211 246 306
#     4   9  13  27  46  76  97 132 157 205 248 297
#     4   7  14  24  48  70  98 124 160 203 251 289
#     4  10  17  31  52  69 107 132 162 206 261 291
#     4   9  15  28  50  67 103 128 164 203 251 284
#
# _framework density 26.024639000000001
#
# number of rings (size 3 to 8) (size 9 to 14) (size 15 to 20)
#    0.857    2.000    2.857    0.857    0.000    0.000 
#    0.000    1.429    3.143    1.714    0.000    0.000 
#    0.000    0.000    0.000    0.000    0.000    0.000 
#
# Total GULP energy -78038.354910 kJ/mol
# GULP energy per Si atom -5574.168208 kJ/mol
# Density = 2.596541 g / cm^3
# Si number density = 26.024639 Si / 1000 Ang^3
#
#
#
# Elastic Constant Matrix: (Units=GPa)
#
#
# Indices 1 2 3 4 5 6 
#
# 1 91.2421 41.0775 31.0859 4.3532 -3.9410 32.8384
# 2 41.0775 88.4299 81.4665 -14.2904 13.4927 -18.7809
# 3 31.0859 81.4665 141.5976 7.1215 26.4388 2.6448
# 4 4.3532 -14.2904 7.1215 44.3947 0.8640 6.7666
# 5 -3.9410 13.4927 26.4388 0.8640 16.2133 14.8551
# 6 32.8384 -18.7809 2.6448 6.7666 14.8551 19.0218
#
#
#
# Elastic Compliance Matrix: (Units=1/GPa)
#
#
# Indices 1 2 3 4 5 6 
#
# 1 0.002136 0.005738 -0.000757 -0.000334 -0.017646 0.015982
# 2 0.005738 0.017471 -0.017438 0.010100 0.031970 -0.018792
# 3 -0.000757 -0.017438 0.021860 -0.008870 -0.022412 0.001709
# 4 -0.000334 0.010100 -0.008870 0.027930 0.009834 -0.005834
# 5 -0.017646 0.031970 -0.022412 0.009834 0.036290 0.033307
# 6 0.015982 -0.018792 0.001709 -0.005834 0.033307 -0.017746
#
#
# Mechanical properties :
#
#
# Convention : Reuss Voigt Hill
#
# Bulk Modulus (GPa) = 60.41077 69.83659 65.12368
# Shear Modulus (GPa) = 42.23955 27.10193 34.67074
#
# Velocity S-wave (km/s) = 4.03309 3.23057 3.65393
# Velocity P-wave (km/s) = 6.70456 6.38815 6.54827
#
# Compressibility (1/GPa) = 0.01655334
#
# Stress axis : x y z
#
# Youngs Moduli (GPa) = 468.06060 57.23876 45.74570
#
# Poissons Ratio (x) = -0.32843 0.03463
# Poissons Ratio (y) = -2.68565 0.79770
# Poissons Ratio (z) = 0.35437 0.99811
#
# Static dielectric constant tensor:
#      x y z
#    x 2.207170 -0.097180 -0.029090 
#    y -0.097180 2.090090 -0.061710 
#    z -0.029090 -0.061710 2.005530 
# 
# From -- ./inp_files/516885.got.cif
#   From: 2010.05.17/outbox.cif.g08.bks.cpg/sg2_259_cif.got.tgz:516885.got - 2010.06.03 11:33:40.
