data_PCOD9023751
_publ_section_title
;
Structure prediction by ZEFSAII (Michael W. Deem and Ramdas Pophale) SiO2 
 PCOD9023751
Probable space group: P -1
;
_chemical_formula_sum "Si O2"
_cell_formula_units_Z 14
_cell_length_a 25.078803
_cell_length_b 9.482633
_cell_length_c 5.882912
_cell_angle_alpha 49.319083
_cell_angle_beta 135.382100
_cell_angle_gamma 145.117859
_cell_volume 553.871928
_symmetry_space_group_name_H-M "P -1"
_symmetry_group_IT_number 2
_symmetry_cell_setting 'triclinic'
loop_
_space_group_symop_operation_xyz
x,y,z
-x,-y,-z
loop_
_atom_site_type_symbol
_atom_site_label
_atom_site_fract_x
_atom_site_fract_y
_atom_site_fract_z
Si Si1 0.538174 0.723726 0.712345
Si Si2 0.299448 0.158992 0.245929
Si Si3 0.158681 0.247599 0.314267
Si Si4 0.850272 0.383378 0.861564
Si Si5 0.321730 0.534170 0.173071
Si Si6 0.280996 0.862402 0.886354
Si Si7 0.977787 0.802882 0.459207
O O1 0.596482 0.711192 0.703503
O O2 0.441791 0.689704 0.382941
O O3 0.627016 0.000981 0.796508
O O4 0.500000 0.500000 0.000000
O O5 0.279501 0.342699 0.036291
O O6 0.216003 0.886718 0.170024
O O7 0.307310 0.088852 0.593709
O O8 0.175667 0.442297 0.340496
O O9 0.266399 0.369154 0.408224
O O10 0.097090 0.236143 0.921360
O O11 0.086072 0.966666 0.484407
O O12 0.829037 0.292618 0.161163
O O13 0.936512 0.566947 0.736838
O O14 0.293703 0.706608 0.920371
O O15 0.000000 0.000000 0.500000
#
# Coordination Sequence:
#
# PCOD9023751 Si02
#       7
#     2   2   2   2   2   2   2
#     4  11  23  43  60  87 129 166 201 258 307 352
#     4  11  23  41  60  88 127 164 202 256 305 355
#     4   9  19  36  61  93 121 160 202 252 301 367
#     4   9  18  35  59  87 120 160 197 243 304 358
#     4  11  22  40  63  92 121 163 213 248 299 367
#     4  10  22  40  61  89 122 166 208 252 302 356
#     4   9  17  36  64  91 124 155 199 251 311 359
#
# _framework density 25.276599999999998
#
# number of rings (size 3 to 8) (size 9 to 14) (size 15 to 20)
#    0.000    2.000    1.429    2.571    0.000    0.571 
#   15.429    0.714    0.000    8.571    0.000    0.000 
#    0.000    0.000    0.000    0.000    0.000    0.000 
#
# Total GULP energy -77975.597129 kJ/mol
# GULP energy per Si atom -5569.685509 kJ/mol
# Density = 2.521907 g / cm^3
# Si number density = 25.276600 Si / 1000 Ang^3
#
#
#
# Elastic Constant Matrix: (Units=GPa)
#
#
# Indices 1 2 3 4 5 6 
#
# 1 126.9427 50.1267 46.9413 -23.6372 -1.6676 -17.1926
# 2 50.1267 126.2034 27.0339 1.3448 -1.9933 -18.7280
# 3 46.9413 27.0339 83.5430 -13.0359 1.6027 2.1808
# 4 -23.6372 1.3448 -13.0359 30.8017 9.1086 -25.7974
# 5 -1.6676 -1.9933 1.6027 9.1086 32.6454 -14.6206
# 6 -17.1926 -18.7280 2.1808 -25.7974 -14.6206 61.1002
#
#
#
# Elastic Compliance Matrix: (Units=1/GPa)
#
#
# Indices 1 2 3 4 5 6 
#
# 1 0.017456 -0.004004 -0.005386 0.022387 0.000711 0.013499
# 2 -0.004004 0.010065 -0.001726 -0.004240 0.001994 0.000707
# 3 -0.005386 -0.001726 0.015854 0.001122 -0.002720 -0.002787
# 4 0.022387 -0.004240 0.001122 0.085012 -0.005145 0.039622
# 5 0.000711 0.001994 -0.002720 -0.005145 0.035610 0.007257
# 6 0.013499 0.000707 -0.002787 0.039622 0.007257 0.038947
#
#
# Mechanical properties :
#
#
# Convention : Reuss Voigt Hill
#
# Bulk Modulus (GPa) = 47.29045 64.98809 56.13927
# Shear Modulus (GPa) = 21.53098 39.08194 30.30646
#
# Velocity S-wave (km/s) = 2.92175 3.93640 3.46640
# Velocity P-wave (km/s) = 5.48926 6.81373 6.18704
#
# Compressibility (1/GPa) = 0.02114592
#
# Stress axis : x y z
#
# Youngs Moduli (GPa) = 57.28579 99.35109 63.07395
#
# Poissons Ratio (x) = 0.39780 0.33969
# Poissons Ratio (y) = 0.22937 0.10884
# Poissons Ratio (z) = 0.30851 0.17144
#
# Static dielectric constant tensor:
#      x y z
#    x 2.009340 0.031900 -0.052900 
#    y 0.031900 2.027920 0.035030 
#    z -0.052900 0.035030 2.079670 
# 
# From -- ./inp_files/37271.got.cif
#   From: 2010.05.17/outbox.cif.g08.bks.cpg/sg2_19_cif.got.tgz:37271.got - 2010.06.03 11:33:40.
