data_PCOD9023238
_publ_section_title
;
Structure prediction by ZEFSAII (Michael W. Deem and Ramdas Pophale) SiO2 
 PCOD9023238
Probable space group: P -1
;
_chemical_formula_sum "Si O2"
_cell_formula_units_Z 16
_cell_length_a 14.206265
_cell_length_b 12.079477
_cell_length_c 8.589270
_cell_angle_alpha 92.479888
_cell_angle_beta 80.513754
_cell_angle_gamma 31.618249
_cell_volume 712.494736
_symmetry_space_group_name_H-M "P -1"
_symmetry_group_IT_number 2
_symmetry_cell_setting 'triclinic'
loop_
_space_group_symop_operation_xyz
x,y,z
-x,-y,-z
loop_
_atom_site_type_symbol
_atom_site_label
_atom_site_fract_x
_atom_site_fract_y
_atom_site_fract_z
Si Si1 0.292669 0.479730 0.372540
Si Si2 0.090438 0.776228 0.171312
Si Si3 0.649837 0.325446 0.083314
Si Si4 0.192523 0.748416 0.670990
Si Si5 0.599653 0.981336 0.345365
Si Si6 0.808423 0.721335 0.967690
Si Si7 0.090277 0.134309 0.057218
Si Si8 0.015767 0.577752 0.370206
O O1 0.269155 0.552469 0.210404
O O2 0.281235 0.597504 0.491313
O O3 0.094035 0.608018 0.434547
O O4 0.463692 0.225050 0.363679
O O5 0.165464 0.791304 0.032122
O O6 0.927874 0.015820 0.317450
O O7 0.010790 0.760616 0.079808
O O8 0.637979 0.385439 0.263267
O O9 0.500000 0.500000 0.000000
O O10 0.717697 0.131060 0.047024
O O11 0.050632 0.794454 0.786285
O O12 0.808383 0.799844 0.354649
O O13 0.500000 0.000000 0.500000
O O14 0.642039 0.885930 0.155936
O O15 0.845234 0.809787 0.904307
O O16 0.819824 0.628524 0.811666
O O17 0.000000 0.500000 0.000000
O O18 0.000000 0.500000 0.500000
#
# Coordination Sequence:
#
# PCOD9023238 Si02
#       8
#     2   2   2   2   2   2   2   2
#     4  12  23  41  65  90 133 165 212 270 322 377
#     4   9  19  37  61  90 117 165 211 252 318 388
#     4   9  19  37  60  90 127 153 206 266 310 381
#     4   9  20  39  63  89 125 169 206 254 326 386
#     4  11  25  44  61  94 131 166 225 277 314 382
#     4  10  22  39  67  92 124 170 217 260 324 385
#     4   9  18  38  65  86 117 167 211 253 316 390
#     4  11  23  45  66  91 130 175 214 269 325 386
#
# _framework density 22.456306000000001
#
# number of rings (size 3 to 8) (size 9 to 14) (size 15 to 20)
#    0.000    2.000    1.250    4.125    3.500    0.500 
#    6.750    0.625    0.000    0.000    0.000    0.000 
#    0.000    0.000    0.000    0.000    0.000    0.000 
#
# Total GULP energy -89186.153092 kJ/mol
# GULP energy per Si atom -5574.134568 kJ/mol
# Density = 2.240519 g / cm^3
# Si number density = 22.456306 Si / 1000 Ang^3
#
#
#
# Elastic Constant Matrix: (Units=GPa)
#
#
# Indices 1 2 3 4 5 6 
#
# 1 82.5226 30.8449 16.5776 0.3126 -0.3390 4.2939
# 2 30.8449 126.0626 30.1773 -18.1436 12.6493 -15.8963
# 3 16.5776 30.1773 67.5302 -2.5484 1.1395 -5.7800
# 4 0.3126 -18.1436 -2.5484 28.1138 4.8123 -0.4865
# 5 -0.3390 12.6493 1.1395 4.8123 46.8898 -7.9171
# 6 4.2939 -15.8963 -5.7800 -0.4865 -7.9171 36.8797
#
#
#
# Elastic Compliance Matrix: (Units=1/GPa)
#
#
# Indices 1 2 3 4 5 6 
#
# 1 0.014231 -0.003956 -0.002163 -0.003131 0.000946 -0.003539
# 2 -0.003956 0.011769 -0.003559 0.007939 -0.003190 0.004396
# 3 -0.002163 -0.003559 0.017016 -0.000854 0.000882 0.001563
# 4 -0.003131 0.007939 -0.000854 0.041716 -0.005930 0.002930
# 5 0.000946 -0.003190 0.000882 -0.005930 0.023388 0.003596
# 6 -0.003539 0.004396 0.001563 0.002930 0.003596 0.030478
#
#
# Mechanical properties :
#
#
# Convention : Reuss Voigt Hill
#
# Bulk Modulus (GPa) = 42.26249 47.92388 45.09319
# Shear Modulus (GPa) = 30.14947 35.61103 32.88025
#
# Velocity S-wave (km/s) = 3.66810 3.98652 3.83062
# Velocity P-wave (km/s) = 6.06636 6.52511 6.29991
#
# Compressibility (1/GPa) = 0.02366164
#
# Stress axis : x y z
#
# Youngs Moduli (GPa) = 70.26945 84.96606 58.76836
#
# Poissons Ratio (x) = 0.33614 0.12709
# Poissons Ratio (y) = 0.27800 0.20913
# Poissons Ratio (z) = 0.15197 0.30236
#
# Static dielectric constant tensor:
#      x y z
#    x 1.972780 -0.006400 -0.110440 
#    y -0.006400 1.820270 0.014460 
#    z -0.110440 0.014460 1.993390 
# 
# From -- ./inp_files/299740.got.cif
#   From: 2010.05.17/outbox.cif.g08.bks.cpg/sg2_150_cif.got.tgz:299740.got - 2010.06.03 11:33:40.
