data_PCOD9023702
_publ_section_title
;
Structure prediction by ZEFSAII (Michael W. Deem and Ramdas Pophale) SiO2 
 PCOD9023702
Probable space group: P -1
;
_chemical_formula_sum "Si O2"
_cell_formula_units_Z 15
_cell_length_a 11.634778
_cell_length_b 8.969396
_cell_length_c 10.378925
_cell_angle_alpha 127.536108
_cell_angle_beta 55.617017
_cell_angle_gamma 96.209876
_cell_volume 661.163887
_symmetry_space_group_name_H-M "P -1"
_symmetry_group_IT_number 2
_symmetry_cell_setting 'triclinic'
loop_
_space_group_symop_operation_xyz
x,y,z
-x,-y,-z
loop_
_atom_site_type_symbol
_atom_site_label
_atom_site_fract_x
_atom_site_fract_y
_atom_site_fract_z
Si Si1 0.322260 0.667229 0.430640
Si Si2 0.000000 0.000000 0.500000
Si Si3 0.362243 0.357989 0.673879
Si Si4 0.318650 0.294178 0.087935
Si Si5 0.793998 0.873736 0.709197
Si Si6 0.625944 0.062733 0.659652
Si Si7 0.165787 0.549659 0.673782
Si Si8 0.103299 0.526970 0.133365
O O1 0.470133 0.676264 0.409393
O O2 0.366801 0.441900 0.227316
O O3 0.289907 0.815470 0.406901
O O4 0.189167 0.701855 0.635051
O O5 0.030304 0.768184 0.307945
O O6 0.934596 0.940330 0.646474
O O7 0.306302 0.487440 0.647850
O O8 0.352013 0.142568 0.534413
O O9 0.241271 0.461474 0.913939
O O10 0.283207 0.126662 0.106094
O O11 0.174792 0.437690 0.179141
O O12 0.452192 0.191801 0.851035
O O13 0.827518 0.646674 0.517507
O O14 0.690119 0.015092 0.738022
O O15 0.018502 0.579514 0.867057
#
# Coordination Sequence:
#
# PCOD9023702 Si02
#       8
#     2   1   2   2   2   2   2   2
#     4  11  22  38  66  96 126 167 215 262 314 375
#     4  10  22  40  60  94 118 166 212 262 312 374
#     4  11  23  42  65  91 130 175 209 261 321 381
#     4  11  23  39  65  99 128 167 211 268 316 375
#     4   9  21  38  62  90 129 164 210 262 320 374
#     4  11  22  40  63  93 134 165 212 261 319 378
#     4   9  22  42  61  91 125 173 212 263 315 375
#     4  11  23  42  68  90 132 169 215 260 324 378
#
# _framework density 22.687265
#
# number of rings (size 3 to 8) (size 9 to 14) (size 15 to 20)
#    0.000    1.600    1.333    2.800    1.867    5.867 
#    2.400    0.667    0.000    0.000    0.000    2.800 
#    0.000    0.000    0.000    0.000    0.000    0.000 
#
# Total GULP energy -83533.690096 kJ/mol
# GULP energy per Si atom -5568.912673 kJ/mol
# Density = 2.263563 g / cm^3
# Si number density = 22.687265 Si / 1000 Ang^3
#
#
#
# Elastic Constant Matrix: (Units=GPa)
#
#
# Indices 1 2 3 4 5 6 
#
# 1 59.5376 31.7777 0.1829 -3.6291 -10.0554 3.7440
# 2 31.7777 155.7939 11.5773 -20.6677 10.1518 -5.7858
# 3 0.1829 11.5773 41.1148 5.3957 4.4393 4.3376
# 4 -3.6291 -20.6677 5.3957 18.8752 -3.1613 -5.6788
# 5 -10.0554 10.1518 4.4393 -3.1613 16.8216 -1.0592
# 6 3.7440 -5.7858 4.3376 -5.6788 -1.0592 17.8397
#
#
#
# Elastic Compliance Matrix: (Units=1/GPa)
#
#
# Indices 1 2 3 4 5 6 
#
# 1 0.023393 -0.006470 0.000906 -0.002105 0.016819 -0.006899
# 2 -0.006470 0.010783 -0.005368 0.014276 -0.005623 0.010371
# 3 0.000906 -0.005368 0.031469 -0.021416 -0.009617 -0.016971
# 4 -0.002105 0.014276 -0.021416 0.088680 0.014925 0.039394
# 5 0.016819 -0.005623 -0.009617 0.014925 0.078641 0.006405
# 6 -0.006899 0.010371 -0.016971 0.039394 0.006405 0.077913
#
#
# Mechanical properties :
#
#
# Convention : Reuss Voigt Hill
#
# Bulk Modulus (GPa) = 22.84146 38.16914 30.50530
# Shear Modulus (GPa) = 14.39531 24.90119 19.64825
#
# Velocity S-wave (km/s) = 2.52168 3.31658 2.94606
# Velocity P-wave (km/s) = 4.30910 5.61487 5.00475
#
# Compressibility (1/GPa) = 0.04378003
#
# Stress axis : x y z
#
# Youngs Moduli (GPa) = 42.74792 92.74115 31.77743
#
# Poissons Ratio (x) = 0.60006 -0.02879
# Poissons Ratio (y) = 0.27659 0.17058
# Poissons Ratio (z) = -0.03873 0.49782
#
# Static dielectric constant tensor:
#      x y z
#    x 1.796690 0.053730 0.020180 
#    y 0.053730 1.822260 -0.088650 
#    z 0.020180 -0.088650 1.830680 
# 
# From -- ./inp_files/380249.got.cif
#   From: 2010.05.17/outbox.cif.g08.bks.cpg/sg2_191_cif.got.tgz:380249.got - 2010.06.03 11:33:40.
