data_PCOD9023978
_publ_section_title
;
Structure prediction by ZEFSAII (Michael W. Deem and Ramdas Pophale) SiO2 
 PCOD9023978
Probable space group: P -1
;
_chemical_formula_sum "Si O2"
_cell_formula_units_Z 16
_cell_length_a 6.093259
_cell_length_b 32.825724
_cell_length_c 9.478948
_cell_angle_alpha 149.466931
_cell_angle_beta 122.079471
_cell_angle_gamma 47.336870
_cell_volume 701.231354
_symmetry_space_group_name_H-M "P -1"
_symmetry_group_IT_number 2
_symmetry_cell_setting 'triclinic'
loop_
_space_group_symop_operation_xyz
x,y,z
-x,-y,-z
loop_
_atom_site_type_symbol
_atom_site_label
_atom_site_fract_x
_atom_site_fract_y
_atom_site_fract_z
Si Si1 0.166416 0.542370 0.084889
Si Si2 0.731207 0.218033 0.761133
Si Si3 0.224093 0.598703 0.746781
Si Si4 0.182985 0.774396 0.658907
Si Si5 0.146497 0.154324 0.955947
Si Si6 0.742556 0.096908 0.139999
Si Si7 0.154746 0.332654 0.424604
Si Si8 0.090653 0.337281 0.897084
O O1 0.117555 0.619491 0.414058
O O2 0.927858 0.597904 0.044480
O O3 0.500000 0.500000 0.000000
O O4 0.000000 0.500000 0.000000
O O5 0.676643 0.170764 0.464928
O O6 0.408633 0.277944 0.905676
O O7 0.776362 0.304181 0.986498
O O8 0.983643 0.141259 0.723961
O O9 0.500000 0.500000 0.500000
O O10 0.951844 0.614399 0.599806
O O11 0.159296 0.596869 0.881743
O O12 0.142474 0.863350 0.826598
O O13 0.518170 0.686125 0.482136
O O14 0.103306 0.801748 0.875702
O O15 0.975453 0.738456 0.417839
O O16 0.457913 0.091254 0.962566
O O17 0.221121 0.228298 0.133231
O O18 0.000000 0.000000 0.000000
#
# Coordination Sequence:
#
# PCOD9023978 Si02
#       8
#     2   2   2   2   2   2   2   2
#     4  12  26  40  64  97 138 185 249 314 363 425
#     4  11  24  44  70  98 141 182 235 294 364 432
#     4  11  25  42  64  96 138 184 242 300 354 421
#     4  11  20  43  71  94 136 183 237 291 361 442
#     4  10  22  43  68  99 136 182 229 290 363 438
#     4  11  24  44  73 106 137 178 233 299 369 446
#     4  10  22  40  62  93 132 181 235 293 360 418
#     4  12  23  42  69  94 134 194 242 292 372 431
#
# _framework density 22.817007
#
# number of rings (size 3 to 8) (size 9 to 14) (size 15 to 20)
#    0.000    1.000    3.750    3.000    3.500    1.500 
#    0.000    0.625    0.000    0.000    0.000    0.000 
#    0.000    0.000    0.000    0.000    0.000    0.000 
#
# Total GULP energy -89082.002039 kJ/mol
# GULP energy per Si atom -5567.625127 kJ/mol
# Density = 2.276507 g / cm^3
# Si number density = 22.817007 Si / 1000 Ang^3
#
#
#
# Elastic Constant Matrix: (Units=GPa)
#
#
# Indices 1 2 3 4 5 6 
#
# 1 94.1780 48.6523 19.5568 4.1027 -3.7434 3.0855
# 2 48.6523 155.8392 21.5695 -0.9854 -1.6057 -6.5229
# 3 19.5568 21.5695 29.9145 3.7509 -3.8631 6.6950
# 4 4.1027 -0.9854 3.7509 37.0063 4.7598 -5.9122
# 5 -3.7434 -1.6057 -3.8631 4.7598 17.2224 -4.2849
# 6 3.0855 -6.5229 6.6950 -5.9122 -4.2849 38.0988
#
#
#
# Elastic Compliance Matrix: (Units=1/GPa)
#
#
# Indices 1 2 3 4 5 6 
#
# 1 0.013813 -0.003507 -0.005982 -0.001327 0.001526 -0.000702
# 2 -0.003507 0.008256 -0.004558 0.001597 -0.000795 0.002657
# 3 -0.005982 -0.004558 0.044257 -0.006264 0.007904 -0.008156
# 4 -0.001327 0.001597 -0.006264 0.029761 -0.008490 0.005145
# 5 0.001526 -0.000795 0.007904 -0.008490 0.063479 0.004173
# 6 -0.000702 0.002657 -0.008156 0.005145 0.004173 0.029460
#
#
# Mechanical properties :
#
#
# Convention : Reuss Voigt Hill
#
# Bulk Modulus (GPa) = 26.15473 51.05432 38.60453
# Shear Modulus (GPa) = 21.75218 31.14238 26.44728
#
# Velocity S-wave (km/s) = 3.09096 3.69843 3.40825
# Velocity P-wave (km/s) = 4.92203 6.37667 5.69598
#
# Compressibility (1/GPa) = 0.03823400
#
# Stress axis : x y z
#
# Youngs Moduli (GPa) = 72.39413 121.13064 22.59541
#
# Poissons Ratio (x) = 0.42476 0.13515
# Poissons Ratio (y) = 0.25386 0.10298
# Poissons Ratio (z) = 0.43303 0.55207
#
# Static dielectric constant tensor:
#      x y z
#    x 1.905040 -0.064030 0.043350 
#    y -0.064030 1.918750 -0.017850 
#    z 0.043350 -0.017850 2.026030 
# 
# From -- ./inp_files/143417.got.cif
#   From: 2010.05.17/outbox.cif.g08.bks.cpg/sg2_72_cif.got.tgz:143417.got - 2010.06.03 11:33:40.
