data_PCOD9023524
_publ_section_title
;
Structure prediction by ZEFSAII (Michael W. Deem and Ramdas Pophale) SiO2 
 PCOD9023524
Probable space group: P -1
;
_chemical_formula_sum "Si O2"
_cell_formula_units_Z 16
_cell_length_a 8.484639
_cell_length_b 15.444193
_cell_length_c 9.837204
_cell_angle_alpha 142.330810
_cell_angle_beta 65.923957
_cell_angle_gamma 117.270337
_cell_volume 697.751685
_symmetry_space_group_name_H-M "P -1"
_symmetry_group_IT_number 2
_symmetry_cell_setting 'triclinic'
loop_
_space_group_symop_operation_xyz
x,y,z
-x,-y,-z
loop_
_atom_site_type_symbol
_atom_site_label
_atom_site_fract_x
_atom_site_fract_y
_atom_site_fract_z
Si Si1 0.140855 0.145941 0.592119
Si Si2 0.029052 0.606657 0.950290
Si Si3 0.171371 0.132702 0.260719
Si Si4 0.765489 0.572981 0.771146
Si Si5 0.277689 0.657921 0.295312
Si Si6 0.588212 0.811197 0.199178
Si Si7 0.240893 0.954769 0.768707
Si Si8 0.710277 0.527823 0.440279
O O1 0.221621 0.129546 0.396325
O O2 0.291904 0.172830 0.686967
O O3 0.000000 0.000000 0.500000
O O4 0.030832 0.272113 0.788252
O O5 0.222187 0.579821 0.821035
O O6 0.947521 0.635675 0.866484
O O7 0.097149 0.553176 0.171505
O O8 0.212003 0.303132 0.417929
O O9 0.959842 0.057570 0.230301
O O10 0.261713 0.042256 0.011169
O O11 0.653271 0.454135 0.769483
O O12 0.787215 0.507664 0.537260
O O13 0.666477 0.700482 0.942561
O O14 0.395736 0.732371 0.222205
O O15 0.252076 0.788147 0.562172
O O16 0.620722 0.957755 0.282581
O O17 0.500000 0.500000 0.500000
#
# Coordination Sequence:
#
# PCOD9023524 Si02
#       8
#     2   2   2   2   2   2   2   2
#     4  11  24  43  66  98 134 179 215 278 338 411
#     4   9  23  42  69  93 129 180 225 274 331 398
#     4  11  24  41  64  93 133 172 222 265 347 381
#     4   9  21  41  67  96 127 180 223 275 323 400
#     4  10  22  39  70  98 128 168 242 271 320 398
#     4  11  21  41  69  97 128 179 226 272 333 392
#     4  11  22  43  68  93 133 178 223 276 324 408
#     4  12  24  42  64 100 138 172 223 283 339 398
#
# _framework density 22.930793000000001
#
# number of rings (size 3 to 8) (size 9 to 14) (size 15 to 20)
#    0.750    0.750    3.750    1.125    1.750    1.500 
#    4.500    0.625    0.000    0.000    0.000    0.000 
#    0.000    0.000    0.000    0.000    0.000    0.000 
#
# Total GULP energy -89351.694152 kJ/mol
# GULP energy per Si atom -5584.480885 kJ/mol
# Density = 2.287860 g / cm^3
# Si number density = 22.930793 Si / 1000 Ang^3
#
#
#
# Elastic Constant Matrix: (Units=GPa)
#
#
# Indices 1 2 3 4 5 6 
#
# 1 41.9315 8.5752 17.5584 -4.1642 -2.2044 6.3002
# 2 8.5752 108.0282 29.3167 -0.2893 9.7901 6.1891
# 3 17.5584 29.3167 135.1354 0.2834 4.0729 -5.2867
# 4 -4.1642 -0.2893 0.2834 41.6920 -10.1185 -1.0220
# 5 -2.2044 9.7901 4.0729 -10.1185 24.4203 -8.0495
# 6 6.3002 6.1891 -5.2867 -1.0220 -8.0495 25.0331
#
#
#
# Elastic Compliance Matrix: (Units=1/GPa)
#
#
# Indices 1 2 3 4 5 6 
#
# 1 0.026982 -0.001037 -0.003616 0.003216 0.002712 -0.006294
# 2 -0.001037 0.010801 -0.002208 -0.001691 -0.006406 -0.005004
# 3 -0.003616 -0.002208 0.008474 -0.000335 0.000080 0.003258
# 4 0.003216 -0.001691 -0.000335 0.027904 0.014328 0.005284
# 5 0.002712 -0.006406 0.000080 0.014328 0.056131 0.019552
# 6 -0.006294 -0.005004 0.003258 0.005284 0.019552 0.049959
#
#
# Mechanical properties :
#
#
# Convention : Reuss Voigt Hill
#
# Bulk Modulus (GPa) = 30.73435 43.99951 37.36693
# Shear Modulus (GPa) = 24.41189 33.53874 28.97531
#
# Velocity S-wave (km/s) = 3.26635 3.82855 3.55857
# Velocity P-wave (km/s) = 5.25904 6.22683 5.76329
#
# Compressibility (1/GPa) = 0.03253688
#
# Stress axis : x y z
#
# Youngs Moduli (GPa) = 37.06139 92.58416 118.00237
#
# Poissons Ratio (x) = 0.09603 0.42665
# Poissons Ratio (y) = 0.03844 0.26050
# Poissons Ratio (z) = 0.13400 0.20439
#
# Static dielectric constant tensor:
#      x y z
#    x 1.909760 -0.009480 0.016720 
#    y -0.009480 1.873740 -0.024400 
#    z 0.016720 -0.024400 1.864090 
# 
# From -- ./inp_files/209209.got.cif
#   From: 2010.05.17/outbox.cif.g08.bks.cpg/sg2_105_cif.got.tgz:209209.got - 2010.06.03 11:33:40.
