data_PCOD9023511
_publ_section_title
;
Structure prediction by ZEFSAII (Michael W. Deem and Ramdas Pophale) SiO2 
 PCOD9023511
Probable space group: P -1
;
_chemical_formula_sum "Si O2"
_cell_formula_units_Z 16
_cell_length_a 18.967202
_cell_length_b 11.368557
_cell_length_c 9.181526
_cell_angle_alpha 66.605229
_cell_angle_beta 149.421631
_cell_angle_gamma 128.687896
_cell_volume 734.856266
_symmetry_space_group_name_H-M "P -1"
_symmetry_group_IT_number 2
_symmetry_cell_setting 'triclinic'
loop_
_space_group_symop_operation_xyz
x,y,z
-x,-y,-z
loop_
_atom_site_type_symbol
_atom_site_label
_atom_site_fract_x
_atom_site_fract_y
_atom_site_fract_z
Si Si1 0.715452 0.306964 0.017870
Si Si2 0.128298 0.179216 0.066227
Si Si3 0.580485 0.994870 0.795571
Si Si4 0.229275 0.321241 0.484502
Si Si5 0.082580 0.371494 0.647629
Si Si6 0.508776 0.333412 0.167090
Si Si7 0.461737 0.351747 0.406091
Si Si8 0.032518 0.874600 0.666391
O O1 0.755313 0.439716 0.143018
O O2 0.909321 0.359021 0.317834
O O3 0.599334 0.112936 0.897040
O O4 0.619949 0.340731 0.711980
O O5 0.221025 0.299193 0.309031
O O6 0.280427 0.200094 0.228656
O O7 0.059983 0.259274 0.800929
O O8 0.000000 0.000000 0.000000
O O9 0.500000 0.000000 0.500000
O O10 0.480956 0.812393 0.755130
O O11 0.773546 0.056011 0.063328
O O12 0.301314 0.497310 0.579720
O O13 0.036145 0.183270 0.265673
O O14 0.371810 0.305637 0.816874
O O15 0.093808 0.284963 0.574861
O O16 0.439848 0.345038 0.196880
O O17 0.500000 0.500000 0.500000
O O18 0.000000 0.000000 0.500000
#
# Coordination Sequence:
#
# PCOD9023511 Si02
#       8
#     2   2   2   2   2   2   2   2
#     4  10  22  39  70  93 125 173 223 262 321 390
#     4  12  26  39  66  98 133 166 218 274 320 382
#     4  11  23  39  68  93 130 171 220 262 321 395
#     4  11  24  40  65 101 134 162 215 278 326 373
#     4  10  22  43  67  95 132 171 213 267 327 391
#     4  11  23  41  67  97 132 165 215 272 327 378
#     4  12  22  43  70  96 122 176 226 259 321 400
#     4  11  22  40  71  99 124 169 221 263 320 386
#
# _framework density 21.772966
#
# number of rings (size 3 to 8) (size 9 to 14) (size 15 to 20)
#    0.000    1.000    5.000    1.500    3.500    0.000 
#    0.000    1.250   11.000    0.000    0.000    0.000 
#    0.000    0.000    0.000    0.000    0.000    0.000 
#
# Total GULP energy -89137.010164 kJ/mol
# GULP energy per Si atom -5571.063135 kJ/mol
# Density = 2.172341 g / cm^3
# Si number density = 21.772966 Si / 1000 Ang^3
#
#
#
# Elastic Constant Matrix: (Units=GPa)
#
#
# Indices 1 2 3 4 5 6 
#
# 1 65.2956 23.3559 20.7902 -6.8395 -16.4311 5.9979
# 2 23.3559 159.1370 18.7681 8.7803 0.3197 -17.8978
# 3 20.7902 18.7681 112.4918 -14.5681 8.1088 -7.7169
# 4 -6.8395 8.7803 -14.5681 30.7574 -6.9850 -2.7393
# 5 -16.4311 0.3197 8.1088 -6.9850 20.7744 3.9673
# 6 5.9979 -17.8978 -7.7169 -2.7393 3.9673 43.9182
#
#
#
# Elastic Compliance Matrix: (Units=1/GPa)
#
#
# Indices 1 2 3 4 5 6 
#
# 1 0.028791 -0.005254 -0.005821 0.011294 0.030672 -0.009162
# 2 -0.005254 0.007811 -0.000168 -0.004594 -0.006552 0.004177
# 3 -0.005821 -0.000168 0.011189 0.002363 -0.008870 0.003641
# 4 0.011294 -0.004594 0.002363 0.042419 0.022805 -0.002414
# 5 0.030672 -0.006552 -0.008870 0.022805 0.086453 -0.014805
# 6 -0.009162 0.004177 0.003641 -0.002414 -0.014805 0.027550
#
#
# Mechanical properties :
#
#
# Convention : Reuss Voigt Hill
#
# Bulk Modulus (GPa) = 39.52038 51.41696 45.46867
# Shear Modulus (GPa) = 21.26449 37.35734 29.31092
#
# Velocity S-wave (km/s) = 3.12852 4.14668 3.67305
# Velocity P-wave (km/s) = 5.58934 6.82590 6.23833
#
# Compressibility (1/GPa) = 0.02530340
#
# Stress axis : x y z
#
# Youngs Moduli (GPa) = 34.73329 128.02046 89.37689
#
# Poissons Ratio (x) = 0.67265 0.52028
# Poissons Ratio (y) = 0.18250 0.01504
# Poissons Ratio (z) = 0.20219 0.02154
#
# Static dielectric constant tensor:
#      x y z
#    x 1.813120 -0.037500 0.021950 
#    y -0.037500 1.937830 -0.003880 
#    z 0.021950 -0.003880 1.835060 
# 
# From -- ./inp_files/346067.got.cif
#   From: 2010.05.17/outbox.cif.g08.bks.cpg/sg2_174_cif.got.tgz:346067.got - 2010.06.03 11:33:40.
