data_PCOD9023151
_publ_section_title
;
Structure prediction by ZEFSAII (Michael W. Deem and Ramdas Pophale) SiO2 
 PCOD9023151
Probable space group: P -1
;
_chemical_formula_sum "Si O2"
_cell_formula_units_Z 16
_cell_length_a 7.054274
_cell_length_b 14.101025
_cell_length_c 7.169489
_cell_angle_alpha 68.622558
_cell_angle_beta 93.243233
_cell_angle_gamma 79.726326
_cell_volume 647.674544
_symmetry_space_group_name_H-M "P -1"
_symmetry_group_IT_number 2
_symmetry_cell_setting 'triclinic'
loop_
_space_group_symop_operation_xyz
x,y,z
-x,-y,-z
loop_
_atom_site_type_symbol
_atom_site_label
_atom_site_fract_x
_atom_site_fract_y
_atom_site_fract_z
Si Si1 0.478712 0.947931 0.236136
Si Si2 0.938469 0.291662 0.015766
Si Si3 0.341296 0.334618 0.906382
Si Si4 0.510344 0.851741 0.665272
Si Si5 0.772745 0.509644 0.921264
Si Si6 0.100933 0.883243 0.136313
Si Si7 0.487265 0.388219 0.491590
Si Si8 0.154857 0.773721 0.561851
O O1 0.595620 0.864401 0.453642
O O2 0.310620 0.890316 0.211934
O O3 0.442193 0.051773 0.286686
O O4 0.500000 0.000000 0.000000
O O5 0.766843 0.393710 0.938027
O O6 0.893981 0.193173 0.979560
O O7 0.118285 0.321657 0.897727
O O8 0.968441 0.264347 0.254639
O O9 0.429683 0.327715 0.711902
O O10 0.428966 0.246457 0.124946
O O11 0.337375 0.444948 0.929649
O O12 0.283943 0.848825 0.612850
O O13 0.682232 0.586065 0.693551
O O14 0.000000 0.500000 0.000000
O O15 0.021586 0.833474 0.347808
O O16 0.000000 0.000000 0.000000
O O17 0.500000 0.500000 0.500000
O O18 0.684636 0.321869 0.453490
#
# Coordination Sequence:
#
# PCOD9023151 Si02
#       8
#     2   2   2   2   2   2   2   2
#     4  10  22  39  66  95 133 177 233 295 347 415
#     4  11  25  44  70  99 142 184 232 290 361 428
#     4  11  25  43  72 100 146 188 239 288 361 433
#     4  10  22  40  64  99 131 182 235 286 350 418
#     4  10  24  44  68 104 144 188 234 292 361 428
#     4  11  25  44  65 103 138 180 234 296 361 424
#     4  12  26  43  74 110 145 190 245 300 357 429
#     4  11  25  42  70 101 138 182 238 291 356 423
#
# _framework density 24.703766000000002
#
# number of rings (size 3 to 8) (size 9 to 14) (size 15 to 20)
#    0.000    1.250    1.250    3.000    7.000    6.500 
#    0.000    0.000    0.000    0.000    0.000    0.000 
#    0.000    0.000    0.000    0.000    0.000    0.000 
#
# Total GULP energy -89293.846248 kJ/mol
# GULP energy per Si atom -5580.865391 kJ/mol
# Density = 2.464754 g / cm^3
# Si number density = 24.703766 Si / 1000 Ang^3
#
#
#
# Elastic Constant Matrix: (Units=GPa)
#
#
# Indices 1 2 3 4 5 6 
#
# 1 63.4916 27.8978 32.6858 15.2430 -6.7813 -2.3565
# 2 27.8978 178.3310 61.1898 14.8723 8.4926 5.2650
# 3 32.6858 61.1898 210.2598 -0.5493 2.5707 -12.4784
# 4 15.2430 14.8723 -0.5493 49.5524 -2.6693 7.7896
# 5 -6.7813 8.4926 2.5707 -2.6693 38.4214 -9.1131
# 6 -2.3565 5.2650 -12.4784 7.7896 -9.1131 17.4123
#
#
#
# Elastic Compliance Matrix: (Units=1/GPa)
#
#
# Indices 1 2 3 4 5 6 
#
# 1 0.020343 -0.002434 -0.002073 -0.006483 0.005686 0.007879
# 2 -0.002434 0.007013 -0.001931 -0.000738 -0.003120 -0.005136
# 3 -0.002073 -0.001931 0.005911 0.000587 0.000823 0.004708
# 4 -0.006483 -0.000738 0.000587 0.024205 -0.002241 -0.012235
# 5 0.005686 -0.003120 0.000823 -0.002241 0.032303 0.020212
# 6 0.007879 -0.005136 0.004708 -0.012235 0.020212 0.079475
#
#
# Mechanical properties :
#
#
# Convention : Reuss Voigt Hill
#
# Bulk Modulus (GPa) = 49.04184 77.29213 63.16698
# Shear Modulus (GPa) = 26.46576 43.09783 34.78180
#
# Velocity S-wave (km/s) = 3.27666 4.18135 3.75634
# Velocity P-wave (km/s) = 5.84897 7.39372 6.66624
#
# Compressibility (1/GPa) = 0.02039075
#
# Stress axis : x y z
#
# Youngs Moduli (GPa) = 49.15769 142.59853 169.17325
#
# Poissons Ratio (x) = 0.34707 0.35068
# Poissons Ratio (y) = 0.11964 0.32669
# Poissons Ratio (z) = 0.10190 0.27537
#
# Static dielectric constant tensor:
#      x y z
#    x 2.069950 0.033620 -0.083670 
#    y 0.033620 1.998460 -0.077150 
#    z -0.083670 -0.077150 2.122310 
# 
# From -- ./inp_files/37401.got.cif
#   From: 2010.05.17/outbox.cif.g08.bks.cpg/sg2_19_cif.got.tgz:37401.got - 2010.06.03 11:33:40.
