data_PCOD9023164
_publ_section_title
;
Structure prediction by ZEFSAII (Michael W. Deem and Ramdas Pophale) SiO2 
 PCOD9023164
Probable space group: P -1
;
_chemical_formula_sum "Si O2"
_cell_formula_units_Z 14
_cell_length_a 13.723715
_cell_length_b 17.824592
_cell_length_c 7.685037
_cell_angle_alpha 113.251663
_cell_angle_beta 67.347183
_cell_angle_gamma 158.480652
_cell_volume 632.678739
_symmetry_space_group_name_H-M "P -1"
_symmetry_group_IT_number 2
_symmetry_cell_setting 'triclinic'
loop_
_space_group_symop_operation_xyz
x,y,z
-x,-y,-z
loop_
_atom_site_type_symbol
_atom_site_label
_atom_site_fract_x
_atom_site_fract_y
_atom_site_fract_z
Si Si1 0.023373 0.630640 0.455988
Si Si2 0.660678 0.302671 0.709779
Si Si3 0.719957 0.845620 0.589343
Si Si4 0.738857 0.458377 0.142976
Si Si5 0.991526 0.189689 0.850022
Si Si6 0.903336 0.133811 0.261962
Si Si7 0.520124 0.479088 0.664042
O O1 0.842321 0.472191 0.594709
O O2 0.852466 0.499753 0.278007
O O3 0.270763 0.744620 0.378335
O O4 0.098015 0.777041 0.572690
O O5 0.348635 0.093948 0.702414
O O6 0.731449 0.392511 0.927563
O O7 0.560335 0.723426 0.771002
O O8 0.526174 0.652212 0.426553
O O9 0.000000 0.000000 0.500000
O O10 0.802163 0.999208 0.684918
O O11 0.930912 0.669867 0.159735
O O12 0.275359 0.344600 0.811921
O O13 0.878260 0.121055 0.058201
O O14 0.187020 0.296359 0.262240
O O15 0.500000 0.500000 0.500000
#
# Coordination Sequence:
#
# PCOD9023164 Si02
#       7
#     2   2   2   2   2   2   2
#     4  11  25  46  69 100 134 178 233 286 339 395
#     4  11  26  46  70  99 137 175 232 287 340 399
#     4  10  22  39  66  96 133 177 225 268 331 404
#     4  12  22  46  71  98 138 180 225 282 336 404
#     4  11  23  41  66  99 136 177 224 273 335 410
#     4  12  23  44  67  97 140 177 220 282 344 399
#     4  11  22  42  65  97 137 176 227 272 327 417
#
# _framework density 22.128135
#
# number of rings (size 3 to 8) (size 9 to 14) (size 15 to 20)
#    0.000    0.857    5.714    1.286    0.000    3.429 
#    0.000    2.143    0.000    0.000    0.000    0.000 
#    0.000    0.000    0.000    0.000    0.000    0.000 
#
# Total GULP energy -78206.805706 kJ/mol
# GULP energy per Si atom -5586.200408 kJ/mol
# Density = 2.207777 g / cm^3
# Si number density = 22.128135 Si / 1000 Ang^3
#
#
#
# Elastic Constant Matrix: (Units=GPa)
#
#
# Indices 1 2 3 4 5 6 
#
# 1 27.2453 -15.5337 16.8469 -5.2313 2.0112 11.8809
# 2 -15.5337 87.9307 20.7813 -12.0588 -0.3482 17.1168
# 3 16.8469 20.7813 123.1417 -6.5949 7.6975 3.7566
# 4 -5.2313 -12.0588 -6.5949 26.9092 -3.6650 2.2597
# 5 2.0112 -0.3482 7.6975 -3.6650 28.9782 7.1624
# 6 11.8809 17.1168 3.7566 2.2597 7.1624 22.4159
#
#
#
# Elastic Compliance Matrix: (Units=1/GPa)
#
#
# Indices 1 2 3 4 5 6 
#
# 1 0.382600 0.185879 -0.068858 0.188952 0.113925 -0.388632
# 2 0.185879 0.106157 -0.035571 0.100318 0.060719 -0.203134
# 3 -0.068858 -0.035571 0.021038 -0.033242 -0.022944 0.070815
# 4 0.188952 0.100318 -0.033242 0.136848 0.065089 -0.205773
# 5 0.113925 0.060719 -0.022944 0.065089 0.074606 -0.133302
# 6 -0.388632 -0.203134 0.070815 -0.205773 -0.133302 0.457176
#
#
# Mechanical properties :
#
#
# Convention : Reuss Voigt Hill
#
# Bulk Modulus (GPa) = 1.48656 31.38962 16.43809
# Shear Modulus (GPa) = 4.03305 30.07554 17.05430
#
# Velocity S-wave (km/s) = 1.35150 3.69067 2.77917
# Velocity P-wave (km/s) = 1.76314 5.69013 4.21226
#
# Compressibility (1/GPa) = 0.67269454
#
# Stress axis : x y z
#
# Youngs Moduli (GPa) = 2.61370 9.42001 47.53378
#
# Poissons Ratio (x) = -1.75099 3.27308
# Poissons Ratio (y) = -0.48583 1.69082
# Poissons Ratio (z) = 0.17997 0.33508
#
# Static dielectric constant tensor:
#      x y z
#    x 1.888840 0.023620 0.000300 
#    y 0.023620 1.827980 0.003990 
#    z 0.000300 0.003990 1.802080 
# 
# From -- ./inp_files/317780.got.cif
#   From: 2010.05.17/outbox.cif.g08.bks.cpg/sg2_159_cif.got.tgz:317780.got - 2010.06.03 11:33:40.
