data_PCOD9023871
_publ_section_title
;
Structure prediction by ZEFSAII (Michael W. Deem and Ramdas Pophale) SiO2 
 PCOD9023871
Probable space group: P -1
;
_chemical_formula_sum "Si O2"
_cell_formula_units_Z 15
_cell_length_a 7.467940
_cell_length_b 12.315536
_cell_length_c 10.959046
_cell_angle_alpha 105.833590
_cell_angle_beta 107.299115
_cell_angle_gamma 115.799485
_cell_volume 765.683698
_symmetry_space_group_name_H-M "P -1"
_symmetry_group_IT_number 2
_symmetry_cell_setting 'triclinic'
loop_
_space_group_symop_operation_xyz
x,y,z
-x,-y,-z
loop_
_atom_site_type_symbol
_atom_site_label
_atom_site_fract_x
_atom_site_fract_y
_atom_site_fract_z
Si Si1 0.368206 0.918886 0.572257
Si Si2 0.466981 0.641466 0.366524
Si Si3 0.214102 0.099366 0.658896
Si Si4 0.959665 0.342554 0.718468
Si Si5 0.000000 0.000000 0.000000
Si Si6 0.457074 0.572301 0.799306
Si Si7 0.894562 0.779605 0.099980
Si Si8 0.395880 0.217150 0.309867
O O1 0.505766 0.869750 0.654833
O O2 0.137139 0.781262 0.436628
O O3 0.500000 0.000000 0.500000
O O4 0.328241 0.015976 0.674034
O O5 0.615905 0.763428 0.338828
O O6 0.467768 0.513165 0.286156
O O7 0.579115 0.697331 0.539070
O O8 0.219986 0.616537 0.307515
O O9 0.141076 0.139441 0.776864
O O10 0.000000 0.000000 0.500000
O O11 0.209601 0.466753 0.771342
O O12 0.974925 0.280756 0.830740
O O13 0.149211 0.113625 0.172923
O O14 0.990073 0.116670 0.956136
O O15 0.461817 0.678590 0.739264
O O16 0.645760 0.657538 0.966743
#
# Coordination Sequence:
#
# PCOD9023871 Si02
#       8
#     2   2   2   2   1   2   2   2
#     4  11  20  38  64  96 123 158 217 267 311 375
#     4  11  23  39  67  96 119 172 218 259 315 382
#     4  12  21  37  67  96 123 161 216 267 318 374
#     4  11  22  39  66  92 126 167 213 265 314 374
#     4  10  22  40  62  88 124 174 196 260 336 364
#     4  11  24  44  59  93 135 171 209 260 321 380
#     4  11  23  41  63  92 131 169 211 265 319 385
#     4  10  22  40  65  91 130 166 212 262 321 386
#
# _framework density 19.590335
#
# number of rings (size 3 to 8) (size 9 to 14) (size 15 to 20)
#    0.000    1.067    5.333    2.400    0.000    2.667 
#    0.000    6.667    0.000    0.000    0.000    0.000 
#    0.000    0.000    0.000    0.000    0.000    0.000 
#
# Total GULP energy -83533.069189 kJ/mol
# GULP energy per Si atom -5568.871279 kJ/mol
# Density = 1.954575 g / cm^3
# Si number density = 19.590335 Si / 1000 Ang^3
#
#
#
# Elastic Constant Matrix: (Units=GPa)
#
#
# Indices 1 2 3 4 5 6 
#
# 1 59.7669 20.4315 31.6216 -0.5555 -0.9143 -20.5567
# 2 20.4315 85.4725 40.0063 -8.1755 6.8557 -7.5119
# 3 31.6216 40.0063 142.8823 -6.8726 4.6957 -16.0573
# 4 -0.5555 -8.1755 -6.8726 36.0098 -1.2148 3.6484
# 5 -0.9143 6.8557 4.6957 -1.2148 15.7459 8.0387
# 6 -20.5567 -7.5119 -16.0573 3.6484 8.0387 23.2417
#
#
#
# Elastic Compliance Matrix: (Units=1/GPa)
#
#
# Indices 1 2 3 4 5 6 
#
# 1 0.027654 -0.002805 -0.002249 -0.003620 -0.010083 0.026054
# 2 -0.002805 0.014676 -0.002916 0.002288 -0.006618 0.002177
# 3 -0.002249 -0.002916 0.008966 0.000429 -0.003804 0.004511
# 4 -0.003620 0.002288 0.000429 0.029369 0.005332 -0.008620
# 5 -0.010083 -0.006618 -0.003804 0.005332 0.090797 -0.045926
# 6 0.026054 0.002177 0.004511 -0.008620 -0.045926 0.087128
#
#
# Mechanical properties :
#
#
# Convention : Reuss Voigt Hill
#
# Bulk Modulus (GPa) = 28.28514 52.47118 40.37816
# Shear Modulus (GPa) = 17.46316 28.07031 22.76673
#
# Velocity S-wave (km/s) = 2.98890 3.78943 3.41272
# Velocity P-wave (km/s) = 5.13625 6.78150 6.01539
#
# Compressibility (1/GPa) = 0.03535425
#
# Stress axis : x y z
#
# Youngs Moduli (GPa) = 36.16083 68.13711 111.53637
#
# Poissons Ratio (x) = 0.19115 0.25090
# Poissons Ratio (y) = 0.10144 0.32526
# Poissons Ratio (z) = 0.08134 0.19870
#
# Static dielectric constant tensor:
#      x y z
#    x 1.693150 0.002030 0.015020 
#    y 0.002030 1.699400 0.008220 
#    z 0.015020 0.008220 1.678800 
# 
# From -- ./inp_files/387915.got.cif
#   From: 2010.05.17/outbox.cif.g08.bks.cpg/sg2_194_cif.got.tgz:387915.got - 2010.06.03 11:33:40.
