data_PCOD9023355
_publ_section_title
;
Structure prediction by ZEFSAII (Michael W. Deem and Ramdas Pophale) SiO2 
 PCOD9023355
Probable space group: P -1
;
_chemical_formula_sum "Si O2"
_cell_formula_units_Z 14
_cell_length_a 9.570621
_cell_length_b 18.797063
_cell_length_c 17.140600
_cell_angle_alpha 22.928236
_cell_angle_beta 26.544213
_cell_angle_gamma 29.218452
_cell_volume 515.276171
_symmetry_space_group_name_H-M "P -1"
_symmetry_group_IT_number 2
_symmetry_cell_setting 'triclinic'
loop_
_space_group_symop_operation_xyz
x,y,z
-x,-y,-z
loop_
_atom_site_type_symbol
_atom_site_label
_atom_site_fract_x
_atom_site_fract_y
_atom_site_fract_z
Si Si1 0.834351 0.111734 0.593544
Si Si2 0.141849 0.169745 0.905491
Si Si3 0.383198 0.056751 0.743158
Si Si4 0.221304 0.758214 0.838460
Si Si5 0.716696 0.517987 0.298807
Si Si6 0.623473 0.620430 0.071404
Si Si7 0.218897 0.423200 0.358790
O O1 0.677168 0.120440 0.577538
O O2 0.894998 0.304408 0.397690
O O3 0.517742 0.092412 0.820999
O O4 0.126115 0.929585 0.650685
O O5 0.083977 0.394760 0.689406
O O6 0.134857 0.070396 0.926629
O O7 0.870672 0.156017 0.116350
O O8 0.211703 0.226252 0.599816
O O9 0.550921 0.838090 0.859973
O O10 0.581096 0.635610 0.761729
O O11 0.970803 0.634367 0.074727
O O12 0.500000 0.500000 0.500000
O O13 0.538668 0.620007 0.206290
O O14 0.425121 0.514616 0.223375
O O15 0.000000 0.500000 0.000000
#
# Coordination Sequence:
#
# PCOD9023355 Si02
#       7
#     2   2   2   2   2   2   2
#     4  10  22  39  68  90 126 163 225 254 317 373
#     4  10  23  45  65  94 131 176 215 259 324 387
#     4  10  23  41  65  92 131 171 214 258 321 389
#     4  12  24  42  67  98 128 167 221 270 318 375
#     4  12  22  38  66  96 127 166 215 269 314 375
#     4  12  24  41  64 101 132 163 219 269 323 379
#     4  12  25  42  67  95 138 169 208 270 329 384
#
# _framework density 27.169895
#
# number of rings (size 3 to 8) (size 9 to 14) (size 15 to 20)
#    0.857    0.000    5.714    1.286    4.000    1.714 
#    0.000    2.857    0.000    3.429    0.000    0.000 
#    0.000    0.000    0.000    0.000    0.000    0.000 
#
# Total GULP energy -78453.167237 kJ/mol
# GULP energy per Si atom -5603.797660 kJ/mol
# Density = 2.710806 g / cm^3
# Si number density = 27.169895 Si / 1000 Ang^3
#
#
#
# Elastic Constant Matrix: (Units=GPa)
#
#
# Indices 1 2 3 4 5 6 
#
# 1 77.4705 21.1653 22.2615 -6.5849 12.3248 6.1375
# 2 21.1653 153.2726 28.5271 -16.8216 8.3898 4.2165
# 3 22.2615 28.5271 127.0964 -30.7179 15.2229 18.3320
# 4 -6.5849 -16.8216 -30.7179 54.2793 11.0125 15.9609
# 5 12.3248 8.3898 15.2229 11.0125 42.1657 1.0354
# 6 6.1375 4.2165 18.3320 15.9609 1.0354 44.1158
#
#
#
# Elastic Compliance Matrix: (Units=1/GPa)
#
#
# Indices 1 2 3 4 5 6 
#
# 1 0.014575 -0.001290 -0.000808 0.002479 -0.004301 -0.002365
# 2 -0.001290 0.007170 -0.000433 0.002476 -0.001511 -0.001186
# 3 -0.000808 -0.000433 0.012993 0.011248 -0.007081 -0.009148
# 4 0.002479 0.002476 0.011248 0.033657 -0.013648 -0.017112
# 5 -0.004301 -0.001511 -0.007081 -0.013648 0.031201 0.007891
# 6 -0.002365 -0.001186 -0.009148 -0.017112 0.007891 0.032917
#
#
# Mechanical properties :
#
#
# Convention : Reuss Voigt Hill
#
# Bulk Modulus (GPa) = 33.69625 55.74970 44.72298
# Shear Modulus (GPa) = 33.90581 47.17119 40.53850
#
# Velocity S-wave (km/s) = 3.53642 4.17124 3.86688
# Velocity P-wave (km/s) = 5.39481 6.61532 6.03600
#
# Compressibility (1/GPa) = 0.02967689
#
# Stress axis : x y z
#
# Youngs Moduli (GPa) = 68.61045 139.46866 76.96543
#
# Poissons Ratio (x) = 0.17987 0.06218
# Poissons Ratio (y) = 0.08849 0.03332
# Poissons Ratio (z) = 0.05543 0.06039
#
# Static dielectric constant tensor:
#      x y z
#    x 2.123350 0.026060 0.002240 
#    y 0.026060 2.095410 0.125480 
#    z 0.002240 0.125480 2.164040 
# 
# From -- ./inp_files/570649.got.cif
#   From: 2010.05.17/outbox.cif.g08.bks.cpg/sg2_286_cif.got.tgz:570649.got - 2010.06.03 11:33:40.
