data_PCOD9023729
_publ_section_title
;
Structure prediction by ZEFSAII (Michael W. Deem and Ramdas Pophale) SiO2 
 PCOD9023729
Probable space group: P -1
;
_chemical_formula_sum "Si O2"
_cell_formula_units_Z 14
_cell_length_a 19.738748
_cell_length_b 9.422204
_cell_length_c 8.488514
_cell_angle_alpha 148.723875
_cell_angle_beta 127.770487
_cell_angle_gamma 67.360743
_cell_volume 609.832156
_symmetry_space_group_name_H-M "P -1"
_symmetry_group_IT_number 2
_symmetry_cell_setting 'triclinic'
loop_
_space_group_symop_operation_xyz
x,y,z
-x,-y,-z
loop_
_atom_site_type_symbol
_atom_site_label
_atom_site_fract_x
_atom_site_fract_y
_atom_site_fract_z
Si Si1 0.291808 0.246131 0.036389
Si Si2 0.407304 0.025330 0.456607
Si Si3 0.129172 0.365745 0.310778
Si Si4 0.094847 0.228149 0.782659
Si Si5 0.395976 0.875317 0.667390
Si Si6 0.680690 0.549863 0.368929
Si Si7 0.975416 0.275249 0.392962
O O1 0.315084 0.354580 0.352781
O O2 0.347520 0.530053 0.284674
O O3 0.181377 0.146053 0.767504
O O4 0.333281 0.006381 0.809223
O O5 0.500000 0.000000 0.500000
O O6 0.396906 0.954728 0.559868
O O7 0.391841 0.328814 0.698332
O O8 0.338492 0.786058 0.017311
O O9 0.220843 0.314999 0.442364
O O10 0.113479 0.659468 0.613506
O O11 0.132114 0.396684 0.155432
O O12 0.050077 0.072854 0.980235
O O13 0.057610 0.378989 0.734425
O O14 0.000000 0.000000 0.500000
O O15 0.500000 0.000000 0.000000
O O16 0.000000 0.500000 0.500000
#
# Coordination Sequence:
#
# PCOD9023729 Si02
#       7
#     2   2   2   2   2   2   2
#     4  11  24  43  70  98 131 176 222 271 329 389
#     4  12  25  43  67  95 130 171 213 269 335 395
#     4  10  22  40  61  85 122 167 208 256 319 383
#     4   9  22  42  65  93 129 172 219 265 321 391
#     4  12  26  45  67  98 135 172 217 274 330 390
#     4  11  23  42  65  93 125 166 218 264 315 393
#     4  11  22  37  60  90 124 162 207 265 319 373
#
# _framework density 22.957136999999999
#
# number of rings (size 3 to 8) (size 9 to 14) (size 15 to 20)
#    0.000    1.143    0.000    6.000    0.000   11.429 
#    0.000    0.000    0.000    0.000    0.000    0.000 
#    0.000    0.000    0.000    0.000    0.000    0.000 
#
# Total GULP energy -78078.169071 kJ/mol
# GULP energy per Si atom -5577.012077 kJ/mol
# Density = 2.290489 g / cm^3
# Si number density = 22.957137 Si / 1000 Ang^3
#
#
#
# Elastic Constant Matrix: (Units=GPa)
#
#
# Indices 1 2 3 4 5 6 
#
# 1 91.4113 28.5864 11.8924 -18.0645 4.6779 -27.3361
# 2 28.5864 121.0443 6.3465 -2.0055 5.5699 1.4085
# 3 11.8924 6.3465 61.2536 13.3436 -4.7701 -11.7493
# 4 -18.0645 -2.0055 13.3436 27.0432 -7.6741 -6.0487
# 5 4.6779 5.5699 -4.7701 -7.6741 36.3958 -1.4985
# 6 -27.3361 1.4085 -11.7493 -6.0487 -1.4985 42.0032
#
#
#
# Elastic Compliance Matrix: (Units=1/GPa)
#
#
# Indices 1 2 3 4 5 6 
#
# 1 0.022044 -0.004887 -0.005090 0.021178 0.002381 0.016221
# 2 -0.004887 0.009489 -0.000115 -0.003959 -0.001846 -0.004167
# 3 -0.005090 -0.000115 0.020336 -0.013165 0.000582 0.000504
# 4 0.021178 -0.003959 -0.013165 0.064809 0.010645 0.019946
# 5 0.002381 -0.001846 0.000582 0.010645 0.029953 0.004376
# 6 0.016221 -0.004167 0.000504 0.019946 0.004376 0.037674
#
#
# Mechanical properties :
#
#
# Convention : Reuss Voigt Hill
#
# Bulk Modulus (GPa) = 31.55988 40.81777 36.18882
# Shear Modulus (GPa) = 23.25041 36.21402 29.73222
#
# Velocity S-wave (km/s) = 3.18587 3.97604 3.60268
# Velocity P-wave (km/s) = 5.22591 6.23675 5.75357
#
# Compressibility (1/GPa) = 0.03168580
#
# Stress axis : x y z
#
# Youngs Moduli (GPa) = 45.36344 105.38160 49.17476
#
# Poissons Ratio (x) = 0.51496 0.25031
# Poissons Ratio (y) = 0.22167 0.00565
# Poissons Ratio (z) = 0.23091 0.01211
#
# Static dielectric constant tensor:
#      x y z
#    x 1.840090 0.027240 -0.014720 
#    y 0.027240 1.846480 -0.030720 
#    z -0.014720 -0.030720 1.846960 
# 
# From -- ./inp_files/344013.got.cif
#   From: 2010.05.17/outbox.cif.g08.bks.cpg/sg2_173_cif.got.tgz:344013.got - 2010.06.03 11:33:40.
