data_PCOD9023243
_publ_section_title
;
Structure prediction by ZEFSAII (Michael W. Deem and Ramdas Pophale) SiO2 
 PCOD9023243
Probable space group: P -1
;
_chemical_formula_sum "Si O2"
_cell_formula_units_Z 14
_cell_length_a 12.351115
_cell_length_b 9.218128
_cell_length_c 9.918906
_cell_angle_alpha 136.673254
_cell_angle_beta 57.803008
_cell_angle_gamma 127.394885
_cell_volume 606.974315
_symmetry_space_group_name_H-M "P -1"
_symmetry_group_IT_number 2
_symmetry_cell_setting 'triclinic'
loop_
_space_group_symop_operation_xyz
x,y,z
-x,-y,-z
loop_
_atom_site_type_symbol
_atom_site_label
_atom_site_fract_x
_atom_site_fract_y
_atom_site_fract_z
Si Si1 0.575002 0.817818 0.521559
Si Si2 0.752186 0.105641 0.015313
Si Si3 0.431981 0.330514 0.267608
Si Si4 0.721164 0.348247 0.450464
Si Si5 0.857203 0.501984 0.029263
Si Si6 0.168793 0.714505 0.386772
Si Si7 0.992985 0.994526 0.338964
O O1 0.559089 0.565316 0.306438
O O2 0.555168 0.769116 0.662560
O O3 0.436978 0.836824 0.565164
O O4 0.705999 0.043636 0.562925
O O5 0.742685 0.291405 0.039966
O O6 0.873361 0.027540 0.830997
O O7 0.615859 0.875507 0.945324
O O8 0.789819 0.242063 0.221846
O O9 0.308990 0.431731 0.430236
O O10 0.792992 0.382069 0.568566
O O11 0.851515 0.443264 0.836555
O O12 0.869529 0.756914 0.220897
O O13 0.000000 0.500000 0.000000
O O14 0.038155 0.788060 0.539327
O O15 0.000000 0.000000 0.500000
#
# Coordination Sequence:
#
# PCOD9023243 Si02
#       7
#     2   2   2   2   2   2   2
#     4   9  20  43  65  92 128 174 211 254 317 381
#     4  11  22  40  65  95 126 167 219 259 312 384
#     4   9  20  41  65  95 127 167 215 259 312 374
#     4  10  25  38  65  97 137 160 208 266 329 360
#     4  10  22  39  67  93 118 173 221 249 316 381
#     4  12  22  44  65  96 131 170 205 273 314 374
#     4  11  23  40  68  93 125 164 221 262 309 380
#
# _framework density 23.065228000000001
#
# number of rings (size 3 to 8) (size 9 to 14) (size 15 to 20)
#    0.857    0.857    4.286    0.429    4.000    2.286 
#    2.571    5.714    0.000    0.000    0.000    0.000 
#    0.000    0.000    0.000    0.000    0.000    0.000 
#
# Total GULP energy -78175.293954 kJ/mol
# GULP energy per Si atom -5583.949568 kJ/mol
# Density = 2.301273 g / cm^3
# Si number density = 23.065228 Si / 1000 Ang^3
#
#
#
# Elastic Constant Matrix: (Units=GPa)
#
#
# Indices 1 2 3 4 5 6 
#
# 1 90.4507 20.3477 43.5289 -16.0415 10.1840 -19.2811
# 2 20.3477 70.8104 46.5900 7.3978 14.2952 10.3929
# 3 43.5289 46.5900 180.0395 3.6065 28.5891 -9.8144
# 4 -16.0415 7.3978 3.6065 38.4242 -2.1166 17.3675
# 5 10.1840 14.2952 28.5891 -2.1166 36.3665 -4.3181
# 6 -19.2811 10.3929 -9.8144 17.3675 -4.3181 34.8829
#
#
#
# Elastic Compliance Matrix: (Units=1/GPa)
#
#
# Indices 1 2 3 4 5 6 
#
# 1 0.015419 -0.004462 -0.002331 0.004333 0.000362 0.007084
# 2 -0.004462 0.020563 -0.003954 -0.001367 -0.004948 -0.009637
# 3 -0.002331 -0.003954 0.007960 -0.002475 -0.003852 0.002884
# 4 0.004333 -0.001367 -0.002475 0.035326 0.001510 -0.015295
# 5 0.000362 -0.004948 -0.003852 0.001510 0.032922 0.003915
# 6 0.007084 -0.009637 0.002884 -0.015295 0.003915 0.044366
#
#
# Mechanical properties :
#
#
# Convention : Reuss Voigt Hill
#
# Bulk Modulus (GPa) = 44.55275 62.47042 53.51159
# Shear Modulus (GPa) = 26.94921 37.32366 32.13643
#
# Velocity S-wave (km/s) = 3.42188 4.02702 3.73672
# Velocity P-wave (km/s) = 5.91357 6.98324 6.47054
#
# Compressibility (1/GPa) = 0.02244530
#
# Stress axis : x y z
#
# Youngs Moduli (GPa) = 64.85359 48.63181 125.63179
#
# Poissons Ratio (x) = 0.21701 0.29290
# Poissons Ratio (y) = 0.28940 0.49680
# Poissons Ratio (z) = 0.15120 0.19231
#
# Static dielectric constant tensor:
#      x y z
#    x 1.983900 0.110120 -0.030550 
#    y 0.110120 1.920360 0.032650 
#    z -0.030550 0.032650 1.843280 
# 
# From -- ./inp_files/293429.got.cif
#   From: 2010.05.17/outbox.cif.g08.bks.cpg/sg2_147_cif.got.tgz:293429.got - 2010.06.03 11:33:40.
