data_PCOD9023089
_publ_section_title
;
Structure prediction by ZEFSAII (Michael W. Deem and Ramdas Pophale) SiO2 
 PCOD9023089
Probable space group: P -1
;
_chemical_formula_sum "Si O2"
_cell_formula_units_Z 16
_cell_length_a 15.070641
_cell_length_b 8.239290
_cell_length_c 29.841717
_cell_angle_alpha 140.086222
_cell_angle_beta 160.089080
_cell_angle_gamma 48.715755
_cell_volume 777.115693
_symmetry_space_group_name_H-M "P -1"
_symmetry_group_IT_number 2
_symmetry_cell_setting 'triclinic'
loop_
_space_group_symop_operation_xyz
x,y,z
-x,-y,-z
loop_
_atom_site_type_symbol
_atom_site_label
_atom_site_fract_x
_atom_site_fract_y
_atom_site_fract_z
Si Si1 0.684192 0.639728 0.416711
Si Si2 0.105855 0.481622 0.890152
Si Si3 0.160197 0.001574 0.966891
Si Si4 0.609867 0.317095 0.120675
Si Si5 0.886418 0.724916 0.914188
Si Si6 0.287348 0.612926 0.715112
Si Si7 0.140652 0.343987 0.326597
Si Si8 0.649516 0.196929 0.549323
O O1 0.440213 0.398609 0.268967
O O2 0.695884 0.598181 0.359678
O O3 0.984273 0.644534 0.576856
O O4 0.614410 0.905103 0.453371
O O5 0.129886 0.745019 0.928761
O O6 0.021160 0.528437 0.910579
O O7 0.870477 0.262124 0.707321
O O8 0.390503 0.419027 0.011433
O O9 0.988472 0.900987 0.819842
O O10 0.057818 0.206232 0.992358
O O11 0.475618 0.127335 0.131730
O O12 0.637693 0.433198 0.208458
O O13 0.903823 0.390006 0.253858
O O14 0.500000 0.000000 0.000000
O O15 0.000000 0.000000 0.000000
O O16 0.377189 0.268099 0.449897
O O17 0.250613 0.599550 0.401508
#
# Coordination Sequence:
#
# PCOD9023089 Si02
#       8
#     2   2   2   2   2   2   2   2
#     4  10  22  39  66  86 123 165 202 247 308 370
#     4  10  23  38  64  93 120 164 205 244 308 362
#     4   9  19  41  65  83 123 165 203 245 300 374
#     4  12  24  38  60  94 126 157 202 261 298 355
#     4   9  20  39  62  91 115 155 205 253 297 360
#     4  10  22  40  61  93 123 157 204 253 308 356
#     4  10  23  40  61  90 127 161 204 253 303 351
#     4  10  23  41  62  90 123 165 205 248 302 368
#
# _framework density 20.588954999999999
#
# number of rings (size 3 to 8) (size 9 to 14) (size 15 to 20)
#    0.000    2.000    1.250    0.750    5.250    2.500 
#    0.000    4.375    0.000    0.000    0.000    0.000 
#    0.000    0.000    0.000    0.000    0.000    0.000 
#
# Total GULP energy -89329.824468 kJ/mol
# GULP energy per Si atom -5583.114029 kJ/mol
# Density = 2.054209 g / cm^3
# Si number density = 20.588955 Si / 1000 Ang^3
#
#
#
# Elastic Constant Matrix: (Units=GPa)
#
#
# Indices 1 2 3 4 5 6 
#
# 1 81.6358 24.7163 38.7764 -9.0546 7.8343 -11.8921
# 2 24.7163 58.9738 30.9811 -4.9639 0.3478 -14.9804
# 3 38.7764 30.9811 107.0597 -6.0241 6.6365 -3.8845
# 4 -9.0546 -4.9639 -6.0241 33.9992 -3.1332 5.1683
# 5 7.8343 0.3478 6.6365 -3.1332 41.0738 -5.5605
# 6 -11.8921 -14.9804 -3.8845 5.1683 -5.5605 17.0071
#
#
#
# Elastic Compliance Matrix: (Units=1/GPa)
#
#
# Indices 1 2 3 4 5 6 
#
# 1 0.016727 -0.002343 -0.004921 0.001988 -0.001207 0.007509
# 2 -0.002343 0.026850 -0.006423 -0.000825 0.004195 0.022167
# 3 -0.004921 -0.006423 0.012900 0.000932 -0.001979 -0.007083
# 4 0.001988 -0.000825 0.000932 0.031332 0.000729 -0.008407
# 5 -0.001207 0.004195 -0.001979 0.000729 0.026379 0.010802
# 6 0.007509 0.022167 -0.007083 -0.008407 0.010802 0.088044
#
#
# Mechanical properties :
#
#
# Convention : Reuss Voigt Hill
#
# Bulk Modulus (GPa) = 34.36280 48.51299 41.43790
# Shear Modulus (GPa) = 20.89368 28.62906 24.76137
#
# Velocity S-wave (km/s) = 3.18905 3.73299 3.47169
# Velocity P-wave (km/s) = 5.50329 6.49570 6.01998
#
# Compressibility (1/GPa) = 0.02910124
#
# Stress axis : x y z
#
# Youngs Moduli (GPa) = 59.78483 37.24422 77.51998
#
# Poissons Ratio (x) = 0.08727 0.38148
# Poissons Ratio (y) = 0.14008 0.49794
# Poissons Ratio (z) = 0.29421 0.23923
#
# Static dielectric constant tensor:
#      x y z
#    x 1.760680 -0.001350 0.001370 
#    y -0.001350 1.711170 0.016920 
#    z 0.001370 0.016920 1.743990 
# 
# From -- ./inp_files/354510.got.cif
#   From: 2010.05.17/outbox.cif.g08.bks.cpg/sg2_178_cif.got.tgz:354510.got - 2010.06.03 11:33:40.
