data_PCOD9023078
_publ_section_title
;
Structure prediction by ZEFSAII (Michael W. Deem and Ramdas Pophale) SiO2 
 PCOD9023078
Probable space group: P -1
;
_chemical_formula_sum "Si O2"
_cell_formula_units_Z 12
_cell_length_a 10.692643
_cell_length_b 9.099832
_cell_length_c 9.889070
_cell_angle_alpha 113.016315
_cell_angle_beta 116.316908
_cell_angle_gamma 121.146034
_cell_volume 434.331285
_symmetry_space_group_name_H-M "P -1"
_symmetry_group_IT_number 2
_symmetry_cell_setting 'triclinic'
loop_
_space_group_symop_operation_xyz
x,y,z
-x,-y,-z
loop_
_atom_site_type_symbol
_atom_site_label
_atom_site_fract_x
_atom_site_fract_y
_atom_site_fract_z
Si Si1 0.224700 0.325805 0.424524
Si Si2 0.951345 0.178913 0.921360
Si Si3 0.847237 0.220940 0.174072
Si Si4 0.432713 0.752381 0.468775
Si Si5 0.699441 0.753001 0.295250
Si Si6 0.521609 0.920077 0.181992
O O1 0.043988 0.001999 0.181881
O O2 0.387076 0.542846 0.453240
O O3 0.365726 0.394453 0.647792
O O4 0.084230 0.356922 0.409247
O O5 0.727033 0.040450 0.676019
O O6 0.851301 0.109388 0.002912
O O7 0.215239 0.527627 0.171156
O O8 0.659404 0.040326 0.145726
O O9 0.768618 0.310579 0.089238
O O10 0.394922 0.856382 0.597072
O O11 0.624659 0.865205 0.288884
O O12 0.500000 0.500000 0.000000
O O13 0.000000 0.000000 0.500000
#
# Coordination Sequence:
#
# PCOD9023078 Si02
#       6
#     2   2   2   2   2   2
#     4  11  23  42  71  97 137 174 224 268 333 392
#     4  10  22  39  66 103 129 169 221 275 320 388
#     4   9  19  38  69  94 131 164 224 262 328 369
#     4  10  22  39  68 100 130 170 222 272 325 383
#     4  12  29  46  65  98 138 175 219 272 338 394
#     4  10  22  42  67  99 138 170 222 275 330 389
#
# _framework density 27.628679999999999
#
# number of rings (size 3 to 8) (size 9 to 14) (size 15 to 20)
#    0.000    1.667    1.667    2.500    7.000    9.333 
#    0.000    4.167    0.000    0.000    0.000    1.167 
#    0.000    0.000    0.000    0.000    0.000    0.000 
#
# Total GULP energy -66886.431074 kJ/mol
# GULP energy per Si atom -5573.869256 kJ/mol
# Density = 2.756580 g / cm^3
# Si number density = 27.628680 Si / 1000 Ang^3
#
#
#
# Elastic Constant Matrix: (Units=GPa)
#
#
# Indices 1 2 3 4 5 6 
#
# 1 134.9903 61.6296 59.6133 -11.9343 29.5956 -30.2678
# 2 61.6296 145.8636 64.4558 -37.2726 12.0372 -36.0007
# 3 59.6133 64.4558 193.8733 -12.4336 14.9500 -7.3399
# 4 -11.9343 -37.2726 -12.4336 55.5913 1.1277 -7.0262
# 5 29.5956 12.0372 14.9500 1.1277 41.9975 -11.7314
# 6 -30.2678 -36.0007 -7.3399 -7.0262 -11.7314 55.4098
#
#
#
# Elastic Compliance Matrix: (Units=1/GPa)
#
#
# Indices 1 2 3 4 5 6 
#
# 1 0.011541 -0.002390 -0.002120 0.000943 -0.005778 0.003367
# 2 -0.002390 0.013388 -0.002908 0.008847 0.000973 0.008336
# 3 -0.002120 -0.002908 0.006660 -0.001213 -0.000700 -0.002468
# 4 0.000943 0.008847 -0.001213 0.025018 -0.000903 0.009084
# 5 -0.005778 0.000973 -0.000700 -0.000903 0.028818 0.003371
# 6 0.003367 0.008336 -0.002468 0.009084 0.003371 0.026841
#
#
# Mechanical properties :
#
#
# Convention : Reuss Voigt Hill
#
# Bulk Modulus (GPa) = 59.69939 94.01386 76.85663
# Shear Modulus (GPa) = 37.68275 49.86830 43.77552
#
# Velocity S-wave (km/s) = 3.69711 4.25308 3.98480
# Velocity P-wave (km/s) = 6.31502 7.63018 7.00354
#
# Compressibility (1/GPa) = 0.01675059
#
# Stress axis : x y z
#
# Youngs Moduli (GPa) = 86.65059 74.69130 150.15923
#
# Poissons Ratio (x) = 0.17854 0.31839
# Poissons Ratio (y) = 0.20713 0.43670
# Poissons Ratio (z) = 0.18373 0.21722
#
# Static dielectric constant tensor:
#      x y z
#    x 2.201590 0.013190 0.094960 
#    y 0.013190 2.132560 0.023970 
#    z 0.094960 0.023970 2.300600 
# 
# From -- ./inp_files/418305.got.cif
#   From: 2010.05.17/outbox.cif.g08.bks.cpg/sg2_210_cif.got.tgz:418305.got - 2010.06.03 11:33:40.
