data_PCOD9023722
_publ_section_title
;
Structure prediction by ZEFSAII (Michael W. Deem and Ramdas Pophale) SiO2 
 PCOD9023722
Probable space group: P -1
;
_chemical_formula_sum "Si O2"
_cell_formula_units_Z 16
_cell_length_a 8.204389
_cell_length_b 29.038482
_cell_length_c 9.096751
_cell_angle_alpha 40.306773
_cell_angle_beta 32.679578
_cell_angle_gamma 42.742380
_cell_volume 729.915359
_symmetry_space_group_name_H-M "P -1"
_symmetry_group_IT_number 2
_symmetry_cell_setting 'triclinic'
loop_
_space_group_symop_operation_xyz
x,y,z
-x,-y,-z
loop_
_atom_site_type_symbol
_atom_site_label
_atom_site_fract_x
_atom_site_fract_y
_atom_site_fract_z
Si Si1 0.186166 0.915432 0.560723
Si Si2 0.202235 0.799922 0.376540
Si Si3 0.751028 0.339549 0.113709
Si Si4 0.836152 0.572517 0.533925
Si Si5 0.667364 0.841426 0.144315
Si Si6 0.520609 0.813452 0.799251
Si Si7 0.269018 0.296585 0.363708
Si Si8 0.848055 0.449491 0.337350
O O1 0.486346 0.897665 0.269938
O O2 0.291061 0.881790 0.723028
O O3 0.000000 0.000000 0.500000
O O4 0.956760 0.866700 0.798491
O O5 0.200176 0.727896 0.648703
O O6 0.417429 0.838333 0.216691
O O7 0.834428 0.836906 0.545645
O O8 0.357501 0.788972 0.124068
O O9 0.546245 0.325907 0.160857
O O10 0.530396 0.408140 0.203705
O O11 0.067478 0.358270 0.780378
O O12 0.001948 0.561067 0.591548
O O13 0.000000 0.500000 0.500000
O O14 0.784996 0.762969 0.330819
O O15 0.616553 0.748102 0.763675
O O16 0.963987 0.364622 0.399058
O O17 0.500000 0.500000 0.500000
O O18 0.000000 0.500000 0.000000
#
# Coordination Sequence:
#
# PCOD9023722 Si02
#       8
#     2   2   2   2   2   2   2   2
#     4  11  23  43  67  95 129 175 214 245 303 384
#     4  11  23  40  63  99 126 154 210 268 319 357
#     4  10  22  40  61  81 114 159 200 250 310 377
#     4  11  23  40  57  80 114 158 202 246 310 385
#     4  10  22  42  68  91 128 173 209 254 312 382
#     4  11  23  39  64  97 128 158 209 270 306 365
#     4   9  22  41  63  87 119 165 210 251 313 380
#     4  11  24  39  58  86 120 156 200 258 312 362
#
# _framework density 21.920351
#
# number of rings (size 3 to 8) (size 9 to 14) (size 15 to 20)
#    0.000    1.500    0.000    5.250    0.000   16.000 
#    0.000    3.750    0.000    0.000    0.000    0.000 
#    0.000    0.000    0.000    0.000    0.000    0.000 
#
# Total GULP energy -89450.434888 kJ/mol
# GULP energy per Si atom -5590.652181 kJ/mol
# Density = 2.187046 g / cm^3
# Si number density = 21.920351 Si / 1000 Ang^3
#
#
#
# Elastic Constant Matrix: (Units=GPa)
#
#
# Indices 1 2 3 4 5 6 
#
# 1 78.7755 20.1143 35.1393 -7.0050 11.2249 -19.1670
# 2 20.1143 111.3693 21.4878 -3.3371 6.7240 -30.4797
# 3 35.1393 21.4878 110.7539 11.0349 5.7336 -8.2517
# 4 -7.0050 -3.3371 11.0349 26.3408 0.2200 -3.0570
# 5 11.2249 6.7240 5.7336 0.2200 34.9918 6.1776
# 6 -19.1670 -30.4797 -8.2517 -3.0570 6.1776 26.6886
#
#
#
# Elastic Compliance Matrix: (Units=1/GPa)
#
#
# Indices 1 2 3 4 5 6 
#
# 1 0.023379 0.004916 -0.007231 0.012790 -0.011635 0.024327
# 2 0.004916 0.015832 -0.003202 0.007438 -0.008270 0.023388
# 3 -0.007231 -0.003202 0.012164 -0.008200 0.002145 -0.006524
# 4 0.012790 0.007438 -0.008200 0.048443 -0.008493 0.022659
# 5 -0.011635 -0.008270 0.002145 -0.008493 0.038367 -0.026991
# 6 0.024327 0.023388 -0.006524 0.022659 -0.026991 0.088476
#
#
# Mechanical properties :
#
#
# Convention : Reuss Voigt Hill
#
# Bulk Modulus (GPa) = 24.78800 50.48680 37.63740
# Shear Modulus (GPa) = 19.90914 32.54806 26.22860
#
# Velocity S-wave (km/s) = 3.01699 3.85753 3.46286
# Velocity P-wave (km/s) = 4.84449 6.55154 5.76158
#
# Compressibility (1/GPa) = 0.04034211
#
# Stress axis : x y z
#
# Youngs Moduli (GPa) = 42.77425 63.16295 82.20866
#
# Poissons Ratio (x) = -0.31052 0.59443
# Poissons Ratio (y) = -0.21029 0.26322
# Poissons Ratio (z) = 0.30929 0.20224
#
# Static dielectric constant tensor:
#      x y z
#    x 1.802390 0.031520 -0.001530 
#    y 0.031520 1.928640 0.072280 
#    z -0.001530 0.072280 1.800030 
# 
# From -- ./inp_files/223349.got.cif
#   From: 2010.05.17/outbox.cif.g08.bks.cpg/sg2_112_cif.got.tgz:223349.got - 2010.06.03 11:33:40.
