data_PCOD9023771
_publ_section_title
;
Structure prediction by ZEFSAII (Michael W. Deem and Ramdas Pophale) SiO2 
 PCOD9023771
Probable space group: P -1
;
_chemical_formula_sum "Si O2"
_cell_formula_units_Z 16
_cell_length_a 4.943711
_cell_length_b 5.125554
_cell_length_c 25.053436
_cell_angle_alpha 69.287947
_cell_angle_beta 84.955687
_cell_angle_gamma 88.569037
_cell_volume 591.493240
_symmetry_space_group_name_H-M "P -1"
_symmetry_group_IT_number 2
_symmetry_cell_setting 'triclinic'
loop_
_space_group_symop_operation_xyz
x,y,z
-x,-y,-z
loop_
_atom_site_type_symbol
_atom_site_label
_atom_site_fract_x
_atom_site_fract_y
_atom_site_fract_z
Si Si1 0.144609 0.846641 0.056661
Si Si2 0.151187 0.383970 0.207692
Si Si3 0.715713 0.847134 0.376070
Si Si4 0.779903 0.931121 0.586319
Si Si5 0.828642 0.361445 0.466405
Si Si6 0.388484 0.988452 0.747350
Si Si7 0.834992 0.879019 0.154990
Si Si8 0.441332 0.308126 0.093283
O O1 0.355077 0.611002 0.049894
O O2 0.895276 0.736588 0.106787
O O3 0.300548 0.066976 0.076864
O O4 0.000000 0.000000 0.000000
O O5 0.350589 0.203285 0.253878
O O6 0.297220 0.342012 0.151049
O O7 0.863968 0.224717 0.224747
O O8 0.080223 0.710038 0.192904
O O9 0.513250 0.090420 0.381345
O O10 0.614375 0.577156 0.431040
O O11 0.017288 0.914056 0.386792
O O12 0.679932 0.823617 0.315638
O O13 0.739321 0.082371 0.518242
O O14 0.968401 0.680599 0.583445
O O15 0.000000 0.500000 0.500000
O O16 0.386196 0.154188 0.791650
O O17 0.737337 0.181425 0.111071
#
# Coordination Sequence:
#
# PCOD9023771 Si02
#       8
#     2   2   2   2   2   2   2   2
#     4  11  23  41  66 103 137 176 228 286 346 412
#     4  10  23  41  66  89 129 172 226 272 338 401
#     4  11  23  38  61  92 128 162 217 267 326 390
#     4  10  22  40  61  91 124 165 210 265 326 395
#     4   9  21  40  64  89 124 167 209 261 328 394
#     4  11  23  41  62  94 125 173 221 274 336 400
#     4  10  24  41  64  89 131 175 223 278 333 409
#     4  10  23  40  67  96 134 178 225 280 347 413
#
# _framework density 27.050183000000001
#
# number of rings (size 3 to 8) (size 9 to 14) (size 15 to 20)
#    0.000    1.750    1.250    1.500    5.250    9.500 
#    0.000    0.000    0.000    0.000    0.000    0.000 
#    0.000    0.000    0.000    0.000    0.000    0.000 
#
# Total GULP energy -89176.893860 kJ/mol
# GULP energy per Si atom -5573.555866 kJ/mol
# Density = 2.698862 g / cm^3
# Si number density = 27.050183 Si / 1000 Ang^3
#
#
#
# Elastic Constant Matrix: (Units=GPa)
#
#
# Indices 1 2 3 4 5 6 
#
# 1 133.9059 38.7136 21.1071 -12.3260 26.8193 -25.4926
# 2 38.7136 160.5990 20.3098 -11.2885 21.1748 -38.4559
# 3 21.1071 20.3098 136.4606 -15.0562 25.9873 -16.0776
# 4 -12.3260 -11.2885 -15.0562 30.6761 -18.9075 6.8997
# 5 26.8193 21.1748 25.9873 -18.9075 39.4216 -4.2645
# 6 -25.4926 -38.4559 -16.0776 6.8997 -4.2645 45.2773
#
#
#
# Elastic Compliance Matrix: (Units=1/GPa)
#
#
# Indices 1 2 3 4 5 6 
#
# 1 0.009661 -0.000450 0.000243 -0.001295 -0.006602 0.004719
# 2 -0.000450 0.008388 0.000293 -0.001028 -0.004157 0.006740
# 3 0.000243 0.000293 0.008687 0.000403 -0.005544 0.002887
# 4 -0.001295 -0.001028 0.000403 0.047775 0.023374 -0.006538
# 5 -0.006602 -0.004157 -0.005544 0.023374 0.046043 -0.008441
# 6 0.004719 0.006740 0.002887 -0.006538 -0.008441 0.031694
#
#
# Mechanical properties :
#
#
# Convention : Reuss Voigt Hill
#
# Bulk Modulus (GPa) = 37.16276 65.69184 51.42730
# Shear Modulus (GPa) = 31.04701 46.46399 38.75550
#
# Velocity S-wave (km/s) = 3.39153 4.14901 3.78924
# Velocity P-wave (km/s) = 5.39490 6.87679 6.18042
#
# Compressibility (1/GPa) = 0.02690866
#
# Stress axis : x y z
#
# Youngs Moduli (GPa) = 103.50700 119.22089 115.11044
#
# Poissons Ratio (x) = 0.05368 -0.02797
# Poissons Ratio (y) = 0.04661 -0.03378
# Poissons Ratio (z) = -0.02515 -0.03499
#
# Static dielectric constant tensor:
#      x y z
#    x 2.234950 0.081570 -0.048080 
#    y 0.081570 2.208460 -0.050410 
#    z -0.048080 -0.050410 2.153020 
# 
# From -- ./inp_files/13177.got.cif
#   From: 2010.05.17/outbox.cif.g08.bks.cpg/sg2_7_cif.got.tgz:13177.got - 2010.06.03 11:33:40.
