data_PCOD9023619
_publ_section_title
;
Structure prediction by ZEFSAII (Michael W. Deem and Ramdas Pophale) SiO2 
 PCOD9023619
Probable space group: P -1
;
_chemical_formula_sum "Si O2"
_cell_formula_units_Z 11
_cell_length_a 11.539240
_cell_length_b 13.692834
_cell_length_c 4.990430
_cell_angle_alpha 79.250111
_cell_angle_beta 97.268130
_cell_angle_gamma 147.416749
_cell_volume 416.480495
_symmetry_space_group_name_H-M "P -1"
_symmetry_group_IT_number 2
_symmetry_cell_setting 'triclinic'
loop_
_space_group_symop_operation_xyz
x,y,z
-x,-y,-z
loop_
_atom_site_type_symbol
_atom_site_label
_atom_site_fract_x
_atom_site_fract_y
_atom_site_fract_z
Si Si1 0.500000 0.500000 0.500000
Si Si2 0.111298 0.866354 0.961155
Si Si3 0.332329 0.549878 0.091411
Si Si4 0.220861 0.653517 0.324230
Si Si5 0.453788 0.841335 0.792922
Si Si6 0.999103 0.105811 0.583019
O O1 0.494644 0.579547 0.208201
O O2 0.240266 0.318888 0.518014
O O3 0.066292 0.927560 0.113184
O O4 0.323331 0.971114 0.099621
O O5 0.891169 0.645592 0.006563
O O6 0.145434 0.928033 0.637030
O O7 0.272657 0.574791 0.318951
O O8 0.448123 0.715376 0.857241
O O9 0.393819 0.826568 0.484785
O O10 0.000000 0.500000 0.500000
O O11 0.744655 0.277700 0.998761
O O12 0.000000 0.000000 0.500000
#
# Coordination Sequence:
#
# PCOD9023619 Si02
#       6
#     1   2   2   2   2   2
#     4  10  22  40  58  94 122 168 202 244 312 350
#     4  11  23  39  60  91 123 162 210 249 308 365
#     4   9  24  38  65  89 130 161 209 254 300 377
#     4  10  22  43  68  91 121 164 207 259 316 366
#     4  10  22  40  67  88 127 162 203 260 313 364
#     4  11  24  37  58  87 128 165 208 252 294 372
#
# _framework density 26.411802999999999
#
# number of rings (size 3 to 8) (size 9 to 14) (size 15 to 20)
#    1.091    0.727    0.000    3.273    7.636    2.909 
#    0.000    1.818    0.000    0.000    0.000    0.000 
#    0.000    0.000    0.000    0.000    0.000    0.000 
#
# Total GULP energy -61257.955788 kJ/mol
# GULP energy per Si atom -5568.905072 kJ/mol
# Density = 2.635169 g / cm^3
# Si number density = 26.411803 Si / 1000 Ang^3
#
#
#
# Elastic Constant Matrix: (Units=GPa)
#
#
# Indices 1 2 3 4 5 6 
#
# 1 66.0098 27.9043 32.0086 16.9177 -5.0907 -1.0991
# 2 27.9043 89.2165 27.8714 39.6751 -5.6047 7.6469
# 3 32.0086 27.8714 147.6371 23.9115 -6.7489 9.2864
# 4 16.9177 39.6751 23.9115 40.6586 -0.0063 4.8819
# 5 -5.0907 -5.6047 -6.7489 -0.0063 44.6080 -0.6224
# 6 -1.0991 7.6469 9.2864 4.8819 -0.6224 43.7397
#
#
#
# Elastic Compliance Matrix: (Units=1/GPa)
#
#
# Indices 1 2 3 4 5 6 
#
# 1 0.019098 -0.004019 -0.003057 -0.002482 0.001241 0.002126
# 2 -0.004019 0.021034 0.000140 -0.018732 0.002179 -0.001686
# 3 -0.003057 0.000140 0.008099 -0.003457 0.000874 -0.001423
# 4 -0.002482 -0.018732 -0.003457 0.046089 -0.003171 -0.001243
# 5 0.001241 0.002179 0.000874 -0.003171 0.022967 0.000145
# 6 0.002126 -0.001686 -0.001423 -0.001243 0.000145 0.023654
#
#
# Mechanical properties :
#
#
# Convention : Reuss Voigt Hill
#
# Bulk Modulus (GPa) = 29.10391 53.15909 41.13150
# Shear Modulus (GPa) = 30.07283 40.13988 35.10635
#
# Velocity S-wave (km/s) = 3.37800 3.90265 3.64976
# Velocity P-wave (km/s) = 5.12422 6.36226 5.77650
#
# Compressibility (1/GPa) = 0.03435965
#
# Stress axis : x y z
#
# Youngs Moduli (GPa) = 52.36255 47.54293 123.47286
#
# Poissons Ratio (x) = 0.19105 0.37743
# Poissons Ratio (y) = 0.21042 -0.01729
# Poissons Ratio (z) = 0.16006 -0.00666
#
# Static dielectric constant tensor:
#      x y z
#    x 1.730710 -0.226660 0.374340 
#    y -0.226660 2.005860 0.115660 
#    z 0.374340 0.115660 1.717490 
# 
# From -- ./inp_files/74616.got.cif
#   From: 2010.05.17/outbox.cif.g08.bks.cpg/sg2_38_cif.got.tgz:74616.got - 2010.06.03 11:33:40.
