data_PCOD9023233
_publ_section_title
;
Structure prediction by ZEFSAII (Michael W. Deem and Ramdas Pophale) SiO2 
 PCOD9023233
Probable space group: P -1
;
_chemical_formula_sum "Si O2"
_cell_formula_units_Z 14
_cell_length_a 8.240620
_cell_length_b 8.366678
_cell_length_c 12.378455
_cell_angle_alpha 110.057016
_cell_angle_beta 107.781124
_cell_angle_gamma 115.458597
_cell_volume 612.054173
_symmetry_space_group_name_H-M "P -1"
_symmetry_group_IT_number 2
_symmetry_cell_setting 'triclinic'
loop_
_space_group_symop_operation_xyz
x,y,z
-x,-y,-z
loop_
_atom_site_type_symbol
_atom_site_label
_atom_site_fract_x
_atom_site_fract_y
_atom_site_fract_z
Si Si1 0.505678 0.801804 0.777627
Si Si2 0.794128 0.505139 0.054089
Si Si3 0.245148 0.783024 0.198071
Si Si4 0.689947 0.619224 0.482192
Si Si5 0.840557 0.132710 0.305031
Si Si6 0.388395 0.078025 0.569925
Si Si7 0.670903 0.774429 0.013098
O O1 0.391307 0.558638 0.666979
O O2 0.311454 0.814354 0.764662
O O3 0.634365 0.968655 0.744189
O O4 0.672217 0.875673 0.925085
O O5 0.772430 0.649307 0.000030
O O6 0.025684 0.667893 0.190477
O O7 0.795366 0.325954 0.951983
O O8 0.582516 0.390855 0.054398
O O9 0.404021 0.746343 0.278431
O O10 0.500000 0.500000 0.500000
O O11 0.710789 0.822987 0.489201
O O12 0.908458 0.689796 0.598451
O O13 0.770744 0.078053 0.404395
O O14 0.778700 0.932221 0.173794
O O15 0.500000 0.000000 0.500000
#
# Coordination Sequence:
#
# PCOD9023233 Si02
#       7
#     2   2   2   2   2   2   2
#     4  11  24  43  68  97 137 173 218 273 338 393
#     4  10  22  39  67  91 134 167 220 266 331 391
#     4  10  22  43  63  98 131 169 221 274 325 392
#     4  12  27  45  67 101 134 178 225 275 334 396
#     4  11  25  46  67  98 138 175 222 277 332 397
#     4  11  24  45  71  92 131 179 226 269 329 400
#     4  11  23  41  68 100 130 171 220 276 334 389
#
# _framework density 22.873792000000002
#
# number of rings (size 3 to 8) (size 9 to 14) (size 15 to 20)
#    0.000    1.143    2.857    3.857    6.000    2.857 
#    2.571    0.000    0.000    0.000    0.000    0.000 
#    0.000    0.000    0.000    0.000    0.000    0.000 
#
# Total GULP energy -78153.799265 kJ/mol
# GULP energy per Si atom -5582.414233 kJ/mol
# Density = 2.282173 g / cm^3
# Si number density = 22.873792 Si / 1000 Ang^3
#
#
#
# Elastic Constant Matrix: (Units=GPa)
#
#
# Indices 1 2 3 4 5 6 
#
# 1 53.2661 6.2977 17.9738 23.9081 -0.2795 6.6606
# 2 6.2977 42.1606 15.5752 0.3771 -15.9718 -17.2575
# 3 17.9738 15.5752 58.9619 8.7214 -3.9426 10.4506
# 4 23.9081 0.3771 8.7214 32.5631 0.7997 4.4336
# 5 -0.2795 -15.9718 -3.9426 0.7997 34.4428 15.7900
# 6 6.6606 -17.2575 10.4506 4.4336 15.7900 34.6730
#
#
#
# Elastic Compliance Matrix: (Units=1/GPa)
#
#
# Indices 1 2 3 4 5 6 
#
# 1 0.030558 -0.004457 -0.004337 -0.020656 0.000079 -0.004176
# 2 -0.004457 0.040781 -0.013159 0.003243 0.007542 0.021271
# 3 -0.004337 -0.013159 0.024773 -0.001400 0.003403 -0.014554
# 4 -0.020656 0.003243 -0.001400 0.046203 0.000075 0.000062
# 5 0.000079 0.007542 0.003403 0.000075 0.040039 -0.015530
# 6 -0.004176 0.021271 -0.014554 0.000062 -0.015530 0.051681
#
#
# Mechanical properties :
#
#
# Convention : Reuss Voigt Hill
#
# Bulk Modulus (GPa) = 19.15555 26.00912 22.58234
# Shear Modulus (GPa) = 16.92946 27.97189 22.45068
#
# Velocity S-wave (km/s) = 2.72348 3.50076 3.13629
# Velocity P-wave (km/s) = 4.27579 5.26648 4.79678
#
# Compressibility (1/GPa) = 0.05220418
#
# Stress axis : x y z
#
# Youngs Moduli (GPa) = 32.72455 24.52130 40.36727
#
# Poissons Ratio (x) = 0.10930 0.17508
# Poissons Ratio (y) = 0.14586 0.53121
# Poissons Ratio (z) = 0.14193 0.32269
#
# Static dielectric constant tensor:
#      x y z
#    x 1.852660 0.013220 -0.037040 
#    y 0.013220 1.883920 0.015000 
#    z -0.037040 0.015000 1.973350 
# 
# From -- ./inp_files/383032.got.cif
#   From: 2010.05.17/outbox.cif.g08.bks.cpg/sg2_192_cif.got.tgz:383032.got - 2010.06.03 11:33:40.
