data_PCOD9023040
_publ_section_title
;
Structure prediction by ZEFSAII (Michael W. Deem and Ramdas Pophale) SiO2 
 PCOD9023040
Probable space group: P -1
;
_chemical_formula_sum "Si O2"
_cell_formula_units_Z 14
_cell_length_a 22.545150
_cell_length_b 8.182854
_cell_length_c 9.068592
_cell_angle_alpha 107.182030
_cell_angle_beta 142.699823
_cell_angle_gamma 44.716469
_cell_volume 552.283491
_symmetry_space_group_name_H-M "P -1"
_symmetry_group_IT_number 2
_symmetry_cell_setting 'triclinic'
loop_
_space_group_symop_operation_xyz
x,y,z
-x,-y,-z
loop_
_atom_site_type_symbol
_atom_site_label
_atom_site_fract_x
_atom_site_fract_y
_atom_site_fract_z
Si Si1 0.817776 0.714440 0.117117
Si Si2 0.317429 0.616411 0.591900
Si Si3 0.254502 0.511001 0.917555
Si Si4 0.272734 0.373322 0.588648
Si Si5 0.361461 0.681355 0.995070
Si Si6 0.174330 0.228133 0.180958
Si Si7 0.898254 0.047343 0.025976
O O1 0.718621 0.689658 0.974854
O O2 0.000000 0.500000 0.500000
O O3 0.702761 0.048523 0.995310
O O4 0.847279 0.649598 0.984869
O O5 0.398988 0.328353 0.750131
O O6 0.247856 0.804764 0.655128
O O7 0.197455 0.744427 0.250665
O O8 0.453657 0.547859 0.769551
O O9 0.244904 0.421672 0.720430
O O10 0.354516 0.536160 0.059697
O O11 0.109586 0.818411 0.811547
O O12 0.305844 0.143893 0.520302
O O13 0.088295 0.717229 0.269562
O O14 0.196637 0.995819 0.136428
O O15 0.000000 0.500000 0.000000
#
# Coordination Sequence:
#
# PCOD9023040 Si02
#       7
#     2   2   2   2   2   2   2
#     4  12  25  40  71  99 134 173 222 274 339 384
#     4  10  23  43  67  91 137 181 220 268 335 388
#     4  11  24  42  68 101 131 175 217 275 337 383
#     4  10  22  39  65  98 135 170 228 274 325 390
#     4  10  25  47  62 101 137 174 224 272 321 409
#     4  10  22  40  60 103 136 164 220 278 326 391
#     4  11  21  38  68  96 132 173 223 276 330 384
#
# _framework density 25.349298999999998
#
# number of rings (size 3 to 8) (size 9 to 14) (size 15 to 20)
#    0.000    1.429    1.429    3.429   10.000    0.571 
#    2.571    3.571    0.000    0.000    0.000    0.000 
#    0.000    0.000    0.000    0.000    0.000    0.000 
#
# Total GULP energy -78032.017584 kJ/mol
# GULP energy per Si atom -5573.715542 kJ/mol
# Density = 2.529160 g / cm^3
# Si number density = 25.349299 Si / 1000 Ang^3
#
#
#
# Elastic Constant Matrix: (Units=GPa)
#
#
# Indices 1 2 3 4 5 6 
#
# 1 226.9208 59.3528 27.7566 9.0723 -16.9936 1.3404
# 2 59.3528 142.2975 24.0774 23.5886 -7.5701 6.1905
# 3 27.7566 24.0774 50.5269 9.1236 -16.6914 -10.6811
# 4 9.0723 23.5886 9.1236 27.2996 -6.3742 0.9584
# 5 -16.9936 -7.5701 -16.6914 -6.3742 33.7893 11.5402
# 6 1.3404 6.1905 -10.6811 0.9584 11.5402 37.6641
#
#
#
# Elastic Compliance Matrix: (Units=1/GPa)
#
#
# Indices 1 2 3 4 5 6 
#
# 1 0.005222 -0.001904 -0.001722 0.000952 0.001854 -0.000954
# 2 -0.001904 0.009466 -0.002954 -0.006709 -0.000922 -0.001872
# 3 -0.001722 -0.002954 0.027068 -0.003963 0.009218 0.005500
# 4 0.000952 -0.006709 -0.003963 0.045097 0.006630 -0.003234
# 5 0.001854 -0.000922 0.009218 0.006630 0.039382 -0.009536
# 6 -0.000954 -0.001872 0.005500 -0.003234 -0.009536 0.031456
#
#
# Mechanical properties :
#
#
# Convention : Reuss Voigt Hill
#
# Bulk Modulus (GPa) = 34.97029 71.34652 53.15840
# Shear Modulus (GPa) = 27.71870 40.32116 34.01993
#
# Velocity S-wave (km/s) = 3.31035 3.99259 3.66737
# Velocity P-wave (km/s) = 5.33259 7.03284 6.24089
#
# Compressibility (1/GPa) = 0.02859571
#
# Stress axis : x y z
#
# Youngs Moduli (GPa) = 191.49688 105.63898 36.94384
#
# Poissons Ratio (x) = 0.20118 0.06362
# Poissons Ratio (y) = 0.36469 0.10912
# Poissons Ratio (z) = 0.32978 0.31203
#
# Static dielectric constant tensor:
#      x y z
#    x 1.972750 0.010100 0.085990 
#    y 0.010100 1.900150 0.012910 
#    z 0.085990 0.012910 2.144370 
# 
# From -- ./inp_files/176765.got.cif
#   From: 2010.05.17/outbox.cif.g08.bks.cpg/sg2_89_cif.got.tgz:176765.got - 2010.06.03 11:33:40.
