data_PCOD9023779
_publ_section_title
;
Structure prediction by ZEFSAII (Michael W. Deem and Ramdas Pophale) SiO2 
 PCOD9023779
Probable space group: P -1
;
_chemical_formula_sum "Si O2"
_cell_formula_units_Z 16
_cell_length_a 11.789992
_cell_length_b 5.447530
_cell_length_c 15.377814
_cell_angle_alpha 71.814806
_cell_angle_beta 59.040952
_cell_angle_gamma 72.507988
_cell_volume 792.676723
_symmetry_space_group_name_H-M "P -1"
_symmetry_group_IT_number 2
_symmetry_cell_setting 'triclinic'
loop_
_space_group_symop_operation_xyz
x,y,z
-x,-y,-z
loop_
_atom_site_type_symbol
_atom_site_label
_atom_site_fract_x
_atom_site_fract_y
_atom_site_fract_z
Si Si1 0.403629 0.367569 0.492136
Si Si2 0.329972 0.912556 0.661572
Si Si3 0.126127 0.926526 0.598457
Si Si4 0.707075 0.360128 0.766241
Si Si5 0.021840 0.505459 0.386872
Si Si6 0.580434 0.202467 0.993914
Si Si7 0.455100 0.818213 0.792413
Si Si8 0.307755 0.880337 0.374461
O O1 0.500000 0.500000 0.500000
O O2 0.512961 0.183437 0.412077
O O3 0.325410 0.583070 0.436395
O O4 0.313935 0.213818 0.603765
O O5 0.229280 0.804197 0.647401
O O6 0.333571 0.840272 0.768998
O O7 0.214387 0.017996 0.473373
O O8 0.046336 0.713859 0.610893
O O9 0.037149 0.188272 0.643567
O O10 0.821474 0.536610 0.695311
O O11 0.700153 0.231553 0.877504
O O12 0.560940 0.541117 0.784444
O O13 0.741844 0.143602 0.701133
O O14 0.000000 0.500000 0.500000
O O15 0.500000 0.500000 0.000000
O O16 0.600414 0.119431 0.095442
O O17 0.500000 0.000000 0.000000
O O18 0.550542 0.024350 0.702904
#
# Coordination Sequence:
#
# PCOD9023779 Si02
#       8
#     2   2   2   2   2   2   2   2
#     4  11  19  31  52  87 122 162 188 236 305 367
#     4  11  22  35  55  85 127 157 198 247 299 365
#     4  12  26  39  57  89 124 165 205 237 285 363
#     4  11  24  39  62  87 124 156 200 257 300 352
#     4  12  26  41  60  84 122 168 207 240 289 352
#     4  10  22  40  61  92 120 150 200 253 310 362
#     4  11  22  37  63  92 118 157 196 251 319 358
#     4  12  20  33  61  86 127 155 194 240 307 361
#
# _framework density 20.184774999999998
#
# number of rings (size 3 to 8) (size 9 to 14) (size 15 to 20)
#    0.000    0.750    6.250    2.625    1.750    0.000 
#    0.000    0.000    0.000    1.500    0.000    0.000 
#    0.000    0.000    0.000    0.000    0.000    0.000 
#
# Total GULP energy -89247.624546 kJ/mol
# GULP energy per Si atom -5577.976534 kJ/mol
# Density = 2.013883 g / cm^3
# Si number density = 20.184775 Si / 1000 Ang^3
#
#
#
# Elastic Constant Matrix: (Units=GPa)
#
#
# Indices 1 2 3 4 5 6 
#
# 1 116.6329 22.9979 56.3726 2.1037 20.2525 29.2415
# 2 22.9979 84.0017 12.7933 -1.1527 9.6298 8.0726
# 3 56.3726 12.7933 138.2652 3.1732 29.7033 14.3053
# 4 2.1037 -1.1527 3.1732 18.1881 8.0549 -2.3999
# 5 20.2525 9.6298 29.7033 8.0549 33.2149 3.0098
# 6 29.2415 8.0726 14.3053 -2.3999 3.0098 34.7863
#
#
#
# Elastic Compliance Matrix: (Units=1/GPa)
#
#
# Indices 1 2 3 4 5 6 
#
# 1 0.013670 -0.001902 -0.003672 -0.000747 -0.003477 -0.009291
# 2 -0.001902 0.012893 0.000366 0.002321 -0.003369 -0.001092
# 3 -0.003672 0.000366 0.010313 0.001916 -0.007513 -0.000457
# 4 -0.000747 0.002321 0.001916 0.063447 -0.017790 0.005218
# 5 -0.003477 -0.003369 -0.007513 -0.017790 0.044078 0.001753
# 6 -0.009291 -0.001092 -0.000457 0.005218 0.001753 0.037206
#
#
# Mechanical properties :
#
#
# Convention : Reuss Voigt Hill
#
# Bulk Modulus (GPa) = 37.79375 58.13637 47.96506
# Shear Modulus (GPa) = 24.89494 33.68693 29.29094
#
# Velocity S-wave (km/s) = 3.51572 4.08968 3.81352
# Velocity P-wave (km/s) = 5.93674 7.15299 6.57306
#
# Compressibility (1/GPa) = 0.02645940
#
# Stress axis : x y z
#
# Youngs Moduli (GPa) = 73.15066 77.56391 96.96351
#
# Poissons Ratio (x) = 0.14755 0.35608
# Poissons Ratio (y) = 0.13915 -0.03551
# Poissons Ratio (z) = 0.26863 -0.02840
#
# Static dielectric constant tensor:
#      x y z
#    x 1.792160 -0.041140 0.023970 
#    y -0.041140 1.854310 -0.001710 
#    z 0.023970 -0.001710 1.737280 
# 
# From -- ./inp_files/510811.got.cif
#   From: 2010.05.17/outbox.cif.g08.bks.cpg/sg2_256_cif.got.tgz:510811.got - 2010.06.03 11:33:40.
