data_PCOD9023060
_publ_section_title
;
Structure prediction by ZEFSAII (Michael W. Deem and Ramdas Pophale) SiO2 
 PCOD9023060
Probable space group: P -1
;
_chemical_formula_sum "Si O2"
_cell_formula_units_Z 16
_cell_length_a 12.046743
_cell_length_b 9.655003
_cell_length_c 10.574704
_cell_angle_alpha 90.953840
_cell_angle_beta 145.254074
_cell_angle_gamma 103.592461
_cell_volume 630.635827
_symmetry_space_group_name_H-M "P -1"
_symmetry_group_IT_number 2
_symmetry_cell_setting 'triclinic'
loop_
_space_group_symop_operation_xyz
x,y,z
-x,-y,-z
loop_
_atom_site_type_symbol
_atom_site_label
_atom_site_fract_x
_atom_site_fract_y
_atom_site_fract_z
Si Si1 0.632842 0.660023 0.201162
Si Si2 0.830848 0.470458 0.485174
Si Si3 0.469310 0.843335 0.900282
Si Si4 0.468065 0.375790 0.360158
Si Si5 0.813236 0.227863 0.868846
Si Si6 0.165811 0.132890 0.245067
Si Si7 0.250185 0.532279 0.025499
Si Si8 0.371002 0.953549 0.547464
O O1 0.830839 0.629128 0.436656
O O2 0.500000 0.500000 0.000000
O O3 0.653640 0.798339 0.130791
O O4 0.475426 0.647474 0.171598
O O5 0.732427 0.328927 0.290506
O O6 0.627003 0.779168 0.650191
O O7 0.058592 0.490316 0.747980
O O8 0.438417 0.886979 0.730040
O O9 0.500000 0.000000 0.000000
O O10 0.500000 0.500000 0.500000
O O11 0.605617 0.079743 0.723412
O O12 0.666341 0.422475 0.451002
O O13 0.282161 0.385478 0.098252
O O14 0.778829 0.186545 0.687819
O O15 0.796301 0.380410 0.899491
O O16 0.032813 0.233872 0.136734
O O17 0.231881 0.054575 0.421478
O O18 0.000000 0.000000 0.000000
#
# Coordination Sequence:
#
# PCOD9023060 Si02
#       8
#     2   2   2   2   2   2   2   2
#     4   9  22  48  67  95 133 177 226 291 340 393
#     4  10  25  43  71  98 135 178 225 293 341 397
#     4  11  24  42  70  94 127 182 234 276 339 400
#     4  11  24  39  65 102 144 178 217 271 343 420
#     4  10  22  39  65  99 137 174 216 276 339 414
#     4  10  23  39  60  97 141 179 213 269 339 414
#     4  11  23  40  71 104 130 171 235 274 342 412
#     4  10  23  41  64  92 139 178 216 272 346 407
#
# _framework density 25.371220000000001
#
# number of rings (size 3 to 8) (size 9 to 14) (size 15 to 20)
#    0.000    1.750    0.000    2.250   10.500    6.000 
#    0.000    1.250    0.000   11.250    0.000    0.000 
#    0.000    0.000    0.000    0.000    0.000    0.000 
#
# Total GULP energy -89333.713161 kJ/mol
# GULP energy per Si atom -5583.357073 kJ/mol
# Density = 2.531347 g / cm^3
# Si number density = 25.371220 Si / 1000 Ang^3
#
#
#
# Elastic Constant Matrix: (Units=GPa)
#
#
# Indices 1 2 3 4 5 6 
#
# 1 77.7945 22.0655 21.7614 -14.6488 1.0664 -5.2829
# 2 22.0655 135.1426 48.0689 -28.9524 -8.7488 -0.7484
# 3 21.7614 48.0689 120.9561 -41.0867 1.5053 11.2047
# 4 -14.6488 -28.9524 -41.0867 82.4956 -1.4485 -11.7373
# 5 1.0664 -8.7488 1.5053 -1.4485 41.8116 -6.3913
# 6 -5.2829 -0.7484 11.2047 -11.7373 -6.3913 32.7134
#
#
#
# Elastic Compliance Matrix: (Units=1/GPa)
#
#
# Indices 1 2 3 4 5 6 
#
# 1 0.014284 -0.001311 -0.001804 0.001676 0.000019 0.003500
# 2 -0.001311 0.009270 -0.003052 0.001857 0.002483 0.002197
# 3 -0.001804 -0.003052 0.011412 0.003818 -0.001355 -0.003165
# 4 0.001676 0.001857 0.003818 0.015701 0.001506 0.004933
# 5 0.000019 0.002483 -0.001355 0.001506 0.025460 0.006039
# 6 0.003500 0.002197 -0.003165 0.004933 0.006039 0.035218
#
#
# Mechanical properties :
#
#
# Convention : Reuss Voigt Hill
#
# Bulk Modulus (GPa) = 44.18456 57.52053 50.85255
# Shear Modulus (GPa) = 38.10357 47.53728 42.82042
#
# Velocity S-wave (km/s) = 3.87957 4.33329 4.11269
# Velocity P-wave (km/s) = 6.12544 6.91066 6.52987
#
# Compressibility (1/GPa) = 0.02263234
#
# Stress axis : x y z
#
# Youngs Moduli (GPa) = 70.00923 107.87710 87.62864
#
# Poissons Ratio (x) = 0.14141 0.15808
# Poissons Ratio (y) = 0.09177 0.26742
# Poissons Ratio (z) = 0.12629 0.32921
#
# Static dielectric constant tensor:
#      x y z
#    x 2.083000 -0.063600 -0.041580 
#    y -0.063600 2.102330 -0.046650 
#    z -0.041580 -0.046650 2.105570 
# 
# From -- ./inp_files/461439.got.cif
#   From: 2010.05.17/outbox.cif.g08.bks.cpg/sg2_231_cif.got.tgz:461439.got - 2010.06.03 11:33:40.
