data_PCOD9023570
_publ_section_title
;
Structure prediction by ZEFSAII (Michael W. Deem and Ramdas Pophale) SiO2 
 PCOD9023570
Probable space group: P -1
;
_chemical_formula_sum "Si O2"
_cell_formula_units_Z 14
_cell_length_a 9.510545
_cell_length_b 9.481732
_cell_length_c 9.356084
_cell_angle_alpha 57.093785
_cell_angle_beta 102.133334
_cell_angle_gamma 112.194172
_cell_volume 655.841435
_symmetry_space_group_name_H-M "P -1"
_symmetry_group_IT_number 2
_symmetry_cell_setting 'triclinic'
loop_
_space_group_symop_operation_xyz
x,y,z
-x,-y,-z
loop_
_atom_site_type_symbol
_atom_site_label
_atom_site_fract_x
_atom_site_fract_y
_atom_site_fract_z
Si Si1 0.069548 0.764591 0.996595
Si Si2 0.245623 0.110125 0.749872
Si Si3 0.411776 0.498923 0.629628
Si Si4 0.297989 0.233649 0.389324
Si Si5 0.895153 0.993930 0.778638
Si Si6 0.852748 0.331528 0.533231
Si Si7 0.019195 0.368730 0.272831
O O1 0.936504 0.848263 0.967346
O O2 0.033232 0.707492 0.853405
O O3 0.226489 0.927940 0.930577
O O4 0.056459 0.580325 0.166928
O O5 0.328079 0.290598 0.753007
O O6 0.314408 0.127736 0.595012
O O7 0.066368 0.086829 0.704108
O O8 0.500000 0.500000 0.500000
O O9 0.543873 0.616479 0.696197
O O10 0.290029 0.600696 0.528690
O O11 0.223160 0.111327 0.307725
O O12 0.175280 0.329267 0.355197
O O13 0.844542 0.160532 0.721973
O O14 0.000000 0.500000 0.500000
O O15 0.887185 0.282748 0.405434
#
# Coordination Sequence:
#
# PCOD9023570 Si02
#       7
#     2   2   2   2   2   2   2
#     4   8  17  31  53  81 101 129 172 209 247 297
#     4   9  15  32  50  72 101 131 165 208 247 297
#     4  10  21  33  48  74 107 132 164 215 263 296
#     4  10  17  31  52  77 102 131 165 211 259 293
#     4   9  17  30  53  75 100 127 172 212 242 296
#     4  12  19  32  54  77 101 135 175 208 250 301
#     4  10  17  31  56  80  99 134 173 207 245 304
#
# _framework density 21.346623000000001
#
# number of rings (size 3 to 8) (size 9 to 14) (size 15 to 20)
#    0.857    1.429    2.857    2.143    0.000    0.571 
#    0.000    3.571    0.000   11.143    0.000    0.000 
#    0.000    0.000    0.000    0.000    0.000    0.000 
#
# Total GULP energy -77975.155043 kJ/mol
# GULP energy per Si atom -5569.653932 kJ/mol
# Density = 2.129804 g / cm^3
# Si number density = 21.346623 Si / 1000 Ang^3
#
#
#
# Elastic Constant Matrix: (Units=GPa)
#
#
# Indices 1 2 3 4 5 6 
#
# 1 91.3602 35.7997 7.0062 -12.5997 0.8223 2.8226
# 2 35.7997 127.3346 23.3096 -30.6075 -2.2864 16.8745
# 3 7.0062 23.3096 77.3273 -31.5770 -0.3242 -5.2458
# 4 -12.5997 -30.6075 -31.5770 46.1344 -4.7186 -0.1529
# 5 0.8223 -2.2864 -0.3242 -4.7186 14.2278 -13.2724
# 6 2.8226 16.8745 -5.2458 -0.1529 -13.2724 47.2259
#
#
#
# Elastic Compliance Matrix: (Units=1/GPa)
#
#
# Indices 1 2 3 4 5 6 
#
# 1 0.012389 -0.003267 0.000512 0.001532 -0.000360 0.000387
# 2 -0.003267 0.010789 -0.000873 0.005698 0.000414 -0.003622
# 3 0.000512 -0.000873 0.019106 0.013635 0.009583 0.005141
# 4 0.001532 0.005698 0.013635 0.037017 0.017557 0.004441
# 5 -0.000360 0.000414 0.009583 0.017557 0.104823 0.030454
# 6 0.000387 -0.003622 0.005141 0.004441 0.030454 0.031590
#
#
# Mechanical properties :
#
#
# Convention : Reuss Voigt Hill
#
# Bulk Modulus (GPa) = 28.54851 47.58369 38.06610
# Shear Modulus (GPa) = 21.30883 36.84472 29.07677
#
# Velocity S-wave (km/s) = 3.16290 4.15905 3.69470
# Velocity P-wave (km/s) = 5.17121 6.73817 6.00601
#
# Compressibility (1/GPa) = 0.03502809
#
# Stress axis : x y z
#
# Youngs Moduli (GPa) = 80.71749 92.69005 52.34062
#
# Poissons Ratio (x) = 0.30278 -0.02682
# Poissons Ratio (y) = 0.26367 0.04571
# Poissons Ratio (z) = -0.04136 0.08095
#
# Static dielectric constant tensor:
#      x y z
#    x 1.745980 -0.012400 0.006950 
#    y -0.012400 1.871710 0.011320 
#    z 0.006950 0.011320 1.842890 
# 
# From -- ./inp_files/375639.got.cif
#   From: 2010.05.17/outbox.cif.g08.bks.cpg/sg2_188_cif.got.tgz:375639.got - 2010.06.03 11:33:40.
