data_PCOD9023621
_publ_section_title
;
Structure prediction by ZEFSAII (Michael W. Deem and Ramdas Pophale) SiO2 
 PCOD9023621
Probable space group: P -1
;
_chemical_formula_sum "Si O2"
_cell_formula_units_Z 16
_cell_length_a 8.759967
_cell_length_b 13.762240
_cell_length_c 6.857219
_cell_angle_alpha 96.785593
_cell_angle_beta 120.639417
_cell_angle_gamma 99.445137
_cell_volume 681.510931
_symmetry_space_group_name_H-M "P -1"
_symmetry_group_IT_number 2
_symmetry_cell_setting 'triclinic'
loop_
_space_group_symop_operation_xyz
x,y,z
-x,-y,-z
loop_
_atom_site_type_symbol
_atom_site_label
_atom_site_fract_x
_atom_site_fract_y
_atom_site_fract_z
Si Si1 0.845601 0.139931 0.442815
Si Si2 0.639301 0.611248 0.641729
Si Si3 0.636741 0.249050 0.585420
Si Si4 0.627222 0.810756 0.267421
Si Si5 0.963240 0.595008 0.106715
Si Si6 0.163473 0.341089 0.609411
Si Si7 0.329092 0.029246 0.988299
Si Si8 0.162519 0.018462 0.267730
O O1 0.669699 0.176864 0.413795
O O2 0.999378 0.240299 0.512094
O O3 0.826297 0.062932 0.231730
O O4 0.881434 0.076646 0.638618
O O5 0.500000 0.500000 0.500000
O O6 0.511996 0.689740 0.561303
O O7 0.787373 0.625405 0.567902
O O8 0.780837 0.623810 0.915440
O O9 0.561970 0.201151 0.736790
O O10 0.843396 0.320233 0.766193
O O11 0.659000 0.700232 0.232454
O O12 0.667357 0.868116 0.101303
O O13 0.770184 0.882175 0.530476
O O14 0.901369 0.576784 0.286789
O O15 0.000000 0.500000 0.000000
O O16 0.324925 0.026127 0.216964
O O17 0.500000 0.000000 0.000000
O O18 0.000000 0.000000 0.000000
#
# Coordination Sequence:
#
# PCOD9023621 Si02
#       8
#     2   2   2   2   2   2   2   2
#     4  10  22  40  58  95 133 170 219 267 316 374
#     4  11  24  46  70  96 128 168 216 273 338 397
#     4  10  22  43  66  94 136 170 214 281 320 388
#     4  10  22  40  58  95 133 170 219 267 316 374
#     4  11  24  46  70  96 128 168 216 273 338 397
#     4  10  24  41  66  96 130 168 218 271 324 394
#     4  11  22  35  60  88 126 175 217 256 314 379
#     4  11  22  37  64  90 135 179 217 264 314 378
#
# _framework density 23.477243999999999
#
# number of rings (size 3 to 8) (size 9 to 14) (size 15 to 20)
#    0.000    1.500    1.250    3.000    0.000   15.000 
#    0.000    0.000    0.000    0.000    0.000    0.000 
#    0.000    0.000    0.000    0.000    0.000    0.000 
#
# Total GULP energy -89239.539199 kJ/mol
# GULP energy per Si atom -5577.471200 kJ/mol
# Density = 2.342381 g / cm^3
# Si number density = 23.477244 Si / 1000 Ang^3
#
#
#
# Elastic Constant Matrix: (Units=GPa)
#
#
# Indices 1 2 3 4 5 6 
#
# 1 131.0575 17.8109 32.0437 5.8451 -13.5327 12.7044
# 2 17.8109 50.7635 21.8178 0.0322 -12.3398 -5.0811
# 3 32.0437 21.8178 89.7570 0.9813 -11.2772 -1.1129
# 4 5.8451 0.0322 0.9813 20.2853 -1.1298 -4.1581
# 5 -13.5327 -12.3398 -11.2772 -1.1298 58.7481 4.6260
# 6 12.7044 -5.0811 -1.1129 -4.1581 4.6260 43.2030
#
#
#
# Elastic Compliance Matrix: (Units=1/GPa)
#
#
# Indices 1 2 3 4 5 6 
#
# 1 0.009170 -0.002110 -0.002596 -0.003146 0.001383 -0.003463
# 2 -0.002110 0.023506 -0.004516 0.001605 0.003374 0.003062
# 3 -0.002596 -0.004516 0.013291 0.000268 0.000971 0.000496
# 4 -0.003146 0.001605 0.000268 0.051438 0.000176 0.006053
# 5 0.001383 0.003374 0.000971 0.000176 0.018391 -0.001937
# 6 -0.003463 0.003062 0.000496 0.006053 -0.001937 0.025328
#
#
# Mechanical properties :
#
#
# Convention : Reuss Voigt Hill
#
# Bulk Modulus (GPa) = 36.33277 46.10254 41.21766
# Shear Modulus (GPa) = 29.63073 37.77431 33.70252
#
# Velocity S-wave (km/s) = 3.55646 4.01556 3.79296
# Velocity P-wave (km/s) = 5.68981 6.41711 6.06437
#
# Compressibility (1/GPa) = 0.02752336
#
# Stress axis : x y z
#
# Youngs Moduli (GPa) = 109.04555 42.54187 75.23990
#
# Poissons Ratio (x) = 0.08978 0.19530
# Poissons Ratio (y) = 0.23012 0.33979
# Poissons Ratio (z) = 0.28305 0.19212
#
# Static dielectric constant tensor:
#      x y z
#    x 2.063920 0.024270 0.076870 
#    y 0.024270 2.015540 -0.108970 
#    z 0.076870 -0.108970 2.118590 
# 
# From -- ./inp_files/39532.got.cif
#   From: 2010.05.17/outbox.cif.g08.bks.cpg/sg2_20_cif.got.tgz:39532.got - 2010.06.03 11:33:40.
