data_PCOD9023631
_publ_section_title
;
Structure prediction by ZEFSAII (Michael W. Deem and Ramdas Pophale) SiO2 
 PCOD9023631
Probable space group: P -1
;
_chemical_formula_sum "Si O2"
_cell_formula_units_Z 16
_cell_length_a 7.773412
_cell_length_b 7.406712
_cell_length_c 16.721984
_cell_angle_alpha 115.333209
_cell_angle_beta 99.627212
_cell_angle_gamma 123.279852
_cell_volume 615.961076
_symmetry_space_group_name_H-M "P -1"
_symmetry_group_IT_number 2
_symmetry_cell_setting 'triclinic'
loop_
_space_group_symop_operation_xyz
x,y,z
-x,-y,-z
loop_
_atom_site_type_symbol
_atom_site_label
_atom_site_fract_x
_atom_site_fract_y
_atom_site_fract_z
Si Si1 0.387608 0.774405 0.753663
Si Si2 0.250643 0.131124 0.830657
Si Si3 0.526083 0.794947 0.373246
Si Si4 0.123813 0.690794 0.388527
Si Si5 0.975768 0.189111 0.383299
Si Si6 0.207435 0.377620 0.017886
Si Si7 0.279015 0.849634 0.017869
Si Si8 0.407422 0.510231 0.579572
O O1 0.455179 0.768409 0.666790
O O2 0.140120 0.450174 0.686401
O O3 0.294761 0.926133 0.794504
O O4 0.606512 0.925610 0.859519
O O5 0.520703 0.431200 0.888557
O O6 0.033099 0.979372 0.720412
O O7 0.175803 0.165661 0.915619
O O8 0.270334 0.698901 0.331515
O O9 0.496501 0.546290 0.351537
O O10 0.684890 0.006314 0.500886
O O11 0.697366 0.964528 0.344863
O O12 0.077973 0.479943 0.412179
O O13 0.122718 0.266635 0.489982
O O14 0.228157 0.587902 0.000132
O O15 0.984791 0.256862 0.036519
O O16 0.500000 0.000000 0.000000
O O17 0.500000 0.500000 0.500000
#
# Coordination Sequence:
#
# PCOD9023631 Si02
#       8
#     2   2   2   2   2   2   2   2
#     4  10  23  39  63  93 129 167 214 262 317 382
#     4   9  21  40  68  92 122 174 213 263 325 375
#     4  11  23  38  60  87 124 170 211 263 308 370
#     4  10  22  40  59  86 124 165 214 261 311 375
#     4  11  22  39  64  90 125 170 213 255 316 382
#     4   9  20  44  64  94 130 156 214 271 314 387
#     4  10  22  41  68  96 126 164 205 267 331 378
#     4  12  25  41  61  93 135 172 214 263 318 379
#
# _framework density 25.975664999999999
#
# number of rings (size 3 to 8) (size 9 to 14) (size 15 to 20)
#    0.000    1.750    2.500    0.750    3.500    2.000 
#    0.000    5.625    0.000    0.000    0.000    0.000 
#    0.000    0.000    0.000    0.000    0.000    0.000 
#
# Total GULP energy -89268.544169 kJ/mol
# GULP energy per Si atom -5579.284011 kJ/mol
# Density = 2.591654 g / cm^3
# Si number density = 25.975665 Si / 1000 Ang^3
#
#
#
# Elastic Constant Matrix: (Units=GPa)
#
#
# Indices 1 2 3 4 5 6 
#
# 1 100.2614 38.4747 17.5825 2.0162 -23.7538 29.7149
# 2 38.4747 106.9972 2.2773 -5.0682 -13.6223 21.3695
# 3 17.5825 2.2773 130.8657 9.4580 -27.2314 -4.1277
# 4 2.0162 -5.0682 9.4580 14.4835 3.6572 -2.3591
# 5 -23.7538 -13.6223 -27.2314 3.6572 37.5826 -1.0584
# 6 29.7149 21.3695 -4.1277 -2.3591 -1.0584 41.5161
#
#
#
# Elastic Compliance Matrix: (Units=1/GPa)
#
#
# Indices 1 2 3 4 5 6 
#
# 1 0.016805 -0.003002 0.000113 -0.007742 0.010068 -0.010655
# 2 -0.003002 0.011540 0.000299 0.003157 0.002096 -0.003529
# 3 0.000113 0.000299 0.009956 -0.008410 0.008226 0.000487
# 4 -0.007742 0.003157 -0.008410 0.082367 -0.017652 0.007310
# 5 0.010068 0.002096 0.008226 -0.017652 0.041200 -0.007420
# 6 -0.010655 -0.003529 0.000487 0.007310 -0.007420 0.033804
#
#
# Mechanical properties :
#
#
# Convention : Reuss Voigt Hill
#
# Bulk Modulus (GPa) = 30.19215 50.53261 40.36238
# Shear Modulus (GPa) = 23.59682 37.36907 30.48295
#
# Velocity S-wave (km/s) = 3.01727 3.79703 3.42938
# Velocity P-wave (km/s) = 4.87720 6.22248 5.59045
#
# Compressibility (1/GPa) = 0.03312119
#
# Stress axis : x y z
#
# Youngs Moduli (GPa) = 59.50582 86.65278 100.44302
#
# Poissons Ratio (x) = 0.26014 -0.01134
# Poissons Ratio (y) = 0.17864 -0.03005
# Poissons Ratio (z) = -0.00672 -0.02592
#
# Static dielectric constant tensor:
#      x y z
#    x 2.289450 0.018650 0.006240 
#    y 0.018650 2.051280 -0.014540 
#    z 0.006240 -0.014540 2.092450 
# 
# From -- ./inp_files/556411.got.cif
#   From: 2010.05.17/outbox.cif.g08.bks.cpg/sg2_279_cif.got.tgz:556411.got - 2010.06.03 11:33:40.
