data_PCOD9023793
_publ_section_title
;
Structure prediction by ZEFSAII (Michael W. Deem and Ramdas Pophale) SiO2 
 PCOD9023793
Probable space group: P -1
;
_chemical_formula_sum "Si O2"
_cell_formula_units_Z 16
_cell_length_a 5.495707
_cell_length_b 16.610369
_cell_length_c 11.877267
_cell_angle_alpha 131.069175
_cell_angle_beta 85.283398
_cell_angle_gamma 119.109613
_cell_volume 666.181032
_symmetry_space_group_name_H-M "P -1"
_symmetry_group_IT_number 2
_symmetry_cell_setting 'triclinic'
loop_
_space_group_symop_operation_xyz
x,y,z
-x,-y,-z
loop_
_atom_site_type_symbol
_atom_site_label
_atom_site_fract_x
_atom_site_fract_y
_atom_site_fract_z
Si Si1 0.573914 0.308992 0.573726
Si Si2 0.095423 0.143361 0.606370
Si Si3 0.440947 0.505386 0.773324
Si Si4 0.583278 0.905253 0.035985
Si Si5 0.998384 0.173347 0.155576
Si Si6 0.021075 0.395652 0.471305
Si Si7 0.487759 0.734057 0.081504
Si Si8 0.943326 0.327777 0.791468
O O1 0.242596 0.197948 0.527367
O O2 0.627584 0.448497 0.684043
O O3 0.693617 0.285726 0.434913
O O4 0.762914 0.323943 0.688199
O O5 0.322213 0.221138 0.771822
O O6 0.866560 0.182658 0.666605
O O7 0.000000 0.000000 0.500000
O O8 0.223271 0.462694 0.635597
O O9 0.277168 0.429681 0.827541
O O10 0.573696 0.653063 0.930741
O O11 0.262647 0.858847 0.953432
O O12 0.748993 0.846360 0.913813
O O13 0.535180 0.851114 0.114082
O O14 0.810568 0.060585 0.153398
O O15 0.126902 0.317921 0.328508
O O16 0.000000 0.500000 0.500000
O O17 0.149620 0.644076 0.061065
#
# Coordination Sequence:
#
# PCOD9023793 Si02
#       8
#     2   2   2   2   2   2   2   2
#     4   9  22  40  60  91 125 165 206 261 330 393
#     4  10  23  41  62  92 127 163 213 269 326 396
#     4  10  22  40  61  93 129 162 211 267 335 397
#     4  10  24  44  68  96 132 180 224 280 330 400
#     4  10  24  46  65  96 137 175 229 276 336 392
#     4  11  24  39  67  94 127 172 217 278 332 397
#     4  11  23  37  67  93 124 167 216 267 328 400
#     4   9  21  40  61  90 124 162 204 264 331 396
#
# _framework density 24.017496999999999
#
# number of rings (size 3 to 8) (size 9 to 14) (size 15 to 20)
#    0.000    2.000    0.000    1.125    5.250   13.000 
#    2.250    0.000    0.000    0.000    0.000    0.000 
#    0.000    0.000    0.000    0.000    0.000    0.000 
#
# Total GULP energy -89357.948936 kJ/mol
# GULP energy per Si atom -5584.871808 kJ/mol
# Density = 2.396283 g / cm^3
# Si number density = 24.017497 Si / 1000 Ang^3
#
#
#
# Elastic Constant Matrix: (Units=GPa)
#
#
# Indices 1 2 3 4 5 6 
#
# 1 82.1712 28.5945 17.5659 -7.6304 -17.5443 -23.6477
# 2 28.5945 139.9437 25.6556 -2.8798 -10.6871 -30.4275
# 3 17.5659 25.6556 71.3666 12.5890 -9.9206 -14.3613
# 4 -7.6304 -2.8798 12.5890 35.9019 -8.6510 -9.3456
# 5 -17.5443 -10.6871 -9.9206 -8.6510 32.0419 0.7530
# 6 -23.6477 -30.4275 -14.3613 -9.3456 0.7530 43.2281
#
#
#
# Elastic Compliance Matrix: (Units=1/GPa)
#
#
# Indices 1 2 3 4 5 6 
#
# 1 0.020214 0.000406 -0.002804 0.011814 0.013226 0.012736
# 2 0.000406 0.009358 -0.002333 0.004327 0.003627 0.006906
# 3 -0.002804 -0.002333 0.017031 -0.006155 0.001271 0.001129
# 4 0.011814 0.004327 -0.006155 0.041077 0.016719 0.016053
# 5 0.013226 0.003627 0.001271 0.016719 0.044261 0.013054
# 6 0.012736 0.006906 0.001129 0.016053 0.013054 0.038579
#
#
# Mechanical properties :
#
#
# Convention : Reuss Voigt Hill
#
# Bulk Modulus (GPa) = 26.92514 48.56815 37.74664
# Shear Modulus (GPa) = 25.99245 37.01207 31.50226
#
# Velocity S-wave (km/s) = 3.29329 3.92987 3.62558
# Velocity P-wave (km/s) = 5.06912 6.39201 5.76861
#
# Compressibility (1/GPa) = 0.03714002
#
# Stress axis : x y z
#
# Youngs Moduli (GPa) = 49.47108 106.85847 58.71744
#
# Poissons Ratio (x) = -0.04338 0.16464
# Poissons Ratio (y) = -0.02009 0.13701
# Poissons Ratio (z) = 0.13871 0.24934
#
# Static dielectric constant tensor:
#      x y z
#    x 2.066870 0.096860 -0.002910 
#    y 0.096860 1.927460 0.036360 
#    z -0.002910 0.036360 1.911400 
# 
# From -- ./inp_files/71682.got.cif
#   From: 2010.05.17/outbox.cif.g08.bks.cpg/sg2_36_cif.got.tgz:71682.got - 2010.06.03 11:33:40.
