data_PCOD9023134
_publ_section_title
;
Structure prediction by ZEFSAII (Michael W. Deem and Ramdas Pophale) SiO2 
 PCOD9023134
Probable space group: P -1
;
_chemical_formula_sum "Si O2"
_cell_formula_units_Z 15
_cell_length_a 14.673007
_cell_length_b 11.614156
_cell_length_c 13.066550
_cell_angle_alpha 97.238625
_cell_angle_beta 122.806862
_cell_angle_gamma 34.059454
_cell_volume 762.770572
_symmetry_space_group_name_H-M "P -1"
_symmetry_group_IT_number 2
_symmetry_cell_setting 'triclinic'
loop_
_space_group_symop_operation_xyz
x,y,z
-x,-y,-z
loop_
_atom_site_type_symbol
_atom_site_label
_atom_site_fract_x
_atom_site_fract_y
_atom_site_fract_z
Si Si1 0.511428 0.686564 0.776797
Si Si2 0.542873 0.423180 0.901142
Si Si3 0.500000 0.000000 0.500000
Si Si4 0.272815 0.168476 0.156876
Si Si5 0.955301 0.828356 0.077876
Si Si6 0.109850 0.581691 0.361374
Si Si7 0.398370 0.037371 0.840025
Si Si8 0.061816 0.804929 0.537969
O O1 0.535031 0.546083 0.840934
O O2 0.748501 0.459337 0.816341
O O3 0.517390 0.792412 0.866710
O O4 0.222585 0.970445 0.579510
O O5 0.302381 0.573959 0.737065
O O6 0.500000 0.500000 0.000000
O O7 0.816034 0.088293 0.019566
O O8 0.347857 0.125466 0.312323
O O9 0.371298 0.257848 0.456809
O O10 0.503421 0.986736 0.200725
O O11 0.211970 0.094662 0.086738
O O12 0.000000 0.500000 0.000000
O O13 0.965257 0.769518 0.192738
O O14 0.913981 0.678627 0.306084
O O15 0.142880 0.655104 0.468902
O O16 0.500000 0.000000 0.000000
O O17 0.000000 0.000000 0.500000
#
# Coordination Sequence:
#
# PCOD9023134 Si02
#       8
#     2   2   1   2   2   2   2   2
#     4  10  22  39  66  94 130 173 217 276 335 402
#     4  11  23  42  65  95 127 172 225 278 336 408
#     4  12  24  42  60 100 134 174 228 268 350 390
#     4  12  23  42  67  94 137 175 216 283 330 405
#     4  12  22  42  66  95 134 174 223 276 345 389
#     4  11  23  40  66  94 132 176 216 280 334 409
#     4  11  20  39  67  97 131 178 221 265 343 397
#     4   9  20  42  62  88 125 165 220 272 329 395
#
# _framework density 19.665151999999999
#
# number of rings (size 3 to 8) (size 9 to 14) (size 15 to 20)
#    0.000    1.067    4.000    3.600    0.000    0.533 
#    0.000   12.667    0.000    0.000    0.000    0.000 
#    0.000    0.000    0.000    0.000    0.000    0.000 
#
# Total GULP energy -83508.340580 kJ/mol
# GULP energy per Si atom -5567.222705 kJ/mol
# Density = 1.962039 g / cm^3
# Si number density = 19.665152 Si / 1000 Ang^3
#
#
#
# Elastic Constant Matrix: (Units=GPa)
#
#
# Indices 1 2 3 4 5 6 
#
# 1 50.8583 15.5461 14.9615 3.0877 19.5295 -10.2153
# 2 15.5461 109.2456 44.8847 21.7113 13.3044 15.6005
# 3 14.9615 44.8847 127.2817 31.9423 2.2796 -5.6523
# 4 3.0877 21.7113 31.9423 38.5412 9.4697 0.1551
# 5 19.5295 13.3044 2.2796 9.4697 20.9757 2.2073
# 6 -10.2153 15.6005 -5.6523 0.1551 2.2073 34.8969
#
#
#
# Elastic Compliance Matrix: (Units=1/GPa)
#
#
# Indices 1 2 3 4 5 6 
#
# 1 0.041369 -0.003123 -0.005801 0.013956 -0.043813 0.015275
# 2 -0.003123 0.013151 -0.003688 -0.003399 -0.002741 -0.007202
# 3 -0.005801 -0.003688 0.012296 -0.010340 0.010936 0.001297
# 4 0.013956 -0.003399 -0.010340 0.042541 -0.029510 0.005608
# 5 -0.043813 -0.002741 0.010936 -0.029510 0.104052 -0.016279
# 6 0.015275 -0.007202 0.001297 0.005608 -0.016279 0.037562
#
#
# Mechanical properties :
#
#
# Convention : Reuss Voigt Hill
#
# Bulk Modulus (GPa) = 24.04333 48.68558 36.36446
# Shear Modulus (GPa) = 17.23789 33.01564 25.12676
#
# Velocity S-wave (km/s) = 2.96391 4.10187 3.57841
# Velocity P-wave (km/s) = 4.89550 6.87349 5.96702
#
# Compressibility (1/GPa) = 0.04159158
#
# Stress axis : x y z
#
# Youngs Moduli (GPa) = 24.17292 76.03826 81.32840
#
# Poissons Ratio (x) = 0.23745 0.47178
# Poissons Ratio (y) = 0.07549 0.29997
# Poissons Ratio (z) = 0.14023 0.28045
#
# Static dielectric constant tensor:
#      x y z
#    x 1.706220 0.001470 0.021270 
#    y 0.001470 1.707750 -0.029830 
#    z 0.021270 -0.029830 1.688210 
# 
# From -- ./inp_files/296728.got.cif
#   From: 2010.05.17/outbox.cif.g08.bks.cpg/sg2_149_cif.got.tgz:296728.got - 2010.06.03 11:33:40.
