data_PCOD9023690
_publ_section_title
;
Structure prediction by ZEFSAII (Michael W. Deem and Ramdas Pophale) SiO2 
 PCOD9023690
Probable space group: P -1
;
_chemical_formula_sum "Si O2"
_cell_formula_units_Z 16
_cell_length_a 19.767967
_cell_length_b 7.053560
_cell_length_c 10.358188
_cell_angle_alpha 121.405454
_cell_angle_beta 44.264938
_cell_angle_gamma 132.432220
_cell_volume 742.022792
_symmetry_space_group_name_H-M "P -1"
_symmetry_group_IT_number 2
_symmetry_cell_setting 'triclinic'
loop_
_space_group_symop_operation_xyz
x,y,z
-x,-y,-z
loop_
_atom_site_type_symbol
_atom_site_label
_atom_site_fract_x
_atom_site_fract_y
_atom_site_fract_z
Si Si1 0.952406 0.345864 0.146648
Si Si2 0.831211 0.633198 0.415582
Si Si3 0.951554 0.910297 0.677985
Si Si4 0.246548 0.104245 0.180705
Si Si5 0.742066 0.792888 0.190000
Si Si6 0.857299 0.484087 0.837676
Si Si7 0.415361 0.144027 0.774503
Si Si8 0.365114 0.593289 0.585355
O O1 0.878928 0.462208 0.348372
O O2 0.053823 0.414542 0.129883
O O3 0.862867 0.045112 0.142932
O O4 0.000000 0.500000 0.000000
O O5 0.766538 0.713765 0.634307
O O6 0.750233 0.483727 0.356755
O O7 0.943970 0.891746 0.308032
O O8 0.841261 0.935108 0.828837
O O9 0.916530 0.630556 0.676667
O O10 0.000000 0.000000 0.500000
O O11 0.200257 0.820864 0.200785
O O12 0.367711 0.202831 0.989021
O O13 0.668461 0.866587 0.226564
O O14 0.665526 0.647612 0.367367
O O15 0.769425 0.579561 0.021014
O O16 0.539342 0.346607 0.629136
O O17 0.404852 0.864424 0.698854
#
# Coordination Sequence:
#
# PCOD9023690 Si02
#       8
#     2   2   2   2   2   2   2   2
#     4  12  23  39  65  99 141 173 214 269 323 394
#     4  11  23  42  63  94 135 168 212 264 328 384
#     4  10  22  40  60  91 131 173 209 257 317 398
#     4  11  23  43  64  94 134 172 213 270 325 395
#     4  12  22  40  67  96 129 167 224 271 320 390
#     4  12  22  38  66  95 132 177 210 257 338 388
#     4  11  23  44  68  90 130 168 224 278 320 386
#     4  11  24  43  67  95 122 177 222 271 331 376
#
# _framework density 21.56268
#
# number of rings (size 3 to 8) (size 9 to 14) (size 15 to 20)
#    0.000    0.750    5.000    3.750    0.000    2.500 
#    4.500    0.000    0.000    1.500    0.000    0.000 
#    0.000    0.000    0.000    0.000    0.000    0.000 
#
# Total GULP energy -89387.454463 kJ/mol
# GULP energy per Si atom -5586.715904 kJ/mol
# Density = 2.151360 g / cm^3
# Si number density = 21.562680 Si / 1000 Ang^3
#
#
#
# Elastic Constant Matrix: (Units=GPa)
#
#
# Indices 1 2 3 4 5 6 
#
# 1 37.8754 14.9897 -8.1517 -11.7992 1.7054 -13.6373
# 2 14.9897 102.8396 55.1395 -16.5799 10.8154 -20.4986
# 3 -8.1517 55.1395 94.7084 -3.4474 -0.3339 -13.9546
# 4 -11.7992 -16.5799 -3.4474 41.4765 -5.5938 2.9065
# 5 1.7054 10.8154 -0.3339 -5.5938 24.9448 -2.2622
# 6 -13.6373 -20.4986 -13.9546 2.9065 -2.2622 32.0000
#
#
#
# Elastic Compliance Matrix: (Units=1/GPa)
#
#
# Indices 1 2 3 4 5 6 
#
# 1 0.039887 -0.007057 0.010298 0.008759 0.003927 0.016450
# 2 -0.007057 0.018401 -0.010732 0.003334 -0.006590 0.003331
# 3 0.010298 -0.010732 0.018599 0.000422 0.004830 0.005928
# 4 0.008759 0.003334 0.000422 0.028331 0.004660 0.003808
# 5 0.003927 -0.006590 0.004830 0.004660 0.043990 0.002245
# 6 0.016450 0.003331 0.005928 0.003808 0.002245 0.042792
#
#
# Mechanical properties :
#
#
# Convention : Reuss Voigt Hill
#
# Bulk Modulus (GPa) = 16.15365 39.93095 28.04230
# Shear Modulus (GPa) = 21.96673 31.24732 26.60703
#
# Velocity S-wave (km/s) = 3.19523 3.81089 3.51656
# Velocity P-wave (km/s) = 4.59570 6.15813 5.43337
#
# Compressibility (1/GPa) = 0.06190551
#
# Stress axis : x y z
#
# Youngs Moduli (GPa) = 25.07099 54.34476 53.76646
#
# Poissons Ratio (x) = 0.38353 -0.55371
# Poissons Ratio (y) = 0.17694 0.57700
# Poissons Ratio (z) = -0.25819 0.58321
#
# Static dielectric constant tensor:
#      x y z
#    x 1.787170 0.004180 0.040840 
#    y 0.004180 1.791770 -0.001940 
#    z 0.040840 -0.001940 1.883970 
# 
# From -- ./inp_files/468462.got.cif
#   From: 2010.05.17/outbox.cif.g08.bks.cpg/sg2_235_cif.got.tgz:468462.got - 2010.06.03 11:33:40.
