data_PCOD9023068
_publ_section_title
;
Structure prediction by ZEFSAII (Michael W. Deem and Ramdas Pophale) SiO2 
 PCOD9023068
Probable space group: P -1
;
_chemical_formula_sum "Si O2"
_cell_formula_units_Z 16
_cell_length_a 8.899613
_cell_length_b 10.470525
_cell_length_c 18.309440
_cell_angle_alpha 48.152182
_cell_angle_beta 30.478226
_cell_angle_gamma 57.947398
_cell_volume 640.192631
_symmetry_space_group_name_H-M "P -1"
_symmetry_group_IT_number 2
_symmetry_cell_setting 'triclinic'
loop_
_space_group_symop_operation_xyz
x,y,z
-x,-y,-z
loop_
_atom_site_type_symbol
_atom_site_label
_atom_site_fract_x
_atom_site_fract_y
_atom_site_fract_z
Si Si1 0.123749 0.706384 0.666619
Si Si2 0.489781 0.120640 0.850326
Si Si3 0.718927 0.411026 0.198771
Si Si4 0.646041 0.904541 0.603557
Si Si5 0.811559 0.328314 0.509743
Si Si6 0.876900 0.127520 0.061018
Si Si7 0.543434 0.276353 0.031154
Si Si8 0.761105 0.372052 0.746204
O O1 0.214987 0.608686 0.736810
O O2 0.257214 0.655605 0.552790
O O3 0.764429 0.676833 0.826089
O O4 0.222026 0.912993 0.554425
O O5 0.572545 0.232347 0.700537
O O6 0.714327 0.187710 0.796046
O O7 0.512038 0.923222 0.896572
O O8 0.144806 0.148578 0.999054
O O9 0.585000 0.220866 0.299762
O O10 0.454756 0.524180 0.250140
O O11 0.000000 0.500000 0.000000
O O12 0.438447 0.942352 0.744609
O O13 0.913324 0.792376 0.555667
O O14 0.921610 0.515865 0.425760
O O15 0.791994 0.284878 0.987067
O O16 0.000000 0.000000 0.000000
O O17 0.647207 0.370267 0.877521
#
# Coordination Sequence:
#
# PCOD9023068 Si02
#       8
#     2   2   2   2   2   2   2   2
#     4  12  22  42  69 103 131 171 235 274 333 391
#     4  11  23  46  68  97 137 177 221 276 337 402
#     4  11  24  41  64 100 139 180 213 281 336 395
#     4  11  22  42  68  99 137 172 229 276 328 401
#     4  11  24  42  71  98 134 177 221 283 334 393
#     4  10  22  39  66 101 131 170 220 279 334 386
#     4  11  22  41  70 100 128 177 226 279 328 402
#     4  11  25  43  63  99 137 179 224 270 343 399
#
# _framework density 24.992477000000001
#
# number of rings (size 3 to 8) (size 9 to 14) (size 15 to 20)
#    0.000    1.000    3.750    3.750    0.000    2.500 
#    0.000    7.500    0.000    0.000    0.000    0.000 
#    0.000    0.000    0.000    0.000    0.000    0.000 
#
# Total GULP energy -89594.005239 kJ/mol
# GULP energy per Si atom -5599.625327 kJ/mol
# Density = 2.493559 g / cm^3
# Si number density = 24.992477 Si / 1000 Ang^3
#
#
#
# Elastic Constant Matrix: (Units=GPa)
#
#
# Indices 1 2 3 4 5 6 
#
# 1 90.3633 14.4094 28.5963 -22.6189 16.0894 -13.5347
# 2 14.4094 70.7210 16.5488 -12.2128 -7.6036 7.5195
# 3 28.5963 16.5488 108.1308 -0.9172 14.0025 -8.0000
# 4 -22.6189 -12.2128 -0.9172 38.8948 3.7686 -9.9045
# 5 16.0894 -7.6036 14.0025 3.7686 41.6227 -11.9816
# 6 -13.5347 7.5195 -8.0000 -9.9045 -11.9816 35.8432
#
#
#
# Elastic Compliance Matrix: (Units=1/GPa)
#
#
# Indices 1 2 3 4 5 6 
#
# 1 0.017388 -0.002184 -0.002936 0.011872 -0.004902 0.008011
# 2 -0.002184 0.016355 -0.002584 0.002722 0.003630 -0.002867
# 3 -0.002936 -0.002584 0.010781 -0.001898 -0.002671 0.000423
# 4 0.011872 0.002722 -0.001898 0.036950 -0.003159 0.012642
# 5 -0.004902 0.003630 -0.002671 -0.003159 0.029424 0.005754
# 6 0.008011 -0.002867 0.000423 0.012642 0.005754 0.037037
#
#
# Mechanical properties :
#
#
# Convention : Reuss Voigt Hill
#
# Bulk Modulus (GPa) = 34.34717 43.14712 38.74715
# Shear Modulus (GPa) = 28.89344 37.24951 33.07148
#
# Velocity S-wave (km/s) = 3.40381 3.86480 3.64161
# Velocity P-wave (km/s) = 5.40562 6.10058 5.76358
#
# Compressibility (1/GPa) = 0.02911448
#
# Stress axis : x y z
#
# Youngs Moduli (GPa) = 57.51065 61.14283 92.75536
#
# Poissons Ratio (x) = 0.13356 0.27233
# Poissons Ratio (y) = 0.12563 0.23972
# Poissons Ratio (z) = 0.16885 0.15802
#
# Static dielectric constant tensor:
#      x y z
#    x 2.006110 0.066820 -0.024130 
#    y 0.066820 2.036360 -0.035410 
#    z -0.024130 -0.035410 1.939410 
# 
# From -- ./inp_files/208319.got.cif
#   From: 2010.05.17/outbox.cif.g08.bks.cpg/sg2_105_cif.got.tgz:208319.got - 2010.06.03 11:33:40.
