data_PCOD9023858
_publ_section_title
;
Structure prediction by ZEFSAII (Michael W. Deem and Ramdas Pophale) SiO2 
 PCOD9023858
Probable space group: P -1
;
_chemical_formula_sum "Si O2"
_cell_formula_units_Z 14
_cell_length_a 15.866536
_cell_length_b 17.348277
_cell_length_c 5.535992
_cell_angle_alpha 104.224763
_cell_angle_beta 79.526161
_cell_angle_gamma 157.364856
_cell_volume 564.325548
_symmetry_space_group_name_H-M "P -1"
_symmetry_group_IT_number 2
_symmetry_cell_setting 'triclinic'
loop_
_space_group_symop_operation_xyz
x,y,z
-x,-y,-z
loop_
_atom_site_type_symbol
_atom_site_label
_atom_site_fract_x
_atom_site_fract_y
_atom_site_fract_z
Si Si1 0.931626 0.187427 0.297185
Si Si2 0.775641 0.713675 0.767794
Si Si3 0.742998 0.760926 0.319452
Si Si4 0.504964 0.788442 0.958257
Si Si5 0.573634 0.792251 0.421534
Si Si6 0.740100 0.253404 0.943808
Si Si7 0.845644 0.290290 0.417636
O O1 0.975014 0.317775 0.366801
O O2 0.128364 0.293395 0.296818
O O3 0.770015 0.025248 0.033363
O O4 0.755470 0.018000 0.472733
O O5 0.839633 0.815102 0.567573
O O6 0.511032 0.487546 0.734780
O O7 0.845454 0.811447 0.062216
O O8 0.703634 0.821195 0.368352
O O9 0.440049 0.685938 0.157770
O O10 0.390557 0.775756 0.014793
O O11 0.455377 0.702401 0.668346
O O12 0.716168 0.184406 0.655456
O O13 0.709543 0.180890 0.155661
O O14 0.000000 0.500000 0.000000
O O15 0.000000 0.500000 0.500000
#
# Coordination Sequence:
#
# PCOD9023858 Si02
#       7
#     2   2   2   2   2   2   2
#     4  10  26  40  64  91 127 161 207 254 313 360
#     4  10  23  40  65  90 126 162 206 254 301 367
#     4  10  22  42  63  95 122 164 207 250 305 363
#     4  10  23  40  59  93 124 162 202 255 308 361
#     4  10  23  41  63  92 127 162 200 257 304 367
#     4  10  22  40  62  87 119 161 209 250 305 364
#     4  10  23  41  63  91 118 162 209 252 306 367
#
# _framework density 24.808375000000002
#
# number of rings (size 3 to 8) (size 9 to 14) (size 15 to 20)
#    0.857    1.143    0.000    1.714    4.000    6.857 
#    0.000    0.000    0.000    0.000    0.000    0.000 
#    0.000    0.000    0.000    0.000    0.000    0.000 
#
# Total GULP energy -78261.511901 kJ/mol
# GULP energy per Si atom -5590.107993 kJ/mol
# Density = 2.475191 g / cm^3
# Si number density = 24.808375 Si / 1000 Ang^3
#
#
#
# Elastic Constant Matrix: (Units=GPa)
#
#
# Indices 1 2 3 4 5 6 
#
# 1 220.2212 5.8122 124.5786 -13.2736 8.0199 -11.7611
# 2 5.8122 36.9326 38.3771 -6.4933 8.3220 -13.7649
# 3 124.5786 38.3771 224.2501 -13.1628 33.9437 14.6615
# 4 -13.2736 -6.4933 -13.1628 34.8041 -4.2293 -2.0212
# 5 8.0199 8.3220 33.9437 -4.2293 33.3051 0.1784
# 6 -11.7611 -13.7649 14.6615 -2.0212 0.1784 36.9519
#
#
#
# Elastic Compliance Matrix: (Units=1/GPa)
#
#
# Indices 1 2 3 4 5 6 
#
# 1 0.009484 0.010586 -0.008113 0.003579 0.003739 0.010359
# 2 0.010586 0.056696 -0.017399 0.010149 0.002134 0.031937
# 3 -0.008113 -0.017399 0.013984 -0.002909 -0.008241 -0.014731
# 4 0.003579 0.010149 -0.002909 0.031776 0.003560 0.007795
# 5 0.003739 0.002134 -0.008241 0.003560 0.037415 0.005269
# 6 0.010359 0.031937 -0.014731 0.007795 0.005269 0.048502
#
#
# Mechanical properties :
#
#
# Convention : Reuss Voigt Hill
#
# Bulk Modulus (GPa) = 19.87626 90.99331 55.43479
# Shear Modulus (GPa) = 20.45146 41.85463 31.15304
#
# Velocity S-wave (km/s) = 2.87431 4.11191 3.54750
# Velocity P-wave (km/s) = 4.36404 7.70077 6.25886
#
# Compressibility (1/GPa) = 0.05031126
#
# Stress axis : x y z
#
# Youngs Moduli (GPa) = 105.43974 17.63781 71.50981
#
# Poissons Ratio (x) = -0.18671 0.58019
# Poissons Ratio (y) = -1.11617 1.24420
# Poissons Ratio (z) = 0.85549 0.30688
#
# Static dielectric constant tensor:
#      x y z
#    x 1.865450 -0.012420 0.061080 
#    y -0.012420 1.886820 -0.021070 
#    z 0.061080 -0.021070 1.959230 
# 
# From -- ./inp_files/61069.got.cif
#   From: 2010.05.17/outbox.cif.g08.bks.cpg/sg2_31_cif.got.tgz:61069.got - 2010.06.03 11:33:40.
