data_PCOD9023624
_publ_section_title
;
Structure prediction by ZEFSAII (Michael W. Deem and Ramdas Pophale) SiO2 
 PCOD9023624
Probable space group: P -1
;
_chemical_formula_sum "Si O2"
_cell_formula_units_Z 14
_cell_length_a 11.667069
_cell_length_b 15.625528
_cell_length_c 11.808054
_cell_angle_alpha 151.459227
_cell_angle_beta 123.716708
_cell_angle_gamma 36.132672
_cell_volume 507.250998
_symmetry_space_group_name_H-M "P -1"
_symmetry_group_IT_number 2
_symmetry_cell_setting 'triclinic'
loop_
_space_group_symop_operation_xyz
x,y,z
-x,-y,-z
loop_
_atom_site_type_symbol
_atom_site_label
_atom_site_fract_x
_atom_site_fract_y
_atom_site_fract_z
Si Si1 0.364607 0.779152 0.847988
Si Si2 0.895014 0.430722 0.442565
Si Si3 0.399195 0.511400 0.775607
Si Si4 0.927349 0.165452 0.375069
Si Si5 0.734448 0.676516 0.967648
Si Si6 0.105213 0.431834 0.727254
Si Si7 0.418617 0.899191 0.429919
O O1 0.453612 0.577772 0.775017
O O2 0.506627 0.815087 0.954255
O O3 0.281748 0.760773 0.666625
O O4 0.110588 0.098637 0.125350
O O5 0.993999 0.516331 0.640315
O O6 0.672814 0.608701 0.455029
O O7 0.854279 0.373885 0.474192
O O8 0.591798 0.263854 0.686198
O O9 0.172681 0.824265 0.080524
O O10 0.900107 0.324370 0.652989
O O11 0.886040 0.658781 0.955793
O O12 0.667668 0.843235 0.240532
O O13 0.266371 0.091688 0.458164
O O14 0.307258 0.367546 0.760750
#
# Coordination Sequence:
#
# PCOD9023624 Si02
#       7
#     2   2   2   2   2   2   2
#     4   9  16  34  60  86 118 153 185 235 298 349
#     4   8  15  35  61  82 113 156 192 226 288 356
#     4   9  19  37  62  92 115 145 193 249 287 329
#     4   8  17  33  59  87 118 151 188 233 294 352
#     4  11  20  37  64  83 113 162 196 225 290 363
#     4  10  22  40  59  82 118 162 194 225 295 351
#     4  11  23  40  62  83 118 155 198 242 280 337
#
# _framework density 27.599748000000002
#
# number of rings (size 3 to 8) (size 9 to 14) (size 15 to 20)
#    0.000    2.571    1.429    2.571    0.000    0.571 
#    2.571   13.571    0.000    0.000    0.000    0.000 
#    0.000    0.000    0.000    0.000    0.000    0.000 
#
# Total GULP energy -78090.391537 kJ/mol
# GULP energy per Si atom -5577.885110 kJ/mol
# Density = 2.753693 g / cm^3
# Si number density = 27.599748 Si / 1000 Ang^3
#
#
#
# Elastic Constant Matrix: (Units=GPa)
#
#
# Indices 1 2 3 4 5 6 
#
# 1 93.9952 22.8151 36.1491 -2.5861 -9.8681 0.3253
# 2 22.8151 123.1097 30.9234 -7.8723 3.3879 1.9098
# 3 36.1491 30.9234 66.0308 -1.1915 15.9504 12.6216
# 4 -2.5861 -7.8723 -1.1915 24.1167 -21.2806 9.3695
# 5 -9.8681 3.3879 15.9504 -21.2806 22.9062 4.0053
# 6 0.3253 1.9098 12.6216 9.3695 4.0053 46.3038
#
#
#
# Elastic Compliance Matrix: (Units=1/GPa)
#
#
# Indices 1 2 3 4 5 6 
#
# 1 0.004636 -0.003666 0.005502 -0.035562 -0.035889 0.008919
# 2 -0.003666 0.008438 0.000292 -0.009066 -0.011883 0.002461
# 3 0.005502 0.000292 0.003547 0.052773 0.051712 -0.016169
# 4 -0.035562 -0.009066 0.052773 -0.094041 -0.141150 0.017477
# 5 -0.035889 -0.011883 0.051712 -0.141150 -0.141996 0.027491
# 6 0.008919 0.002461 -0.016169 0.017477 0.027491 0.019925
#
#
# Mechanical properties :
#
#
# Convention : Reuss Voigt Hill
#
# Bulk Modulus (GPa) = 47.90100 51.43455 49.66777
# Shear Modulus (GPa) = -25.40820 31.54855 3.07018
#
# Velocity S-wave (km/s) = -3.03742 3.38461 1.05584
# Velocity P-wave (km/s) = 2.25655 5.82670 4.41828
#
# Compressibility (1/GPa) = 0.02087639
#
# Stress axis : x y z
#
# Youngs Moduli (GPa) = 215.72184 118.51073 281.90524
#
# Poissons Ratio (x) = 0.43443 -1.55099
# Poissons Ratio (y) = 0.79079 -0.08223
# Poissons Ratio (z) = -1.18686 -0.03457
#
# Static dielectric constant tensor:
#      x y z
#    x 2.305080 -0.126910 0.048470 
#    y -0.126910 2.208110 -0.074980 
#    z 0.048470 -0.074980 2.270290 
# 
# From -- ./inp_files/193041.got.cif
#   From: 2010.05.17/outbox.cif.g08.bks.cpg/sg2_97_cif.got.tgz:193041.got - 2010.06.03 11:33:40.
