data_PCOD9023638
_publ_section_title
;
Structure prediction by ZEFSAII (Michael W. Deem and Ramdas Pophale) SiO2 
 PCOD9023638
Probable space group: P -1
;
_chemical_formula_sum "Si O2"
_cell_formula_units_Z 16
_cell_length_a 7.926616
_cell_length_b 6.705944
_cell_length_c 19.277661
_cell_angle_alpha 124.076100
_cell_angle_beta 104.781150
_cell_angle_gamma 57.814053
_cell_volume 716.955614
_symmetry_space_group_name_H-M "P -1"
_symmetry_group_IT_number 2
_symmetry_cell_setting 'triclinic'
loop_
_space_group_symop_operation_xyz
x,y,z
-x,-y,-z
loop_
_atom_site_type_symbol
_atom_site_label
_atom_site_fract_x
_atom_site_fract_y
_atom_site_fract_z
Si Si1 0.417811 0.216813 0.425151
Si Si2 0.729154 0.349130 0.623664
Si Si3 0.558425 0.571002 0.909774
Si Si4 0.189349 0.196326 0.526749
Si Si5 0.513266 0.671499 0.279438
Si Si6 0.818402 0.871413 0.989327
Si Si7 0.875233 0.035490 0.884527
Si Si8 0.979315 0.438195 0.293943
O O1 0.375022 0.470605 0.420965
O O2 0.274327 0.296125 0.491934
O O3 0.632406 0.011459 0.443006
O O4 0.394124 0.003284 0.329522
O O5 0.551655 0.385288 0.663077
O O6 0.872559 0.449570 0.694300
O O7 0.865029 0.025077 0.555680
O O8 0.545011 0.486471 0.813434
O O9 0.651337 0.284471 0.904372
O O10 0.345376 0.807064 0.957478
O O11 0.706106 0.698404 0.955517
O O12 0.042579 0.458721 0.607955
O O13 0.746640 0.575387 0.274334
O O14 0.985000 0.833725 0.054791
O O15 0.899209 0.836729 0.912632
O O16 0.935545 0.867432 0.786693
#
# Coordination Sequence:
#
# PCOD9023638 Si02
#       8
#     2   2   2   2   2   2   2   2
#     4   9  19  38  61  87 119 165 208 251 309 370
#     4  11  21  38  63  86 121 167 208 252 311 365
#     4  11  21  41  66  88 127 163 198 258 315 362
#     4   9  20  37  59  86 124 160 205 260 306 360
#     4  10  22  40  59  89 127 163 201 260 309 359
#     4  10  23  40  65  93 122 157 207 254 309 380
#     4  11  22  41  64  93 123 161 205 253 314 375
#     4  11  22  39  60  89 126 158 207 259 301 370
#
# _framework density 22.316586000000001
#
# number of rings (size 3 to 8) (size 9 to 14) (size 15 to 20)
#    0.000    1.750    1.250    3.750    0.000    0.500 
#    0.000   12.500    0.000    0.000    0.000    0.000 
#    0.000    0.000    0.000    0.000    0.000    0.000 
#
# Total GULP energy -89237.979400 kJ/mol
# GULP energy per Si atom -5577.373712 kJ/mol
# Density = 2.226579 g / cm^3
# Si number density = 22.316586 Si / 1000 Ang^3
#
#
#
# Elastic Constant Matrix: (Units=GPa)
#
#
# Indices 1 2 3 4 5 6 
#
# 1 62.9133 14.1700 8.2762 -5.3648 6.3147 -6.3837
# 2 14.1700 86.0658 37.2909 -1.2932 -9.5352 -2.7853
# 3 8.2762 37.2909 116.6257 7.6715 3.9975 -8.5964
# 4 -5.3648 -1.2932 7.6715 24.2692 -4.3207 -1.0115
# 5 6.3147 -9.5352 3.9975 -4.3207 29.7721 1.3996
# 6 -6.3837 -2.7853 -8.5964 -1.0115 1.3996 27.1347
#
#
#
# Elastic Compliance Matrix: (Units=1/GPa)
#
#
# Indices 1 2 3 4 5 6 
#
# 1 0.017776 -0.003271 0.000048 0.003102 -0.004572 0.004213
# 2 -0.003271 0.015113 -0.005095 0.002837 0.006680 -0.001071
# 3 0.000048 -0.005095 0.010830 -0.004247 -0.003851 0.002959
# 4 0.003102 0.002837 -0.004247 0.044718 0.007265 0.000968
# 5 -0.004572 0.006680 -0.003851 0.007265 0.038425 -0.003321
# 6 0.004213 -0.001071 0.002959 0.000968 -0.003321 0.038879
#
#
# Mechanical properties :
#
#
# Convention : Reuss Voigt Hill
#
# Bulk Modulus (GPa) = 36.92404 42.78656 39.85530
# Shear Modulus (GPa) = 26.12259 29.95970 28.04115
#
# Velocity S-wave (km/s) = 3.42504 3.66797 3.54858
# Velocity P-wave (km/s) = 5.67650 6.09531 5.88963
#
# Compressibility (1/GPa) = 0.02708263
#
# Stress axis : x y z
#
# Youngs Moduli (GPa) = 56.25491 66.16753 92.33930
#
# Poissons Ratio (x) = 0.21643 -0.00440
# Poissons Ratio (y) = 0.18401 0.47046
# Poissons Ratio (z) = -0.00268 0.33711
#
# Static dielectric constant tensor:
#      x y z
#    x 1.867120 -0.010130 0.033170 
#    y -0.010130 1.812610 -0.010310 
#    z 0.033170 -0.010310 1.854060 
# 
# From -- ./inp_files/553856.got.cif
#   From: 2010.05.17/outbox.cif.g08.bks.cpg/sg2_277_cif.got.tgz:553856.got - 2010.06.03 11:33:40.
