data_PCOD9023929
_publ_section_title
;
Structure prediction by ZEFSAII (Michael W. Deem and Ramdas Pophale) SiO2 
 PCOD9023929
Probable space group: P -1
;
_chemical_formula_sum "Si O2"
_cell_formula_units_Z 15
_cell_length_a 15.317842
_cell_length_b 14.455844
_cell_length_c 14.427060
_cell_angle_alpha 31.719309
_cell_angle_beta 26.815703
_cell_angle_gamma 32.002233
_cell_volume 702.505651
_symmetry_space_group_name_H-M "P -1"
_symmetry_group_IT_number 2
_symmetry_cell_setting 'triclinic'
loop_
_space_group_symop_operation_xyz
x,y,z
-x,-y,-z
loop_
_atom_site_type_symbol
_atom_site_label
_atom_site_fract_x
_atom_site_fract_y
_atom_site_fract_z
Si Si1 0.000000 0.000000 0.500000
Si Si2 0.259832 0.026968 0.715957
Si Si3 0.958944 0.582820 0.308163
Si Si4 0.416768 0.398856 0.446332
Si Si5 0.628435 0.380116 0.065624
Si Si6 0.322435 0.829647 0.170584
Si Si7 0.339036 0.985166 0.344564
Si Si8 0.004268 0.190481 0.639370
O O1 0.150629 0.934303 0.320702
O O2 0.790812 0.036103 0.602253
O O3 0.154543 0.204111 0.730613
O O4 0.135541 0.071541 0.699987
O O5 0.500000 0.000000 0.500000
O O6 0.260439 0.823677 0.914327
O O7 0.828999 0.572711 0.348216
O O8 0.941015 0.412804 0.531761
O O9 0.201610 0.548257 0.111243
O O10 0.496877 0.361176 0.295757
O O11 0.421873 0.603735 0.292680
O O12 0.549291 0.218702 0.535991
O O13 0.500000 0.500000 0.000000
O O14 0.196185 0.842357 0.182644
O O15 0.489718 0.926638 0.918708
O O16 0.172754 0.132690 0.445524
#
# Coordination Sequence:
#
# PCOD9023929 Si02
#       8
#     1   2   2   2   2   2   2   2
#     4  10  24  46  72 110 134 162 216 282 344 422
#     4  12  22  40  58  88 129 177 233 286 326 379
#     4  11  24  39  62  88 130 179 228 286 332 375
#     4  11  25  44  67  99 135 181 233 274 334 408
#     4  12  26  40  61  93 132 183 238 285 333 384
#     4  10  24  43  71  99 135 174 214 279 344 412
#     4  11  22  46  72  97 137 175 216 275 349 410
#     4  10  22  40  62  91 130 170 226 279 326 400
#
# _framework density 21.352141
#
# number of rings (size 3 to 8) (size 9 to 14) (size 15 to 20)
#    0.000    1.067    2.667    2.800    5.600    1.600 
#    0.000    1.333    0.000    0.000    0.000    0.000 
#    0.000    0.000    0.000    0.000    0.000    0.000 
#
# Total GULP energy -83547.123616 kJ/mol
# GULP energy per Si atom -5569.808241 kJ/mol
# Density = 2.130354 g / cm^3
# Si number density = 21.352141 Si / 1000 Ang^3
#
#
#
# Elastic Constant Matrix: (Units=GPa)
#
#
# Indices 1 2 3 4 5 6 
#
# 1 123.8318 46.3740 75.6548 -15.5664 -19.0059 -29.5931
# 2 46.3740 89.8177 54.3033 -18.6455 -6.9681 -31.7801
# 3 75.6548 54.3033 119.1561 -0.0331 -28.9485 -23.9204
# 4 -15.5664 -18.6455 -0.0331 39.8370 -6.8826 6.5392
# 5 -19.0059 -6.9681 -28.9485 -6.8826 23.6032 20.7593
# 6 -29.5931 -31.7801 -23.9204 6.5392 20.7593 27.3663
#
#
#
# Elastic Compliance Matrix: (Units=1/GPa)
#
#
# Indices 1 2 3 4 5 6 
#
# 1 0.012289 -0.010427 -0.000597 0.009229 0.030456 -0.024650
# 2 -0.010427 -0.017438 0.020005 0.021327 0.102278 -0.096722
# 3 -0.000597 0.020005 -0.001595 -0.015410 -0.068809 0.077070
# 4 0.009229 0.021327 -0.015410 0.027018 -0.031036 0.038364
# 5 0.030456 0.102278 -0.068809 -0.031036 -0.250610 0.289085
# 6 -0.024650 -0.096722 0.077070 0.038364 0.289085 -0.263530
#
#
# Mechanical properties :
#
#
# Convention : Reuss Voigt Hill
#
# Bulk Modulus (GPa) = 89.15239 76.16332 82.65786
# Shear Modulus (GPa) = -9.84083 28.59287 9.37602
#
# Velocity S-wave (km/s) = -2.14915 3.66336 2.09778
# Velocity P-wave (km/s) = 5.97374 7.32401 6.68306
#
# Compressibility (1/GPa) = 0.01121675
#
# Stress axis : x y z
#
# Youngs Moduli (GPa) = 81.37362 -57.34476 -627.11240
#
# Poissons Ratio (x) = -0.59794 -0.37463
# Poissons Ratio (y) = 0.84849 12.54529
# Poissons Ratio (z) = 0.04861 1.14717
#
# Static dielectric constant tensor:
#      x y z
#    x 1.741430 -0.016790 -0.019570 
#    y -0.016790 1.840020 0.030290 
#    z -0.019570 0.030290 1.861080 
# 
# From -- ./inp_files/534043.got.cif
#   From: 2010.05.17/outbox.cif.g08.bks.cpg/sg2_268_cif.got.tgz:534043.got - 2010.06.03 11:33:40.
