data_PCOD9023301
_publ_section_title
;
Structure prediction by ZEFSAII (Michael W. Deem and Ramdas Pophale) SiO2 
 PCOD9023301
Probable space group: P -1
;
_chemical_formula_sum "Si O2"
_cell_formula_units_Z 16
_cell_length_a 11.844619
_cell_length_b 8.874085
_cell_length_c 24.629911
_cell_angle_alpha 134.712058
_cell_angle_beta 27.873698
_cell_angle_gamma 115.283786
_cell_volume 696.753093
_symmetry_space_group_name_H-M "P -1"
_symmetry_group_IT_number 2
_symmetry_cell_setting 'triclinic'
loop_
_space_group_symop_operation_xyz
x,y,z
-x,-y,-z
loop_
_atom_site_type_symbol
_atom_site_label
_atom_site_fract_x
_atom_site_fract_y
_atom_site_fract_z
Si Si1 0.692341 0.433033 0.772003
Si Si2 0.757005 0.019032 0.836148
Si Si3 0.156915 0.876346 0.720465
Si Si4 0.768443 0.468283 0.310118
Si Si5 0.773046 0.302721 0.156648
Si Si6 0.732935 0.607899 0.684092
Si Si7 0.146986 0.687155 0.211320
Si Si8 0.099773 0.522054 0.021974
O O1 0.812757 0.442571 0.664434
O O2 0.895252 0.255363 0.691524
O O3 0.447595 0.378701 0.849220
O O4 0.503275 0.723447 0.954758
O O5 0.640745 0.887444 0.815980
O O6 0.984979 0.824974 0.736068
O O7 0.942155 0.079318 0.732311
O O8 0.508400 0.692810 0.515567
O O9 0.090548 0.805092 0.788214
O O10 0.040591 0.172163 0.835268
O O11 0.617400 0.457143 0.317395
O O12 0.996291 0.542866 0.223861
O O13 0.540725 0.360399 0.223334
O O14 0.967159 0.407339 0.085872
O O15 0.000000 0.000000 0.000000
O O16 0.000000 0.500000 0.500000
O O17 0.500000 0.500000 0.000000
O O18 0.000000 0.500000 0.000000
#
# Coordination Sequence:
#
# PCOD9023301 Si02
#       8
#     2   2   2   2   2   2   2   2
#     4  10  22  42  71  95 124 178 224 279 325 407
#     4  10  22  41  69  94 129 174 229 270 329 403
#     4  10  23  42  71  96 129 177 222 283 333 401
#     4  11  23  42  65  99 135 169 226 278 340 398
#     4  12  27  40  68 100 141 180 225 283 339 404
#     4  12  26  43  64  99 142 180 220 280 347 408
#     4  10  22  39  67  98 127 164 228 281 320 395
#     4  11  22  44  68  96 130 171 230 270 341 402
#
# _framework density 22.963659
#
# number of rings (size 3 to 8) (size 9 to 14) (size 15 to 20)
#    0.000    1.250    1.250    4.875    7.000    4.000 
#    0.000    0.625    0.000    0.000    0.000    0.000 
#    0.000    0.000    0.000    0.000    0.000    0.000 
#
# Total GULP energy -89380.894017 kJ/mol
# GULP energy per Si atom -5586.305876 kJ/mol
# Density = 2.291139 g / cm^3
# Si number density = 22.963659 Si / 1000 Ang^3
#
#
#
# Elastic Constant Matrix: (Units=GPa)
#
#
# Indices 1 2 3 4 5 6 
#
# 1 167.0155 44.4950 9.1446 -17.6987 19.8466 -3.7368
# 2 44.4950 130.4834 13.9643 -22.1357 9.4336 -2.7658
# 3 9.1446 13.9643 42.7867 -20.6053 6.8513 3.1287
# 4 -17.6987 -22.1357 -20.6053 26.0425 -6.5804 2.3147
# 5 19.8466 9.4336 6.8513 -6.5804 22.8428 -8.7782
# 6 -3.7368 -2.7658 3.1287 2.3147 -8.7782 54.5078
#
#
#
# Elastic Compliance Matrix: (Units=1/GPa)
#
#
# Indices 1 2 3 4 5 6 
#
# 1 0.007354 -0.001708 0.001587 0.003494 -0.005421 -0.000695
# 2 -0.001708 0.009457 0.001012 0.007538 -0.000597 -0.000112
# 3 0.001587 0.001012 0.039398 0.031962 -0.006114 -0.004443
# 4 0.003494 0.007538 0.031962 0.073838 0.004119 -0.003685
# 5 -0.005421 -0.000597 -0.006114 0.004119 0.055076 0.008644
# 6 -0.000695 -0.000112 -0.004443 -0.003685 0.008644 0.020096
#
#
# Mechanical properties :
#
#
# Convention : Reuss Voigt Hill
#
# Bulk Modulus (GPa) = 17.24319 52.83261 35.03790
# Shear Modulus (GPa) = 22.44480 38.85737 30.65109
#
# Velocity S-wave (km/s) = 3.12974 4.11801 3.65741
# Velocity P-wave (km/s) = 4.53713 6.75778 5.75557
#
# Compressibility (1/GPa) = 0.05799392
#
# Stress axis : x y z
#
# Youngs Moduli (GPa) = 135.97173 105.73735 25.38175
#
# Poissons Ratio (x) = 0.18057 -0.04029
# Poissons Ratio (y) = 0.23221 -0.02569
# Poissons Ratio (z) = -0.21582 -0.10704
#
# Static dielectric constant tensor:
#      x y z
#    x 1.895150 -0.042120 0.006490 
#    y -0.042120 2.035310 -0.010770 
#    z 0.006490 -0.010770 1.893530 
# 
# From -- ./inp_files/609867.got.cif
#   From: 2010.05.17/outbox.cif.g08.bks.cpg/sg2_305_cif.got.tgz:609867.got - 2010.06.03 11:33:40.
