data_PCOD9023308
_publ_section_title
;
Structure prediction by ZEFSAII (Michael W. Deem and Ramdas Pophale) SiO2 
 PCOD9023308
Probable space group: P -1
;
_chemical_formula_sum "Si O2"
_cell_formula_units_Z 16
_cell_length_a 15.046909
_cell_length_b 8.892072
_cell_length_c 11.978044
_cell_angle_alpha 104.847838
_cell_angle_beta 30.394106
_cell_angle_gamma 91.737762
_cell_volume 721.724117
_symmetry_space_group_name_H-M "P -1"
_symmetry_group_IT_number 2
_symmetry_cell_setting 'triclinic'
loop_
_space_group_symop_operation_xyz
x,y,z
-x,-y,-z
loop_
_atom_site_type_symbol
_atom_site_label
_atom_site_fract_x
_atom_site_fract_y
_atom_site_fract_z
Si Si1 0.939085 0.740442 0.006840
Si Si2 0.158712 0.348767 0.678847
Si Si3 0.368448 0.108987 0.807960
Si Si4 0.589262 0.804001 0.834111
Si Si5 0.391054 0.592893 0.906146
Si Si6 0.439088 0.724780 0.667214
Si Si7 0.204841 0.395416 0.211258
Si Si8 0.677039 0.251798 0.457084
O O1 0.014238 0.541866 0.853795
O O2 0.095987 0.808724 0.804936
O O3 0.925378 0.741805 0.156278
O O4 0.735657 0.840504 0.189246
O O5 0.246674 0.249228 0.450507
O O6 0.339195 0.360443 0.553545
O O7 0.567559 0.136049 0.597425
O O8 0.389892 0.922337 0.777555
O O9 0.230290 0.244067 0.069587
O O10 0.428817 0.746522 0.946912
O O11 0.664339 0.692976 0.842185
O O12 0.500000 0.000000 0.000000
O O13 0.329775 0.649137 0.856547
O O14 0.588091 0.425809 0.655636
O O15 0.259828 0.529461 0.108442
O O16 0.394848 0.704522 0.584013
O O17 0.000000 0.500000 0.500000
#
# Coordination Sequence:
#
# PCOD9023308 Si02
#       8
#     2   2   2   2   2   2   2   2
#     4  11  22  40  67 102 135 169 220 275 328 405
#     4  10  22  39  67  98 136 167 222 272 328 398
#     4  11  25  43  65  99 141 170 219 278 339 392
#     4  11  22  44  68  96 132 176 222 274 331 384
#     4  10  23  41  69  95 125 176 231 258 331 409
#     4  11  21  42  64  97 139 173 207 278 340 395
#     4  11  24  42  70  92 129 179 223 274 322 389
#     4  11  22  39  70  94 135 178 216 263 345 405
#
# _framework density 22.169136999999999
#
# number of rings (size 3 to 8) (size 9 to 14) (size 15 to 20)
#    0.000    1.250    3.750    3.375    0.000    2.500 
#    0.000    3.750    0.000    0.000    0.000    0.000 
#    0.000    0.000    0.000    0.000    0.000    0.000 
#
# Total GULP energy -89484.231778 kJ/mol
# GULP energy per Si atom -5592.764486 kJ/mol
# Density = 2.211868 g / cm^3
# Si number density = 22.169137 Si / 1000 Ang^3
#
#
#
# Elastic Constant Matrix: (Units=GPa)
#
#
# Indices 1 2 3 4 5 6 
#
# 1 43.7272 15.6439 -5.2040 3.8648 12.5060 2.3591
# 2 15.6439 133.8170 64.6747 4.4515 13.9069 5.6792
# 3 -5.2040 64.6747 103.7639 -15.0651 21.6542 7.8990
# 4 3.8648 4.4515 -15.0651 34.6858 2.9777 12.3532
# 5 12.5060 13.9069 21.6542 2.9777 40.8041 3.0825
# 6 2.3591 5.6792 7.8990 12.3532 3.0825 38.3764
#
#
#
# Elastic Compliance Matrix: (Units=1/GPa)
#
#
# Indices 1 2 3 4 5 6 
#
# 1 0.029221 -0.006295 0.008407 0.003133 -0.011297 -0.002696
# 2 -0.006295 0.012893 -0.010147 -0.006491 0.003212 0.002399
# 3 0.008407 -0.010147 0.020958 0.012723 -0.010673 -0.006567
# 4 0.003133 -0.006491 0.012723 0.040573 -0.007379 -0.014319
# 5 -0.011297 0.003212 -0.010673 -0.007379 0.032915 0.002147
# 6 -0.002696 0.002399 -0.006567 -0.014319 0.002147 0.031657
#
#
# Mechanical properties :
#
#
# Convention : Reuss Voigt Hill
#
# Bulk Modulus (GPa) = 21.27607 47.94861 34.61234
# Shear Modulus (GPa) = 25.00559 36.51949 30.76254
#
# Velocity S-wave (km/s) = 3.36213 4.06311 3.72913
# Velocity P-wave (km/s) = 4.96890 6.60964 5.84710
#
# Compressibility (1/GPa) = 0.04700116
#
# Stress axis : x y z
#
# Youngs Moduli (GPa) = 34.22203 77.55961 47.71453
#
# Poissons Ratio (x) = 0.48823 -0.40112
# Poissons Ratio (y) = 0.21542 0.48417
# Poissons Ratio (z) = -0.28769 0.78702
#
# Static dielectric constant tensor:
#      x y z
#    x 2.634320 0.251020 -0.102290 
#    y 0.251020 1.922440 -0.085710 
#    z -0.102290 -0.085710 1.889660 
# 
# From -- ./inp_files/447599.got.cif
#   From: 2010.05.17/outbox.cif.g08.bks.cpg/sg2_224_cif.got.tgz:447599.got - 2010.06.03 11:33:40.
