data_PCOD9023716
_publ_section_title
;
Structure prediction by ZEFSAII (Michael W. Deem and Ramdas Pophale) SiO2 
 PCOD9023716
Probable space group: P -1
;
_chemical_formula_sum "Si O2"
_cell_formula_units_Z 15
_cell_length_a 13.089015
_cell_length_b 5.991733
_cell_length_c 10.648806
_cell_angle_alpha 126.899817
_cell_angle_beta 69.113397
_cell_angle_gamma 117.989997
_cell_volume 586.420981
_symmetry_space_group_name_H-M "P -1"
_symmetry_group_IT_number 2
_symmetry_cell_setting 'triclinic'
loop_
_space_group_symop_operation_xyz
x,y,z
-x,-y,-z
loop_
_atom_site_type_symbol
_atom_site_label
_atom_site_fract_x
_atom_site_fract_y
_atom_site_fract_z
Si Si1 0.286675 0.826915 0.285385
Si Si2 0.801154 0.071172 0.893624
Si Si3 0.564988 0.538844 0.855569
Si Si4 0.937004 0.664435 0.673433
Si Si5 0.500000 0.000000 0.500000
Si Si6 0.343079 0.365411 0.769109
Si Si7 0.151580 0.843489 0.810034
Si Si8 0.305374 0.494902 0.559690
O O1 0.252730 0.763985 0.130718
O O2 0.402059 0.766967 0.273634
O O3 0.179934 0.594268 0.323340
O O4 0.287680 0.157933 0.416540
O O5 0.686002 0.794619 0.884287
O O6 0.894576 0.939194 0.745138
O O7 0.849792 0.199297 0.052562
O O8 0.465958 0.599384 0.838744
O O9 0.500000 0.500000 0.000000
O O10 0.000000 0.500000 0.500000
O O11 0.023846 0.788978 0.794268
O O12 0.392802 0.117446 0.613657
O O13 0.577225 0.315123 0.496766
O O14 0.309390 0.511658 0.714225
O O15 0.241212 0.172783 0.842410
O O16 0.198613 0.616650 0.632440
#
# Coordination Sequence:
#
# PCOD9023716 Si02
#       8
#     2   2   2   2   1   2   2   2
#     4  11  26  45  71 103 138 188 238 291 352 422
#     4  11  25  45  70 102 140 183 235 293 356 421
#     4  11  24  44  68 100 145 184 231 287 349 421
#     4  11  25  47  72  99 137 183 237 301 351 413
#     4  10  22  40  60  98 138 178 228 290 338 406
#     4  11  22  40  68  98 139 185 233 284 348 412
#     4  11  25  42  68 104 140 183 234 295 349 417
#     4  11  24  42  69 103 141 186 239 286 352 420
#
# _framework density 25.578893000000001
#
# number of rings (size 3 to 8) (size 9 to 14) (size 15 to 20)
#    0.000    1.067    1.333    4.000    1.867   11.733 
#    0.000    0.000    0.000    0.000    0.000    0.000 
#    0.000    0.000    0.000    0.000    0.000    0.000 
#
# Total GULP energy -83564.983766 kJ/mol
# GULP energy per Si atom -5570.998918 kJ/mol
# Density = 2.552067 g / cm^3
# Si number density = 25.578893 Si / 1000 Ang^3
#
#
#
# Elastic Constant Matrix: (Units=GPa)
#
#
# Indices 1 2 3 4 5 6 
#
# 1 139.8285 27.3530 21.2029 3.7082 4.8079 -2.6041
# 2 27.3530 63.6043 15.7273 -4.0747 -14.6392 -5.5258
# 3 21.2029 15.7273 72.1903 0.2220 -10.5341 0.0082
# 4 3.7082 -4.0747 0.2220 45.3861 -9.4724 5.2903
# 5 4.8079 -14.6392 -10.5341 -9.4724 48.9180 -8.1689
# 6 -2.6041 -5.5258 0.0082 5.2903 -8.1689 30.2861
#
#
#
# Elastic Compliance Matrix: (Units=1/GPa)
#
#
# Indices 1 2 3 4 5 6 
#
# 1 0.008342 -0.003873 -0.002009 -0.001547 -0.002790 -0.000471
# 2 -0.003873 0.020248 -0.002208 0.003124 0.007372 0.004805
# 3 -0.002009 -0.002208 0.015354 0.000493 0.002961 0.000133
# 4 -0.001547 0.003124 0.000493 0.023835 0.005431 -0.002262
# 5 -0.002790 0.007372 0.002961 0.005431 0.025800 0.007115
# 6 -0.000471 0.004805 0.000133 -0.002262 0.007115 0.036169
#
#
# Mechanical properties :
#
#
# Convention : Reuss Voigt Hill
#
# Bulk Modulus (GPa) = 36.01738 44.90994 40.46366
# Shear Modulus (GPa) = 32.22052 39.00737 35.61394
#
# Velocity S-wave (km/s) = 3.55301 3.90934 3.73543
# Velocity P-wave (km/s) = 5.56267 6.16221 5.87010
#
# Compressibility (1/GPa) = 0.02776437
#
# Stress axis : x y z
#
# Youngs Moduli (GPa) = 119.87591 49.38778 65.13058
#
# Poissons Ratio (x) = 0.19127 0.13082
# Poissons Ratio (y) = 0.46426 0.14382
# Poissons Ratio (z) = 0.24078 0.10906
#
# Static dielectric constant tensor:
#      x y z
#    x 0.850210 0.066690 -0.009480 
#    y 0.066690 1.928110 0.059170 
#    z -0.009480 0.059170 2.163630 
# 
# From -- ./inp_files/411224.got.cif
#   From: 2010.05.17/outbox.cif.g08.bks.cpg/sg2_206_cif.got.tgz:411224.got - 2010.06.03 11:33:40.
