data_PCOD9023302
_publ_section_title
;
Structure prediction by ZEFSAII (Michael W. Deem and Ramdas Pophale) SiO2 
 PCOD9023302
Probable space group: P -1
;
_chemical_formula_sum "Si O2"
_cell_formula_units_Z 16
_cell_length_a 13.533717
_cell_length_b 8.241864
_cell_length_c 13.874146
_cell_angle_alpha 122.313649
_cell_angle_beta 42.441114
_cell_angle_gamma 141.018848
_cell_volume 654.167328
_symmetry_space_group_name_H-M "P -1"
_symmetry_group_IT_number 2
_symmetry_cell_setting 'triclinic'
loop_
_space_group_symop_operation_xyz
x,y,z
-x,-y,-z
loop_
_atom_site_type_symbol
_atom_site_label
_atom_site_fract_x
_atom_site_fract_y
_atom_site_fract_z
Si Si1 0.106465 0.050198 0.819921
Si Si2 0.534023 0.233481 0.950076
Si Si3 0.097487 0.035554 0.541884
Si Si4 0.131262 0.431593 0.025576
Si Si5 0.229502 0.265020 0.184036
Si Si6 0.152142 0.505800 0.722455
Si Si7 0.552553 0.943518 0.689467
Si Si8 0.708506 0.159056 0.452509
O O1 0.233276 0.014478 0.653484
O O2 0.044216 0.856356 0.892180
O O3 0.901241 0.911262 0.869834
O O4 0.208265 0.340780 0.865526
O O5 0.703565 0.374189 0.952837
O O6 0.617212 0.444593 0.872609
O O7 0.499383 0.006895 0.846114
O O8 0.346352 0.181586 0.110528
O O9 0.127457 0.258968 0.649839
O O10 0.300983 0.101933 0.406400
O O11 0.000000 0.000000 0.500000
O O12 0.923912 0.779449 0.645251
O O13 0.021407 0.530971 0.110397
O O14 0.354164 0.721004 0.702899
O O15 0.153520 0.592649 0.638352
O O16 0.678613 0.174684 0.591411
O O17 0.500000 0.000000 0.500000
#
# Coordination Sequence:
#
# PCOD9023302 Si02
#       8
#     2   2   2   2   2   2   2   2
#     4   9  16  35  60  89 125 158 213 262 315 366
#     4  10  22  39  67  98 127 165 222 271 320 367
#     4  12  26  43  63  93 141 175 208 262 330 395
#     4   9  18  35  62  92 125 162 208 271 315 375
#     4  10  22  41  63  95 129 171 216 265 321 382
#     4  10  22  41  62  96 128 169 215 262 327 386
#     4  11  22  42  68  94 128 170 220 267 315 389
#     4   9  19  34  63  95 120 160 216 267 306 369
#
# _framework density 24.458573999999999
#
# number of rings (size 3 to 8) (size 9 to 14) (size 15 to 20)
#    0.000    2.000    1.250    1.875    1.750    6.500 
#    2.250    5.000    0.000    0.000    0.000    0.000 
#    0.000    0.000    0.000    0.000    0.000    0.000 
#
# Total GULP energy -89414.806188 kJ/mol
# GULP energy per Si atom -5588.425387 kJ/mol
# Density = 2.440290 g / cm^3
# Si number density = 24.458574 Si / 1000 Ang^3
#
#
#
# Elastic Constant Matrix: (Units=GPa)
#
#
# Indices 1 2 3 4 5 6 
#
# 1 105.5049 17.7636 46.1999 6.0300 -30.1543 17.7682
# 2 17.7636 55.1499 29.5311 17.2205 -6.7776 3.4195
# 3 46.1999 29.5311 102.2099 8.6982 -22.5130 19.1722
# 4 6.0300 17.2205 8.6982 36.8122 -0.1778 5.3695
# 5 -30.1543 -6.7776 -22.5130 -0.1778 53.4219 -11.1240
# 6 17.7682 3.4195 19.1722 5.3695 -11.1240 36.3785
#
#
#
# Elastic Compliance Matrix: (Units=1/GPa)
#
#
# Indices 1 2 3 4 5 6 
#
# 1 0.013393 -0.001291 -0.004025 -0.000221 0.005138 -0.002695
# 2 -0.001291 0.025035 -0.006271 -0.010493 0.000450 0.003269
# 3 -0.004025 -0.006271 0.014693 0.000809 0.002160 -0.004648
# 4 -0.000221 -0.010493 0.000809 0.032602 -0.001997 -0.004755
# 5 0.005138 0.000450 0.002160 -0.001997 0.023360 0.003748
# 6 -0.002695 0.003269 -0.004648 -0.004755 0.003748 0.032795
#
#
# Mechanical properties :
#
#
# Convention : Reuss Voigt Hill
#
# Bulk Modulus (GPa) = 33.39075 49.98376 41.68725
# Shear Modulus (GPa) = 28.56580 36.61386 32.58983
#
# Velocity S-wave (km/s) = 3.42120 3.87327 3.65423
# Velocity P-wave (km/s) = 5.41182 6.36266 5.90640
#
# Compressibility (1/GPa) = 0.02994841
#
# Stress axis : x y z
#
# Youngs Moduli (GPa) = 74.66589 39.94407 68.05828
#
# Poissons Ratio (x) = 0.05158 0.27391
# Poissons Ratio (y) = 0.09641 0.42676
# Poissons Ratio (z) = 0.30050 0.25047
#
# Static dielectric constant tensor:
#      x y z
#    x 2.001280 -0.103870 0.075410 
#    y -0.103870 1.992290 -0.022400 
#    z 0.075410 -0.022400 2.021930 
# 
# From -- ./inp_files/530224.got.cif
#   From: 2010.05.17/outbox.cif.g08.bks.cpg/sg2_266_cif.got.tgz:530224.got - 2010.06.03 11:33:40.
