data_PCOD9023600
_publ_section_title
;
Structure prediction by ZEFSAII (Michael W. Deem and Ramdas Pophale) SiO2 
 PCOD9023600
Probable space group: P -1
;
_chemical_formula_sum "Si O2"
_cell_formula_units_Z 16
_cell_length_a 12.129324
_cell_length_b 21.253266
_cell_length_c 8.800511
_cell_angle_alpha 33.267054
_cell_angle_beta 145.203052
_cell_angle_gamma 139.954286
_cell_volume 687.232094
_symmetry_space_group_name_H-M "P -1"
_symmetry_group_IT_number 2
_symmetry_cell_setting 'triclinic'
loop_
_space_group_symop_operation_xyz
x,y,z
-x,-y,-z
loop_
_atom_site_type_symbol
_atom_site_label
_atom_site_fract_x
_atom_site_fract_y
_atom_site_fract_z
Si Si1 0.247954 0.077421 0.503397
Si Si2 0.059495 0.295052 0.890621
Si Si3 0.675168 0.111661 0.786695
Si Si4 0.697574 0.538560 0.932330
Si Si5 0.583845 0.738822 0.188511
Si Si6 0.676159 0.618764 0.242905
Si Si7 0.215483 0.569650 0.050892
Si Si8 0.881221 0.990942 0.043705
O O1 0.183200 0.193550 0.253751
O O2 0.446649 0.112096 0.553836
O O3 0.059801 0.004512 0.340814
O O4 0.293147 0.996283 0.853864
O O5 0.145672 0.403936 0.878857
O O6 0.117654 0.335988 0.701458
O O7 0.828525 0.230925 0.778710
O O8 0.761520 0.087515 0.768162
O O9 0.659648 0.652890 0.566916
O O10 0.494323 0.442825 0.945971
O O11 0.773193 0.457804 0.057516
O O12 0.639355 0.714590 0.125954
O O13 0.340440 0.699114 0.985731
O O14 0.708310 0.870095 0.099163
O O15 0.664948 0.510918 0.561382
O O16 0.000000 0.500000 0.000000
O O17 0.000000 0.000000 0.000000
#
# Coordination Sequence:
#
# PCOD9023600 Si02
#       8
#     2   2   2   2   2   2   2   2
#     4  10  22  40  60  80 119 156 195 242 283 344
#     4  11  19  37  59  84 113 152 186 236 299 327
#     4  10  22  40  57  86 118 153 201 237 281 356
#     4   9  18  34  59  78 108 148 194 220 276 351
#     4   9  17  35  57  78 106 155 189 217 282 348
#     4   9  19  35  55  81 113 144 185 234 283 343
#     4   9  19  38  54  83 116 145 185 237 279 341
#     4  11  21  37  60  89 119 151 193 244 294 338
#
# _framework density 23.2818
#
# number of rings (size 3 to 8) (size 9 to 14) (size 15 to 20)
#    0.000    2.250    0.000    6.375    0.000    0.500 
#   20.250    0.625    0.000    0.000    0.000    0.000 
#    0.000    0.000    0.000    0.000    0.000    0.000 
#
# Total GULP energy -89212.677958 kJ/mol
# GULP energy per Si atom -5575.792372 kJ/mol
# Density = 2.322881 g / cm^3
# Si number density = 23.281800 Si / 1000 Ang^3
#
#
#
# Elastic Constant Matrix: (Units=GPa)
#
#
# Indices 1 2 3 4 5 6 
#
# 1 89.3482 37.3894 6.4898 24.2761 4.7862 26.6657
# 2 37.3894 185.1778 13.2183 27.7878 21.7407 14.2097
# 3 6.4898 13.2183 50.7996 -6.6616 -1.9450 6.4107
# 4 24.2761 27.7878 -6.6616 22.3470 14.0492 -0.9442
# 5 4.7862 21.7407 -1.9450 14.0492 26.8966 11.1638
# 6 26.6657 14.2097 6.4107 -0.9442 11.1638 44.2543
#
#
#
# Elastic Compliance Matrix: (Units=1/GPa)
#
#
# Indices 1 2 3 4 5 6 
#
# 1 0.046153 0.002185 -0.011107 -0.092899 0.055548 -0.042897
# 2 0.002185 0.007379 -0.003464 -0.014431 0.002662 -0.004163
# 3 -0.011107 -0.003464 0.024719 0.033053 -0.014237 0.008521
# 4 -0.092899 -0.014431 0.033053 0.275151 -0.154970 0.100787
# 5 0.055548 0.002662 -0.014237 -0.154970 0.133838 -0.069333
# 6 -0.042897 -0.004163 0.008521 0.100787 -0.069333 0.068188
#
#
# Mechanical properties :
#
#
# Convention : Reuss Voigt Hill
#
# Bulk Modulus (GPa) = 18.69910 48.83563 33.76736
# Shear Modulus (GPa) = 8.36084 36.58144 22.47114
#
# Velocity S-wave (km/s) = 1.89709 3.96819 3.11011
# Velocity P-wave (km/s) = 3.58436 6.48204 5.23758
#
# Compressibility (1/GPa) = 0.05347852
#
# Stress axis : x y z
#
# Youngs Moduli (GPa) = 21.66728 135.52347 40.45389
#
# Poissons Ratio (x) = -0.29608 0.44931
# Poissons Ratio (y) = -0.04734 0.14014
# Poissons Ratio (z) = 0.24065 0.46948
#
# Static dielectric constant tensor:
#      x y z
#    x 1.946200 0.069480 0.037620 
#    y 0.069480 1.934030 0.070100 
#    z 0.037620 0.070100 2.033030 
# 
# From -- ./inp_files/258817.got.cif
#   From: 2010.05.17/outbox.cif.g08.bks.cpg/sg2_130_cif.got.tgz:258817.got - 2010.06.03 11:33:40.
