data_PCOD9023242
_publ_section_title
;
Structure prediction by ZEFSAII (Michael W. Deem and Ramdas Pophale) SiO2 
 PCOD9023242
Probable space group: P -1
;
_chemical_formula_sum "Si O2"
_cell_formula_units_Z 16
_cell_length_a 9.887796
_cell_length_b 18.125126
_cell_length_c 5.380392
_cell_angle_alpha 92.656880
_cell_angle_beta 76.179275
_cell_angle_gamma 51.970328
_cell_volume 713.552712
_symmetry_space_group_name_H-M "P -1"
_symmetry_group_IT_number 2
_symmetry_cell_setting 'triclinic'
loop_
_space_group_symop_operation_xyz
x,y,z
-x,-y,-z
loop_
_atom_site_type_symbol
_atom_site_label
_atom_site_fract_x
_atom_site_fract_y
_atom_site_fract_z
Si Si1 0.424471 0.194191 0.077735
Si Si2 0.027394 0.038020 0.743472
Si Si3 0.551482 0.068088 0.494871
Si Si4 0.160197 0.449977 0.620143
Si Si5 0.334157 0.747395 0.105611
Si Si6 0.076656 0.351506 0.962612
Si Si7 0.727164 0.391354 0.111962
Si Si8 0.492367 0.600051 0.398444
O O1 0.500140 0.123059 0.791501
O O2 0.534095 0.233941 0.052256
O O3 0.454936 0.140584 0.312634
O O4 0.215339 0.281710 0.106991
O O5 0.869551 0.152954 0.816039
O O6 0.231836 0.998153 0.647288
O O7 0.000000 0.000000 0.500000
O O8 0.000000 0.000000 0.000000
O O9 0.500000 0.000000 0.500000
O O10 0.352143 0.424091 0.480739
O O11 0.000000 0.500000 0.500000
O O12 0.068888 0.537840 0.867094
O O13 0.186739 0.359249 0.707379
O O14 0.409368 0.703231 0.339602
O O15 0.331017 0.665888 0.988159
O O16 0.938386 0.333903 0.948135
O O17 0.603613 0.507000 0.149616
O O18 0.674558 0.391265 0.422467
#
# Coordination Sequence:
#
# PCOD9023242 Si02
#       8
#     2   2   2   2   2   2   2   2
#     4  12  27  47  79 109 144 191 250 292 370 451
#     4  12  26  49  74 110 145 185 245 302 366 439
#     4  12  28  52  76 109 146 189 233 317 373 436
#     4  10  22  39  67  92 145 187 234 294 359 424
#     4  12  25  41  76  99 144 190 245 297 362 438
#     4  10  24  42  62 106 135 187 242 295 352 430
#     4  10  25  42  67 102 148 182 249 298 365 413
#     4  10  23  44  65 104 141 195 243 297 363 433
#
# _framework density 22.423010000000001
#
# number of rings (size 3 to 8) (size 9 to 14) (size 15 to 20)
#    0.000    1.000    3.750    0.750    8.750    4.000 
#    0.000    0.000    0.000    0.000    0.000    0.000 
#    0.000    0.000    0.000    0.000    0.000    0.000 
#
# Total GULP energy -89270.645399 kJ/mol
# GULP energy per Si atom -5579.415337 kJ/mol
# Density = 2.237197 g / cm^3
# Si number density = 22.423010 Si / 1000 Ang^3
#
#
#
# Elastic Constant Matrix: (Units=GPa)
#
#
# Indices 1 2 3 4 5 6 
#
# 1 173.0228 58.0292 41.1274 -4.8010 -3.2454 10.4275
# 2 58.0292 160.8979 39.4798 -19.2024 -3.1059 -1.2775
# 3 41.1274 39.4798 72.9627 -5.1185 9.7820 7.3934
# 4 -4.8010 -19.2024 -5.1185 40.4619 0.2230 -0.3910
# 5 -3.2454 -3.1059 9.7820 0.2230 33.1205 3.2053
# 6 10.4275 -1.2775 7.3934 -0.3910 3.2053 35.1870
#
#
#
# Elastic Compliance Matrix: (Units=1/GPa)
#
#
# Indices 1 2 3 4 5 6 
#
# 1 0.007286 -0.001888 -0.003163 -0.000457 0.001641 -0.001718
# 2 -0.001888 0.008173 -0.003477 0.003222 0.001442 0.001491
# 3 -0.003163 -0.003477 0.018431 0.000314 -0.005837 -0.002526
# 4 -0.000457 0.003222 0.000314 0.026234 -0.000059 0.000483
# 5 0.001641 0.001442 -0.005837 -0.000059 0.032422 -0.002161
# 6 -0.001718 0.001491 -0.002526 0.000483 -0.002161 0.029716
#
#
# Mechanical properties :
#
#
# Convention : Reuss Voigt Hill
#
# Bulk Modulus (GPa) = 59.40491 76.01736 67.71113
# Shear Modulus (GPa) = 34.49933 39.63701 37.06817
#
# Velocity S-wave (km/s) = 3.92671 4.20896 4.07028
# Velocity P-wave (km/s) = 6.86361 7.58917 7.23549
#
# Compressibility (1/GPa) = 0.01683363
#
# Stress axis : x y z
#
# Youngs Moduli (GPa) = 137.24162 122.34854 54.25764
#
# Poissons Ratio (x) = 0.23102 0.17164
# Poissons Ratio (y) = 0.25915 0.18864
# Poissons Ratio (z) = 0.43416 0.42537
#
# Static dielectric constant tensor:
#      x y z
#    x 1.875630 -0.000640 0.020780 
#    y -0.000640 1.822520 -0.047020 
#    z 0.020780 -0.047020 2.016900 
# 
# From -- ./inp_files/48269.got.cif
#   From: 2010.05.17/outbox.cif.g08.bks.cpg/sg2_25_cif.got.tgz:48269.got - 2010.06.03 11:33:40.
