data_PCOD9023964
_publ_section_title
;
Structure prediction by ZEFSAII (Michael W. Deem and Ramdas Pophale) SiO2 
 PCOD9023964
Probable space group: P -1
;
_chemical_formula_sum "Si O2"
_cell_formula_units_Z 14
_cell_length_a 13.284532
_cell_length_b 6.711101
_cell_length_c 14.521716
_cell_angle_alpha 118.620544
_cell_angle_beta 31.507579
_cell_angle_gamma 104.835233
_cell_volume 560.226919
_symmetry_space_group_name_H-M "P -1"
_symmetry_group_IT_number 2
_symmetry_cell_setting 'triclinic'
loop_
_space_group_symop_operation_xyz
x,y,z
-x,-y,-z
loop_
_atom_site_type_symbol
_atom_site_label
_atom_site_fract_x
_atom_site_fract_y
_atom_site_fract_z
Si Si1 0.767228 0.230212 0.504940
Si Si2 0.094300 0.627220 0.751920
Si Si3 0.759328 0.054811 0.072160
Si Si4 0.391928 0.188412 0.527366
Si Si5 0.788746 0.906538 0.814052
Si Si6 0.481018 0.394751 0.090489
Si Si7 0.801448 0.546647 0.099493
O O1 0.571003 0.390949 0.748279
O O2 0.814774 0.399697 0.427025
O O3 0.732920 0.989155 0.441349
O O4 0.969984 0.150215 0.391068
O O5 0.276088 0.455564 0.633047
O O6 0.893229 0.572237 0.933757
O O7 0.989415 0.917420 0.898268
O O8 0.602147 0.092996 0.286234
O O9 0.741619 0.311459 0.101900
O O10 0.732554 0.915804 0.969627
O O11 0.374271 0.243535 0.662995
O O12 0.707975 0.709282 0.787120
O O13 0.671641 0.163751 0.917390
O O14 0.500000 0.500000 0.000000
O O15 0.000000 0.500000 0.000000
#
# Coordination Sequence:
#
# PCOD9023964 Si02
#       7
#     2   2   2   2   2   2   2
#     4  11  24  41  64  93 125 165 204 249 312 367
#     4  10  22  40  63  86 125 166 202 253 302 357
#     4  11  23  41  65  91 125 165 206 254 309 361
#     4  11  24  39  61  95 128 162 210 254 298 365
#     4  10  23  42  62  92 123 156 207 253 301 373
#     4  11  24  42  66  91 122 159 202 256 313 368
#     4  10  22  40  62  93 126 164 211 254 299 361
#
# _framework density 24.989874
#
# number of rings (size 3 to 8) (size 9 to 14) (size 15 to 20)
#    0.000    1.429    0.000    6.000    0.000   15.429 
#    0.000    0.000    0.000    0.000    0.000    0.000 
#    0.000    0.000    0.000    0.000    0.000    0.000 
#
# Total GULP energy -78272.660538 kJ/mol
# GULP energy per Si atom -5590.904324 kJ/mol
# Density = 2.493300 g / cm^3
# Si number density = 24.989874 Si / 1000 Ang^3
#
#
#
# Elastic Constant Matrix: (Units=GPa)
#
#
# Indices 1 2 3 4 5 6 
#
# 1 60.8967 27.7121 -1.9065 9.5415 -6.0982 -17.8249
# 2 27.7121 104.7626 30.6995 -2.6891 12.6211 -19.4924
# 3 -1.9065 30.6995 131.6392 -1.5785 7.8569 -24.5718
# 4 9.5415 -2.6891 -1.5785 41.0857 -6.4585 10.1132
# 5 -6.0982 12.6211 7.8569 -6.4585 51.7341 -2.7263
# 6 -17.8249 -19.4924 -24.5718 10.1132 -2.7263 49.5423
#
#
#
# Elastic Compliance Matrix: (Units=1/GPa)
#
#
# Indices 1 2 3 4 5 6 
#
# 1 0.023518 -0.006002 0.003209 -0.007528 0.003305 0.009410
# 2 -0.006002 0.012499 -0.002609 0.001370 -0.003136 0.001012
# 3 0.003209 -0.002609 0.009192 -0.001860 -0.000347 0.005048
# 4 -0.007528 0.001370 -0.001860 0.028616 0.002169 -0.008814
# 5 0.003305 -0.003136 -0.000347 0.002169 0.020833 0.000487
# 6 0.009410 0.001012 0.005048 -0.008814 0.000487 0.028298
#
#
# Mechanical properties :
#
#
# Convention : Reuss Voigt Hill
#
# Bulk Modulus (GPa) = 29.06535 45.58985 37.32760
# Shear Modulus (GPa) = 34.42822 44.52531 39.47676
#
# Velocity S-wave (km/s) = 3.71575 4.22564 3.97887
# Velocity P-wave (km/s) = 5.48317 6.48775 6.00650
#
# Compressibility (1/GPa) = 0.03440523
#
# Stress axis : x y z
#
# Youngs Moduli (GPa) = 42.52057 80.00673 108.78846
#
# Poissons Ratio (x) = 0.48020 -0.34914
# Poissons Ratio (y) = 0.25521 0.28386
# Poissons Ratio (z) = -0.13646 0.20876
#
# Static dielectric constant tensor:
#      x y z
#    x 2.021130 -0.009860 -0.003670 
#    y -0.009860 1.997780 0.016460 
#    z -0.003670 0.016460 1.982980 
# 
# From -- ./inp_files/323955.got.cif
#   From: 2010.05.17/outbox.cif.g08.bks.cpg/sg2_162_cif.got.tgz:323955.got - 2010.06.03 11:33:40.
