data_PCOD9023403
_publ_section_title
;
Structure prediction by ZEFSAII (Michael W. Deem and Ramdas Pophale) SiO2 
 PCOD9023403
Probable space group: P -1
;
_chemical_formula_sum "Si O2"
_cell_formula_units_Z 16
_cell_length_a 5.519093
_cell_length_b 21.370451
_cell_length_c 11.983525
_cell_angle_alpha 28.951169
_cell_angle_beta 79.727625
_cell_angle_gamma 78.708908
_cell_volume 670.862356
_symmetry_space_group_name_H-M "P -1"
_symmetry_group_IT_number 2
_symmetry_cell_setting 'triclinic'
loop_
_space_group_symop_operation_xyz
x,y,z
-x,-y,-z
loop_
_atom_site_type_symbol
_atom_site_label
_atom_site_fract_x
_atom_site_fract_y
_atom_site_fract_z
Si Si1 0.565595 0.130715 0.847534
Si Si2 0.474951 0.746943 0.995300
Si Si3 0.503609 0.321446 0.352650
Si Si4 0.827361 0.316424 0.659210
Si Si5 0.655347 0.536954 0.154768
Si Si6 0.063540 0.277565 0.284704
Si Si7 0.810544 0.806609 0.041017
Si Si8 0.143563 0.997166 0.609644
O O1 0.475417 0.235531 0.599255
O O2 0.817931 0.187845 0.781518
O O3 0.427855 0.128693 0.980118
O O4 0.500000 0.000000 0.000000
O O5 0.332401 0.693372 0.198065
O O6 0.470822 0.651042 0.042723
O O7 0.751671 0.750018 0.014573
O O8 0.383322 0.894358 0.742220
O O9 0.531043 0.464036 0.178062
O O10 0.266518 0.300088 0.329471
O O11 0.777345 0.278589 0.344827
O O12 0.735435 0.436227 0.403863
O O13 0.095859 0.307866 0.704415
O O14 0.893370 0.603278 0.986687
O O15 0.153286 0.141217 0.430753
O O16 0.988624 0.918783 0.833717
O O17 0.000000 0.000000 0.500000
#
# Coordination Sequence:
#
# PCOD9023403 Si02
#       8
#     2   2   2   2   2   2   2   2
#     4  10  22  39  68  97 140 189 239 301 355 426
#     4  10  23  45  72 108 139 187 239 304 367 428
#     4  11  28  49  72 108 146 198 246 300 362 434
#     4   9  22  42  65 103 139 183 240 297 363 428
#     4  11  24  47  72 101 150 192 246 294 360 443
#     4  12  28  49  74 107 149 196 243 305 360 439
#     4  10  22  42  67 105 141 181 240 301 363 430
#     4  11  26  45  75 108 144 186 242 299 372 434
#
# _framework density 23.849900000000002
#
# number of rings (size 3 to 8) (size 9 to 14) (size 15 to 20)
#    0.000    1.500    0.000    2.625   12.250    2.000 
#    9.000    0.000    0.000    0.000    0.000    0.000 
#    0.000    0.000    0.000    0.000    0.000    0.000 
#
# Total GULP energy -89289.102935 kJ/mol
# GULP energy per Si atom -5580.568933 kJ/mol
# Density = 2.379562 g / cm^3
# Si number density = 23.849900 Si / 1000 Ang^3
#
#
#
# Elastic Constant Matrix: (Units=GPa)
#
#
# Indices 1 2 3 4 5 6 
#
# 1 77.6911 34.4861 25.5694 -2.2279 13.7064 10.9704
# 2 34.4861 139.0417 37.7866 -25.3743 5.9156 15.3094
# 3 25.5694 37.7866 113.5752 3.7411 -2.2359 6.1491
# 4 -2.2279 -25.3743 3.7411 48.1384 4.9849 -2.4003
# 5 13.7064 5.9156 -2.2359 4.9849 31.7214 10.7696
# 6 10.9704 15.3094 6.1491 -2.4003 10.7696 25.6813
#
#
#
# Elastic Compliance Matrix: (Units=1/GPa)
#
#
# Indices 1 2 3 4 5 6 
#
# 1 0.016397 -0.002827 -0.002754 0.000001 -0.006028 -0.002132
# 2 -0.002827 0.009967 -0.002677 0.005212 -0.000491 -0.003400
# 3 -0.002754 -0.002677 0.010550 -0.002776 0.003351 -0.001418
# 4 0.000001 0.005212 -0.002776 0.024448 -0.005779 0.002266
# 5 -0.006028 -0.000491 0.003351 -0.005779 0.040632 -0.015514
# 6 -0.002132 -0.003400 -0.001418 0.002266 -0.015514 0.048934
#
#
# Mechanical properties :
#
#
# Convention : Reuss Voigt Hill
#
# Bulk Modulus (GPa) = 49.02529 58.44357 53.73443
# Shear Modulus (GPa) = 28.69534 36.60596 32.65065
#
# Velocity S-wave (km/s) = 3.47243 3.92196 3.70402
# Velocity P-wave (km/s) = 6.05619 6.71320 6.39314
#
# Compressibility (1/GPa) = 0.02039764
#
# Stress axis : x y z
#
# Youngs Moduli (GPa) = 60.98501 100.32842 94.79031
#
# Poissons Ratio (x) = 0.28365 0.26108
# Poissons Ratio (y) = 0.17242 0.25374
# Poissons Ratio (z) = 0.16797 0.26857
#
# Static dielectric constant tensor:
#      x y z
#    x 2.118080 0.010350 -0.033450 
#    y 0.010350 1.952510 -0.034870 
#    z -0.033450 -0.034870 1.945290 
# 
# From -- ./inp_files/370266.got.cif
#   From: 2010.05.17/outbox.cif.g08.bks.cpg/sg2_186_cif.got.tgz:370266.got - 2010.06.03 11:33:40.
