data_PCOD9023559
_publ_section_title
;
Structure prediction by ZEFSAII (Michael W. Deem and Ramdas Pophale) SiO2 
 PCOD9023559
Probable space group: P -1
;
_chemical_formula_sum "Si O2"
_cell_formula_units_Z 16
_cell_length_a 9.379657
_cell_length_b 12.503213
_cell_length_c 13.451921
_cell_angle_alpha 69.277050
_cell_angle_beta 131.478520
_cell_angle_gamma 144.665474
_cell_volume 617.026853
_symmetry_space_group_name_H-M "P -1"
_symmetry_group_IT_number 2
_symmetry_cell_setting 'triclinic'
loop_
_space_group_symop_operation_xyz
x,y,z
-x,-y,-z
loop_
_atom_site_type_symbol
_atom_site_label
_atom_site_fract_x
_atom_site_fract_y
_atom_site_fract_z
Si Si1 0.562614 0.603989 0.837404
Si Si2 0.565277 0.115098 0.089506
Si Si3 0.720205 0.734716 0.373318
Si Si4 0.597211 0.823335 0.455595
Si Si5 0.623357 0.722528 0.099751
Si Si6 0.222026 0.760313 0.465508
Si Si7 0.789777 0.697795 0.695090
Si Si8 0.350257 0.094357 0.201506
O O1 0.592363 0.501261 0.946842
O O2 0.809234 0.724104 0.815105
O O3 0.625955 0.758818 0.865512
O O4 0.172803 0.409254 0.678812
O O5 0.370998 0.023418 0.137426
O O6 0.941030 0.256042 0.238735
O O7 0.542064 0.236544 0.008565
O O8 0.500000 0.000000 0.000000
O O9 0.525159 0.734744 0.345442
O O10 0.654019 0.727394 0.231230
O O11 0.573517 0.542827 0.406229
O O12 0.122395 0.939586 0.508230
O O13 0.304920 0.715404 0.428567
O O14 0.800091 0.824041 0.606575
O O15 0.002242 0.904396 0.166672
O O16 0.336938 0.767430 0.622306
O O17 0.500000 0.000000 0.500000
#
# Coordination Sequence:
#
# PCOD9023559 Si02
#       8
#     2   2   2   2   2   2   2   2
#     4  11  24  44  77 107 146 183 234 291 355 438
#     4  12  29  47  75 101 138 195 249 301 359 405
#     4  10  22  39  72 100 141 182 219 288 349 414
#     4  11  22  41  67 105 150 180 223 279 359 428
#     4  11  24  51  68 103 140 189 250 290 346 417
#     4  12  23  41  72 110 143 182 225 282 359 442
#     4  11  24  45  68 103 142 182 236 285 353 416
#     4  12  25  48  75 101 145 188 237 297 358 422
#
# _framework density 25.930802
#
# number of rings (size 3 to 8) (size 9 to 14) (size 15 to 20)
#    0.000    0.750    3.750    3.375    1.750    7.500 
#    0.000    2.500    0.000    0.000    0.000    0.000 
#    0.000    0.000    0.000    0.000    0.000    0.000 
#
# Total GULP energy -89511.359991 kJ/mol
# GULP energy per Si atom -5594.459999 kJ/mol
# Density = 2.587178 g / cm^3
# Si number density = 25.930802 Si / 1000 Ang^3
#
#
#
# Elastic Constant Matrix: (Units=GPa)
#
#
# Indices 1 2 3 4 5 6 
#
# 1 235.1386 39.8400 57.9525 -15.2776 -5.5401 10.2096
# 2 39.8400 128.1031 14.6851 -11.6928 3.9667 -7.9024
# 3 57.9525 14.6851 61.7594 -14.4241 4.5346 10.4393
# 4 -15.2776 -11.6928 -14.4241 29.2453 -5.3467 1.5568
# 5 -5.5401 3.9667 4.5346 -5.3467 54.3475 0.3744
# 6 10.2096 -7.9024 10.4393 1.5568 0.3744 29.3332
#
#
#
# Elastic Compliance Matrix: (Units=1/GPa)
#
#
# Indices 1 2 3 4 5 6 
#
# 1 0.005780 -0.001266 -0.005045 0.000263 0.001133 -0.000586
# 2 -0.001266 0.008692 -0.000843 0.002148 -0.000502 0.002975
# 3 -0.005045 -0.000843 0.024736 0.009358 -0.001543 -0.007751
# 4 0.000263 0.002148 0.009358 0.040644 0.003123 -0.005040
# 5 0.001133 -0.000502 -0.001543 0.003123 0.018991 -0.000389
# 6 -0.000586 0.002975 -0.007751 -0.005040 -0.000389 0.038127
#
#
# Mechanical properties :
#
#
# Convention : Reuss Voigt Hill
#
# Bulk Modulus (GPa) = 40.16309 72.21737 56.19023
# Shear Modulus (GPa) = 31.33259 43.42008 37.37634
#
# Velocity S-wave (km/s) = 3.47985 4.09646 3.80068
# Velocity P-wave (km/s) = 5.62744 7.09120 6.40129
#
# Compressibility (1/GPa) = 0.02489848
#
# Stress axis : x y z
#
# Youngs Moduli (GPa) = 173.00810 115.05142 40.42756
#
# Poissons Ratio (x) = 0.14570 0.20397
# Poissons Ratio (y) = 0.21910 0.03407
# Poissons Ratio (z) = 0.87289 0.09695
#
# Static dielectric constant tensor:
#      x y z
#    x 2.111010 -0.056690 -0.068910 
#    y -0.056690 2.070630 0.028120 
#    z -0.068910 0.028120 2.077940 
# 
# From -- ./inp_files/500316.got.cif
#   From: 2010.05.17/outbox.cif.g08.bks.cpg/sg2_251_cif.got.tgz:500316.got - 2010.06.03 11:33:40.
