data_PCOD9023044
_publ_section_title
;
Structure prediction by ZEFSAII (Michael W. Deem and Ramdas Pophale) SiO2 
 PCOD9023044
Probable space group: P -1
;
_chemical_formula_sum "Si O2"
_cell_formula_units_Z 15
_cell_length_a 10.887866
_cell_length_b 4.956506
_cell_length_c 14.148529
_cell_angle_alpha 81.005857
_cell_angle_beta 55.999196
_cell_angle_gamma 111.284753
_cell_volume 522.121234
_symmetry_space_group_name_H-M "P -1"
_symmetry_group_IT_number 2
_symmetry_cell_setting 'triclinic'
loop_
_space_group_symop_operation_xyz
x,y,z
-x,-y,-z
loop_
_atom_site_type_symbol
_atom_site_label
_atom_site_fract_x
_atom_site_fract_y
_atom_site_fract_z
Si Si1 0.142748 0.739346 0.054324
Si Si2 0.480125 0.772612 0.867464
Si Si3 0.856849 0.013096 0.166463
Si Si4 0.093147 0.418796 0.343470
Si Si5 0.171583 0.356205 0.514018
Si Si6 0.246006 0.199184 0.134893
Si Si7 0.500000 0.500000 0.500000
Si Si8 0.619530 0.255612 0.302619
O O1 0.024063 0.344561 0.120610
O O2 0.103372 0.890388 0.151440
O O3 0.350406 0.874425 0.954581
O O4 0.123186 0.880719 0.956905
O O5 0.672377 0.938401 0.819636
O O6 0.465209 0.767848 0.761951
O O7 0.382020 0.422472 0.981313
O O8 0.689510 0.011849 0.286560
O O9 0.789634 0.634147 0.213981
O O10 0.976351 0.573075 0.394881
O O11 0.216011 0.493618 0.379630
O O12 0.198355 0.411824 0.207035
O O13 0.933303 0.032109 0.432158
O O14 0.329028 0.480262 0.514279
O O15 0.499141 0.254185 0.435154
#
# Coordination Sequence:
#
# PCOD9023044 Si02
#       8
#     2   2   2   2   2   2   1   2
#     4  10  22  39  65  98 137 184 223 291 344 435
#     4  10  23  40  63  99 144 170 236 289 364 408
#     4  10  24  42  68  93 141 180 230 274 362 419
#     4  10  24  47  75  99 145 184 244 283 366 419
#     4  10  25  49  70 106 138 190 234 306 345 432
#     4  11  22  39  68 102 129 191 228 294 342 445
#     4  12  28  46  78 104 144 184 250 296 372 412
#     4  11  25  46  65 100 136 186 225 301 348 432
#
# _framework density 28.728957999999999
#
# number of rings (size 3 to 8) (size 9 to 14) (size 15 to 20)
#    0.000    1.600    1.333    1.200    5.600    4.800 
#    0.000    4.000    0.000    0.000    0.000    0.000 
#    0.000    0.000    0.000    0.000    0.000    0.000 
#
# Total GULP energy -83813.637216 kJ/mol
# GULP energy per Si atom -5587.575814 kJ/mol
# Density = 2.866357 g / cm^3
# Si number density = 28.728958 Si / 1000 Ang^3
#
#
#
# Elastic Constant Matrix: (Units=GPa)
#
#
# Indices 1 2 3 4 5 6 
#
# 1 158.9351 40.4066 22.3273 26.6025 -4.9258 43.0323
# 2 40.4066 109.9351 12.1666 31.6293 -10.6997 28.0985
# 3 22.3273 12.1666 112.1897 39.3132 14.9316 30.0081
# 4 26.6025 31.6293 39.3132 48.7822 12.6191 4.3664
# 5 -4.9258 -10.6997 14.9316 12.6191 52.2678 8.4564
# 6 43.0323 28.0985 30.0081 4.3664 8.4564 44.4329
#
#
#
# Elastic Compliance Matrix: (Units=1/GPa)
#
#
# Indices 1 2 3 4 5 6 
#
# 1 0.011926 0.004512 0.006307 -0.014605 0.006768 -0.018516
# 2 0.004512 0.021187 0.010938 -0.025866 0.011908 -0.024880
# 3 0.006307 0.010938 0.022576 -0.028272 0.007568 -0.026934
# 4 -0.014605 -0.025866 -0.028272 0.069767 -0.023064 0.047130
# 5 0.006768 0.011908 0.007568 -0.023064 0.029254 -0.022497
# 6 -0.018516 -0.024880 -0.026934 0.047130 -0.022497 0.074012
#
#
# Mechanical properties :
#
#
# Convention : Reuss Voigt Hill
#
# Bulk Modulus (GPa) = 10.08022 58.98452 34.53237
# Shear Modulus (GPa) = 22.90660 49.50720 36.20690
#
# Velocity S-wave (km/s) = 2.82678 4.15571 3.55391
# Velocity P-wave (km/s) = 3.76438 6.60322 5.37462
#
# Compressibility (1/GPa) = 0.09920416
#
# Stress axis : x y z
#
# Youngs Moduli (GPa) = 83.84723 47.19772 44.29410
#
# Poissons Ratio (x) = -0.21294 -0.27936
# Poissons Ratio (y) = -0.37829 -0.48450
# Poissons Ratio (z) = -0.52882 -0.51626
#
# Static dielectric constant tensor:
#      x y z
#    x 2.361340 -0.046540 -0.021430 
#    y -0.046540 2.197700 -0.130830 
#    z -0.021430 -0.130830 2.243910 
# 
# From -- ./inp_files/510423.got.cif
#   From: 2010.05.17/outbox.cif.g08.bks.cpg/sg2_256_cif.got.tgz:510423.got - 2010.06.03 11:33:40.
