data_PCOD9023464
_publ_section_title
;
Structure prediction by ZEFSAII (Michael W. Deem and Ramdas Pophale) SiO2 
 PCOD9023464
Probable space group: P -1
;
_chemical_formula_sum "Si O2"
_cell_formula_units_Z 14
_cell_length_a 10.984498
_cell_length_b 10.671803
_cell_length_c 11.964780
_cell_angle_alpha 41.036252
_cell_angle_beta 54.741357
_cell_angle_gamma 41.106908
_cell_volume 605.288151
_symmetry_space_group_name_H-M "P -1"
_symmetry_group_IT_number 2
_symmetry_cell_setting 'triclinic'
loop_
_space_group_symop_operation_xyz
x,y,z
-x,-y,-z
loop_
_atom_site_type_symbol
_atom_site_label
_atom_site_fract_x
_atom_site_fract_y
_atom_site_fract_z
Si Si1 0.851247 0.846371 0.395921
Si Si2 0.858634 0.959100 0.552197
Si Si3 0.215587 0.831474 0.961134
Si Si4 0.204951 0.257360 0.058268
Si Si5 0.603618 0.996497 0.092388
Si Si6 0.464490 0.367252 0.513616
Si Si7 0.755470 0.512962 0.666752
O O1 0.928775 0.805018 0.507722
O O2 0.713807 0.770087 0.519450
O O3 0.022577 0.667620 0.344465
O O4 0.776239 0.103740 0.214432
O O5 0.810304 0.860742 0.745824
O O6 0.662469 0.195861 0.464730
O O7 0.000000 0.000000 0.500000
O O8 0.323484 0.913108 0.916152
O O9 0.291195 0.571320 0.140716
O O10 0.000000 0.000000 0.000000
O O11 0.401374 0.214902 0.006036
O O12 0.252699 0.118106 0.010015
O O13 0.000000 0.500000 0.000000
O O14 0.591731 0.790539 0.289693
O O15 0.500000 0.500000 0.500000
O O16 0.327504 0.513012 0.385408
#
# Coordination Sequence:
#
# PCOD9023464 Si02
#       7
#     2   2   2   2   2   2   2
#     4  10  22  44  64  95 138 168 229 287 334 416
#     4  11  26  43  65  99 136 174 225 297 346 403
#     4  10  22  40  70  96 133 183 232 285 343 414
#     4  10  25  41  67  99 134 184 225 284 354 411
#     4  10  23  45  66 100 143 179 235 292 340 415
#     4  11  24  42  68  97 136 186 228 280 351 417
#     4  10  22  39  69  96 124 189 224 266 357 406
#
# _framework density 23.129480999999998
#
# number of rings (size 3 to 8) (size 9 to 14) (size 15 to 20)
#    0.000    1.714    1.429    0.857   14.000    0.571 
#    0.000    0.714    0.000    0.000    0.000    0.000 
#    0.000    0.000    0.000    0.000    0.000    0.000 
#
# Total GULP energy -78117.046612 kJ/mol
# GULP energy per Si atom -5579.789044 kJ/mol
# Density = 2.307684 g / cm^3
# Si number density = 23.129481 Si / 1000 Ang^3
#
#
#
# Elastic Constant Matrix: (Units=GPa)
#
#
# Indices 1 2 3 4 5 6 
#
# 1 78.2507 5.4130 33.1071 1.4480 -7.0746 1.9131
# 2 5.4130 73.7268 23.4829 12.0542 -4.9366 -23.4848
# 3 33.1071 23.4829 163.0644 6.0816 4.8340 10.1342
# 4 1.4480 12.0542 6.0816 25.7609 5.4019 13.1785
# 5 -7.0746 -4.9366 4.8340 5.4019 27.7958 -3.7862
# 6 1.9131 -23.4848 10.1342 13.1785 -3.7862 30.3219
#
#
#
# Elastic Compliance Matrix: (Units=1/GPa)
#
#
# Indices 1 2 3 4 5 6 
#
# 1 0.014971 0.005680 -0.004395 -0.009506 0.008814 0.010156
# 2 0.005680 0.073479 -0.016512 -0.098634 0.051710 0.111396
# 3 -0.004395 -0.016512 0.010697 0.022533 -0.014055 -0.027635
# 4 -0.009506 -0.098634 0.022533 0.187543 -0.084188 -0.175347
# 5 0.008814 0.051710 -0.014055 -0.084188 0.078549 0.090590
# 6 0.010156 0.111396 -0.027635 -0.175347 0.090590 0.215374
#
#
# Mechanical properties :
#
#
# Convention : Reuss Voigt Hill
#
# Bulk Modulus (GPa) = 14.55797 48.78308 31.67053
# Shear Modulus (GPa) = 7.88687 33.64497 20.76592
#
# Velocity S-wave (km/s) = 1.84859 3.81811 2.99960
# Velocity P-wave (km/s) = 3.29608 6.36980 5.07141
#
# Compressibility (1/GPa) = 0.06869090
#
# Stress axis : x y z
#
# Youngs Moduli (GPa) = 66.79712 13.60939 93.48712
#
# Poissons Ratio (x) = -0.07730 0.41092
# Poissons Ratio (y) = -0.37942 1.54369
# Poissons Ratio (z) = 0.29361 0.22472
#
# Static dielectric constant tensor:
#      x y z
#    x 1.943360 0.129020 0.083150 
#    y 0.129020 2.445490 0.130900 
#    z 0.083150 0.130900 2.007190 
# 
# From -- ./inp_files/424881.got.cif
#   From: 2010.05.17/outbox.cif.g08.bks.cpg/sg2_213_cif.got.tgz:424881.got - 2010.06.03 11:33:40.
