data_PCOD9023269
_publ_section_title
;
Structure prediction by ZEFSAII (Michael W. Deem and Ramdas Pophale) SiO2 
 PCOD9023269
Probable space group: P -1
;
_chemical_formula_sum "Si O2"
_cell_formula_units_Z 14
_cell_length_a 12.734997
_cell_length_b 21.677697
_cell_length_c 26.799442
_cell_angle_alpha 11.727390
_cell_angle_beta 157.997557
_cell_angle_gamma 157.885368
_cell_volume 546.280216
_symmetry_space_group_name_H-M "P -1"
_symmetry_group_IT_number 2
_symmetry_cell_setting 'triclinic'
loop_
_space_group_symop_operation_xyz
x,y,z
-x,-y,-z
loop_
_atom_site_type_symbol
_atom_site_label
_atom_site_fract_x
_atom_site_fract_y
_atom_site_fract_z
Si Si1 0.645685 0.110620 0.029314
Si Si2 0.225252 0.257022 0.451026
Si Si3 0.704921 0.748230 0.647763
Si Si4 0.386955 0.014445 0.094343
Si Si5 0.134926 0.865690 0.271597
Si Si6 0.845458 0.593725 0.086748
Si Si7 0.208426 0.950063 0.441713
O O1 0.472418 0.929828 0.143160
O O2 0.658085 0.481135 0.746626
O O3 0.964345 0.059720 0.216940
O O4 0.500000 0.000000 0.000000
O O5 0.028576 0.450839 0.241206
O O6 0.498239 0.199796 0.646660
O O7 0.012703 0.909703 0.629570
O O8 0.476161 0.904538 0.393883
O O9 0.743997 0.877797 0.619814
O O10 0.575997 0.377564 0.893368
O O11 0.048954 0.010034 0.950057
O O12 0.000000 0.500000 0.500000
O O13 0.073680 0.037494 0.159303
O O14 0.888749 0.414201 0.298682
O O15 0.500000 0.500000 0.000000
O O16 0.500000 0.000000 0.500000
#
# Coordination Sequence:
#
# PCOD9023269 Si02
#       7
#     2   2   2   2   2   2   2
#     4  12  27  41  62 102 135 171 223 279 334 389
#     4  11  23  41  69  95 128 177 224 272 328 398
#     4  10  22  46  69  94 130 182 222 267 345 395
#     4  11  24  45  67  97 140 172 216 281 339 400
#     4  10  22  39  67  95 128 176 217 271 336 394
#     4  11  19  39  68  92 127 175 224 266 328 398
#     4  11  24  40  65  99 132 172 227 283 316 402
#
# _framework density 25.627873000000001
#
# number of rings (size 3 to 8) (size 9 to 14) (size 15 to 20)
#    0.000    1.143    5.714    2.143    4.000    1.714 
#    0.000    0.000    0.000    4.286    0.000    0.000 
#    0.000    0.000    0.000    0.000    0.000    0.000 
#
# Total GULP energy -78246.636135 kJ/mol
# GULP energy per Si atom -5589.045438 kJ/mol
# Density = 2.556954 g / cm^3
# Si number density = 25.627873 Si / 1000 Ang^3
#
#
#
# Elastic Constant Matrix: (Units=GPa)
#
#
# Indices 1 2 3 4 5 6 
#
# 1 55.4157 9.0472 14.4437 5.9657 -8.2568 0.4742
# 2 9.0472 146.8540 63.0451 36.0416 -1.1474 -12.1750
# 3 14.4437 63.0451 153.2365 34.4121 -10.5593 -11.1876
# 4 5.9657 36.0416 34.4121 85.1020 -10.1743 12.2750
# 5 -8.2568 -1.1474 -10.5593 -10.1743 44.7609 -2.2009
# 6 0.4742 -12.1750 -11.1876 12.2750 -2.2009 28.3904
#
#
#
# Elastic Compliance Matrix: (Units=1/GPa)
#
#
# Indices 1 2 3 4 5 6 
#
# 1 0.018979 -0.000623 -0.001380 -0.000009 0.003114 -0.000883
# 2 -0.000623 0.009226 -0.002704 -0.003529 -0.001105 0.004341
# 3 -0.001380 -0.002704 0.008708 -0.002633 0.001306 0.003535
# 4 -0.000009 -0.003529 -0.002633 0.015938 0.002455 -0.009251
# 5 0.003114 -0.001105 0.001306 0.002455 0.023791 0.000772
# 6 -0.000883 0.004341 0.003535 -0.009251 0.000772 0.042552
#
#
# Mechanical properties :
#
#
# Convention : Reuss Voigt Hill
#
# Bulk Modulus (GPa) = 36.36660 58.73090 47.54875
# Shear Modulus (GPa) = 36.29088 49.58202 42.93645
#
# Velocity S-wave (km/s) = 3.76715 4.40328 4.09758
# Velocity P-wave (km/s) = 5.75700 6.98702 6.40162
#
# Compressibility (1/GPa) = 0.02749776
#
# Stress axis : x y z
#
# Youngs Moduli (GPa) = 52.68846 108.39026 114.84140
#
# Poissons Ratio (x) = 0.06757 0.15853
# Poissons Ratio (y) = 0.03285 0.31050
# Poissons Ratio (z) = 0.07273 0.29306
#
# Static dielectric constant tensor:
#      x y z
#    x 2.110350 -0.001680 0.017650 
#    y -0.001680 2.160430 -0.051150 
#    z 0.017650 -0.051150 2.057270 
# 
# From -- ./inp_files/623707.got.cif
#   From: 2010.05.17/outbox.cif.g08.bks.cpg/sg2_312_cif.got.tgz:623707.got - 2010.06.03 11:33:40.
