data_PCOD9023838
_publ_section_title
;
Structure prediction by ZEFSAII (Michael W. Deem and Ramdas Pophale) SiO2 
 PCOD9023838
Probable space group: P -1
;
_chemical_formula_sum "Si O2"
_cell_formula_units_Z 13
_cell_length_a 16.128007
_cell_length_b 11.417024
_cell_length_c 7.889236
_cell_angle_alpha 41.022911
_cell_angle_beta 143.033458
_cell_angle_gamma 138.703426
_cell_volume 531.238537
_symmetry_space_group_name_H-M "P -1"
_symmetry_group_IT_number 2
_symmetry_cell_setting 'triclinic'
loop_
_space_group_symop_operation_xyz
x,y,z
-x,-y,-z
loop_
_atom_site_type_symbol
_atom_site_label
_atom_site_fract_x
_atom_site_fract_y
_atom_site_fract_z
Si Si1 0.089575 0.560422 0.330870
Si Si2 0.863662 0.907738 0.633404
Si Si3 0.342712 0.512710 0.264433
Si Si4 0.500000 0.000000 0.500000
Si Si5 0.830709 0.039920 0.064724
Si Si6 0.812077 0.242247 0.362614
Si Si7 0.629002 0.436097 0.349232
O O1 0.129170 0.681860 0.438320
O O2 0.217338 0.478432 0.596352
O O3 0.932350 0.391845 0.272161
O O4 0.099541 0.729492 0.032847
O O5 0.788438 0.681870 0.803523
O O6 0.042509 0.986689 0.818233
O O7 0.813284 0.931192 0.333814
O O8 0.807130 0.034857 0.528060
O O9 0.500000 0.500000 0.500000
O O10 0.333460 0.518833 0.443941
O O11 0.333614 0.706345 0.957263
O O12 0.423756 0.791313 0.515684
O O13 0.332270 0.016818 0.216877
O O14 0.500000 0.500000 0.000000
#
# Coordination Sequence:
#
# PCOD9023838 Si02
#       7
#     2   2   2   1   2   2   2
#     4  10  23  43  66 100 138 179 226 278 345 402
#     4  11  25  43  72 102 133 186 230 286 346 408
#     4  12  27  46  68 103 139 180 230 286 348 407
#     4  10  22  40  62 102 128 176 218 276 332 396
#     4  10  22  43  69 103 138 175 239 276 342 419
#     4  11  24  43  67 100 141 177 224 288 339 412
#     4  11  24  41  68  95 134 178 224 278 333 410
#
# _framework density 24.471117
#
# number of rings (size 3 to 8) (size 9 to 14) (size 15 to 20)
#    0.000    1.231    1.538    3.692    6.462    6.154 
#    0.000    0.000    0.000    0.000    0.000    0.000 
#    0.000    0.000    0.000    0.000    0.000    0.000 
#
# Total GULP energy -72524.329662 kJ/mol
# GULP energy per Si atom -5578.794589 kJ/mol
# Density = 2.441542 g / cm^3
# Si number density = 24.471117 Si / 1000 Ang^3
#
#
#
# Elastic Constant Matrix: (Units=GPa)
#
#
# Indices 1 2 3 4 5 6 
#
# 1 80.8893 26.3972 26.6997 2.2166 26.3667 -21.9897
# 2 26.3972 92.3574 16.3020 -7.7915 10.9803 -22.4438
# 3 26.6997 16.3020 98.7644 -2.6362 33.0313 -17.8800
# 4 2.2166 -7.7915 -2.6362 35.3102 4.8038 14.8258
# 5 26.3667 10.9803 33.0313 4.8038 52.3110 -0.2159
# 6 -21.9897 -22.4438 -17.8800 14.8258 -0.2159 39.7512
#
#
#
# Elastic Compliance Matrix: (Units=1/GPa)
#
#
# Indices 1 2 3 4 5 6 
#
# 1 0.019075 -0.002132 -0.000025 -0.005213 -0.008626 0.011235
# 2 -0.002132 0.013155 0.000116 0.000770 -0.001806 0.006003
# 3 -0.000025 0.000116 0.014296 -0.000458 -0.008969 0.006604
# 4 -0.005213 0.000770 -0.000458 0.035544 -0.000574 -0.015915
# 5 -0.008626 -0.001806 -0.008969 -0.000574 0.029521 -0.009452
# 6 0.011235 0.006003 0.006604 -0.015915 -0.009452 0.043616
#
#
# Mechanical properties :
#
#
# Convention : Reuss Voigt Hill
#
# Bulk Modulus (GPa) = 23.55970 45.64543 34.60256
# Shear Modulus (GPa) = 28.82911 38.98198 33.90554
#
# Velocity S-wave (km/s) = 3.43605 3.99554 3.72631
# Velocity P-wave (km/s) = 5.03889 6.32290 5.71706
#
# Compressibility (1/GPa) = 0.04244536
#
# Stress axis : x y z
#
# Youngs Moduli (GPa) = 52.42353 76.01764 69.95044
#
# Poissons Ratio (x) = 0.16204 0.00176
# Poissons Ratio (y) = 0.11175 -0.00815
# Poissons Ratio (z) = 0.00132 -0.00885
#
# Static dielectric constant tensor:
#      x y z
#    x 1.977450 0.025420 0.000580 
#    y 0.025420 1.898800 -0.052740 
#    z 0.000580 -0.052740 1.996870 
# 
# From -- ./inp_files/183604.got.cif
#   From: 2010.05.17/outbox.cif.g08.bks.cpg/sg2_92_cif.got.tgz:183604.got - 2010.06.03 11:33:40.
