data_PCOD9023657
_publ_section_title
;
Structure prediction by ZEFSAII (Michael W. Deem and Ramdas Pophale) SiO2 
 PCOD9023657
Probable space group: P -1
;
_chemical_formula_sum "Si O2"
_cell_formula_units_Z 16
_cell_length_a 10.733694
_cell_length_b 9.289061
_cell_length_c 9.076523
_cell_angle_alpha 102.711041
_cell_angle_beta 95.868763
_cell_angle_gamma 45.915623
_cell_volume 632.461576
_symmetry_space_group_name_H-M "P -1"
_symmetry_group_IT_number 2
_symmetry_cell_setting 'triclinic'
loop_
_space_group_symop_operation_xyz
x,y,z
-x,-y,-z
loop_
_atom_site_type_symbol
_atom_site_label
_atom_site_fract_x
_atom_site_fract_y
_atom_site_fract_z
Si Si1 0.643970 0.771104 0.624132
Si Si2 0.581619 0.160510 0.983573
Si Si3 0.819695 0.929210 0.701518
Si Si4 0.752667 0.488172 0.832186
Si Si5 0.354104 0.504928 0.644083
Si Si6 0.321780 0.117998 0.814684
Si Si7 0.869135 0.447657 0.149870
Si Si8 0.240495 0.778537 0.439991
O O1 0.712722 0.875591 0.621508
O O2 0.724880 0.654895 0.764612
O O3 0.689700 0.609821 0.476230
O O4 0.436918 0.946376 0.665090
O O5 0.445106 0.377741 0.099534
O O6 0.700615 0.982260 0.081147
O O7 0.454085 0.135711 0.899466
O O8 0.701330 0.110849 0.850963
O O9 0.978956 0.735124 0.769981
O O10 0.860249 0.998079 0.582479
O O11 0.815225 0.311491 0.690333
O O12 0.875564 0.412311 0.968996
O O13 0.293937 0.516255 0.802008
O O14 0.253011 0.719707 0.597911
O O15 0.557062 0.361806 0.610706
O O16 0.165843 0.348147 0.793269
#
# Coordination Sequence:
#
# PCOD9023657 Si02
#       8
#     2   2   2   2   2   2   2   2
#     4   9  19  38  61  83 109 142 184 233 276 318
#     4   8  15  30  53  80 107 137 178 226 268 310
#     4  11  22  33  54  86 119 148 178 218 275 338
#     4   9  19  38  61  83 109 142 184 233 276 318
#     4  10  22  40  60  80 105 144 192 235 274 319
#     4   8  15  30  53  80 107 137 178 226 268 310
#     4  11  22  33  54  86 119 148 178 218 275 338
#     4  10  22  40  60  80 105 144 192 235 274 319
#
# _framework density 25.297979999999999
#
# number of rings (size 3 to 8) (size 9 to 14) (size 15 to 20)
#    0.000    2.500    0.000    4.500    0.000    7.500 
#    0.000    0.000    0.000    7.500    0.000    0.000 
#    0.000    0.000    0.000    0.000    0.000    0.000 
#
# Total GULP energy -89475.246611 kJ/mol
# GULP energy per Si atom -5592.202913 kJ/mol
# Density = 2.524040 g / cm^3
# Si number density = 25.297980 Si / 1000 Ang^3
#
#
#
# Elastic Constant Matrix: (Units=GPa)
#
#
# Indices 1 2 3 4 5 6 
#
# 1 27.8190 15.2153 7.6032 -3.4962 -13.1214 1.0195
# 2 15.2153 126.8952 46.4970 -43.6913 -5.6361 7.7661
# 3 7.6032 46.4970 90.4258 -35.1251 -7.4018 14.9577
# 4 -3.4962 -43.6913 -35.1251 46.1213 5.6376 -3.0798
# 5 -13.1214 -5.6361 -7.4018 5.6376 18.6049 -4.7255
# 6 1.0195 7.7661 14.9577 -3.0798 -4.7255 38.1828
#
#
#
# Elastic Compliance Matrix: (Units=1/GPa)
#
#
# Indices 1 2 3 4 5 6 
#
# 1 0.060006 -0.008216 -0.001904 -0.009624 0.043363 0.005405
# 2 -0.008216 0.013231 -0.002114 0.010974 -0.006344 -0.001544
# 3 -0.001904 -0.002114 0.017382 0.010690 0.000315 -0.005427
# 4 -0.009624 0.010974 0.010690 0.040743 -0.012685 -0.004446
# 5 0.043363 -0.006344 0.000315 -0.012685 0.088916 0.009991
# 6 0.005405 -0.001544 -0.005427 -0.004446 0.009991 0.029363
#
#
# Mechanical properties :
#
#
# Convention : Reuss Voigt Hill
#
# Bulk Modulus (GPa) = 15.11666 42.64125 28.87895
# Shear Modulus (GPa) = 16.88280 32.30343 24.59312
#
# Velocity S-wave (km/s) = 2.58613 3.57727 3.12129
# Velocity P-wave (km/s) = 3.86081 5.82707 4.94270
#
# Compressibility (1/GPa) = 0.06615220
#
# Stress axis : x y z
#
# Youngs Moduli (GPa) = 16.66499 75.57802 57.53175
#
# Poissons Ratio (x) = 0.62093 0.10952
# Poissons Ratio (y) = 0.13692 0.12162
# Poissons Ratio (z) = 0.03172 0.15978
#
# Static dielectric constant tensor:
#      x y z
#    x 2.016330 -0.060070 -0.013420 
#    y -0.060070 2.060910 0.018960 
#    z -0.013420 0.018960 1.972410 
# 
# From -- ./inp_files/244643.got.cif
#   From: 2010.05.17/outbox.cif.g08.bks.cpg/sg2_123_cif.got.tgz:244643.got - 2010.06.03 11:33:40.
