data_PCOD9023887
_publ_section_title
;
Structure prediction by ZEFSAII (Michael W. Deem and Ramdas Pophale) SiO2 
 PCOD9023887
Probable space group: P -1
;
_chemical_formula_sum "Si O2"
_cell_formula_units_Z 14
_cell_length_a 6.718522
_cell_length_b 5.033931
_cell_length_c 19.182866
_cell_angle_alpha 87.933148
_cell_angle_beta 80.201795
_cell_angle_gamma 74.150942
_cell_volume 614.971188
_symmetry_space_group_name_H-M "P -1"
_symmetry_group_IT_number 2
_symmetry_cell_setting 'triclinic'
loop_
_space_group_symop_operation_xyz
x,y,z
-x,-y,-z
loop_
_atom_site_type_symbol
_atom_site_label
_atom_site_fract_x
_atom_site_fract_y
_atom_site_fract_z
Si Si1 0.486309 0.933791 0.419402
Si Si2 0.236576 0.292760 0.996685
Si Si3 0.035869 0.246867 0.447918
Si Si4 0.683845 0.365916 0.356747
Si Si5 0.358827 0.584577 0.105042
Si Si6 0.108991 0.033295 0.883535
Si Si7 0.319473 0.473884 0.804322
O O1 0.513766 0.614543 0.404238
O O2 0.500000 0.000000 0.500000
O O3 0.649521 0.062793 0.368636
O O4 0.266336 0.125512 0.406458
O O5 0.438339 0.355499 0.945878
O O6 0.200451 0.036486 0.956885
O O7 0.303704 0.325214 0.072186
O O8 0.000000 0.500000 0.000000
O O9 0.887165 0.342832 0.390865
O O10 0.000000 0.500000 0.500000
O O11 0.000000 0.000000 0.500000
O O12 0.691628 0.458032 0.276676
O O13 0.448136 0.549339 0.178339
O O14 0.138874 0.818944 0.108419
O O15 0.235336 0.210735 0.830106
O O16 0.167331 0.729400 0.852384
#
# Coordination Sequence:
#
# PCOD9023887 Si02
#       7
#     2   2   2   2   2   2   2
#     4  12  23  41  68  92 123 158 201 256 314 371
#     4   8  16  36  63  96 124 163 211 262 304 357
#     4  12  23  39  64  90 119 155 194 249 308 360
#     4  12  25  42  62  94 126 159 207 255 310 375
#     4   9  19  38  64  90 128 167 209 256 313 360
#     4  10  22  40  62  89 125 165 214 256 303 365
#     4  11  25  41  61  89 127 167 206 256 307 374
#
# _framework density 22.765291999999999
#
# number of rings (size 3 to 8) (size 9 to 14) (size 15 to 20)
#    0.000    1.429    2.857    2.143    0.000    5.143 
#    0.000   24.286    0.000    0.000    0.000    0.000 
#    0.000    0.000    0.000    0.000    0.000    0.000 
#
# Total GULP energy -78199.675168 kJ/mol
# GULP energy per Si atom -5585.691083 kJ/mol
# Density = 2.271348 g / cm^3
# Si number density = 22.765292 Si / 1000 Ang^3
#
#
#
# Elastic Constant Matrix: (Units=GPa)
#
#
# Indices 1 2 3 4 5 6 
#
# 1 120.7721 15.5708 44.5543 -12.6898 29.7572 -26.1719
# 2 15.5708 80.6500 15.3455 5.8908 10.6009 -4.6394
# 3 44.5543 15.3455 103.1690 -19.2223 30.9307 0.9015
# 4 -12.6898 5.8908 -19.2223 39.3981 -5.4555 -6.0944
# 5 29.7572 10.6009 30.9307 -5.4555 32.4832 -9.5035
# 6 -26.1719 -4.6394 0.9015 -6.0944 -9.5035 52.3960
#
#
#
# Elastic Compliance Matrix: (Units=1/GPa)
#
#
# Indices 1 2 3 4 5 6 
#
# 1 0.012475 -0.000911 -0.002891 0.002693 -0.006357 0.005360
# 2 -0.000911 0.013453 -0.001384 -0.003399 -0.002854 -0.000153
# 3 -0.002891 -0.001384 0.015666 0.004715 -0.012041 -0.003472
# 4 0.002693 -0.003399 0.004715 0.029824 0.000484 0.004520
# 5 -0.006357 -0.002854 -0.012041 0.000484 0.050860 0.006060
# 6 0.005360 -0.000153 -0.003472 0.004520 0.006060 0.023434
#
#
# Mechanical properties :
#
#
# Convention : Reuss Voigt Hill
#
# Bulk Modulus (GPa) = 32.02905 50.61469 41.32187
# Shear Modulus (GPa) = 30.03149 40.13017 35.08083
#
# Velocity S-wave (km/s) = 3.63599 4.20310 3.92979
# Velocity P-wave (km/s) = 5.63267 6.77025 6.22749
#
# Compressibility (1/GPa) = 0.03122166
#
# Stress axis : x y z
#
# Youngs Moduli (GPa) = 80.16001 74.33268 63.83261
#
# Poissons Ratio (x) = 0.06772 0.18455
# Poissons Ratio (y) = 0.07303 0.08835
# Poissons Ratio (z) = 0.23175 0.10288
#
# Static dielectric constant tensor:
#      x y z
#    x 1.985840 0.180080 -0.097880 
#    y 0.180080 2.130890 -0.103660 
#    z -0.097880 -0.103660 1.885470 
# 
# From -- ./inp_files/13105.got.cif
#   From: 2010.05.17/outbox.cif.g08.bks.cpg/sg2_7_cif.got.tgz:13105.got - 2010.06.03 11:33:40.
