data_PCOD9023530
_publ_section_title
;
Structure prediction by ZEFSAII (Michael W. Deem and Ramdas Pophale) SiO2 
 PCOD9023530
Probable space group: P -1
;
_chemical_formula_sum "Si O2"
_cell_formula_units_Z 16
_cell_length_a 8.327213
_cell_length_b 8.817926
_cell_length_c 14.599612
_cell_angle_alpha 131.164414
_cell_angle_beta 104.872001
_cell_angle_gamma 70.342365
_cell_volume 759.076153
_symmetry_space_group_name_H-M "P -1"
_symmetry_group_IT_number 2
_symmetry_cell_setting 'triclinic'
loop_
_space_group_symop_operation_xyz
x,y,z
-x,-y,-z
loop_
_atom_site_type_symbol
_atom_site_label
_atom_site_fract_x
_atom_site_fract_y
_atom_site_fract_z
Si Si1 0.148121 0.478495 0.802602
Si Si2 0.448380 0.087965 0.129870
Si Si3 0.998701 0.733041 0.571925
Si Si4 0.350231 0.928725 0.389125
Si Si5 0.509358 0.720123 0.139134
Si Si6 0.230281 0.795857 0.789322
Si Si7 0.098533 0.160508 0.033394
Si Si8 0.112429 0.767424 0.417287
O O1 0.298659 0.320504 0.810799
O O2 0.219419 0.624792 0.797922
O O3 0.040483 0.633426 0.922607
O O4 0.014793 0.368316 0.691396
O O5 0.576536 0.234427 0.230168
O O6 0.248296 0.197601 0.136476
O O7 0.467040 0.898482 0.127546
O O8 0.500000 0.000000 0.000000
O O9 0.000000 0.500000 0.500000
O O10 0.077834 0.806564 0.702087
O O11 0.141136 0.718270 0.507864
O O12 0.811201 0.874240 0.575610
O O13 0.405050 0.810793 0.253106
O O14 0.271137 0.774634 0.379880
O O15 0.500000 0.000000 0.500000
O O16 0.500000 0.500000 0.000000
O O17 0.187832 0.033388 0.911209
O O18 0.000000 0.000000 0.000000
O O19 0.000000 0.000000 0.500000
#
# Coordination Sequence:
#
# PCOD9023530 Si02
#       8
#     2   2   2   2   2   2   2   2
#     4  11  23  42  69  97 139 180 228 287 350 418
#     4  10  23  43  65 102 141 180 224 292 349 412
#     4  11  23  44  74 101 130 185 237 286 351 418
#     4  11  28  47  69 100 146 186 233 289 356 418
#     4  12  26  43  71 104 142 188 237 284 351 419
#     4  10  22  39  70  98 139 174 232 291 348 408
#     4   9  20  40  64  95 138 175 219 281 349 403
#     4  10  23  45  67  93 139 179 228 284 351 411
#
# _framework density 21.078256
#
# number of rings (size 3 to 8) (size 9 to 14) (size 15 to 20)
#    0.000    1.500    1.250    3.750   10.500    3.000 
#    0.000    3.750    0.000    0.000    0.000    0.000 
#    0.000    0.000    0.000    0.000    0.000    0.000 
#
# Total GULP energy -89102.836326 kJ/mol
# GULP energy per Si atom -5568.927270 kJ/mol
# Density = 2.103028 g / cm^3
# Si number density = 21.078256 Si / 1000 Ang^3
#
#
#
# Elastic Constant Matrix: (Units=GPa)
#
#
# Indices 1 2 3 4 5 6 
#
# 1 114.8920 43.8565 30.9368 -0.6607 2.1598 -7.3311
# 2 43.8565 90.3749 21.9493 -10.1909 -10.1030 1.5964
# 3 30.9368 21.9493 86.6703 0.8942 -4.2443 -3.7043
# 4 -0.6607 -10.1909 0.8942 33.8102 1.9266 4.5888
# 5 2.1598 -10.1030 -4.2443 1.9266 37.2962 -8.7958
# 6 -7.3311 1.5964 -3.7043 4.5888 -8.7958 36.6349
#
#
#
# Elastic Compliance Matrix: (Units=1/GPa)
#
#
# Indices 1 2 3 4 5 6 
#
# 1 0.011674 -0.005404 -0.002790 -0.001493 -0.001904 0.002019
# 2 -0.005404 0.015067 -0.001828 0.004502 0.003569 -0.001630
# 3 -0.002790 -0.001828 0.013144 -0.001228 0.001550 0.001376
# 4 -0.001493 0.004502 -0.001228 0.031708 -0.001648 -0.004986
# 5 -0.001904 0.003569 0.001550 -0.001648 0.029797 0.006981
# 6 0.002019 -0.001630 0.001376 -0.004986 0.006981 0.030211
#
#
# Mechanical properties :
#
#
# Convention : Reuss Voigt Hill
#
# Bulk Modulus (GPa) = 50.40121 53.93582 52.16852
# Shear Modulus (GPa) = 31.59359 34.56123 33.07741
#
# Velocity S-wave (km/s) = 3.87573 4.05367 3.96569
# Velocity P-wave (km/s) = 6.63263 6.89591 6.76555
#
# Compressibility (1/GPa) = 0.01984079
#
# Stress axis : x y z
#
# Youngs Moduli (GPa) = 85.65989 66.37004 76.07926
#
# Poissons Ratio (x) = 0.35869 0.21226
# Poissons Ratio (y) = 0.46294 0.13907
# Poissons Ratio (z) = 0.23898 0.12132
#
# Static dielectric constant tensor:
#      x y z
#    x 2.026250 0.003320 0.030610 
#    y 0.003320 1.739990 0.002880 
#    z 0.030610 0.002880 1.881670 
# 
# From -- ./inp_files/495753.got.cif
#   From: 2010.05.17/outbox.cif.g08.bks.cpg/sg2_248_cif.got.tgz:495753.got - 2010.06.03 11:33:40.
