data_PCOD9023289
_publ_section_title
;
Structure prediction by ZEFSAII (Michael W. Deem and Ramdas Pophale) SiO2 
 PCOD9023289
Probable space group: P -1
;
_chemical_formula_sum "Si O2"
_cell_formula_units_Z 13
_cell_length_a 25.017758
_cell_length_b 25.921501
_cell_length_c 5.664590
_cell_angle_alpha 50.197165
_cell_angle_beta 50.172625
_cell_angle_gamma 11.003971
_cell_volume 536.847677
_symmetry_space_group_name_H-M "P -1"
_symmetry_group_IT_number 2
_symmetry_cell_setting 'triclinic'
loop_
_space_group_symop_operation_xyz
x,y,z
-x,-y,-z
loop_
_atom_site_type_symbol
_atom_site_label
_atom_site_fract_x
_atom_site_fract_y
_atom_site_fract_z
Si Si1 0.676949 0.733325 0.357386
Si Si2 0.594304 0.460888 0.637317
Si Si3 0.000000 0.000000 0.500000
Si Si4 0.720555 0.493119 0.232124
Si Si5 0.284846 0.991735 0.818792
Si Si6 0.061958 0.614200 0.724732
Si Si7 0.714697 0.826452 0.209408
O O1 0.476610 0.877368 0.673957
O O2 0.844650 0.521099 0.357935
O O3 0.846749 0.634766 0.288317
O O4 0.471838 0.962531 0.081731
O O5 0.858500 0.183294 0.563276
O O6 0.676725 0.456679 0.516660
O O7 0.500000 0.500000 0.000000
O O8 0.321461 0.722620 0.477069
O O9 0.706949 0.555463 0.311637
O O10 0.486439 0.739338 0.993738
O O11 0.025034 0.221189 0.052901
O O12 0.160591 0.126497 0.519635
O O13 0.936406 0.677158 0.078850
O O14 0.500000 0.000000 0.500000
#
# Coordination Sequence:
#
# PCOD9023289 Si02
#       7
#     2   2   1   2   2   2   2
#     4  10  22  42  64 100 137 190 244 299 351 420
#     4  11  25  49  77 114 150 187 245 298 360 450
#     4  10  24  48  78 106 146 194 232 288 368 428
#     4  12  27  44  74 108 142 189 235 290 368 428
#     4  11  25  46  67 102 148 186 241 296 348 434
#     4  11  25  43  71 100 146 188 243 299 361 416
#     4  10  22  39  67  96 139 191 240 300 359 416
#
# _framework density 24.215436
#
# number of rings (size 3 to 8) (size 9 to 14) (size 15 to 20)
#    0.000    1.231    1.538    2.769    6.462    4.308 
#    2.769    0.000    0.000    0.000    0.000    0.000 
#    0.000    0.000    0.000    0.000    0.000    0.000 
#
# Total GULP energy -72486.972037 kJ/mol
# GULP energy per Si atom -5575.920926 kJ/mol
# Density = 2.416032 g / cm^3
# Si number density = 24.215436 Si / 1000 Ang^3
#
#
#
# Elastic Constant Matrix: (Units=GPa)
#
#
# Indices 1 2 3 4 5 6 
#
# 1 139.1528 28.3667 63.5972 -0.2878 -33.6086 16.9370
# 2 28.3667 145.3951 37.6316 9.6078 -10.2741 24.9470
# 3 63.5972 37.6316 119.2243 2.9170 -44.6293 10.8049
# 4 -0.2878 9.6078 2.9170 35.4734 -0.6795 5.7401
# 5 -33.6086 -10.2741 -44.6293 -0.6795 32.9503 -1.4409
# 6 16.9370 24.9470 10.8049 5.7401 -1.4409 37.0070
#
#
#
# Elastic Compliance Matrix: (Units=1/GPa)
#
#
# Indices 1 2 3 4 5 6 
#
# 1 0.010607 -0.000325 -0.002601 0.001134 0.007053 -0.003778
# 2 -0.000325 0.008380 -0.002542 -0.001345 -0.001391 -0.004604
# 3 -0.002601 -0.002542 0.019113 -0.000188 0.022361 -0.001777
# 4 0.001134 -0.001345 -0.000188 0.029253 0.000908 -0.004060
# 5 0.007053 -0.001391 0.022361 0.000908 0.067137 -0.006346
# 6 -0.003778 -0.004604 -0.001777 -0.004060 -0.006346 0.032755
#
#
# Mechanical properties :
#
#
# Convention : Reuss Voigt Hill
#
# Bulk Modulus (GPa) = 36.81263 73.66258 55.23760
# Shear Modulus (GPa) = 26.70446 39.36460 33.03453
#
# Velocity S-wave (km/s) = 3.32443 4.03625 3.69751
# Velocity P-wave (km/s) = 5.47457 7.22547 6.41008
#
# Compressibility (1/GPa) = 0.02716459
#
# Stress axis : x y z
#
# Youngs Moduli (GPa) = 94.27988 119.33728 52.32013
#
# Poissons Ratio (x) = 0.03875 0.13606
# Poissons Ratio (y) = 0.03061 0.13301
# Poissons Ratio (z) = 0.24518 0.30337
#
# Static dielectric constant tensor:
#      x y z
#    x 1.950770 0.001960 0.037660 
#    y 0.001960 1.969240 0.011760 
#    z 0.037660 0.011760 1.931830 
# 
# From -- ./inp_files/127691.got.cif
#   From: 2010.05.17/outbox.cif.g08.bks.cpg/sg2_64_cif.got.tgz:127691.got - 2010.06.03 11:33:40.
