data_PCOD9023194
_publ_section_title
;
Structure prediction by ZEFSAII (Michael W. Deem and Ramdas Pophale) SiO2 
 PCOD9023194
Probable space group: P -1
;
_chemical_formula_sum "Si O2"
_cell_formula_units_Z 16
_cell_length_a 23.879056
_cell_length_b 11.691363
_cell_length_c 5.383165
_cell_angle_alpha 114.618108
_cell_angle_beta 124.700524
_cell_angle_gamma 31.193344
_cell_volume 631.122269
_symmetry_space_group_name_H-M "P -1"
_symmetry_group_IT_number 2
_symmetry_cell_setting 'triclinic'
loop_
_space_group_symop_operation_xyz
x,y,z
-x,-y,-z
loop_
_atom_site_type_symbol
_atom_site_label
_atom_site_fract_x
_atom_site_fract_y
_atom_site_fract_z
Si Si1 0.448129 0.913878 0.565519
Si Si2 0.797415 0.802878 0.714070
Si Si3 0.399795 0.542152 0.293983
Si Si4 0.009205 0.856843 0.536133
Si Si5 0.815949 0.551002 0.155361
Si Si6 0.361703 0.290210 0.534652
Si Si7 0.994881 0.657660 0.916755
Si Si8 0.743968 0.282200 0.394546
O O1 0.532955 0.699303 0.765005
O O2 0.525113 0.824064 0.430989
O O3 0.332699 0.998495 0.308095
O O4 0.403792 0.126156 0.701118
O O5 0.782454 0.711927 0.400955
O O6 0.905745 0.601616 0.993123
O O7 0.857077 0.823369 0.727064
O O8 0.500000 0.500000 0.500000
O O9 0.326573 0.647271 0.466268
O O10 0.314433 0.692638 0.975029
O O11 0.007957 0.746598 0.232399
O O12 0.143484 0.642980 0.801119
O O13 0.886666 0.038733 0.553702
O O14 0.000000 0.000000 0.500000
O O15 0.716390 0.682105 0.816871
O O16 0.947983 0.387202 0.235511
O O17 0.275023 0.541927 0.565526
#
# Coordination Sequence:
#
# PCOD9023194 Si02
#       8
#     2   2   2   2   2   2   2   2
#     4  10  23  42  70 101 136 188 230 302 369 426
#     4  10  22  39  66  99 131 177 228 292 360 426
#     4  11  27  50  73 108 147 193 247 302 362 446
#     4  11  27  41  70 100 142 196 237 298 372 427
#     4  11  23  42  69 101 137 185 237 301 361 431
#     4  10  23  43  69 105 142 179 248 302 360 437
#     4  10  22  43  61  98 140 172 235 294 352 433
#     4  11  27  47  74 106 147 194 245 306 361 433
#
# _framework density 25.351662999999999
#
# number of rings (size 3 to 8) (size 9 to 14) (size 15 to 20)
#    0.000    1.500    1.250    1.500    8.750    5.000 
#    0.000    0.000    0.000    0.000    0.000    0.000 
#    0.000    0.000    0.000    0.000    0.000    0.000 
#
# Total GULP energy -89376.650305 kJ/mol
# GULP energy per Si atom -5586.040644 kJ/mol
# Density = 2.529396 g / cm^3
# Si number density = 25.351663 Si / 1000 Ang^3
#
#
#
# Elastic Constant Matrix: (Units=GPa)
#
#
# Indices 1 2 3 4 5 6 
#
# 1 141.5136 27.7535 17.2034 -2.9105 6.7242 -33.2404
# 2 27.7535 68.9905 14.5844 -11.4688 1.9825 6.0714
# 3 17.2034 14.5844 86.9526 -18.6741 -2.6842 -2.5024
# 4 -2.9105 -11.4688 -18.6741 35.1653 -6.1394 -4.0618
# 5 6.7242 1.9825 -2.6842 -6.1394 27.4515 -9.1617
# 6 -33.2404 6.0714 -2.5024 -4.0618 -9.1617 42.6915
#
#
#
# Elastic Compliance Matrix: (Units=1/GPa)
#
#
# Indices 1 2 3 4 5 6 
#
# 1 0.010075 -0.004636 -0.000971 -0.000098 0.000610 0.008569
# 2 -0.004636 0.017882 -0.001528 0.003643 -0.001571 -0.006232
# 3 -0.000971 -0.001528 0.013770 0.007652 0.004027 0.001860
# 4 -0.000098 0.003643 0.007652 0.036142 0.010439 0.005533
# 5 0.000610 -0.001571 0.004027 0.010439 0.042831 0.011119
# 6 0.008569 -0.006232 0.001860 0.005533 0.011119 0.034004
#
#
# Mechanical properties :
#
#
# Convention : Reuss Voigt Hill
#
# Bulk Modulus (GPa) = 36.41937 46.28217 41.35077
# Shear Modulus (GPa) = 28.07000 36.92268 32.49634
#
# Velocity S-wave (km/s) = 3.33111 3.82045 3.58414
# Velocity P-wave (km/s) = 5.40295 6.14466 5.78570
#
# Compressibility (1/GPa) = 0.02745791
#
# Stress axis : x y z
#
# Youngs Moduli (GPa) = 99.25102 55.92304 72.62133
#
# Poissons Ratio (x) = 0.25924 0.07055
# Poissons Ratio (y) = 0.46009 0.11094
# Poissons Ratio (z) = 0.09641 0.08543
#
# Static dielectric constant tensor:
#      x y z
#    x 2.215570 0.385210 -0.257010 
#    y 0.385210 3.311230 -0.707920 
#    z -0.257010 -0.707920 2.408520 
# 
# From -- ./inp_files/84225.got.cif
#   From: 2010.05.17/outbox.cif.g08.bks.cpg/sg2_43_cif.got.tgz:84225.got - 2010.06.03 11:33:40.
