data_PCOD9023251
_publ_section_title
;
Structure prediction by ZEFSAII (Michael W. Deem and Ramdas Pophale) SiO2 
 PCOD9023251
Probable space group: P -1
;
_chemical_formula_sum "Si O2"
_cell_formula_units_Z 12
_cell_length_a 5.304749
_cell_length_b 14.469048
_cell_length_c 13.392771
_cell_angle_alpha 125.496762
_cell_angle_beta 120.550441
_cell_angle_gamma 47.359028
_cell_volume 604.193763
_symmetry_space_group_name_H-M "P -1"
_symmetry_group_IT_number 2
_symmetry_cell_setting 'triclinic'
loop_
_space_group_symop_operation_xyz
x,y,z
-x,-y,-z
loop_
_atom_site_type_symbol
_atom_site_label
_atom_site_fract_x
_atom_site_fract_y
_atom_site_fract_z
Si Si1 0.574944 0.579773 0.981754
Si Si2 0.287897 0.517977 0.695002
Si Si3 0.620086 0.171612 0.772051
Si Si4 0.102479 0.620528 0.509911
Si Si5 0.148330 0.766878 0.349838
Si Si6 0.888991 0.911165 0.570856
O O1 0.370238 0.582456 0.843416
O O2 0.500000 0.500000 0.000000
O O3 0.402036 0.731375 0.084298
O O4 0.000000 0.500000 0.000000
O O5 0.074692 0.616446 0.622524
O O6 0.667921 0.384440 0.664555
O O7 0.096684 0.438336 0.623815
O O8 0.686543 0.225188 0.714970
O O9 0.248033 0.187778 0.717400
O O10 0.900709 0.010466 0.715036
O O11 0.500000 0.500000 0.500000
O O12 0.973026 0.771165 0.546386
O O13 0.149908 0.860719 0.496576
O O14 0.500000 0.000000 0.500000
#
# Coordination Sequence:
#
# PCOD9023251 Si02
#       6
#     2   2   2   2   2   2
#     4  12  24  40  68  97 134 171 221 271 322 392
#     4  11  23  39  66  94 133 169 225 265 331 383
#     4  11  22  39  61 100 126 168 213 273 326 378
#     4  11  24  42  63  96 132 176 215 275 327 390
#     4  11  20  38  64  96 130 160 214 272 322 378
#     4  10  22  39  67  93 132 169 220 272 328 383
#
# _framework density 19.861176
#
# number of rings (size 3 to 8) (size 9 to 14) (size 15 to 20)
#    0.000    1.000    5.000    2.500    2.333    1.333 
#    0.000    0.833    0.000    1.000    0.000    0.000 
#    0.000    0.000    0.000    0.000    0.000    0.000 
#
# Total GULP energy -66830.281118 kJ/mol
# GULP energy per Si atom -5569.190093 kJ/mol
# Density = 1.981597 g / cm^3
# Si number density = 19.861176 Si / 1000 Ang^3
#
#
#
# Elastic Constant Matrix: (Units=GPa)
#
#
# Indices 1 2 3 4 5 6 
#
# 1 86.1819 26.0975 60.1960 -7.2651 -8.8513 16.4270
# 2 26.0975 131.0648 70.6827 22.7946 -3.8898 27.5519
# 3 60.1960 70.6827 143.4256 46.6923 21.6842 -12.4085
# 4 -7.2651 22.7946 46.6923 42.7114 -2.1523 -1.4687
# 5 -8.8513 -3.8898 21.6842 -2.1523 22.0264 6.3341
# 6 16.4270 27.5519 -12.4085 -1.4687 6.3341 23.3544
#
#
#
# Elastic Compliance Matrix: (Units=1/GPa)
#
#
# Indices 1 2 3 4 5 6 
#
# 1 0.001657 -0.009123 0.009858 -0.005813 -0.016680 0.018993
# 2 -0.009123 0.007491 0.006023 -0.012558 -0.010300 0.002784
# 3 0.009858 0.006023 -0.007016 0.006316 0.019028 -0.022531
# 4 -0.005813 -0.012558 0.006316 0.022349 -0.016696 0.028193
# 5 -0.016680 -0.010300 0.019028 -0.016696 0.007636 0.030873
# 6 0.018993 0.002784 -0.022531 0.028193 0.030873 0.007604
#
#
# Mechanical properties :
#
#
# Convention : Reuss Voigt Hill
#
# Bulk Modulus (GPa) = 63.90044 74.95829 69.42937
# Shear Modulus (GPa) = 159.12624 31.19818 95.16221
#
# Velocity S-wave (km/s) = 8.96065 3.96765 6.92948
# Velocity P-wave (km/s) = 11.80258 7.66894 9.95273
#
# Compressibility (1/GPa) = 0.01564934
#
# Stress axis : x y z
#
# Youngs Moduli (GPa) = 603.45559 133.49110 -142.53282
#
# Poissons Ratio (x) = 1.21781 1.40507
# Poissons Ratio (y) = 5.50518 0.85853
# Poissons Ratio (z) = -5.94877 -0.80407
#
# Static dielectric constant tensor:
#      x y z
#    x 1.864420 -0.130030 0.018650 
#    y -0.130030 1.988150 -0.112210 
#    z 0.018650 -0.112210 1.869010 
# 
# From -- ./inp_files/72022.got.cif
#   From: 2010.05.17/outbox.cif.g08.bks.cpg/sg2_37_cif.got.tgz:72022.got - 2010.06.03 11:33:40.
