data_PCOD9023298
_publ_section_title
;
Structure prediction by ZEFSAII (Michael W. Deem and Ramdas Pophale) SiO2 
 PCOD9023298
Probable space group: P -1
;
_chemical_formula_sum "Si O2"
_cell_formula_units_Z 16
_cell_length_a 13.908807
_cell_length_b 8.557306
_cell_length_c 10.425836
_cell_angle_alpha 75.420822
_cell_angle_beta 137.232849
_cell_angle_gamma 124.676411
_cell_volume 661.627499
_symmetry_space_group_name_H-M "P -1"
_symmetry_group_IT_number 2
_symmetry_cell_setting 'triclinic'
loop_
_space_group_symop_operation_xyz
x,y,z
-x,-y,-z
loop_
_atom_site_type_symbol
_atom_site_label
_atom_site_fract_x
_atom_site_fract_y
_atom_site_fract_z
Si Si1 0.450302 0.813134 0.129342
Si Si2 0.859653 0.308869 0.822372
Si Si3 0.253025 0.746147 0.706211
Si Si4 0.521104 0.192450 0.545631
Si Si5 0.880540 0.009673 0.775619
Si Si6 0.110352 0.923651 0.873785
Si Si7 0.933096 0.672491 0.513241
Si Si8 0.352318 0.275755 0.855890
O O1 0.420712 0.754503 0.259505
O O2 0.570115 0.768647 0.178623
O O3 0.566033 0.053090 0.197707
O O4 0.287249 0.714845 0.893906
O O5 0.710551 0.342730 0.634748
O O6 0.908285 0.222890 0.768846
O O7 0.823250 0.138971 0.927692
O O8 0.000000 0.500000 0.000000
O O9 0.188353 0.560224 0.592309
O O10 0.097403 0.768852 0.558674
O O11 0.500000 0.000000 0.500000
O O12 0.329653 0.148772 0.371524
O O13 0.966626 0.968923 0.751202
O O14 0.000000 0.000000 0.000000
O O15 0.014356 0.742150 0.718038
O O16 0.279467 0.115494 0.932195
O O17 0.817269 0.747201 0.353995
O O18 0.500000 0.500000 0.000000
#
# Coordination Sequence:
#
# PCOD9023298 Si02
#       8
#     2   2   2   2   2   2   2   2
#     4  11  22  42  64  95 140 173 226 278 337 410
#     4  10  23  44  68  99 132 172 239 289 341 404
#     4  10  23  38  62  95 132 177 220 276 334 401
#     4  10  22  39  67  98 124 175 225 280 339 398
#     4   9  21  43  66  94 129 177 229 282 347 402
#     4  11  23  43  66  93 139 184 220 290 341 409
#     4  11  22  39  60  96 133 175 226 268 338 407
#     4  12  25  41  62  98 139 183 226 268 346 414
#
# _framework density 24.182791000000002
#
# number of rings (size 3 to 8) (size 9 to 14) (size 15 to 20)
#    0.000    1.500    2.500    1.875    3.500    3.000 
#    2.250    5.000    0.000    0.000    0.000    0.000 
#    0.000    0.000    0.000    0.000    0.000    0.000 
#
# Total GULP energy -89165.426102 kJ/mol
# GULP energy per Si atom -5572.839131 kJ/mol
# Density = 2.412775 g / cm^3
# Si number density = 24.182791 Si / 1000 Ang^3
#
#
#
# Elastic Constant Matrix: (Units=GPa)
#
#
# Indices 1 2 3 4 5 6 
#
# 1 162.4954 43.3180 44.7287 -6.0496 27.1997 -38.9896
# 2 43.3180 61.1814 26.6600 20.5746 -2.3809 -9.5460
# 3 44.7287 26.6600 118.2887 7.9302 18.8034 -13.9321
# 4 -6.0496 20.5746 7.9302 50.5428 -13.9112 -1.1952
# 5 27.1997 -2.3809 18.8034 -13.9112 65.0976 -10.7467
# 6 -38.9896 -9.5460 -13.9321 -1.1952 -10.7467 33.1526
#
#
#
# Elastic Compliance Matrix: (Units=1/GPa)
#
#
# Indices 1 2 3 4 5 6 
#
# 1 0.011500 -0.007449 -0.001423 0.004311 -0.002049 0.010273
# 2 -0.007449 0.026226 -0.003011 -0.010497 0.002353 -0.002089
# 3 -0.001423 -0.003011 0.010273 -0.001252 -0.002604 0.000887
# 4 0.004311 -0.010497 -0.001252 0.026071 0.004389 0.003884
# 5 -0.002049 0.002353 -0.002604 0.004389 0.018546 0.003343
# 6 0.010273 -0.002089 0.000887 0.003884 0.003343 0.043240
#
#
# Mechanical properties :
#
#
# Convention : Reuss Voigt Hill
#
# Bulk Modulus (GPa) = 41.26389 63.48655 52.37522
# Shear Modulus (GPa) = 29.81552 44.90918 37.36235
#
# Velocity S-wave (km/s) = 3.51511 4.31405 3.93491
# Velocity P-wave (km/s) = 5.79440 7.15014 6.50767
#
# Compressibility (1/GPa) = 0.02423426
#
# Stress axis : x y z
#
# Youngs Moduli (GPa) = 86.95835 38.12987 97.34315
#
# Poissons Ratio (x) = 0.28402 0.13851
# Poissons Ratio (y) = 0.64772 0.29307
# Poissons Ratio (z) = 0.12374 0.11480
#
# Static dielectric constant tensor:
#      x y z
#    x 2.114080 0.123590 0.012080 
#    y 0.123590 2.079980 0.028460 
#    z 0.012080 0.028460 2.010340 
# 
# From -- ./inp_files/447385.got.cif
#   From: 2010.05.17/outbox.cif.g08.bks.cpg/sg2_224_cif.got.tgz:447385.got - 2010.06.03 11:33:40.
