data_PCOD9023354
_publ_section_title
;
Structure prediction by ZEFSAII (Michael W. Deem and Ramdas Pophale) SiO2 
 PCOD9023354
Probable space group: P -1
;
_chemical_formula_sum "Si O2"
_cell_formula_units_Z 16
_cell_length_a 14.477070
_cell_length_b 22.651952
_cell_length_c 7.907295
_cell_angle_alpha 57.090916
_cell_angle_beta 125.158751
_cell_angle_gamma 161.462557
_cell_volume 673.960951
_symmetry_space_group_name_H-M "P -1"
_symmetry_group_IT_number 2
_symmetry_cell_setting 'triclinic'
loop_
_space_group_symop_operation_xyz
x,y,z
-x,-y,-z
loop_
_atom_site_type_symbol
_atom_site_label
_atom_site_fract_x
_atom_site_fract_y
_atom_site_fract_z
Si Si1 0.504191 0.628171 0.995163
Si Si2 0.611941 0.548618 0.353771
Si Si3 0.980416 0.869918 0.693908
Si Si4 0.554418 0.978568 0.934842
Si Si5 0.156449 0.555136 0.337833
Si Si6 0.922753 0.550848 0.935137
Si Si7 0.000903 0.322325 0.649937
Si Si8 0.784090 0.892492 0.660625
O O1 0.268225 0.477326 0.830165
O O2 0.688742 0.805071 0.874783
O O3 0.304806 0.525207 0.110092
O O4 0.697940 0.670725 0.162549
O O5 0.500000 0.500000 0.500000
O O6 0.866662 0.639166 0.437237
O O7 0.315198 0.346185 0.271192
O O8 0.935834 0.912156 0.700126
O O9 0.020831 0.927050 0.459700
O O10 0.247510 0.973204 0.869114
O O11 0.235384 0.764683 0.880001
O O12 0.729469 0.122751 0.752212
O O13 0.500000 0.000000 0.000000
O O14 0.001439 0.541144 0.184075
O O15 0.947853 0.373812 0.475695
O O16 0.469766 0.730936 0.489947
O O17 0.215372 0.568795 0.183120
#
# Coordination Sequence:
#
# PCOD9023354 Si02
#       8
#     2   2   2   2   2   2   2   2
#     4  11  21  38  62  92 119 162 211 246 300 371
#     4  12  23  40  65  92 127 160 201 256 318 362
#     4  11  21  40  63  91 120 157 210 250 306 360
#     4  12  23  38  61  94 126 160 205 252 302 366
#     4  10  22  41  61  89 123 165 202 250 313 357
#     4  11  23  40  62  91 126 166 200 255 307 369
#     4  11  22  39  64  91 121 165 207 253 299 369
#     4  10  22  39  68  87 114 164 208 262 290 364
#
# _framework density 23.740248000000001
#
# number of rings (size 3 to 8) (size 9 to 14) (size 15 to 20)
#    0.000    1.000    6.250    1.875    0.000    3.500 
#    0.000    3.125    0.000    0.000    0.000    0.000 
#    0.000    0.000    0.000    0.000    0.000    0.000 
#
# Total GULP energy -89504.105781 kJ/mol
# GULP energy per Si atom -5594.006611 kJ/mol
# Density = 2.368621 g / cm^3
# Si number density = 23.740248 Si / 1000 Ang^3
#
#
#
# Elastic Constant Matrix: (Units=GPa)
#
#
# Indices 1 2 3 4 5 6 
#
# 1 63.5434 7.1220 3.8393 8.2045 -4.5004 11.6878
# 2 7.1220 70.0974 24.0651 -16.6438 2.0758 11.7186
# 3 3.8393 24.0651 98.7211 -19.8110 21.4527 1.3371
# 4 8.2045 -16.6438 -19.8110 36.1036 7.3365 -4.2423
# 5 -4.5004 2.0758 21.4527 7.3365 40.7563 -3.9970
# 6 11.6878 11.7186 1.3371 -4.2423 -3.9970 24.7682
#
#
#
# Elastic Compliance Matrix: (Units=1/GPa)
#
#
# Indices 1 2 3 4 5 6 
#
# 1 0.019163 -0.001647 -0.002924 -0.008661 0.004428 -0.008874
# 2 -0.001647 0.018110 -0.002509 0.006896 -0.001687 -0.006747
# 3 -0.002924 -0.002509 0.014901 0.009864 -0.009628 0.001898
# 4 -0.008661 0.006896 0.009864 0.041613 -0.013476 0.005244
# 5 0.004428 -0.001687 -0.009628 -0.013476 0.032822 0.002217
# 6 -0.008874 -0.006747 0.001898 0.005244 0.002217 0.048908
#
#
# Mechanical properties :
#
#
# Convention : Reuss Voigt Hill
#
# Bulk Modulus (GPa) = 26.30602 33.60165 29.95384
# Shear Modulus (GPa) = 24.71021 33.48132 29.09576
#
# Velocity S-wave (km/s) = 3.22973 3.75950 3.50464
# Velocity P-wave (km/s) = 5.00130 5.74715 5.38715
#
# Compressibility (1/GPa) = 0.03801411
#
# Stress axis : x y z
#
# Youngs Moduli (GPa) = 52.18470 55.21883 67.11122
#
# Poissons Ratio (x) = 0.09096 0.19621
# Poissons Ratio (y) = 0.08596 0.16836
# Poissons Ratio (z) = 0.15257 0.13852
#
# Static dielectric constant tensor:
#      x y z
#    x 1.897900 -0.005990 -0.044350 
#    y -0.005990 1.878190 -0.036720 
#    z -0.044350 -0.036720 1.950350 
# 
# From -- ./inp_files/320056.got.cif
#   From: 2010.05.17/outbox.cif.g08.bks.cpg/sg2_161_cif.got.tgz:320056.got - 2010.06.03 11:33:40.
