data_PCOD9023894
_publ_section_title
;
Structure prediction by ZEFSAII (Michael W. Deem and Ramdas Pophale) SiO2 
 PCOD9023894
Probable space group: P -1
;
_chemical_formula_sum "Si O2"
_cell_formula_units_Z 16
_cell_length_a 15.457699
_cell_length_b 9.135323
_cell_length_c 5.554423
_cell_angle_alpha 119.291699
_cell_angle_beta 66.503721
_cell_angle_gamma 107.702362
_cell_volume 621.487522
_symmetry_space_group_name_H-M "P -1"
_symmetry_group_IT_number 2
_symmetry_cell_setting 'triclinic'
loop_
_space_group_symop_operation_xyz
x,y,z
-x,-y,-z
loop_
_atom_site_type_symbol
_atom_site_label
_atom_site_fract_x
_atom_site_fract_y
_atom_site_fract_z
Si Si1 0.243623 0.543587 0.383926
Si Si2 0.228695 0.906533 0.872887
Si Si3 0.848385 0.686423 0.310059
Si Si4 0.070223 0.580904 0.283355
Si Si5 0.572324 0.942293 0.182651
Si Si6 0.524399 0.265775 0.270296
Si Si7 0.357676 0.406572 0.776777
Si Si8 0.122751 0.943011 0.519771
O O1 0.252549 0.713220 0.669693
O O2 0.187297 0.378103 0.439777
O O3 0.177455 0.597271 0.286249
O O4 0.338111 0.490312 0.120922
O O5 0.320976 0.042845 0.832239
O O6 0.158657 0.931447 0.747206
O O7 0.193766 0.933792 0.204274
O O8 0.745973 0.673379 0.271555
O O9 0.902718 0.870046 0.337486
O O10 0.915680 0.548484 0.047512
O O11 0.050748 0.771763 0.420093
O O12 0.000000 0.500000 0.500000
O O13 0.576665 0.101800 0.119214
O O14 0.500000 0.000000 0.500000
O O15 0.531798 0.774879 0.950516
O O16 0.440498 0.288466 0.571505
O O17 0.598342 0.434634 0.309314
#
# Coordination Sequence:
#
# PCOD9023894 Si02
#       8
#     2   2   2   2   2   2   2   2
#     4  10  22  42  71  94 132 185 224 280 346 417
#     4  11  24  44  69  97 140 182 238 284 340 413
#     4  11  23  42  70 101 133 179 234 277 341 416
#     4  10  24  47  70 103 143 176 220 284 349 417
#     4  11  24  36  61  88 130 181 231 287 348 393
#     4  10  23  39  57  94 129 175 229 291 340 402
#     4  10  22  40  62  89 133 172 230 281 345 396
#     4  11  26  44  74 105 135 184 230 281 345 413
#
# _framework density 25.744681
#
# number of rings (size 3 to 8) (size 9 to 14) (size 15 to 20)
#    0.000    1.500    1.250    2.250   12.250    2.000 
#    0.000    3.750    0.000    0.000    0.000    0.000 
#    0.000    0.000    0.000    0.000    0.000    0.000 
#
# Total GULP energy -89463.009988 kJ/mol
# GULP energy per Si atom -5591.438124 kJ/mol
# Density = 2.568609 g / cm^3
# Si number density = 25.744681 Si / 1000 Ang^3
#
#
#
# Elastic Constant Matrix: (Units=GPa)
#
#
# Indices 1 2 3 4 5 6 
#
# 1 73.8182 28.3292 7.2764 16.9092 -4.9401 -10.5056
# 2 28.3292 139.5514 -6.9304 9.6318 -2.9036 5.7980
# 3 7.2764 -6.9304 60.7568 -9.9683 -12.4910 8.7764
# 4 16.9092 9.6318 -9.9683 45.9208 8.5455 -3.5032
# 5 -4.9401 -2.9036 -12.4910 8.5455 26.3274 -2.0816
# 6 -10.5056 5.7980 8.7764 -3.5032 -2.0816 36.5153
#
#
#
# Elastic Compliance Matrix: (Units=1/GPa)
#
#
# Indices 1 2 3 4 5 6 
#
# 1 0.018028 -0.003543 -0.003795 -0.006980 0.003949 0.006217
# 2 -0.003543 0.008142 0.001900 -0.000395 0.001046 -0.002747
# 3 -0.003795 0.001900 0.020023 0.003550 0.007415 -0.005443
# 4 -0.006980 -0.000395 0.003550 0.026708 -0.008394 -0.000715
# 5 0.003949 0.001046 0.007415 -0.008394 0.045158 0.000957
# 6 0.006217 -0.002747 -0.005443 -0.000715 0.000957 0.030905
#
#
# Mechanical properties :
#
#
# Convention : Reuss Voigt Hill
#
# Bulk Modulus (GPa) = 28.31261 36.83076 32.57169
# Shear Modulus (GPa) = 29.13552 38.11611 33.62581
#
# Velocity S-wave (km/s) = 3.36774 3.85196 3.61796
# Velocity P-wave (km/s) = 5.11308 5.84129 5.48927
#
# Compressibility (1/GPa) = 0.03531995
#
# Stress axis : x y z
#
# Youngs Moduli (GPa) = 55.46866 122.81241 49.94168
#
# Poissons Ratio (x) = 0.43508 0.18950
# Poissons Ratio (y) = 0.19650 -0.09489
# Poissons Ratio (z) = 0.21048 -0.23335
#
# Static dielectric constant tensor:
#      x y z
#    x 2.103640 -0.045930 0.052550 
#    y -0.045930 2.068720 0.027190 
#    z 0.052550 0.027190 2.001420 
# 
# From -- ./inp_files/107138.got.cif
#   From: 2010.05.17/outbox.cif.g08.bks.cpg/sg2_54_cif.got.tgz:107138.got - 2010.06.03 11:33:40.
