data_PCOD9023340
_publ_section_title
;
Structure prediction by ZEFSAII (Michael W. Deem and Ramdas Pophale) SiO2 
 PCOD9023340
Probable space group: P -1
;
_chemical_formula_sum "Si O2"
_cell_formula_units_Z 16
_cell_length_a 11.218465
_cell_length_b 5.608190
_cell_length_c 22.211386
_cell_angle_alpha 114.531378
_cell_angle_beta 146.713217
_cell_angle_gamma 77.069504
_cell_volume 676.113395
_symmetry_space_group_name_H-M "P -1"
_symmetry_group_IT_number 2
_symmetry_cell_setting 'triclinic'
loop_
_space_group_symop_operation_xyz
x,y,z
-x,-y,-z
loop_
_atom_site_type_symbol
_atom_site_label
_atom_site_fract_x
_atom_site_fract_y
_atom_site_fract_z
Si Si1 0.677793 0.834414 0.441628
Si Si2 0.976683 0.466325 0.263245
Si Si3 0.391948 0.576899 0.523204
Si Si4 0.964867 0.510320 0.133249
Si Si5 0.683535 0.052324 0.890787
Si Si6 0.728824 0.932466 0.104808
Si Si7 0.801902 0.923355 0.274179
Si Si8 0.311846 0.571144 0.180828
O O1 0.581177 0.605376 0.427650
O O2 0.575426 0.687763 0.321631
O O3 0.949345 0.940265 0.578565
O O4 0.574975 0.099744 0.425311
O O5 0.134009 0.483745 0.387407
O O6 0.070072 0.608921 0.254513
O O7 0.917922 0.168360 0.180746
O O8 0.788959 0.603898 0.224412
O O9 0.500000 0.500000 0.500000
O O10 0.757808 0.652383 0.063976
O O11 0.154273 0.611330 0.174163
O O12 0.834934 0.210352 0.025552
O O13 0.745227 0.256097 0.880989
O O14 0.415891 0.023150 0.781062
O O15 0.722778 0.752282 0.873484
O O16 0.776405 0.995646 0.201524
O O17 0.500000 0.000000 0.000000
#
# Coordination Sequence:
#
# PCOD9023340 Si02
#       8
#     2   2   2   2   2   2   2   2
#     4  11  24  44  67  99 140 181 229 289 332 414
#     4  10  22  39  68 103 134 175 213 282 362 410
#     4  11  22  38  68 101 141 174 219 274 354 420
#     4  11  26  44  69 103 140 178 231 294 344 421
#     4  12  28  47  71  96 139 191 239 291 330 403
#     4  11  22  39  72 102 137 173 222 280 362 416
#     4  10  24  44  67 105 139 174 234 285 353 413
#     4  12  29  47  70 100 137 192 242 277 344 399
#
# _framework density 23.664670000000001
#
# number of rings (size 3 to 8) (size 9 to 14) (size 15 to 20)
#    0.000    1.000    1.250    4.125    8.750    3.000 
#    0.000    0.000    0.000    0.000    0.000    0.000 
#    0.000    0.000    0.000    0.000    0.000    0.000 
#
# Total GULP energy -89109.760974 kJ/mol
# GULP energy per Si atom -5569.360061 kJ/mol
# Density = 2.361081 g / cm^3
# Si number density = 23.664670 Si / 1000 Ang^3
#
#
#
# Elastic Constant Matrix: (Units=GPa)
#
#
# Indices 1 2 3 4 5 6 
#
# 1 57.3151 35.3980 -6.4963 -10.2786 0.0280 -5.6781
# 2 35.3980 140.0665 37.9803 10.6797 -12.6882 5.9398
# 3 -6.4963 37.9803 100.0555 1.1658 -13.2331 -0.9802
# 4 -10.2786 10.6797 1.1658 26.7796 -2.5299 -5.7938
# 5 0.0280 -12.6882 -13.2331 -2.5299 34.6163 -9.6860
# 6 -5.6781 5.9398 -0.9802 -5.7938 -9.6860 29.1121
#
#
#
# Elastic Compliance Matrix: (Units=1/GPa)
#
#
# Indices 1 2 3 4 5 6 
#
# 1 0.029456 -0.010825 0.006388 0.018480 0.003436 0.012990
# 2 -0.010825 0.012404 -0.005387 -0.010394 -0.000211 -0.006962
# 3 0.006388 -0.005387 0.013105 0.005713 0.005012 0.005591
# 4 0.018480 -0.010394 0.005713 0.053159 0.007564 0.019014
# 5 0.003436 -0.000211 0.005012 0.007564 0.035224 0.014107
# 6 0.012990 -0.006962 0.005591 0.019014 0.014107 0.046970
#
#
# Mechanical properties :
#
#
# Convention : Reuss Voigt Hill
#
# Bulk Modulus (GPa) = 28.31391 47.91123 38.11257
# Shear Modulus (GPa) = 22.54902 33.47194 28.01048
#
# Velocity S-wave (km/s) = 3.09019 3.76497 3.44414
# Velocity P-wave (km/s) = 4.97222 6.26018 5.65300
#
# Compressibility (1/GPa) = 0.03531833
#
# Stress axis : x y z
#
# Youngs Moduli (GPa) = 33.94857 80.61651 76.30687
#
# Poissons Ratio (x) = 0.87268 -0.48745
# Poissons Ratio (y) = 0.36750 0.41103
# Poissons Ratio (z) = -0.21686 0.43424
#
# Static dielectric constant tensor:
#      x y z
#    x 1.891180 0.092900 0.095180 
#    y 0.092900 2.063640 -0.084020 
#    z 0.095180 -0.084020 2.143270 
# 
# From -- ./inp_files/94757.got.cif
#   From: 2010.05.17/outbox.cif.g08.bks.cpg/sg2_48_cif.got.tgz:94757.got - 2010.06.03 11:33:40.
