data_PCOD9023697
_publ_section_title
;
Structure prediction by ZEFSAII (Michael W. Deem and Ramdas Pophale) SiO2 
 PCOD9023697
Probable space group: P -1
;
_chemical_formula_sum "Si O2"
_cell_formula_units_Z 16
_cell_length_a 15.541349
_cell_length_b 8.892352
_cell_length_c 12.704741
_cell_angle_alpha 69.056778
_cell_angle_beta 48.452534
_cell_angle_gamma 108.838096
_cell_volume 734.472509
_symmetry_space_group_name_H-M "P -1"
_symmetry_group_IT_number 2
_symmetry_cell_setting 'triclinic'
loop_
_space_group_symop_operation_xyz
x,y,z
-x,-y,-z
loop_
_atom_site_type_symbol
_atom_site_label
_atom_site_fract_x
_atom_site_fract_y
_atom_site_fract_z
Si Si1 0.844202 0.509379 0.860882
Si Si2 0.548440 0.323748 0.827604
Si Si3 0.742768 0.035206 0.669798
Si Si4 0.454567 0.913826 0.303349
Si Si5 0.407707 0.343393 0.447960
Si Si6 0.779225 0.711628 0.727593
Si Si7 0.966624 0.277064 0.117508
Si Si8 0.287312 0.462723 0.694433
O O1 0.735505 0.549916 0.902600
O O2 0.934674 0.628450 0.872266
O O3 0.027600 0.685291 0.591976
O O4 0.681502 0.192825 0.063794
O O5 0.588736 0.242026 0.724855
O O6 0.527382 0.470354 0.747760
O O7 0.720640 0.541029 0.716815
O O8 0.365005 0.055232 0.109812
O O9 0.653889 0.043822 0.647877
O O10 0.693525 0.791171 0.757708
O O11 0.378126 0.730364 0.510376
O O12 0.311291 0.357826 0.608629
O O13 0.588849 0.465810 0.327097
O O14 0.250854 0.031949 0.625208
O O15 0.000000 0.000000 0.500000
O O16 0.078063 0.280809 0.947518
O O17 0.000000 0.500000 0.000000
#
# Coordination Sequence:
#
# PCOD9023697 Si02
#       8
#     2   2   2   2   2   2   2   2
#     4  11  25  40  64  96 133 165 220 267 313 391
#     4  11  23  42  68  94 132 174 210 267 326 383
#     4  11  23  41  66  92 132 172 211 263 323 379
#     4  11  24  44  64  96 132 167 220 268 320 383
#     4  10  23  45  67  97 130 167 223 267 324 392
#     4  10  22  40  60  93 127 163 214 259 310 386
#     4  12  25  42  69  98 130 172 216 272 332 380
#     4  10  24  44  69  94 128 174 218 272 323 388
#
# _framework density 21.78434
#
# number of rings (size 3 to 8) (size 9 to 14) (size 15 to 20)
#    0.000    1.250    1.250    4.125    1.750    3.500 
#    2.250    2.500    0.000    0.000    0.000    0.000 
#    0.000    0.000    0.000    0.000    0.000    0.000 
#
# Total GULP energy -89347.073011 kJ/mol
# GULP energy per Si atom -5584.192063 kJ/mol
# Density = 2.173476 g / cm^3
# Si number density = 21.784340 Si / 1000 Ang^3
#
#
#
# Elastic Constant Matrix: (Units=GPa)
#
#
# Indices 1 2 3 4 5 6 
#
# 1 121.7833 23.7146 25.7334 -13.2914 23.1748 -4.4033
# 2 23.7146 42.9918 -0.8090 -11.2650 -4.7801 5.4089
# 3 25.7334 -0.8090 83.9567 -12.5189 2.7344 -6.3578
# 4 -13.2914 -11.2650 -12.5189 37.0855 -3.5154 0.9583
# 5 23.1748 -4.7801 2.7344 -3.5154 34.5834 0.4915
# 6 -4.4033 5.4089 -6.3578 0.9583 0.4915 33.5967
#
#
#
# Elastic Compliance Matrix: (Units=1/GPa)
#
#
# Indices 1 2 3 4 5 6 
#
# 1 0.012362 -0.008257 -0.003408 -0.000164 -0.009207 0.002444
# 2 -0.008257 0.032232 0.003399 0.009152 0.010736 -0.006046
# 3 -0.003408 0.003399 0.013715 0.004604 0.002117 0.001439
# 4 -0.000164 0.009152 0.004604 0.031685 0.004254 -0.001590
# 5 -0.009207 0.010736 0.002117 0.004254 0.036880 -0.003195
# 6 0.002444 -0.006046 0.001439 -0.001590 -0.003195 0.031423
#
#
# Mechanical properties :
#
#
# Convention : Reuss Voigt Hill
#
# Bulk Modulus (GPa) = 23.93780 38.44551 31.19165
# Shear Modulus (GPa) = 26.48952 34.39264 30.44108
#
# Velocity S-wave (km/s) = 3.49089 3.97769 3.74222
# Velocity P-wave (km/s) = 5.22119 6.22757 5.74645
#
# Compressibility (1/GPa) = 0.04177494
#
# Stress axis : x y z
#
# Youngs Moduli (GPa) = 80.89376 31.02554 72.91381
#
# Poissons Ratio (x) = 0.25618 0.24850
# Poissons Ratio (y) = 0.66796 -0.24781
# Poissons Ratio (z) = 0.27569 -0.10545
#
# Static dielectric constant tensor:
#      x y z
#    x 1.786730 -0.046490 -0.012810 
#    y -0.046490 1.814740 0.016870 
#    z -0.012810 0.016870 1.876980 
# 
# From -- ./inp_files/447109.got.cif
#   From: 2010.05.17/outbox.cif.g08.bks.cpg/sg2_224_cif.got.tgz:447109.got - 2010.06.03 11:33:40.
