data_PCOD9023617
_publ_section_title
;
Structure prediction by ZEFSAII (Michael W. Deem and Ramdas Pophale) SiO2 
 PCOD9023617
Probable space group: P -1
;
_chemical_formula_sum "Si O2"
_cell_formula_units_Z 16
_cell_length_a 8.673332
_cell_length_b 7.763080
_cell_length_c 19.967656
_cell_angle_alpha 45.255012
_cell_angle_beta 65.574925
_cell_angle_gamma 51.748180
_cell_volume 749.276884
_symmetry_space_group_name_H-M "P -1"
_symmetry_group_IT_number 2
_symmetry_cell_setting 'triclinic'
loop_
_space_group_symop_operation_xyz
x,y,z
-x,-y,-z
loop_
_atom_site_type_symbol
_atom_site_label
_atom_site_fract_x
_atom_site_fract_y
_atom_site_fract_z
Si Si1 0.677823 0.211635 0.249993
Si Si2 0.000557 0.677892 0.888892
Si Si3 0.492101 0.147608 0.665505
Si Si4 0.595118 0.235271 0.474755
Si Si5 0.224503 0.671501 0.228684
Si Si6 0.880448 0.611258 0.783731
Si Si7 0.063146 0.940936 0.621436
Si Si8 0.826720 0.486499 0.573976
O O1 0.457599 0.458496 0.238365
O O2 0.798306 0.116810 0.323307
O O3 0.796440 0.318228 0.155062
O O4 0.665782 0.951884 0.291656
O O5 0.962326 0.563855 0.857222
O O6 0.836982 0.007091 0.836737
O O7 0.000000 0.500000 0.000000
O O8 0.574988 0.155108 0.575089
O O9 0.415492 0.464255 0.616811
O O10 0.662627 0.889361 0.747101
O O11 0.815104 0.020225 0.469460
O O12 0.397970 0.279601 0.462657
O O13 0.133657 0.627523 0.189045
O O14 0.152136 0.579182 0.333216
O O15 0.016343 0.693109 0.693260
O O16 0.856739 0.210902 0.604165
O O17 0.000000 0.500000 0.500000
#
# Coordination Sequence:
#
# PCOD9023617 Si02
#       8
#     2   2   2   2   2   2   2   2
#     4  10  22  41  64  93 121 174 211 260 337 383
#     4  11  25  48  72  97 127 160 215 278 341 408
#     4  10  22  40  58  91 136 169 225 260 319 377
#     4  11  23  36  59  91 133 181 219 273 300 376
#     4  11  23  43  68  93 136 171 212 273 322 383
#     4  10  23  43  64  96 128 168 218 264 333 393
#     4  11  22  37  61  90 131 175 224 258 317 370
#     4  12  24  38  61  95 137 184 225 260 316 374
#
# _framework density 21.353922000000001
#
# number of rings (size 3 to 8) (size 9 to 14) (size 15 to 20)
#    0.000    1.250    5.000    0.750    5.250    3.500 
#    0.000    2.500    0.000    0.000    0.000    0.000 
#    0.000    0.000    0.000    0.000    0.000    0.000 
#
# Total GULP energy -89357.292562 kJ/mol
# GULP energy per Si atom -5584.830785 kJ/mol
# Density = 2.130532 g / cm^3
# Si number density = 21.353922 Si / 1000 Ang^3
#
#
#
# Elastic Constant Matrix: (Units=GPa)
#
#
# Indices 1 2 3 4 5 6 
#
# 1 99.5114 17.9753 30.9239 4.0084 -2.3470 1.1356
# 2 17.9753 105.9632 24.9262 -0.6519 -3.1303 -11.8224
# 3 30.9239 24.9262 112.8574 11.6393 -3.5337 2.5464
# 4 4.0084 -0.6519 11.6393 17.8889 -1.9475 -1.4608
# 5 -2.3470 -3.1303 -3.5337 -1.9475 23.8456 2.5002
# 6 1.1356 -11.8224 2.5464 -1.4608 2.5002 31.8118
#
#
#
# Elastic Compliance Matrix: (Units=1/GPa)
#
#
# Indices 1 2 3 4 5 6 
#
# 1 0.011169 -0.001348 -0.002642 -0.000836 0.000543 -0.000769
# 2 -0.001348 0.010734 -0.002350 0.002648 0.000694 0.004292
# 3 -0.002642 -0.002350 0.010856 -0.006644 0.000708 -0.002009
# 4 -0.000836 0.002648 -0.006644 0.061259 0.003859 0.004056
# 5 0.000543 0.000694 0.000708 0.003859 0.042816 -0.003006
# 6 -0.000769 0.004292 -0.002009 0.004056 -0.003006 0.033641
#
#
# Mechanical properties :
#
#
# Convention : Reuss Voigt Hill
#
# Bulk Modulus (GPa) = 49.80058 51.77588 50.78823
# Shear Modulus (GPa) = 26.33681 31.00971 28.67326
#
# Velocity S-wave (km/s) = 3.51572 3.81488 3.66835
# Velocity P-wave (km/s) = 6.31288 6.61087 6.46359
#
# Compressibility (1/GPa) = 0.02008009
#
# Stress axis : x y z
#
# Youngs Moduli (GPa) = 89.53412 93.15869 92.11189
#
# Poissons Ratio (x) = 0.12559 0.24336
# Poissons Ratio (y) = 0.12070 0.21643
# Poissons Ratio (z) = 0.23655 0.21889
#
# Static dielectric constant tensor:
#      x y z
#    x 1.827570 0.034260 -0.030130 
#    y 0.034260 1.892320 -0.055720 
#    z -0.030130 -0.055720 1.740120 
# 
# From -- ./inp_files/493405.got.cif
#   From: 2010.05.17/outbox.cif.g08.bks.cpg/sg2_247_cif.got.tgz:493405.got - 2010.06.03 11:33:40.
