data_PCOD9023034
_publ_section_title
;
Structure prediction by ZEFSAII (Michael W. Deem and Ramdas Pophale) SiO2 
 PCOD9023034
Probable space group: P -1
;
_chemical_formula_sum "Si O2"
_cell_formula_units_Z 10
_cell_length_a 8.867425
_cell_length_b 10.890041
_cell_length_c 6.426827
_cell_angle_alpha 103.649957
_cell_angle_beta 102.296831
_cell_angle_gamma 39.452527
_cell_volume 382.749770
_symmetry_space_group_name_H-M "P -1"
_symmetry_group_IT_number 2
_symmetry_cell_setting 'triclinic'
loop_
_space_group_symop_operation_xyz
x,y,z
-x,-y,-z
loop_
_atom_site_type_symbol
_atom_site_label
_atom_site_fract_x
_atom_site_fract_y
_atom_site_fract_z
Si Si1 0.183089 0.075024 0.659809
Si Si2 0.686871 0.706523 0.756026
Si Si3 0.558778 0.564477 0.363713
Si Si4 0.933403 0.011467 0.751889
Si Si5 0.138831 0.575349 0.968602
O O1 0.146626 0.952680 0.675507
O O2 0.003395 0.266906 0.823229
O O3 0.455031 0.937037 0.735918
O O4 0.109735 0.100414 0.407792
O O5 0.678823 0.608994 0.531375
O O6 0.682077 0.632508 0.944226
O O7 0.932787 0.627031 0.810777
O O8 0.500000 0.500000 0.500000
O O9 0.313734 0.764281 0.273815
O O10 0.721255 0.428284 0.159227
O O11 0.000000 0.000000 0.000000
#
# Coordination Sequence:
#
# PCOD9023034 Si02
#       5
#     2   2   2   2   2
#     4  10  22  39  65  98 131 172 224 278 338 401
#     4  10  23  43  66 100 137 174 224 280 340 404
#     4  11  24  43  68 100 137 179 227 279 340 403
#     4  10  22  41  64  96 138 176 220 281 340 401
#     4  11  23  42  69  97 135 180 225 278 337 404
#
# _framework density 26.126733000000002
#
# number of rings (size 3 to 8) (size 9 to 14) (size 15 to 20)
#    0.000    1.600    0.000    3.600    0.000    9.600 
#    0.000    5.000    0.000   16.800    0.000    0.000 
#    0.000    0.000    0.000    0.000    0.000    0.000 
#
# Total GULP energy -55949.590607 kJ/mol
# GULP energy per Si atom -5594.959061 kJ/mol
# Density = 2.606727 g / cm^3
# Si number density = 26.126733 Si / 1000 Ang^3
#
#
#
# Elastic Constant Matrix: (Units=GPa)
#
#
# Indices 1 2 3 4 5 6 
#
# 1 76.6144 25.5409 69.0495 -3.9646 14.5835 -15.6594
# 2 25.5409 125.9338 93.3595 -5.4623 -0.1474 -17.6406
# 3 69.0495 93.3595 202.7577 -8.8650 18.6786 -21.5802
# 4 -3.9646 -5.4623 -8.8650 53.5539 -5.5273 8.5399
# 5 14.5835 -0.1474 18.6786 -5.5273 64.1800 -7.7705
# 6 -15.6594 -17.6406 -21.5802 8.5399 -7.7705 31.1453
#
#
#
# Elastic Compliance Matrix: (Units=1/GPa)
#
#
# Indices 1 2 3 4 5 6 
#
# 1 0.020297 0.001891 -0.006983 -0.000634 -0.001887 0.006141
# 2 0.001891 0.012809 -0.006259 -0.000087 0.001944 0.004378
# 3 -0.006983 -0.006259 0.010301 0.000466 -0.001434 -0.000404
# 4 -0.000634 -0.000087 0.000466 0.019628 0.001074 -0.005159
# 5 -0.001887 0.001944 -0.001434 0.001074 0.016897 0.003080
# 6 0.006141 0.004378 -0.000404 -0.005159 0.003080 0.039578
#
#
# Mechanical properties :
#
#
# Convention : Reuss Voigt Hill
#
# Bulk Modulus (GPa) = 48.29669 86.80063 67.54866
# Shear Modulus (GPa) = 33.53150 44.26625 38.89888
#
# Velocity S-wave (km/s) = 3.58637 4.12064 3.86275
# Velocity P-wave (km/s) = 5.97286 7.47894 6.76793
#
# Compressibility (1/GPa) = 0.02070535
#
# Stress axis : x y z
#
# Youngs Moduli (GPa) = 49.26806 78.07221 97.07364
#
# Poissons Ratio (x) = -0.14763 0.67789
# Poissons Ratio (y) = -0.09316 0.60755
# Poissons Ratio (z) = 0.34405 0.48862
#
# Static dielectric constant tensor:
#      x y z
#    x 2.051230 0.047120 -0.030820 
#    y 0.047120 2.145520 -0.023790 
#    z -0.030820 -0.023790 2.225190 
# 
# From -- ./inp_files/15834.got.cif
#   From: 2010.05.17/outbox.cif.g08.bks.cpg/sg2_8_cif.got.tgz:15834.got - 2010.06.03 11:33:40.
