data_PCOD9023911
_publ_section_title
;
Structure prediction by ZEFSAII (Michael W. Deem and Ramdas Pophale) SiO2 
 PCOD9023911
Probable space group: P -1
;
_chemical_formula_sum "Si O2"
_cell_formula_units_Z 16
_cell_length_a 9.529249
_cell_length_b 8.511579
_cell_length_c 11.732158
_cell_angle_alpha 121.441336
_cell_angle_beta 97.251796
_cell_angle_gamma 96.318539
_cell_volume 787.786379
_symmetry_space_group_name_H-M "P -1"
_symmetry_group_IT_number 2
_symmetry_cell_setting 'triclinic'
loop_
_space_group_symop_operation_xyz
x,y,z
-x,-y,-z
loop_
_atom_site_type_symbol
_atom_site_label
_atom_site_fract_x
_atom_site_fract_y
_atom_site_fract_z
Si Si1 0.643255 0.507976 0.298287
Si Si2 0.589923 0.669965 0.649198
Si Si3 0.002105 0.226492 0.960566
Si Si4 0.622901 0.920029 0.547430
Si Si5 0.096139 0.842461 0.433659
Si Si6 0.096869 0.190734 0.206997
Si Si7 0.870179 0.566978 0.157527
Si Si8 0.126742 0.673576 0.611530
O O1 0.485583 0.377218 0.254020
O O2 0.645024 0.722866 0.418221
O O3 0.717673 0.522510 0.188368
O O4 0.744195 0.407440 0.351314
O O5 0.500000 0.500000 0.500000
O O6 0.579972 0.857965 0.649395
O O7 0.760268 0.676239 0.678105
O O8 0.106576 0.284256 0.886159
O O9 0.090063 0.215776 0.081055
O O10 0.900152 0.025491 0.852259
O O11 0.909062 0.382105 0.036717
O O12 0.500000 0.000000 0.500000
O O13 0.771650 0.070539 0.602231
O O14 0.156942 0.793319 0.543776
O O15 0.991546 0.659738 0.298787
O O16 0.000000 0.000000 0.500000
O O17 0.949298 0.220341 0.260742
O O18 0.000000 0.500000 0.500000
#
# Coordination Sequence:
#
# PCOD9023911 Si02
#       8
#     2   2   2   2   2   2   2   2
#     4  11  22  39  58  91 129 166 208 258 318 386
#     4  10  22  40  62  90 132 163 199 258 329 392
#     4  10  23  40  64  89 127 169 218 259 298 371
#     4  11  23  38  55  93 133 166 196 254 333 387
#     4  12  21  36  65  99 127 157 212 273 322 371
#     4  11  22  41  64  94 122 168 213 257 317 376
#     4  11  21  39  61  92 125 165 213 264 310 365
#     4  12  20  35  63  97 124 160 206 267 326 371
#
# _framework density 20.310075000000001
#
# number of rings (size 3 to 8) (size 9 to 14) (size 15 to 20)
#    0.000    1.000    3.750    4.500    0.000    3.000 
#    0.000    1.250    0.000    0.000    0.000    0.000 
#    0.000    0.000    0.000    0.000    0.000    0.000 
#
# Total GULP energy -89330.533496 kJ/mol
# GULP energy per Si atom -5583.158343 kJ/mol
# Density = 2.026385 g / cm^3
# Si number density = 20.310075 Si / 1000 Ang^3
#
#
#
# Elastic Constant Matrix: (Units=GPa)
#
#
# Indices 1 2 3 4 5 6 
#
# 1 83.0335 32.0867 20.5163 -0.3440 -11.5235 12.0132
# 2 32.0867 105.5227 25.3718 -26.0413 -13.0039 12.8277
# 3 20.5163 25.3718 63.5684 -13.8460 -14.0901 4.5987
# 4 -0.3440 -26.0413 -13.8460 44.0991 5.8617 -10.7246
# 5 -11.5235 -13.0039 -14.0901 5.8617 29.0315 -8.8623
# 6 12.0132 12.8277 4.5987 -10.7246 -8.8623 42.6666
#
#
#
# Elastic Compliance Matrix: (Units=1/GPa)
#
#
# Indices 1 2 3 4 5 6 
#
# 1 0.015350 -0.004270 -0.003483 -0.004624 0.002409 -0.003325
# 2 -0.004270 0.013202 -0.001993 0.006789 0.001732 -0.000486
# 3 -0.003483 -0.001993 0.020106 0.004659 0.007175 0.002074
# 4 -0.004624 0.006789 0.004659 0.029679 -0.000670 0.006080
# 5 0.002409 0.001732 0.007175 -0.000670 0.041791 0.006540
# 6 -0.003325 -0.000486 0.002074 0.006080 0.006540 0.027183
#
#
# Mechanical properties :
#
#
# Convention : Reuss Voigt Hill
#
# Bulk Modulus (GPa) = 34.28697 45.34158 39.81428
# Shear Modulus (GPa) = 28.32435 34.76943 31.54689
#
# Velocity S-wave (km/s) = 3.73848 4.14204 3.94542
# Velocity P-wave (km/s) = 5.96267 6.72669 6.35617
#
# Compressibility (1/GPa) = 0.02916560
#
# Stress axis : x y z
#
# Youngs Moduli (GPa) = 65.14574 75.74435 49.73674
#
# Poissons Ratio (x) = 0.32346 0.17321
# Poissons Ratio (y) = 0.27820 0.09915
# Poissons Ratio (z) = 0.22687 0.15099
#
# Static dielectric constant tensor:
#      x y z
#    x 1.733970 0.004740 -0.035160 
#    y 0.004740 1.759670 -0.022940 
#    z -0.035160 -0.022940 1.761300 
# 
# From -- ./inp_files/383240.got.cif
#   From: 2010.05.17/outbox.cif.g08.bks.cpg/sg2_192_cif.got.tgz:383240.got - 2010.06.03 11:33:40.
