data_PCOD9023014
_publ_section_title
;
Structure prediction by ZEFSAII (Michael W. Deem and Ramdas Pophale) SiO2 
 PCOD9023014
Probable space group: P -1
;
_chemical_formula_sum "Si O2"
_cell_formula_units_Z 16
_cell_length_a 10.719135
_cell_length_b 4.943466
_cell_length_c 14.957051
_cell_angle_alpha 102.678658
_cell_angle_beta 66.081358
_cell_angle_gamma 86.170664
_cell_volume 695.973516
_symmetry_space_group_name_H-M "P -1"
_symmetry_group_IT_number 2
_symmetry_cell_setting 'triclinic'
loop_
_space_group_symop_operation_xyz
x,y,z
-x,-y,-z
loop_
_atom_site_type_symbol
_atom_site_label
_atom_site_fract_x
_atom_site_fract_y
_atom_site_fract_z
Si Si1 0.983314 0.742717 0.418054
Si Si2 0.480747 0.769298 0.678110
Si Si3 0.124856 0.244510 0.931013
Si Si4 0.765079 0.553478 0.254911
Si Si5 0.877161 0.891061 0.696388
Si Si6 0.635877 0.233639 0.668858
Si Si7 0.683624 0.826287 0.477480
Si Si8 0.053045 0.182918 0.134715
O O1 0.830642 0.667631 0.460761
O O2 0.083467 0.436704 0.371577
O O3 0.000000 0.000000 0.500000
O O4 0.000277 0.925151 0.337827
O O5 0.331111 0.684388 0.722431
O O6 0.581394 0.561222 0.700875
O O7 0.552534 0.728680 0.555722
O O8 0.507447 0.077779 0.716107
O O9 0.231982 0.344089 0.840203
O O10 0.158062 0.176216 0.019811
O O11 0.049995 0.019357 0.885943
O O12 0.000000 0.500000 0.000000
O O13 0.698094 0.782612 0.364791
O O14 0.930110 0.445073 0.215939
O O15 0.858092 0.884520 0.807175
O O16 0.756238 0.086382 0.689139
O O17 0.677488 0.130377 0.547523
#
# Coordination Sequence:
#
# PCOD9023014 Si02
#       8
#     2   2   2   2   2   2   2   2
#     4  12  23  35  58  90 129 167 207 246 308 366
#     4  10  24  41  57  87 126 173 209 244 294 363
#     4   9  21  40  62  95 122 150 200 270 327 369
#     4  11  21  40  64  87 122 163 207 257 309 371
#     4  12  24  39  64  90 125 170 202 259 311 370
#     4  10  24  40  57  86 130 167 209 246 291 363
#     4  10  23  36  56  91 125 165 211 246 300 363
#     4  10  22  39  65  97 119 154 207 262 330 366
#
# _framework density 22.989380000000001
#
# number of rings (size 3 to 8) (size 9 to 14) (size 15 to 20)
#    0.750    0.750    2.500    2.250    5.250    1.500 
#    0.000    0.000    0.000    1.500    0.000    0.000 
#    0.000    0.000    0.000    0.000    0.000    0.000 
#
# Total GULP energy -89090.128955 kJ/mol
# GULP energy per Si atom -5568.133060 kJ/mol
# Density = 2.293706 g / cm^3
# Si number density = 22.989380 Si / 1000 Ang^3
#
#
#
# Elastic Constant Matrix: (Units=GPa)
#
#
# Indices 1 2 3 4 5 6 
#
# 1 70.9794 10.3154 48.5298 -2.7021 -6.7406 -0.9237
# 2 10.3154 90.8722 50.5275 3.8994 -0.6476 4.9047
# 3 48.5298 50.5275 153.5278 -26.6672 3.3000 2.9138
# 4 -2.7021 3.8994 -26.6672 35.7959 6.4566 -9.0160
# 5 -6.7406 -0.6476 3.3000 6.4566 36.1457 -4.9721
# 6 -0.9237 4.9047 2.9138 -9.0160 -4.9721 35.8405
#
#
#
# Elastic Compliance Matrix: (Units=1/GPa)
#
#
# Indices 1 2 3 4 5 6 
#
# 1 0.019622 0.002625 -0.008210 -0.005893 0.005522 0.000098
# 2 0.002625 0.015276 -0.007258 -0.008102 0.002442 -0.003132
# 3 -0.008210 -0.007258 0.013582 0.011629 -0.004710 0.001949
# 4 -0.005893 -0.008102 0.011629 0.040842 -0.008346 0.009128
# 5 0.005522 0.002442 -0.004710 -0.008346 0.030989 0.002391
# 6 0.000098 -0.003132 0.001949 0.009128 0.002391 0.030802
#
#
# Mechanical properties :
#
#
# Convention : Reuss Voigt Hill
#
# Bulk Modulus (GPa) = 43.87264 59.34722 51.60993
# Shear Modulus (GPa) = 27.11547 35.29020 31.20284
#
# Velocity S-wave (km/s) = 3.43808 3.92224 3.68811
# Velocity P-wave (km/s) = 5.90642 6.81051 6.37452
#
# Compressibility (1/GPa) = 0.02279325
#
# Stress axis : x y z
#
# Youngs Moduli (GPa) = 50.96303 65.46205 73.62939
#
# Poissons Ratio (x) = -0.17182 0.60453
# Poissons Ratio (y) = -0.13376 0.53437
# Poissons Ratio (z) = 0.41843 0.47509
#
# Static dielectric constant tensor:
#      x y z
#    x 2.035580 0.101120 0.303480 
#    y 0.101120 2.139360 0.331040 
#    z 0.303480 0.331040 2.974670 
# 
# From -- ./inp_files/511083.got.cif
#   From: 2010.05.17/outbox.cif.g08.bks.cpg/sg2_256_cif.got.tgz:511083.got - 2010.06.03 11:33:40.
