data_PCOD9023630
_publ_section_title
;
Structure prediction by ZEFSAII (Michael W. Deem and Ramdas Pophale) SiO2 
 PCOD9023630
Probable space group: P -1
;
_chemical_formula_sum "Si O2"
_cell_formula_units_Z 12
_cell_length_a 7.271818
_cell_length_b 16.222861
_cell_length_c 19.055241
_cell_angle_alpha 18.139246
_cell_angle_beta 49.492144
_cell_angle_gamma 54.928106
_cell_volume 523.388688
_symmetry_space_group_name_H-M "P -1"
_symmetry_group_IT_number 2
_symmetry_cell_setting 'triclinic'
loop_
_space_group_symop_operation_xyz
x,y,z
-x,-y,-z
loop_
_atom_site_type_symbol
_atom_site_label
_atom_site_fract_x
_atom_site_fract_y
_atom_site_fract_z
Si Si1 0.148469 0.315493 0.288055
Si Si2 0.366415 0.393721 0.024700
Si Si3 0.815299 0.125704 0.139890
Si Si4 0.900511 0.181482 0.776127
Si Si5 0.846902 0.932069 0.768579
Si Si6 0.511258 0.183493 0.747379
O O1 0.177310 0.378277 0.147988
O O2 0.427290 0.341491 0.226739
O O3 0.053479 0.561070 0.152659
O O4 0.973736 0.052587 0.568129
O O5 0.533237 0.160865 0.185477
O O6 0.278846 0.359729 0.993790
O O7 0.938347 0.039665 0.249760
O O8 0.879024 0.954838 0.197318
O O9 0.701771 0.141011 0.795575
O O10 0.000000 0.500000 0.500000
O O11 0.748145 0.013761 0.012608
O O12 0.640386 0.087522 0.724320
O O13 0.500000 0.500000 0.500000
#
# Coordination Sequence:
#
# PCOD9023630 Si02
#       6
#     2   2   2   2   2   2
#     4   9  20  41  56  85 120 145 197 247 283 355
#     4   9  21  40  56  86 117 148 196 243 291 347
#     4   9  21  40  56  87 116 149 196 242 285 355
#     4  10  22  40  59  86 122 153 195 244 295 348
#     4  11  21  37  61  83 115 156 192 236 303 345
#     4  10  23  38  59  89 116 155 201 241 291 356
#
# _framework density 22.927513000000001
#
# number of rings (size 3 to 8) (size 9 to 14) (size 15 to 20)
#    1.000    1.333    0.000    1.500    2.333    4.667 
#    3.000    0.000    0.000    0.000    0.000    0.000 
#    0.000    0.000    0.000    0.000    0.000    0.000 
#
# Total GULP energy -66828.042531 kJ/mol
# GULP energy per Si atom -5569.003544 kJ/mol
# Density = 2.287533 g / cm^3
# Si number density = 22.927513 Si / 1000 Ang^3
#
#
#
# Elastic Constant Matrix: (Units=GPa)
#
#
# Indices 1 2 3 4 5 6 
#
# 1 84.7869 37.1403 4.2201 11.5596 -13.8111 -4.9902
# 2 37.1403 122.2094 39.7794 5.7139 -14.3731 1.1545
# 3 4.2201 39.7794 83.3643 7.9473 -16.9792 0.8931
# 4 11.5596 5.7139 7.9473 27.3039 0.4285 -2.7683
# 5 -13.8111 -14.3731 -16.9792 0.4285 17.1739 -9.5977
# 6 -4.9902 1.1545 0.8931 -2.7683 -9.5977 36.2710
#
#
#
# Elastic Compliance Matrix: (Units=1/GPa)
#
#
# Indices 1 2 3 4 5 6 
#
# 1 0.018859 -0.004969 0.006650 -0.008436 0.022155 0.007808
# 2 -0.004969 0.011344 -0.005328 0.001194 -0.000304 -0.000903
# 3 0.006650 -0.005328 0.019743 -0.007172 0.024193 0.006453
# 4 -0.008436 0.001194 -0.007172 0.042090 -0.014906 -0.001754
# 5 0.022155 -0.000304 0.024193 -0.014906 0.118318 0.032633
# 6 0.007808 -0.000903 0.006453 -0.001754 0.032633 0.037015
#
#
# Mechanical properties :
#
#
# Convention : Reuss Voigt Hill
#
# Bulk Modulus (GPa) = 23.44604 50.29336 36.86970
# Shear Modulus (GPa) = 18.59556 30.09781 24.34668
#
# Velocity S-wave (km/s) = 2.85100 3.62710 3.26221
# Velocity P-wave (km/s) = 4.59194 6.28686 5.50502
#
# Compressibility (1/GPa) = 0.04265113
#
# Stress axis : x y z
#
# Youngs Moduli (GPa) = 53.02624 88.15220 50.65005
#
# Poissons Ratio (x) = 0.43806 -0.33680
# Poissons Ratio (y) = 0.26351 0.26984
# Poissons Ratio (z) = -0.35260 0.46964
#
# Static dielectric constant tensor:
#      x y z
#    x 1.897550 -0.015560 0.014320 
#    y -0.015560 1.852110 -0.011510 
#    z 0.014320 -0.011510 1.848690 
# 
# From -- ./inp_files/547075.got.cif
#   From: 2010.05.17/outbox.cif.g08.bks.cpg/sg2_274_cif.got.tgz:547075.got - 2010.06.03 11:33:40.
