data_PCOD9023735
_publ_section_title
;
Structure prediction by ZEFSAII (Michael W. Deem and Ramdas Pophale) SiO2 
 PCOD9023735
Probable space group: P -1
;
_chemical_formula_sum "Si O2"
_cell_formula_units_Z 16
_cell_length_a 8.438780
_cell_length_b 14.162130
_cell_length_c 12.070953
_cell_angle_alpha 136.694958
_cell_angle_beta 87.845574
_cell_angle_gamma 123.134832
_cell_volume 645.389638
_symmetry_space_group_name_H-M "P -1"
_symmetry_group_IT_number 2
_symmetry_cell_setting 'triclinic'
loop_
_space_group_symop_operation_xyz
x,y,z
-x,-y,-z
loop_
_atom_site_type_symbol
_atom_site_label
_atom_site_fract_x
_atom_site_fract_y
_atom_site_fract_z
Si Si1 0.127202 0.043042 0.710073
Si Si2 0.612405 0.426333 0.973724
Si Si3 0.004556 0.672741 0.466511
Si Si4 0.613822 0.236576 0.600773
Si Si5 0.687942 0.497915 0.631321
Si Si6 0.102848 0.878674 0.339210
Si Si7 0.772566 0.136085 0.145367
Si Si8 0.476272 0.303326 0.225824
O O1 0.988869 0.828674 0.589218
O O2 0.158010 0.016598 0.557944
O O3 0.408226 0.240628 0.906419
O O4 0.989006 0.095810 0.744215
O O5 0.654167 0.343477 0.804898
O O6 0.500000 0.500000 0.000000
O O7 0.881185 0.642698 0.185806
O O8 0.172269 0.718774 0.407864
O O9 0.152682 0.747180 0.640091
O O10 0.734319 0.436753 0.276286
O O11 0.588502 0.341175 0.599851
O O12 0.362179 0.986050 0.396341
O O13 0.562035 0.371212 0.410519
O O14 0.619873 0.613038 0.741096
O O15 0.982885 0.676964 0.772723
O O16 0.500000 0.000000 0.000000
O O17 0.732656 0.946263 0.995546
#
# Coordination Sequence:
#
# PCOD9023735 Si02
#       8
#     2   2   2   2   2   2   2   2
#     4   9  19  38  58  81 115 150 195 244 291 349
#     4   9  20  37  58  84 112 148 195 242 289 345
#     4  11  24  38  58  90 123 159 197 242 301 358
#     4  11  22  36  57  86 118 154 196 241 296 355
#     4  10  22  40  62  88 118 157 204 248 293 350
#     4   9  19  36  59  82 110 152 194 244 294 343
#     4  11  23  40  61  88 125 161 197 245 299 353
#     4  10  22  40  61  87 120 157 200 249 295 349
#
# _framework density 24.791224
#
# number of rings (size 3 to 8) (size 9 to 14) (size 15 to 20)
#    0.000    2.000    0.000    3.375    0.000   10.000 
#    0.000    1.250    0.000    0.000    0.000    0.000 
#    0.000    0.000    0.000    0.000    0.000    0.000 
#
# Total GULP energy -89468.839929 kJ/mol
# GULP energy per Si atom -5591.802496 kJ/mol
# Density = 2.473480 g / cm^3
# Si number density = 24.791224 Si / 1000 Ang^3
#
#
#
# Elastic Constant Matrix: (Units=GPa)
#
#
# Indices 1 2 3 4 5 6 
#
# 1 99.0966 17.1630 30.6042 -15.6678 14.6034 -0.1839
# 2 17.1630 26.1039 14.4822 4.6736 5.7351 -1.6849
# 3 30.6042 14.4822 116.3523 12.5527 14.8071 14.1672
# 4 -15.6678 4.6736 12.5527 35.9269 -3.4402 0.3157
# 5 14.6034 5.7351 14.8071 -3.4402 28.7909 1.3222
# 6 -0.1839 -1.6849 14.1672 0.3157 1.3222 45.0733
#
#
#
# Elastic Compliance Matrix: (Units=1/GPa)
#
#
# Indices 1 2 3 4 5 6 
#
# 1 0.014290 -0.008314 -0.003334 0.008190 -0.002937 0.000824
# 2 -0.008314 0.048204 -0.002425 -0.009591 -0.005410 0.002756
# 3 -0.003334 -0.002425 0.011315 -0.005457 -0.004136 -0.003501
# 4 0.008190 -0.009591 -0.005457 0.035001 0.004699 0.001007
# 5 -0.002937 -0.005410 -0.004136 0.004699 0.039995 -0.000120
# 6 0.000824 0.002756 -0.003501 0.001007 -0.000120 0.023389
#
#
# Mechanical properties :
#
#
# Convention : Reuss Voigt Hill
#
# Bulk Modulus (GPa) = 21.89984 40.67238 31.28611
# Shear Modulus (GPa) = 23.19522 33.91177 28.55349
#
# Velocity S-wave (km/s) = 3.06211 3.70252 3.39744
# Velocity P-wave (km/s) = 4.62114 5.89235 5.29503
#
# Compressibility (1/GPa) = 0.04566244
#
# Stress axis : x y z
#
# Youngs Moduli (GPa) = 69.97965 20.74515 88.37912
#
# Poissons Ratio (x) = 0.17247 0.29466
# Poissons Ratio (y) = 0.58178 0.21436
# Poissons Ratio (z) = 0.23332 0.05032
#
# Static dielectric constant tensor:
#      x y z
#    x 2.016840 -0.044060 0.010700 
#    y -0.044060 1.952590 -0.006620 
#    z 0.010700 -0.006620 1.965720 
# 
# From -- ./inp_files/504456.got.cif
#   From: 2010.05.17/outbox.cif.g08.bks.cpg/sg2_253_cif.got.tgz:504456.got - 2010.06.03 11:33:40.
