data_PCOD9023923
_publ_section_title
;
Structure prediction by ZEFSAII (Michael W. Deem and Ramdas Pophale) SiO2 
 PCOD9023923
Probable space group: P -1
;
_chemical_formula_sum "Si O2"
_cell_formula_units_Z 16
_cell_length_a 16.943359
_cell_length_b 8.399599
_cell_length_c 23.722038
_cell_angle_alpha 62.188370
_cell_angle_beta 162.538393
_cell_angle_gamma 126.076532
_cell_volume 753.107000
_symmetry_space_group_name_H-M "P -1"
_symmetry_group_IT_number 2
_symmetry_cell_setting 'triclinic'
loop_
_space_group_symop_operation_xyz
x,y,z
-x,-y,-z
loop_
_atom_site_type_symbol
_atom_site_label
_atom_site_fract_x
_atom_site_fract_y
_atom_site_fract_z
Si Si1 0.141622 0.900373 0.783537
Si Si2 0.969527 0.246273 0.576489
Si Si3 0.724535 0.268618 0.283787
Si Si4 0.988081 0.069619 0.186250
Si Si5 0.748830 0.641667 0.461813
Si Si6 0.516501 0.969470 0.404696
Si Si7 0.810033 0.820405 0.813719
Si Si8 0.284585 0.727099 0.179576
O O1 0.935976 0.694996 0.638804
O O2 0.089010 0.088188 0.696133
O O3 0.059145 0.842963 0.802048
O O4 0.500000 0.000000 0.000000
O O5 0.221410 0.495895 0.716643
O O6 0.818437 0.227990 0.415794
O O7 0.704444 0.163794 0.456819
O O8 0.989998 0.283104 0.420562
O O9 0.366955 0.103665 0.047896
O O10 0.222814 0.998513 0.378483
O O11 0.165718 0.218702 0.229404
O O12 0.469114 0.394677 0.312216
O O13 0.566202 0.765104 0.324871
O O14 0.252312 0.992388 0.249941
O O15 0.390820 0.762386 0.311884
O O16 0.139237 0.872203 0.052785
O O17 0.000000 0.500000 0.000000
#
# Coordination Sequence:
#
# PCOD9023923 Si02
#       8
#     2   2   2   2   2   2   2   2
#     4  11  23  42  65  97 135 174 207 272 337 388
#     4  10  23  41  67  93 134 165 220 270 321 386
#     4  11  23  42  69 101 124 170 223 271 323 389
#     4  11  24  39  68  96 130 165 222 262 326 385
#     4  11  22  41  66  93 131 167 216 262 335 378
#     4  11  21  44  65  91 131 173 212 271 326 382
#     4  11  24  41  66  92 126 177 216 267 315 389
#     4  10  22  40  62  91 126 169 213 262 318 388
#
# _framework density 21.245322000000002
#
# number of rings (size 3 to 8) (size 9 to 14) (size 15 to 20)
#    0.000    1.250    5.000    1.500    0.000    5.000 
#    2.250    0.000    0.000    0.000    0.000    0.000 
#    0.000    0.000    0.000    0.000    0.000    0.000 
#
# Total GULP energy -89127.282656 kJ/mol
# GULP energy per Si atom -5570.455166 kJ/mol
# Density = 2.119697 g / cm^3
# Si number density = 21.245322 Si / 1000 Ang^3
#
#
#
# Elastic Constant Matrix: (Units=GPa)
#
#
# Indices 1 2 3 4 5 6 
#
# 1 69.4528 1.9480 30.3807 -31.7074 9.2794 4.9979
# 2 1.9480 37.7305 19.4820 -6.1035 11.9397 -8.3349
# 3 30.3807 19.4820 127.5743 -20.5052 12.2155 -9.2670
# 4 -31.7074 -6.1035 -20.5052 24.4154 -4.3113 4.5961
# 5 9.2794 11.9397 12.2155 -4.3113 37.6077 -7.7924
# 6 4.9979 -8.3349 -9.2670 4.5961 -7.7924 27.2596
#
#
#
# Elastic Compliance Matrix: (Units=1/GPa)
#
#
# Indices 1 2 3 4 5 6 
#
# 1 0.046688 0.007808 -0.002815 0.062287 -0.010202 -0.020548
# 2 0.007808 0.033751 -0.003797 0.013232 -0.009332 0.002699
# 3 -0.002815 -0.003797 0.009789 0.003149 -0.000502 0.002008
# 4 0.062287 0.013232 0.003149 0.131678 -0.012122 -0.031970
# 5 -0.010202 -0.009332 -0.000502 -0.012122 0.032982 0.010318
# 6 -0.020548 0.002699 0.002008 -0.031970 0.010318 0.050299
#
#
# Mechanical properties :
#
#
# Convention : Reuss Voigt Hill
#
# Bulk Modulus (GPa) = 10.79682 37.59767 24.19725
# Shear Modulus (GPa) = 14.98491 30.05301 22.51896
#
# Velocity S-wave (km/s) = 2.65868 3.76516 3.25922
# Velocity P-wave (km/s) = 3.81022 6.05287 5.05742
#
# Compressibility (1/GPa) = 0.09261990
#
# Stress axis : x y z
#
# Youngs Moduli (GPa) = 21.41871 29.62862 102.15541
#
# Poissons Ratio (x) = -0.23134 0.28758
# Poissons Ratio (y) = -0.16724 0.38789
# Poissons Ratio (z) = 0.06030 0.11250
#
# Static dielectric constant tensor:
#      x y z
#    x 1.797890 -0.027600 0.003060 
#    y -0.027600 1.828420 -0.018200 
#    z 0.003060 -0.018200 1.798540 
# 
# From -- ./inp_files/224375.got.cif
#   From: 2010.05.17/outbox.cif.g08.bks.cpg/sg2_113_cif.got.tgz:224375.got - 2010.06.03 11:33:40.
