data_PCOD9023703
_publ_section_title
;
Structure prediction by ZEFSAII (Michael W. Deem and Ramdas Pophale) SiO2 
 PCOD9023703
Probable space group: P -1
;
_chemical_formula_sum "Si O2"
_cell_formula_units_Z 12
_cell_length_a 5.165552
_cell_length_b 18.250289
_cell_length_c 5.103842
_cell_angle_alpha 88.384161
_cell_angle_beta 93.824659
_cell_angle_gamma 101.077253
_cell_volume 471.079428
_symmetry_space_group_name_H-M "P -1"
_symmetry_group_IT_number 2
_symmetry_cell_setting 'triclinic'
loop_
_space_group_symop_operation_xyz
x,y,z
-x,-y,-z
loop_
_atom_site_type_symbol
_atom_site_label
_atom_site_fract_x
_atom_site_fract_y
_atom_site_fract_z
Si Si1 0.570708 0.122395 0.451657
Si Si2 0.747569 0.408998 0.608037
Si Si3 0.044873 0.072315 0.174816
Si Si4 0.024492 0.800674 0.174694
Si Si5 0.140846 0.729333 0.683868
Si Si6 0.704102 0.545392 0.214917
O O1 0.785275 0.085708 0.310453
O O2 0.695978 0.143014 0.743856
O O3 0.597357 0.206612 0.331458
O O4 0.282142 0.075482 0.397185
O O5 0.809751 0.348396 0.413719
O O6 0.735524 0.486059 0.449662
O O7 0.455115 0.390781 0.711991
O O8 0.989458 0.423390 0.830162
O O9 0.130949 0.142810 0.977981
O O10 0.000000 0.000000 0.000000
O O11 0.955969 0.762005 0.454407
O O12 0.049068 0.737636 0.970634
O O13 0.500000 0.500000 0.000000
#
# Coordination Sequence:
#
# PCOD9023703 Si02
#       6
#     2   2   2   2   2   2
#     4   9  23  40  63  95 127 163 215 262 313 384
#     4  10  22  40  60  94 120 165 208 259 312 375
#     4  11  22  42  66  93 129 170 210 264 321 376
#     4   9  22  44  62  98 127 165 217 263 313 388
#     4   9  21  44  65  94 130 169 210 268 320 373
#     4  10  22  40  62  90 126 159 214 254 311 379
#
# _framework density 25.473410999999999
#
# number of rings (size 3 to 8) (size 9 to 14) (size 15 to 20)
#    1.000    1.333    0.000    1.000    2.333    6.667 
#    3.000    0.000    0.000    0.000    0.000    0.000 
#    0.000    0.000    0.000    0.000    0.000    0.000 
#
# Total GULP energy -66951.523719 kJ/mol
# GULP energy per Si atom -5579.293643 kJ/mol
# Density = 2.541543 g / cm^3
# Si number density = 25.473411 Si / 1000 Ang^3
#
#
#
# Elastic Constant Matrix: (Units=GPa)
#
#
# Indices 1 2 3 4 5 6 
#
# 1 142.2297 45.8084 54.2988 12.5146 26.8973 -30.2153
# 2 45.8084 93.5628 33.4438 30.0989 -1.3805 -18.0351
# 3 54.2988 33.4438 155.2258 20.0248 13.3989 -14.8697
# 4 12.5146 30.0989 20.0248 47.0234 -3.1429 -10.3016
# 5 26.8973 -1.3805 13.3989 -3.1429 40.4229 10.8575
# 6 -30.2153 -18.0351 -14.8697 -10.3016 10.8575 22.7903
#
#
#
# Elastic Compliance Matrix: (Units=1/GPa)
#
#
# Indices 1 2 3 4 5 6 
#
# 1 0.020195 -0.004324 -0.001416 0.004153 -0.022157 0.034861
# 2 -0.004324 0.016117 -0.001007 -0.008265 0.002767 0.001310
# 3 -0.001416 -0.001007 0.007901 -0.001888 -0.002632 0.002881
# 4 0.004153 -0.008265 -0.001888 0.028736 -0.003515 0.012397
# 5 -0.022157 0.002767 -0.002632 -0.003515 0.055462 -0.056914
# 6 0.034861 0.001310 0.002881 0.012397 -0.056914 0.125732
#
#
# Mechanical properties :
#
#
# Convention : Reuss Voigt Hill
#
# Bulk Modulus (GPa) = 32.55382 73.12447 52.83914
# Shear Modulus (GPa) = 17.99353 39.21181 28.60267
#
# Velocity S-wave (km/s) = 2.66064 3.92768 3.35452
# Velocity P-wave (km/s) = 4.71656 7.02406 5.98261
#
# Compressibility (1/GPa) = 0.03071836
#
# Stress axis : x y z
#
# Youngs Moduli (GPa) = 49.51760 62.04536 126.56115
#
# Poissons Ratio (x) = 0.26830 0.17925
# Poissons Ratio (y) = 0.21412 0.12745
# Poissons Ratio (z) = 0.07013 0.06248
#
# Static dielectric constant tensor:
#      x y z
#    x 2.064510 0.033350 -0.021760 
#    y 0.033350 2.014520 -0.024180 
#    z -0.021760 -0.024180 2.043720 
# 
# From -- ./inp_files/9050.got.cif
#   From: 2010.05.17/outbox.cif.g08.bks.cpg/sg2_5_cif.got.tgz:9050.got - 2010.06.03 11:33:40.
