data_PCOD9023753
_publ_section_title
;
Structure prediction by ZEFSAII (Michael W. Deem and Ramdas Pophale) SiO2 
 PCOD9023753
Probable space group: P -1
;
_chemical_formula_sum "Si O2"
_cell_formula_units_Z 16
_cell_length_a 13.208412
_cell_length_b 9.854101
_cell_length_c 16.670023
_cell_angle_alpha 105.745985
_cell_angle_beta 127.176553
_cell_angle_gamma 31.978071
_cell_volume 751.235278
_symmetry_space_group_name_H-M "P -1"
_symmetry_group_IT_number 2
_symmetry_cell_setting 'triclinic'
loop_
_space_group_symop_operation_xyz
x,y,z
-x,-y,-z
loop_
_atom_site_type_symbol
_atom_site_label
_atom_site_fract_x
_atom_site_fract_y
_atom_site_fract_z
Si Si1 0.229962 0.605924 0.859727
Si Si2 0.135298 0.668165 0.575099
Si Si3 0.935257 0.616917 0.681787
Si Si4 0.492457 0.589220 0.880623
Si Si5 0.460362 0.745982 0.595003
Si Si6 0.989108 0.243632 0.656190
Si Si7 0.390354 0.122549 0.597293
Si Si8 0.317713 0.680414 0.230669
O O1 0.407158 0.523967 0.868821
O O2 0.143028 0.541666 0.772988
O O3 0.401982 0.424310 0.995796
O O4 0.948573 0.971579 0.807654
O O5 0.221879 0.422266 0.597990
O O6 0.412266 0.487043 0.681787
O O7 0.035778 0.770434 0.451017
O O8 0.852650 0.995461 0.538022
O O9 0.765494 0.771727 0.542066
O O10 0.063122 0.335925 0.711990
O O11 0.696006 0.873847 0.676455
O O12 0.720537 0.350173 0.880331
O O13 0.218017 0.928293 0.762682
O O14 0.589394 0.525789 0.692086
O O15 0.680380 0.529453 0.592925
O O16 0.421664 0.948590 0.634599
#
# Coordination Sequence:
#
# PCOD9023753 Si02
#       8
#     2   2   2   2   2   2   2   2
#     4  11  24  44  65  82 118 164 201 256 289 344
#     4  11  22  37  59  93 125 157 195 240 304 359
#     4   9  19  38  63  90 116 158 199 240 302 349
#     4  11  25  43  62  87 116 162 212 239 298 348
#     4  11  22  35  60  89 125 159 190 241 303 355
#     4  10  22  40  61  89 125 154 195 248 295 361
#     4   9  19  36  59  91 125 155 191 238 301 367
#     4  12  24  39  61  91 122 155 202 247 298 355
#
# _framework density 21.298254
#
# number of rings (size 3 to 8) (size 9 to 14) (size 15 to 20)
#    0.000    1.500    3.750    1.875    1.750    1.000 
#    0.000    0.000    0.000    3.000    0.000    0.000 
#    0.000    0.000    0.000    0.000    0.000    0.000 
#
# Total GULP energy -89517.694738 kJ/mol
# GULP energy per Si atom -5594.855921 kJ/mol
# Density = 2.124978 g / cm^3
# Si number density = 21.298254 Si / 1000 Ang^3
#
#
#
# Elastic Constant Matrix: (Units=GPa)
#
#
# Indices 1 2 3 4 5 6 
#
# 1 66.9031 17.9591 6.1877 4.5846 2.5919 -5.5302
# 2 17.9591 60.1180 7.4980 -6.9826 -7.7220 -0.9284
# 3 6.1877 7.4980 55.4672 6.0113 -1.7706 9.5820
# 4 4.5846 -6.9826 6.0113 30.2583 5.4758 1.3103
# 5 2.5919 -7.7220 -1.7706 5.4758 27.8509 -2.0983
# 6 -5.5302 -0.9284 9.5820 1.3103 -2.0983 24.9286
#
#
#
# Elastic Compliance Matrix: (Units=1/GPa)
#
#
# Indices 1 2 3 4 5 6 
#
# 1 0.017259 -0.005571 -0.001612 -0.003351 -0.002276 0.004225
# 2 -0.005571 0.019841 -0.002557 0.005013 0.004919 0.000636
# 3 -0.001612 -0.002557 0.020426 -0.004233 0.000969 -0.008000
# 4 -0.003351 0.005013 -0.004233 0.036677 -0.005880 -0.001353
# 5 -0.002276 0.004919 0.000969 -0.005880 0.038917 0.002891
# 6 0.004225 0.000636 -0.008000 -0.001353 0.002891 0.044465
#
#
# Mechanical properties :
#
#
# Convention : Reuss Voigt Hill
#
# Bulk Modulus (GPa) = 26.28357 27.30866 26.79611
# Shear Modulus (GPa) = 23.83845 26.66379 25.25112
#
# Velocity S-wave (km/s) = 3.34918 3.54209 3.44698
# Velocity P-wave (km/s) = 5.22719 5.43860 5.33394
#
# Compressibility (1/GPa) = 0.03804658
#
# Stress axis : x y z
#
# Youngs Moduli (GPa) = 57.94215 50.40055 48.95791
#
# Poissons Ratio (x) = 0.28078 0.07890
# Poissons Ratio (y) = 0.32280 0.12518
# Poissons Ratio (z) = 0.09338 0.12886
#
# Static dielectric constant tensor:
#      x y z
#    x 1.791330 -0.003790 0.019050 
#    y -0.003790 1.799390 0.008020 
#    z 0.019050 0.008020 1.755970 
# 
# From -- ./inp_files/268774.got.cif
#   From: 2010.05.17/outbox.cif.g08.bks.cpg/sg2_135_cif.got.tgz:268774.got - 2010.06.03 11:33:40.
