data_PCOD9023584
_publ_section_title
;
Structure prediction by ZEFSAII (Michael W. Deem and Ramdas Pophale) SiO2 
 PCOD9023584
Probable space group: P -1
;
_chemical_formula_sum "Si O2"
_cell_formula_units_Z 12
_cell_length_a 11.759894
_cell_length_b 8.844766
_cell_length_c 8.937456
_cell_angle_alpha 68.776951
_cell_angle_beta 68.382175
_cell_angle_gamma 35.623945
_cell_volume 500.013316
_symmetry_space_group_name_H-M "P -1"
_symmetry_group_IT_number 2
_symmetry_cell_setting 'triclinic'
loop_
_space_group_symop_operation_xyz
x,y,z
-x,-y,-z
loop_
_atom_site_type_symbol
_atom_site_label
_atom_site_fract_x
_atom_site_fract_y
_atom_site_fract_z
Si Si1 0.011649 0.456908 0.334370
Si Si2 0.431915 0.151314 0.637591
Si Si3 0.148547 0.787375 0.872903
Si Si4 0.489078 0.396116 0.336530
Si Si5 0.664077 0.649492 0.859487
Si Si6 0.124540 0.998347 0.342372
O O1 0.797020 0.647703 0.307232
O O2 0.000000 0.500000 0.500000
O O3 0.116668 0.506028 0.203905
O O4 0.129497 0.169267 0.351850
O O5 0.463550 0.306278 0.525641
O O6 0.500000 0.000000 0.500000
O O7 0.535285 0.946441 0.795363
O O8 0.285030 0.787588 0.735932
O O9 0.314213 0.490704 0.960905
O O10 0.003607 0.858880 0.797644
O O11 0.000000 0.000000 0.000000
O O12 0.406526 0.386060 0.233908
O O13 0.337739 0.700822 0.318872
O O14 0.000000 0.000000 0.500000
#
# Coordination Sequence:
#
# PCOD9023584 Si02
#       6
#     2   2   2   2   2   2
#     4  12  24  46  75 108 149 194 247 306 369 438
#     4  10  22  39  75 108 140 190 247 295 364 438
#     4  12  29  47  77 109 156 197 243 310 374 439
#     4  11  24  47  78 112 145 195 255 299 369 444
#     4  11  25  43  75 106 144 199 236 303 373 437
#     4  12  27  47  76 114 146 194 255 306 367 442
#
# _framework density 23.999361
#
# number of rings (size 3 to 8) (size 9 to 14) (size 15 to 20)
#    0.000    0.667    6.667    0.500    7.000    2.667 
#    0.000    1.667    0.000    0.000    0.000    0.000 
#    0.000    0.000    0.000    0.000    0.000    0.000 
#
# Total GULP energy -67140.139837 kJ/mol
# GULP energy per Si atom -5595.011653 kJ/mol
# Density = 2.394474 g / cm^3
# Si number density = 23.999361 Si / 1000 Ang^3
#
#
#
# Elastic Constant Matrix: (Units=GPa)
#
#
# Indices 1 2 3 4 5 6 
#
# 1 130.8901 49.1941 30.1884 7.3704 -6.4977 0.4146
# 2 49.1941 143.6577 28.6807 -14.3828 6.8433 -8.7436
# 3 30.1884 28.6807 72.8815 -28.4491 5.9281 -3.3444
# 4 7.3704 -14.3828 -28.4491 49.0638 -12.9516 0.5879
# 5 -6.4977 6.8433 5.9281 -12.9516 45.8369 9.0455
# 6 0.4146 -8.7436 -3.3444 0.5879 9.0455 47.1452
#
#
#
# Elastic Compliance Matrix: (Units=1/GPa)
#
#
# Indices 1 2 3 4 5 6 
#
# 1 0.010407 -0.003177 -0.005242 -0.005143 0.001423 -0.001261
# 2 -0.003177 0.008646 -0.001121 0.001973 -0.001393 0.001795
# 3 -0.005242 -0.001121 0.021408 0.012874 0.000059 0.001185
# 4 -0.005143 0.001973 0.012874 0.030799 0.006058 -0.000222
# 5 0.001423 -0.001393 0.000059 0.006058 0.024942 -0.005128
# 6 -0.001261 0.001795 0.001185 -0.000222 -0.005128 0.022626
#
#
# Mechanical properties :
#
#
# Convention : Reuss Voigt Hill
#
# Bulk Modulus (GPa) = 46.76891 62.61729 54.69310
# Shear Modulus (GPa) = 34.47467 44.36690 39.42078
#
# Velocity S-wave (km/s) = 3.79421 4.30428 4.05727
# Velocity P-wave (km/s) = 6.22291 7.13094 6.69234
#
# Compressibility (1/GPa) = 0.02138172
#
# Stress axis : x y z
#
# Youngs Moduli (GPa) = 96.08666 115.66453 46.71156
#
# Poissons Ratio (x) = 0.36745 0.24486
# Poissons Ratio (y) = 0.30525 0.05235
# Poissons Ratio (z) = 0.50369 0.12963
#
# Static dielectric constant tensor:
#      x y z
#    x -1.563650 -1.418600 4.548670 
#    y -1.418600 1.366280 1.855200 
#    z 4.548670 1.855200 -4.008270 
# 
# From -- ./inp_files/237491.got.cif
#   From: 2010.05.17/outbox.cif.g08.bks.cpg/sg2_119_cif.got.tgz:237491.got - 2010.06.03 11:33:40.
