data_PCOD9023155
_publ_section_title
;
Structure prediction by ZEFSAII (Michael W. Deem and Ramdas Pophale) SiO2 
 PCOD9023155
Probable space group: P -1
;
_chemical_formula_sum "Si O2"
_cell_formula_units_Z 14
_cell_length_a 9.485352
_cell_length_b 10.392768
_cell_length_c 11.692500
_cell_angle_alpha 118.269527
_cell_angle_beta 141.673557
_cell_angle_gamma 71.378857
_cell_volume 626.656200
_symmetry_space_group_name_H-M "P -1"
_symmetry_group_IT_number 2
_symmetry_cell_setting 'triclinic'
loop_
_space_group_symop_operation_xyz
x,y,z
-x,-y,-z
loop_
_atom_site_type_symbol
_atom_site_label
_atom_site_fract_x
_atom_site_fract_y
_atom_site_fract_z
Si Si1 0.957001 0.828161 0.427166
Si Si2 0.579547 0.322036 0.593916
Si Si3 0.156406 0.637188 0.799296
Si Si4 0.843640 0.623984 0.805601
Si Si5 0.997404 0.175773 0.796523
Si Si6 0.701594 0.633359 0.350371
Si Si7 0.271147 0.901313 0.843780
O O1 0.924919 0.762467 0.253328
O O2 0.753598 0.771047 0.357031
O O3 0.182967 0.803398 0.635372
O O4 0.000000 0.000000 0.500000
O O5 0.742554 0.461698 0.710537
O O6 0.357536 0.309400 0.366666
O O7 0.501715 0.355416 0.686639
O O8 0.725472 0.183121 0.625763
O O9 0.298005 0.508984 0.788935
O O10 0.286624 0.792938 0.913582
O O11 0.061964 0.621437 0.860499
O O12 0.923276 0.629050 0.571822
O O13 0.903110 0.721325 0.995355
O O14 0.083731 0.015311 0.797775
O O15 0.500000 0.000000 0.000000
#
# Coordination Sequence:
#
# PCOD9023155 Si02
#       7
#     2   2   2   2   2   2   2
#     4   9  20  41  62  89 129 163 207 262 310 374
#     4  10  22  39  66  96 128 165 207 260 327 372
#     4   9  19  39  63  92 125 164 218 255 308 380
#     4  10  22  40  63  95 130 168 201 262 327 373
#     4  11  23  40  63  92 130 163 210 263 312 380
#     4   9  18  37  67  91 121 167 210 261 311 374
#     4  10  23  40  66  91 124 172 216 259 316 371
#
# _framework density 22.340799000000001
#
# number of rings (size 3 to 8) (size 9 to 14) (size 15 to 20)
#    0.000    2.286    0.000    1.286    4.000    2.857 
#    5.143   12.857    0.000    0.000    0.000    0.000 
#    0.000    0.000    0.000    0.000    0.000    0.000 
#
# Total GULP energy -78182.795836 kJ/mol
# GULP energy per Si atom -5584.485417 kJ/mol
# Density = 2.228995 g / cm^3
# Si number density = 22.340799 Si / 1000 Ang^3
#
#
#
# Elastic Constant Matrix: (Units=GPa)
#
#
# Indices 1 2 3 4 5 6 
#
# 1 176.7280 52.7254 41.3096 -2.7304 -15.1159 22.5346
# 2 52.7254 88.6097 18.8074 -5.3740 11.6385 0.1089
# 3 41.3096 18.8074 88.8237 -11.8861 -24.9420 5.5404
# 4 -2.7304 -5.3740 -11.8861 17.6430 -3.8227 7.1530
# 5 -15.1159 11.6385 -24.9420 -3.8227 39.1466 3.3135
# 6 22.5346 0.1089 5.5404 7.1530 3.3135 34.6380
#
#
#
# Elastic Compliance Matrix: (Units=1/GPa)
#
#
# Indices 1 2 3 4 5 6 
#
# 1 0.008916 -0.005773 -0.000382 0.003467 0.005846 -0.006996
# 2 -0.005773 0.017065 -0.005163 -0.004326 -0.011567 0.006528
# 3 -0.000382 -0.005163 0.020431 0.019315 0.017021 -0.008620
# 4 0.003467 -0.004326 0.019315 0.084630 0.025332 -0.025232
# 5 0.005846 -0.011567 0.017021 0.025332 0.045924 -0.016114
# 6 -0.006996 0.006528 -0.008620 -0.025232 -0.016114 0.041532
#
#
# Mechanical properties :
#
#
# Convention : Reuss Voigt Hill
#
# Bulk Modulus (GPa) = 42.05858 64.42737 53.24298
# Shear Modulus (GPa) = 20.07558 34.37344 27.22451
#
# Velocity S-wave (km/s) = 3.00093 3.92675 3.49463
# Velocity P-wave (km/s) = 5.55646 7.03279 6.33776
#
# Compressibility (1/GPa) = 0.02377636
#
# Stress axis : x y z
#
# Youngs Moduli (GPa) = 112.16002 58.59849 48.94540
#
# Poissons Ratio (x) = 0.33830 0.01870
# Poissons Ratio (y) = 0.64751 0.25269
# Poissons Ratio (z) = 0.04285 0.30253
#
# Static dielectric constant tensor:
#      x y z
#    x 1.824310 -0.000200 -0.019360 
#    y -0.000200 1.841780 -0.032240 
#    z -0.019360 -0.032240 1.887260 
# 
# From -- ./inp_files/391230.got.cif
#   From: 2010.05.17/outbox.cif.g08.bks.cpg/sg2_196_cif.got.tgz:391230.got - 2010.06.03 11:33:40.
