data_PCOD9023022
_publ_section_title
;
Structure prediction by ZEFSAII (Michael W. Deem and Ramdas Pophale) SiO2 
 PCOD9023022
Probable space group: P -1
;
_chemical_formula_sum "Si O2"
_cell_formula_units_Z 16
_cell_length_a 14.147820
_cell_length_b 9.891900
_cell_length_c 16.992493
_cell_angle_alpha 124.529127
_cell_angle_beta 19.086643
_cell_angle_gamma 123.907808
_cell_volume 638.460308
_symmetry_space_group_name_H-M "P -1"
_symmetry_group_IT_number 2
_symmetry_cell_setting 'triclinic'
loop_
_space_group_symop_operation_xyz
x,y,z
-x,-y,-z
loop_
_atom_site_type_symbol
_atom_site_label
_atom_site_fract_x
_atom_site_fract_y
_atom_site_fract_z
Si Si1 0.838197 0.919325 0.283921
Si Si2 0.179590 0.411610 0.711468
Si Si3 0.360252 0.165910 0.758999
Si Si4 0.878866 0.137457 0.542797
Si Si5 0.266993 0.219450 0.018427
Si Si6 0.412694 0.510189 0.832907
Si Si7 0.155444 0.241279 0.509975
Si Si8 0.737343 0.613895 0.761763
O O1 0.852599 0.751357 0.263965
O O2 0.816623 0.879199 0.195221
O O3 0.559067 0.013981 0.561434
O O4 0.106715 0.054290 0.126778
O O5 0.500000 0.500000 0.500000
O O6 0.128074 0.352375 0.643157
O O7 0.900577 0.515533 0.971859
O O8 0.554082 0.338607 0.646687
O O9 0.173716 0.215982 0.998500
O O10 0.904702 0.225571 0.636649
O O11 0.161412 0.206643 0.296063
O O12 0.834341 0.944243 0.528941
O O13 0.603575 0.193743 0.734347
O O14 0.267795 0.357627 0.131134
O O15 0.567069 0.672197 0.724386
O O16 0.473868 0.542025 0.888722
O O17 0.000000 0.500000 0.500000
#
# Coordination Sequence:
#
# PCOD9023022 Si02
#       8
#     2   2   2   2   2   2   2   2
#     4  11  26  47  67  97 137 177 231 290 337 399
#     4  12  26  43  69  99 135 180 226 280 340 404
#     4  11  26  45  68  98 132 180 235 285 339 402
#     4  10  22  39  65  97 131 175 221 275 338 407
#     4  12  22  40  70  96 130 178 225 274 345 406
#     4  11  25  44  68 101 138 177 226 281 340 407
#     4  10  22  42  64  95 136 172 219 275 337 405
#     4  11  24  42  67 104 143 177 224 283 341 410
#
# _framework density 25.060286999999999
#
# number of rings (size 3 to 8) (size 9 to 14) (size 15 to 20)
#    0.000    1.000    0.000    6.375    0.000   11.000 
#    0.000    5.000    0.000    0.000    0.000    0.000 
#    0.000    0.000    0.000    0.000    0.000    0.000 
#
# Total GULP energy -89399.230150 kJ/mol
# GULP energy per Si atom -5587.451884 kJ/mol
# Density = 2.500325 g / cm^3
# Si number density = 25.060287 Si / 1000 Ang^3
#
#
#
# Elastic Constant Matrix: (Units=GPa)
#
#
# Indices 1 2 3 4 5 6 
#
# 1 127.0653 44.8801 32.3881 17.3834 8.2622 8.7592
# 2 44.8801 143.2626 26.7463 -4.2698 -0.7231 4.6215
# 3 32.3881 26.7463 29.1783 6.7786 -8.2838 4.2283
# 4 17.3834 -4.2698 6.7786 37.9524 10.0111 6.4164
# 5 8.2622 -0.7231 -8.2838 10.0111 45.5511 5.8563
# 6 8.7592 4.6215 4.2283 6.4164 5.8563 58.3755
#
#
#
# Elastic Compliance Matrix: (Units=1/GPa)
#
#
# Indices 1 2 3 4 5 6 
#
# 1 0.012273 -0.001552 -0.012758 -0.002436 -0.004020 -0.000124
# 2 -0.001552 0.009046 -0.007904 0.003636 -0.001795 -0.000130
# 3 -0.012758 -0.007904 0.063003 -0.010144 0.016201 -0.002534
# 4 -0.002436 0.003636 -0.010144 0.032162 -0.008169 -0.001903
# 5 -0.004020 -0.001795 0.016201 -0.008169 0.027692 -0.002309
# 6 -0.000124 -0.000130 -0.002534 -0.001903 -0.002309 0.017784
#
#
# Mechanical properties :
#
#
# Convention : Reuss Voigt Hill
#
# Bulk Modulus (GPa) = 25.06726 56.39280 40.73003
# Shear Modulus (GPa) = 22.75980 41.40859 32.08419
#
# Velocity S-wave (km/s) = 3.01691 4.06933 3.58198
# Velocity P-wave (km/s) = 4.70746 6.68064 5.77889
#
# Compressibility (1/GPa) = 0.03989267
#
# Stress axis : x y z
#
# Youngs Moduli (GPa) = 81.47785 110.55193 15.87237
#
# Poissons Ratio (x) = 0.17156 0.20250
# Poissons Ratio (y) = 0.12644 0.12546
# Poissons Ratio (z) = 1.03951 0.87383
#
# Static dielectric constant tensor:
#      x y z
#    x 1.984320 -0.023070 0.041760 
#    y -0.023070 1.986930 -0.020550 
#    z 0.041760 -0.020550 2.075830 
# 
# From -- ./inp_files/573614.got.cif
#   From: 2010.05.17/outbox.cif.g08.bks.cpg/sg2_287_cif.got.tgz:573614.got - 2010.06.03 11:33:40.
