data_PCOD9023937
_publ_section_title
;
Structure prediction by ZEFSAII (Michael W. Deem and Ramdas Pophale) SiO2 
 PCOD9023937
Probable space group: P -1
;
_chemical_formula_sum "Si O2"
_cell_formula_units_Z 13
_cell_length_a 5.090394
_cell_length_b 21.333772
_cell_length_c 4.913459
_cell_angle_alpha 102.315533
_cell_angle_beta 89.563577
_cell_angle_gamma 117.089454
_cell_volume 461.655710
_symmetry_space_group_name_H-M "P -1"
_symmetry_group_IT_number 2
_symmetry_cell_setting 'triclinic'
loop_
_space_group_symop_operation_xyz
x,y,z
-x,-y,-z
loop_
_atom_site_type_symbol
_atom_site_label
_atom_site_fract_x
_atom_site_fract_y
_atom_site_fract_z
Si Si1 0.069832 0.386129 0.700958
Si Si2 0.547700 0.262879 0.803266
Si Si3 0.500000 0.500000 0.000000
Si Si4 0.227026 0.178687 0.209518
Si Si5 0.682489 0.946784 0.740035
Si Si6 0.768278 0.410352 0.199999
Si Si7 0.712165 0.090999 0.784259
O O1 0.882515 0.303165 0.716744
O O2 0.895455 0.398323 0.469205
O O3 0.061233 0.432549 0.016942
O O4 0.418648 0.426498 0.725360
O O5 0.336626 0.231388 0.515097
O O6 0.479921 0.206798 0.998070
O O7 0.538683 0.330641 0.016935
O O8 0.634026 0.463819 0.201355
O O9 0.154524 0.101696 0.272176
O O10 0.950025 0.161378 0.001438
O O11 0.408652 0.901243 0.497144
O O12 0.820410 0.028738 0.708801
O O13 0.564993 0.945643 0.043699
#
# Coordination Sequence:
#
# PCOD9023937 Si02
#       7
#     2   2   1   2   2   2   2
#     4  10  23  45  61  92 125 152 200 261 293 360
#     4  10  22  43  59  88 136 152 200 260 292 364
#     4  12  24  42  76  88 112 174 202 238 328 348
#     4  12  21  42  64  87 124 174 194 242 320 357
#     4  10  22  40  62  92 122 157 212 258 291 354
#     4  10  23  45  61  92 125 152 200 261 293 360
#     4  10  22  40  62  92 122 157 212 258 291 354
#
# _framework density 28.159509
#
# number of rings (size 3 to 8) (size 9 to 14) (size 15 to 20)
#    0.923    0.615    1.538    3.231    0.000    2.462 
#    8.308    6.154    0.000    0.000    0.000    0.000 
#    0.000    0.000    0.000    0.000    0.000    0.000 
#
# Total GULP energy -72494.224511 kJ/mol
# GULP energy per Si atom -5576.478809 kJ/mol
# Density = 2.809542 g / cm^3
# Si number density = 28.159509 Si / 1000 Ang^3
#
#
#
# Elastic Constant Matrix: (Units=GPa)
#
#
# Indices 1 2 3 4 5 6 
#
# 1 63.3266 28.0427 56.5024 -10.6070 13.7288 -1.8315
# 2 28.0427 91.6781 61.1787 -6.1747 7.6900 18.4796
# 3 56.5024 61.1787 227.4244 -0.2971 30.1747 22.9678
# 4 -10.6070 -6.1747 -0.2971 69.7115 21.8916 6.1904
# 5 13.7288 7.6900 30.1747 21.8916 40.8671 0.2433
# 6 -1.8315 18.4796 22.9678 6.1904 0.2433 31.6328
#
#
#
# Elastic Compliance Matrix: (Units=1/GPa)
#
#
# Indices 1 2 3 4 5 6 
#
# 1 0.024423 -0.004928 -0.004558 0.004693 -0.006465 0.006734
# 2 -0.004928 0.015592 -0.002075 0.001507 -0.000505 -0.008178
# 3 -0.004558 -0.002075 0.006987 0.000645 -0.003557 -0.004224
# 4 0.004693 0.001507 0.000645 0.019654 -0.012836 -0.004824
# 5 -0.006465 -0.000505 -0.003557 -0.012836 0.036211 0.004737
# 6 0.006734 -0.008178 -0.004224 -0.004824 0.004737 0.040755
#
#
# Mechanical properties :
#
#
# Convention : Reuss Voigt Hill
#
# Bulk Modulus (GPa) = 41.87611 74.87518 58.37565
# Shear Modulus (GPa) = 28.61985 44.22264 36.42125
#
# Velocity S-wave (km/s) = 3.19148 3.96717 3.60028
# Velocity P-wave (km/s) = 5.33704 6.90159 6.16912
#
# Compressibility (1/GPa) = 0.02387996
#
# Stress axis : x y z
#
# Youngs Moduli (GPa) = 40.94568 64.13427 143.11961
#
# Poissons Ratio (x) = 0.31603 0.65237
# Poissons Ratio (y) = 0.20176 0.29701
# Poissons Ratio (z) = 0.18664 0.13309
#
# Static dielectric constant tensor:
#      x y z
#    x 5.477540 2.167790 0.178390 
#    y 2.167790 3.717850 0.219150 
#    z 0.178390 0.219150 2.174850 
# 
# From -- ./inp_files/8914.got.cif
#   From: 2010.05.17/outbox.cif.g08.bks.cpg/sg2_5_cif.got.tgz:8914.got - 2010.06.03 11:33:40.
