data_PCOD9023680
_publ_section_title
;
Structure prediction by ZEFSAII (Michael W. Deem and Ramdas Pophale) SiO2 
 PCOD9023680
Probable space group: P -1
;
_chemical_formula_sum "Si O2"
_cell_formula_units_Z 14
_cell_length_a 20.640008
_cell_length_b 6.299407
_cell_length_c 7.557352
_cell_angle_alpha 71.202843
_cell_angle_beta 46.995257
_cell_angle_gamma 97.693176
_cell_volume 584.802241
_symmetry_space_group_name_H-M "P -1"
_symmetry_group_IT_number 2
_symmetry_cell_setting 'triclinic'
loop_
_space_group_symop_operation_xyz
x,y,z
-x,-y,-z
loop_
_atom_site_type_symbol
_atom_site_label
_atom_site_fract_x
_atom_site_fract_y
_atom_site_fract_z
Si Si1 0.207246 0.869078 0.790515
Si Si2 0.316854 0.189760 0.842690
Si Si3 0.012002 0.907803 0.200243
Si Si4 0.347038 0.365319 0.219114
Si Si5 0.142835 0.313534 0.149989
Si Si6 0.578357 0.103721 0.165258
Si Si7 0.460710 0.685129 0.246400
O O1 0.284818 0.036498 0.757517
O O2 0.250215 0.077525 0.494781
O O3 0.092127 0.806950 0.058239
O O4 0.205439 0.600560 0.871172
O O5 0.411504 0.478703 0.555053
O O6 0.351396 0.025632 0.939001
O O7 0.217210 0.200693 0.079036
O O8 0.912773 0.702293 0.555368
O O9 0.065056 0.145165 0.180311
O O10 0.000000 0.000000 0.000000
O O11 0.370005 0.535644 0.311523
O O12 0.352376 0.586088 0.023263
O O13 0.443700 0.333276 0.003400
O O14 0.500000 0.000000 0.500000
O O15 0.500885 0.970363 0.177828
#
# Coordination Sequence:
#
# PCOD9023680 Si02
#       7
#     2   2   2   2   2   2   2
#     4  10  23  43  67  96 135 172 215 267 339 400
#     4  10  23  39  64  96 129 176 221 268 333 390
#     4  10  23  45  71 104 131 164 223 272 335 413
#     4  10  23  41  63  94 128 176 225 271 329 394
#     4  10  23  45  72  95 138 177 208 278 342 396
#     4  12  24  38  64  92 133 177 226 281 321 379
#     4  10  22  40  60  89 131 176 224 271 330 387
#
# _framework density 23.939715
#
# number of rings (size 3 to 8) (size 9 to 14) (size 15 to 20)
#    0.000    1.714    1.429    1.286    2.000    6.286 
#    0.000    0.000    0.000    0.000    0.000    0.000 
#    0.000    0.000    0.000    0.000    0.000    0.000 
#
# Total GULP energy -78143.869941 kJ/mol
# GULP energy per Si atom -5581.704996 kJ/mol
# Density = 2.388523 g / cm^3
# Si number density = 23.939715 Si / 1000 Ang^3
#
#
#
# Elastic Constant Matrix: (Units=GPa)
#
#
# Indices 1 2 3 4 5 6 
#
# 1 79.8493 17.2742 14.4547 9.7786 16.1423 9.0554
# 2 17.2742 81.9447 39.9871 -15.5741 9.3571 -5.6347
# 3 14.4547 39.9871 125.6194 -2.3489 4.0903 -13.4604
# 4 9.7786 -15.5741 -2.3489 41.8960 1.0738 8.4684
# 5 16.1423 9.3571 4.0903 1.0738 29.3236 7.0045
# 6 9.0554 -5.6347 -13.4604 8.4684 7.0045 44.5554
#
#
#
# Elastic Compliance Matrix: (Units=1/GPa)
#
#
# Indices 1 2 3 4 5 6 
#
# 1 0.015436 -0.002969 -0.000893 -0.004195 -0.006815 -0.001914
# 2 -0.002969 0.016831 -0.004716 0.006655 -0.003462 0.000587
# 3 -0.000893 -0.004716 0.009841 -0.001570 -0.000001 0.002857
# 4 -0.004195 0.006655 -0.001570 0.028068 0.000374 -0.004174
# 5 -0.006815 -0.003462 -0.000001 0.000374 0.040247 -0.005452
# 6 -0.001914 0.000587 0.002857 -0.004174 -0.005452 0.025420
#
#
# Mechanical properties :
#
#
# Convention : Reuss Voigt Hill
#
# Bulk Modulus (GPa) = 40.07561 47.87170 43.97366
# Shear Modulus (GPa) = 30.99495 37.53485 34.26490
#
# Velocity S-wave (km/s) = 3.60211 3.96396 3.78736
# Velocity P-wave (km/s) = 5.83754 6.40240 6.12648
#
# Compressibility (1/GPa) = 0.02495283
#
# Stress axis : x y z
#
# Youngs Moduli (GPa) = 64.78414 59.41370 101.61313
#
# Poissons Ratio (x) = 0.17640 0.09071
# Poissons Ratio (y) = 0.19235 0.47921
# Poissons Ratio (z) = 0.05783 0.28019
#
# Static dielectric constant tensor:
#      x y z
#    x 2.143850 0.006210 0.150410 
#    y 0.006210 1.885770 -0.035900 
#    z 0.150410 -0.035900 2.023210 
# 
# From -- ./inp_files/350683.got.cif
#   From: 2010.05.17/outbox.cif.g08.bks.cpg/sg2_176_cif.got.tgz:350683.got - 2010.06.03 11:33:40.
