data_PCOD9023253
_publ_section_title
;
Structure prediction by ZEFSAII (Michael W. Deem and Ramdas Pophale) SiO2 
 PCOD9023253
Probable space group: P -1
;
_chemical_formula_sum "Si O2"
_cell_formula_units_Z 16
_cell_length_a 9.632892
_cell_length_b 15.220828
_cell_length_c 8.344367
_cell_angle_alpha 68.598678
_cell_angle_beta 145.684841
_cell_angle_gamma 101.255733
_cell_volume 628.877084
_symmetry_space_group_name_H-M "P -1"
_symmetry_group_IT_number 2
_symmetry_cell_setting 'triclinic'
loop_
_space_group_symop_operation_xyz
x,y,z
-x,-y,-z
loop_
_atom_site_type_symbol
_atom_site_label
_atom_site_fract_x
_atom_site_fract_y
_atom_site_fract_z
Si Si1 0.609149 0.269566 0.412841
Si Si2 0.132426 0.632245 0.189198
Si Si3 0.154572 0.998085 0.488843
Si Si4 0.571974 0.376323 0.842494
Si Si5 0.091335 0.115905 0.870632
Si Si6 0.547655 0.797616 0.006780
Si Si7 0.003776 0.529529 0.669428
Si Si8 0.734596 0.827095 0.674896
O O1 0.703318 0.362733 0.497340
O O2 0.438872 0.272716 0.091113
O O3 0.487778 0.228879 0.477239
O O4 0.843635 0.188206 0.641219
O O5 0.317700 0.602485 0.238399
O O6 0.940440 0.564281 0.098349
O O7 0.974011 0.740357 0.938026
O O8 0.362576 0.900733 0.747147
O O9 0.964905 0.985303 0.171099
O O10 0.272384 0.091344 0.516397
O O11 0.000000 0.000000 0.500000
O O12 0.281685 0.424275 0.574439
O O13 0.553869 0.263884 0.914625
O O14 0.785351 0.406332 0.141873
O O15 0.188078 0.169123 0.774689
O O16 0.266763 0.116874 0.191711
O O17 0.000000 0.500000 0.500000
#
# Coordination Sequence:
#
# PCOD9023253 Si02
#       8
#     2   2   2   2   2   2   2   2
#     4   9  21  39  68  94 133 173 230 275 345 411
#     4  11  25  44  70 102 138 176 224 292 343 410
#     4  11  23  38  60  94 133 175 228 281 344 407
#     4  12  28  46  74 106 141 182 229 290 352 405
#     4   9  21  39  61  89 131 173 230 275 338 403
#     4  10  23  41  66  95 134 180 227 282 339 418
#     4  12  29  48  76 103 139 184 235 282 349 419
#     4  10  22  39  67  93 133 177 225 275 344 407
#
# _framework density 25.442173
#
# number of rings (size 3 to 8) (size 9 to 14) (size 15 to 20)
#    0.000    1.500    0.000    3.000   12.250    8.000 
#    0.000    0.000    0.000    0.000    0.000    0.000 
#    0.000    0.000    0.000    0.000    0.000    0.000 
#
# Total GULP energy -89426.009913 kJ/mol
# GULP energy per Si atom -5589.125620 kJ/mol
# Density = 2.538426 g / cm^3
# Si number density = 25.442173 Si / 1000 Ang^3
#
#
#
# Elastic Constant Matrix: (Units=GPa)
#
#
# Indices 1 2 3 4 5 6 
#
# 1 148.3790 32.9326 26.6977 -5.2830 12.8470 8.8179
# 2 32.9326 87.2634 26.0564 -16.3833 11.5772 20.9677
# 3 26.6977 26.0564 46.7112 -5.5548 21.7978 -8.2963
# 4 -5.2830 -16.3833 -5.5548 38.0265 10.0261 -5.6289
# 5 12.8470 11.5772 21.7978 10.0261 36.5731 2.0881
# 6 8.8179 20.9677 -8.2963 -5.6289 2.0881 51.0172
#
#
#
# Elastic Compliance Matrix: (Units=1/GPa)
#
#
# Indices 1 2 3 4 5 6 
#
# 1 0.007860 -0.001515 -0.004170 -0.000502 0.000427 -0.001487
# 2 -0.001515 0.017886 -0.009962 0.004845 -0.000054 -0.008172
# 3 -0.004170 -0.009962 0.045477 0.010847 -0.026287 0.014483
# 4 -0.000502 0.004845 0.010847 0.035238 -0.017737 0.004473
# 5 0.000427 -0.000054 -0.026287 -0.017737 0.048211 -0.008256
# 6 -0.001487 -0.008172 0.014483 0.004473 -0.008256 0.026404
#
#
# Mechanical properties :
#
#
# Convention : Reuss Voigt Hill
#
# Bulk Modulus (GPa) = 25.04367 50.41412 37.72889
# Shear Modulus (GPa) = 22.15538 38.23451 30.19494
#
# Velocity S-wave (km/s) = 2.95416 3.88080 3.44874
# Velocity P-wave (km/s) = 4.63689 6.31973 5.54255
#
# Compressibility (1/GPa) = 0.03993025
#
# Stress axis : x y z
#
# Youngs Moduli (GPa) = 127.23390 55.90929 21.98895
#
# Poissons Ratio (x) = 0.08468 0.09170
# Poissons Ratio (y) = 0.19270 0.21904
# Poissons Ratio (z) = 0.53060 0.55694
#
# Static dielectric constant tensor:
#      x y z
#    x 2.002520 0.022700 -0.053610 
#    y 0.022700 2.032870 0.029690 
#    z -0.053610 0.029690 2.178670 
# 
# From -- ./inp_files/90920.got.cif
#   From: 2010.05.17/outbox.cif.g08.bks.cpg/sg2_46_cif.got.tgz:90920.got - 2010.06.03 11:33:40.
