data_PCOD9023689
_publ_section_title
;
Structure prediction by ZEFSAII (Michael W. Deem and Ramdas Pophale) SiO2 
 PCOD9023689
Probable space group: P -1
;
_chemical_formula_sum "Si O2"
_cell_formula_units_Z 16
_cell_length_a 9.316743
_cell_length_b 9.533141
_cell_length_c 13.718065
_cell_angle_alpha 61.222602
_cell_angle_beta 72.397200
_cell_angle_gamma 109.623509
_cell_volume 831.930498
_symmetry_space_group_name_H-M "P -1"
_symmetry_group_IT_number 2
_symmetry_cell_setting 'triclinic'
loop_
_space_group_symop_operation_xyz
x,y,z
-x,-y,-z
loop_
_atom_site_type_symbol
_atom_site_label
_atom_site_fract_x
_atom_site_fract_y
_atom_site_fract_z
Si Si1 0.037925 0.303640 0.527315
Si Si2 0.124763 0.143992 0.013923
Si Si3 0.043716 0.951876 0.706523
Si Si4 0.125981 0.525199 0.873205
Si Si5 0.681633 0.273400 0.633992
Si Si6 0.887616 0.564698 0.755955
Si Si7 0.504809 0.187697 0.905836
Si Si8 0.409498 0.966760 0.634410
O O1 0.206975 0.493775 0.484144
O O2 0.048595 0.368356 0.391026
O O3 0.847102 0.250137 0.629382
O O4 0.049874 0.122254 0.592368
O O5 0.154607 0.353017 0.924718
O O6 0.315998 0.164791 0.970972
O O7 0.021889 0.060002 0.166024
O O8 0.000000 0.000000 0.000000
O O9 0.911059 0.744123 0.749704
O O10 0.241950 0.989021 0.654692
O O11 0.314100 0.743300 0.764405
O O12 0.016211 0.516604 0.802243
O O13 0.000000 0.500000 0.000000
O O14 0.551760 0.219713 0.770919
O O15 0.562547 0.129701 0.620032
O O16 0.678433 0.376879 0.859473
O O17 0.500000 0.000000 0.000000
O O18 0.500000 0.000000 0.500000
#
# Coordination Sequence:
#
# PCOD9023689 Si02
#       8
#     2   2   2   2   2   2   2   2
#     4  10  22  41  65  90 129 171 210 270 342 383
#     4  12  25  41  66  97 130 179 222 266 334 392
#     4  11  23  41  63  92 129 169 216 272 326 394
#     4  11  23  45  68  92 136 177 212 275 331 390
#     4  10  22  40  60  91 127 168 213 268 324 391
#     4  10  22  41  65  91 127 167 219 267 333 393
#     4  11  24  38  62  95 130 168 218 273 324 390
#     4  11  24  40  67  96 126 171 223 267 327 386
#
# _framework density 19.232375999999999
#
# number of rings (size 3 to 8) (size 9 to 14) (size 15 to 20)
#    0.000    1.250    2.500    4.125    1.750    7.000 
#    0.000    0.000    0.000    0.000    0.000    0.000 
#    0.000    0.000    0.000    0.000    0.000    0.000 
#
# Total GULP energy -89435.184585 kJ/mol
# GULP energy per Si atom -5589.699037 kJ/mol
# Density = 1.918860 g / cm^3
# Si number density = 19.232376 Si / 1000 Ang^3
#
#
#
# Elastic Constant Matrix: (Units=GPa)
#
#
# Indices 1 2 3 4 5 6 
#
# 1 118.7400 76.1232 57.9744 -13.2136 -7.6064 -15.7289
# 2 76.1232 159.2659 57.1366 -8.1015 -3.5899 11.7456
# 3 57.9744 57.1366 113.2269 4.4363 -14.2789 -1.8827
# 4 -13.2136 -8.1015 4.4363 34.7528 -9.8679 6.0822
# 5 -7.6064 -3.5899 -14.2789 -9.8679 36.9693 -1.3498
# 6 -15.7289 11.7456 -1.8827 6.0822 -1.3498 47.8852
#
#
#
# Elastic Compliance Matrix: (Units=1/GPa)
#
#
# Indices 1 2 3 4 5 6 
#
# 1 0.016356 -0.006137 -0.005073 0.005043 0.002378 0.006105
# 2 -0.006137 0.010446 -0.002384 0.000939 -0.001095 -0.004822
# 3 -0.005073 -0.002384 0.013128 -0.003325 0.002906 -0.000061
# 4 0.005043 0.000939 -0.003325 0.034359 0.008913 -0.002818
# 5 0.002378 -0.001095 0.002906 0.008913 0.030967 0.000905
# 6 0.006105 -0.004822 -0.000061 -0.002818 0.000905 0.024452
#
#
# Mechanical properties :
#
#
# Convention : Reuss Voigt Hill
#
# Bulk Modulus (GPa) = 78.48999 85.96680 82.22839
# Shear Modulus (GPa) = 31.02798 37.25470 34.14134
#
# Velocity S-wave (km/s) = 4.02097 4.40600 4.21788
# Velocity P-wave (km/s) = 7.90301 8.40713 8.15897
#
# Compressibility (1/GPa) = 0.01274048
#
# Stress axis : x y z
#
# Youngs Moduli (GPa) = 61.14067 95.72839 76.17209
#
# Poissons Ratio (x) = 0.58753 0.38646
# Poissons Ratio (y) = 0.37525 0.18159
# Poissons Ratio (z) = 0.31020 0.22821
#
# Static dielectric constant tensor:
#      x y z
#    x 1.645540 0.006010 0.009640 
#    y 0.006010 1.670320 -0.006300 
#    z 0.009640 -0.006300 1.669000 
# 
# From -- ./inp_files/216648.got.cif
#   From: 2010.05.17/outbox.cif.g08.bks.cpg/sg2_109_cif.got.tgz:216648.got - 2010.06.03 11:33:40.
