data_PCOD9023009
_publ_section_title
;
Structure prediction by ZEFSAII (Michael W. Deem and Ramdas Pophale) SiO2 
 PCOD9023009
Probable space group: P -1
;
_chemical_formula_sum "Si O2"
_cell_formula_units_Z 14
_cell_length_a 7.917758
_cell_length_b 14.178562
_cell_length_c 9.915844
_cell_angle_alpha 56.889586
_cell_angle_beta 35.910058
_cell_angle_gamma 62.985312
_cell_volume 546.719557
_symmetry_space_group_name_H-M "P -1"
_symmetry_group_IT_number 2
_symmetry_cell_setting 'triclinic'
loop_
_space_group_symop_operation_xyz
x,y,z
-x,-y,-z
loop_
_atom_site_type_symbol
_atom_site_label
_atom_site_fract_x
_atom_site_fract_y
_atom_site_fract_z
Si Si1 0.182179 0.420830 0.181161
Si Si2 0.237128 0.388682 0.771518
Si Si3 0.675317 0.474927 0.631177
Si Si4 0.237033 0.794775 0.737617
Si Si5 0.269542 0.189086 0.391262
Si Si6 0.674216 0.029380 0.644185
Si Si7 0.076106 0.985673 0.117861
O O1 0.188317 0.287184 0.264071
O O2 0.010869 0.434802 0.426503
O O3 0.035993 0.502619 0.825588
O O4 0.495304 0.461685 0.895890
O O5 0.492846 0.396044 0.706959
O O6 0.338639 0.405776 0.535828
O O7 0.021446 0.289229 0.015862
O O8 0.494202 0.762104 0.698156
O O9 0.345627 0.838709 0.489406
O O10 0.122815 0.918659 0.759833
O O11 0.394951 0.078051 0.324215
O O12 0.006427 0.138395 0.684230
O O13 0.395112 0.017250 0.925392
O O14 0.000000 0.000000 0.500000
O O15 0.000000 0.000000 0.000000
#
# Coordination Sequence:
#
# PCOD9023009 Si02
#       7
#     2   2   2   2   2   2   2
#     4  10  22  39  65  96 134 172 225 273 338 397
#     4   9  22  38  66  92 137 169 230 269 347 394
#     4   9  21  42  62  96 134 180 214 287 334 402
#     4  11  23  42  65  99 125 180 219 276 339 411
#     4  11  24  40  66  93 137 173 223 271 349 401
#     4  11  25  41  66  99 128 168 228 281 329 399
#     4  11  21  44  68  90 134 180 217 271 345 406
#
# _framework density 25.607278000000001
#
# number of rings (size 3 to 8) (size 9 to 14) (size 15 to 20)
#    0.857    0.857    2.857    1.286    4.000    5.143 
#    0.000    0.714    0.000    0.000    0.000    0.000 
#    0.000    0.000    0.000    0.000    0.000    0.000 
#
# Total GULP energy -78018.114698 kJ/mol
# GULP energy per Si atom -5572.722478 kJ/mol
# Density = 2.554900 g / cm^3
# Si number density = 25.607278 Si / 1000 Ang^3
#
#
#
# Elastic Constant Matrix: (Units=GPa)
#
#
# Indices 1 2 3 4 5 6 
#
# 1 50.2642 14.8386 30.6565 -12.2529 -1.4393 0.2578
# 2 14.8386 85.5613 43.3931 -26.6689 4.6740 -16.2306
# 3 30.6565 43.3931 184.4625 -11.5272 -8.0520 0.5492
# 4 -12.2529 -26.6689 -11.5272 43.5548 -3.9299 -0.8057
# 5 -1.4393 4.6740 -8.0520 -3.9299 53.0670 2.1721
# 6 0.2578 -16.2306 0.5492 -0.8057 2.1721 16.7956
#
#
#
# Elastic Compliance Matrix: (Units=1/GPa)
#
#
# Indices 1 2 3 4 5 6 
#
# 1 0.023495 -0.001040 -0.003308 0.005136 0.000652 -0.001095
# 2 -0.001040 0.022563 -0.004541 0.012500 -0.002717 0.022919
# 3 -0.003308 -0.004541 0.007003 -0.001817 0.001436 -0.004839
# 4 0.005136 0.012500 -0.001817 0.031879 0.000570 0.013516
# 5 0.000652 -0.002717 0.001436 0.000570 0.019574 -0.005186
# 6 -0.001095 0.022919 -0.004839 0.013516 -0.005186 0.083182
#
#
# Mechanical properties :
#
#
# Convention : Reuss Voigt Hill
#
# Bulk Modulus (GPa) = 28.34047 55.34046 41.84047
# Shear Modulus (GPa) = 23.01678 38.11015 30.56347
#
# Velocity S-wave (km/s) = 3.00131 3.86198 3.45852
# Velocity P-wave (km/s) = 4.80644 6.44551 5.68535
#
# Compressibility (1/GPa) = 0.03528523
#
# Stress axis : x y z
#
# Youngs Moduli (GPa) = 42.56142 44.32038 142.80590
#
# Poissons Ratio (x) = 0.04608 0.47233
# Poissons Ratio (y) = 0.04425 0.64843
# Poissons Ratio (z) = 0.14077 0.20124
#
# Static dielectric constant tensor:
#      x y z
#    x 2.303350 0.024410 0.310210 
#    y 0.024410 1.998920 0.056870 
#    z 0.310210 0.056870 2.367780 
# 
# From -- ./inp_files/402935.got.cif
#   From: 2010.05.17/outbox.cif.g08.bks.cpg/sg2_202_cif.got.tgz:402935.got - 2010.06.03 11:33:40.
