data_PCOD9023491
_publ_section_title
;
Structure prediction by ZEFSAII (Michael W. Deem and Ramdas Pophale) SiO2 
 PCOD9023491
Probable space group: P -1
;
_chemical_formula_sum "Si O2"
_cell_formula_units_Z 16
_cell_length_a 5.531405
_cell_length_b 14.607063
_cell_length_c 10.114745
_cell_angle_alpha 126.748715
_cell_angle_beta 113.468245
_cell_angle_gamma 66.528769
_cell_volume 586.257316
_symmetry_space_group_name_H-M "P -1"
_symmetry_group_IT_number 2
_symmetry_cell_setting 'triclinic'
loop_
_space_group_symop_operation_xyz
x,y,z
-x,-y,-z
loop_
_atom_site_type_symbol
_atom_site_label
_atom_site_fract_x
_atom_site_fract_y
_atom_site_fract_z
Si Si1 0.554521 0.280042 0.495497
Si Si2 0.251203 0.687709 0.958859
Si Si3 0.205275 0.118064 0.253617
Si Si4 0.759417 0.484746 0.837562
Si Si5 0.845631 0.582753 0.651877
Si Si6 0.996221 0.157220 0.750728
Si Si7 0.277469 0.944784 0.814862
Si Si8 0.529772 0.107642 0.718302
O O1 0.276059 0.236771 0.429294
O O2 0.682135 0.358435 0.689795
O O3 0.453372 0.360140 0.413945
O O4 0.743575 0.159669 0.386891
O O5 0.482546 0.571035 0.901341
O O6 0.026481 0.679224 0.795981
O O7 0.078050 0.719647 0.083200
O O8 0.402949 0.794434 0.081546
O O9 0.394539 0.081781 0.132408
O O10 0.907395 0.097277 0.151782
O O11 0.345762 0.016511 0.298852
O O12 0.834080 0.522521 0.738937
O O13 0.000000 0.500000 0.000000
O O14 0.000000 0.500000 0.500000
O O15 0.706505 0.124107 0.643449
O O16 0.210169 0.140592 0.667280
O O17 0.147085 0.064327 0.814425
#
# Coordination Sequence:
#
# PCOD9023491 Si02
#       8
#     2   2   2   2   2   2   2   2
#     4  10  23  40  72 103 144 190 241 307 363 443
#     4  10  22  39  70 101 148 192 240 308 370 443
#     4   8  16  32  61 100 139 186 229 298 359 438
#     4  12  28  49  72 106 148 198 252 311 377 442
#     4  12  26  46  72 109 147 195 255 308 371 440
#     4   8  15  32  59  97 142 189 228 295 361 439
#     4   8  16  31  62  98 143 182 236 289 366 427
#     4   8  15  32  60  97 143 183 235 287 371 433
#
# _framework density 27.291772999999999
#
# number of rings (size 3 to 8) (size 9 to 14) (size 15 to 20)
#    1.500    1.000    1.250    1.125    1.750    0.500 
#    0.000    1.250    0.000    1.500    0.000    0.000 
#    0.000    0.000    0.000    0.000    0.000    0.000 
#
# Total GULP energy -89378.736017 kJ/mol
# GULP energy per Si atom -5586.171001 kJ/mol
# Density = 2.722966 g / cm^3
# Si number density = 27.291773 Si / 1000 Ang^3
#
#
#
# Elastic Constant Matrix: (Units=GPa)
#
#
# Indices 1 2 3 4 5 6 
#
# 1 187.1152 1.9874 -6.6779 -22.2904 -5.4247 9.5376
# 2 1.9874 40.1690 -13.9222 -19.2076 -20.0797 19.6300
# 3 -6.6779 -13.9222 -22.9550 -54.7744 -27.1617 24.7911
# 4 -22.2904 -19.2076 -54.7744 34.8983 -22.7888 16.9960
# 5 -5.4247 -20.0797 -27.1617 -22.7888 37.2446 15.3501
# 6 9.5376 19.6300 24.7911 16.9960 15.3501 40.4777
#
#
#
# Elastic Compliance Matrix: (Units=1/GPa)
#
#
# Indices 1 2 3 4 5 6 
#
# 1 0.005335 -0.000815 -0.001428 0.000399 -0.000470 0.000024
# 2 -0.000815 0.022110 -0.011559 -0.003330 0.002584 -0.003032
# 3 -0.001428 -0.011559 0.006634 -0.008390 -0.010622 0.009430
# 4 0.000399 -0.003330 -0.008390 0.008677 -0.004492 0.004719
# 5 -0.000470 0.002584 -0.010622 -0.004492 0.017414 0.000645
# 6 0.000024 -0.003032 0.009430 0.004719 0.000645 0.018168
#
#
# Mechanical properties :
#
#
# Convention : Reuss Voigt Hill
#
# Bulk Modulus (GPa) = 154.45686 18.56712 86.51199
# Shear Modulus (GPa) = 46.25275 37.38691 41.81983
#
# Velocity S-wave (km/s) = 4.12120 3.70523 3.91874
# Velocity P-wave (km/s) = 8.90861 5.01228 7.22794
#
# Compressibility (1/GPa) = 0.00647430
#
# Stress axis : x y z
#
# Youngs Moduli (GPa) = 187.45301 45.22834 150.72789
#
# Poissons Ratio (x) = 0.03684 0.21531
# Poissons Ratio (y) = 0.15270 1.74232
# Poissons Ratio (z) = 0.26777 0.52281
#
# Static dielectric constant tensor:
#      x y z
#    x 2.214240 0.068600 0.036910 
#    y 0.068600 2.145000 0.062640 
#    z 0.036910 0.062640 2.168450 
# 
# From -- ./inp_files/367976.got.cif
#   From: 2010.05.17/outbox.cif.g08.bks.cpg/sg2_184_cif.got.tgz:367976.got - 2010.06.03 11:33:40.
