data_PCOD9023670
_publ_section_title
;
Structure prediction by ZEFSAII (Michael W. Deem and Ramdas Pophale) SiO2 
 PCOD9023670
Probable space group: P -1
;
_chemical_formula_sum "Si O2"
_cell_formula_units_Z 12
_cell_length_a 19.728990
_cell_length_b 5.462359
_cell_length_c 5.258539
_cell_angle_alpha 118.920525
_cell_angle_beta 77.703918
_cell_angle_gamma 107.944155
_cell_volume 470.501567
_symmetry_space_group_name_H-M "P -1"
_symmetry_group_IT_number 2
_symmetry_cell_setting 'triclinic'
loop_
_space_group_symop_operation_xyz
x,y,z
-x,-y,-z
loop_
_atom_site_type_symbol
_atom_site_label
_atom_site_fract_x
_atom_site_fract_y
_atom_site_fract_z
Si Si1 0.285924 0.195801 0.658286
Si Si2 0.582851 0.869111 0.197397
Si Si3 0.024293 0.851578 0.654508
Si Si4 0.558183 0.429851 0.603785
Si Si5 0.795373 0.774144 0.767684
Si Si6 0.835960 0.252601 0.331142
O O1 0.368418 0.226105 0.673268
O O2 0.258914 0.263414 0.441873
O O3 0.245025 0.862105 0.564510
O O4 0.247513 0.329110 0.985867
O O5 0.496408 0.764086 0.240038
O O6 0.600360 0.211877 0.344798
O O7 0.599510 0.711136 0.855322
O O8 0.110045 0.896435 0.637586
O O9 0.000000 0.500000 0.500000
O O10 0.000000 0.000000 0.500000
O O11 0.000000 0.000000 0.000000
O O12 0.500000 0.500000 0.500000
O O13 0.851172 0.588601 0.548634
O O14 0.831754 0.109631 0.981467
#
# Coordination Sequence:
#
# PCOD9023670 Si02
#       6
#     2   2   2   2   2   2
#     4  10  26  41  68  96 131 172 221 276 336 398
#     4  10  23  38  60  91 121 163 217 262 329 393
#     4  12  28  47  75 108 145 193 239 295 356 430
#     4  10  22  40  60  87 124 164 210 268 322 396
#     4  10  25  41  68  96 134 171 218 279 335 400
#     4  10  26  43  70  97 138 173 229 278 341 405
#
# _framework density 25.5047
#
# number of rings (size 3 to 8) (size 9 to 14) (size 15 to 20)
#    1.000    0.667    0.000    2.000   11.667    0.000 
#    0.000    0.000    0.000    0.000    0.000    0.000 
#    0.000    0.000    0.000    0.000    0.000    0.000 
#
# Total GULP energy -66939.617839 kJ/mol
# GULP energy per Si atom -5578.301487 kJ/mol
# Density = 2.544665 g / cm^3
# Si number density = 25.504700 Si / 1000 Ang^3
#
#
#
# Elastic Constant Matrix: (Units=GPa)
#
#
# Indices 1 2 3 4 5 6 
#
# 1 122.0142 36.7226 52.3351 -0.5793 12.4459 -22.0774
# 2 36.7226 84.7295 87.9996 6.8340 -4.7646 -33.4618
# 3 52.3351 87.9996 253.4097 16.2577 -0.1828 -42.0824
# 4 -0.5793 6.8340 16.2577 50.4767 -23.3730 -0.4930
# 5 12.4459 -4.7646 -0.1828 -23.3730 33.2021 -6.0073
# 6 -22.0774 -33.4618 -42.0824 -0.4930 -6.0073 50.2644
#
#
#
# Elastic Compliance Matrix: (Units=1/GPa)
#
#
# Indices 1 2 3 4 5 6 
#
# 1 0.010252 -0.003616 -0.000603 -0.001681 -0.005380 0.000931
# 2 -0.003616 0.023996 -0.006029 0.002715 0.008557 0.010388
# 3 -0.000603 -0.006029 0.006445 -0.002174 -0.001979 0.000860
# 4 -0.001681 0.002715 -0.002174 0.030871 0.023159 0.002320
# 5 -0.005380 0.008557 -0.001979 0.023159 0.051105 0.008012
# 6 0.000931 0.010388 0.000860 0.002320 0.008012 0.028919
#
#
# Mechanical properties :
#
#
# Convention : Reuss Voigt Hill
#
# Bulk Modulus (GPa) = 49.51319 90.47423 69.99371
# Shear Modulus (GPa) = 27.96153 45.66172 36.81162
#
# Velocity S-wave (km/s) = 3.31468 4.23581 3.80324
# Velocity P-wave (km/s) = 5.83994 7.71190 6.84026
#
# Compressibility (1/GPa) = 0.02019664
#
# Stress axis : x y z
#
# Youngs Moduli (GPa) = 97.54122 41.67384 155.15460
#
# Poissons Ratio (x) = 0.15071 0.09354
# Poissons Ratio (y) = 0.35275 0.93542
# Poissons Ratio (z) = 0.05880 0.25125
#
# Static dielectric constant tensor:
#      x y z
#    x 2.100220 0.072650 -0.089800 
#    y 0.072650 2.156280 0.043720 
#    z -0.089800 0.043720 2.068450 
# 
# From -- ./inp_files/8917.got.cif
#   From: 2010.05.17/outbox.cif.g08.bks.cpg/sg2_5_cif.got.tgz:8917.got - 2010.06.03 11:33:40.
