data_PCOD9023029
_publ_section_title
;
Structure prediction by ZEFSAII (Michael W. Deem and Ramdas Pophale) SiO2 
 PCOD9023029
Probable space group: P -1
;
_chemical_formula_sum "Si O2"
_cell_formula_units_Z 16
_cell_length_a 5.459554
_cell_length_b 14.551377
_cell_length_c 12.391380
_cell_angle_alpha 51.873276
_cell_angle_beta 110.218029
_cell_angle_gamma 84.137055
_cell_volume 656.951339
_symmetry_space_group_name_H-M "P -1"
_symmetry_group_IT_number 2
_symmetry_cell_setting 'triclinic'
loop_
_space_group_symop_operation_xyz
x,y,z
-x,-y,-z
loop_
_atom_site_type_symbol
_atom_site_label
_atom_site_fract_x
_atom_site_fract_y
_atom_site_fract_z
Si Si1 0.598001 0.880011 0.948841
Si Si2 0.263281 0.985707 0.299481
Si Si3 0.718758 0.212550 0.384066
Si Si4 0.240838 0.505945 0.112489
Si Si5 0.118102 0.095334 0.840791
Si Si6 0.918290 0.703349 0.475739
Si Si7 0.446420 0.453342 0.407940
Si Si8 0.722848 0.236670 0.120365
O O1 0.554993 0.759192 0.988379
O O2 0.525963 0.973696 0.766691
O O3 0.358861 0.954076 0.948777
O O4 0.884804 0.869186 0.060356
O O5 0.343473 0.893729 0.481966
O O6 0.161257 0.906482 0.255469
O O7 0.005952 0.125740 0.188537
O O8 0.470590 0.356845 0.254843
O O9 0.000446 0.223959 0.467049
O O10 0.739350 0.186854 0.280105
O O11 0.230998 0.538113 0.217052
O O12 0.301506 0.620049 0.986896
O O13 0.000000 0.500000 0.000000
O O14 0.190264 0.198796 0.711414
O O15 0.233262 0.599603 0.557814
O O16 0.697023 0.645569 0.516910
O O17 0.500000 0.500000 0.500000
#
# Coordination Sequence:
#
# PCOD9023029 Si02
#       8
#     2   2   2   2   2   2   2   2
#     4  10  22  39  65  97 138 176 229 295 356 430
#     4  10  22  42  68 101 131 178 233 295 357 426
#     4  10  23  46  70  97 140 187 239 288 358 434
#     4  11  26  46  71 100 141 196 234 293 367 439
#     4   9  21  39  65  95 136 181 227 288 364 431
#     4  10  23  43  71  99 137 188 235 296 363 433
#     4  11  25  45  70 106 138 187 244 304 357 430
#     4  11  24  42  64 103 133 178 238 291 357 427
#
# _framework density 24.354925000000001
#
# number of rings (size 3 to 8) (size 9 to 14) (size 15 to 20)
#    0.000    1.750    0.000    2.250    8.750    2.500 
#    2.250    0.000    0.000    0.000    0.000    0.000 
#    0.000    0.000    0.000    0.000    0.000    0.000 
#
# Total GULP energy -89266.194790 kJ/mol
# GULP energy per Si atom -5579.137174 kJ/mol
# Density = 2.429949 g / cm^3
# Si number density = 24.354925 Si / 1000 Ang^3
#
#
#
# Elastic Constant Matrix: (Units=GPa)
#
#
# Indices 1 2 3 4 5 6 
#
# 1 55.6518 22.4580 8.5274 -5.8351 -5.9361 5.4551
# 2 22.4580 86.4120 15.3035 28.6984 -1.4332 10.7981
# 3 8.5274 15.3035 111.5139 11.9904 -6.1752 7.9428
# 4 -5.8351 28.6984 11.9904 53.7533 -0.4400 -5.1936
# 5 -5.9361 -1.4332 -6.1752 -0.4400 34.9566 -13.5003
# 6 5.4551 10.7981 7.9428 -5.1936 -13.5003 36.6304
#
#
#
# Elastic Compliance Matrix: (Units=1/GPa)
#
#
# Indices 1 2 3 4 5 6 
#
# 1 0.022506 -0.008228 -0.001290 0.007341 0.004082 0.001899
# 2 -0.008228 0.018354 -0.000370 -0.011317 -0.003565 -0.007023
# 3 -0.001290 -0.000370 0.009527 -0.002237 0.000719 -0.001817
# 4 0.007341 -0.011317 -0.002237 0.026737 0.003779 0.007912
# 5 0.004082 -0.003565 0.000719 0.003779 0.034566 0.013563
# 6 0.001899 -0.007023 -0.001817 0.007912 0.013563 0.035602
#
#
# Mechanical properties :
#
#
# Convention : Reuss Voigt Hill
#
# Bulk Modulus (GPa) = 32.66965 38.46172 35.56569
# Shear Modulus (GPa) = 28.20537 38.88730 33.54634
#
# Velocity S-wave (km/s) = 3.40677 4.00020 3.71535
# Velocity P-wave (km/s) = 5.37754 6.09606 5.74804
#
# Compressibility (1/GPa) = 0.03060945
#
# Stress axis : x y z
#
# Youngs Moduli (GPa) = 44.43254 54.48541 104.96818
#
# Poissons Ratio (x) = 0.44832 0.13544
# Poissons Ratio (y) = 0.36560 0.03882
# Poissons Ratio (z) = 0.05733 0.02015
#
# Static dielectric constant tensor:
#      x y z
#    x 2.061600 -0.030220 0.065340 
#    y -0.030220 1.966960 0.032860 
#    z 0.065340 0.032860 2.010760 
# 
# From -- ./inp_files/364620.got.cif
#   From: 2010.05.17/outbox.cif.g08.bks.cpg/sg2_183_cif.got.tgz:364620.got - 2010.06.03 11:33:40.
