data_PCOD9023323
_publ_section_title
;
Structure prediction by ZEFSAII (Michael W. Deem and Ramdas Pophale) SiO2 
 PCOD9023323
Probable space group: P -1
;
_chemical_formula_sum "Si O2"
_cell_formula_units_Z 16
_cell_length_a 11.858663
_cell_length_b 5.387268
_cell_length_c 11.781848
_cell_angle_alpha 116.508535
_cell_angle_beta 108.544875
_cell_angle_gamma 79.520894
_cell_volume 637.878422
_symmetry_space_group_name_H-M "P -1"
_symmetry_group_IT_number 2
_symmetry_cell_setting 'triclinic'
loop_
_space_group_symop_operation_xyz
x,y,z
-x,-y,-z
loop_
_atom_site_type_symbol
_atom_site_label
_atom_site_fract_x
_atom_site_fract_y
_atom_site_fract_z
Si Si1 0.566181 0.203020 0.981225
Si Si2 0.861650 0.981225 0.254893
Si Si3 0.427862 0.933107 0.291924
Si Si4 0.837534 0.329969 0.097212
Si Si5 0.305105 0.992638 0.599328
Si Si6 0.099878 0.157827 0.412183
Si Si7 0.247746 0.427270 0.356932
Si Si8 0.195503 0.658123 0.176536
O O1 0.571318 0.023509 0.832471
O O2 0.500000 0.500000 0.000000
O O3 0.698157 0.291229 0.068935
O O4 0.500000 0.000000 0.000000
O O5 0.885469 0.107982 0.162016
O O6 0.734661 0.050790 0.291351
O O7 0.964335 0.120048 0.388554
O O8 0.873101 0.646657 0.191807
O O9 0.565818 0.888284 0.356414
O O10 0.350112 0.192749 0.369605
O O11 0.338905 0.685834 0.225643
O O12 0.851931 0.306438 0.959016
O O13 0.306119 0.709367 0.470062
O O14 0.193517 0.168191 0.546182
O O15 0.132305 0.410606 0.395118
O O16 0.136374 0.895663 0.287174
O O17 0.194581 0.392997 0.205308
#
# Coordination Sequence:
#
# PCOD9023323 Si02
#       8
#     2   2   2   2   2   2   2   2
#     4  11  23  41  68 101 143 182 219 277 345 418
#     4  12  28  46  71 102 141 185 236 285 345 407
#     4  10  22  39  68 100 138 175 227 283 353 416
#     4  11  26  44  70 104 140 181 231 282 348 418
#     4  11  24  44  67 100 137 179 236 285 350 412
#     4  10  25  45  68  96 134 185 235 292 338 403
#     4  10  23  42  69  96 138 180 235 283 351 398
#     4   9  23  43  69 100 138 174 230 285 352 414
#
# _framework density 25.083151000000001
#
# number of rings (size 3 to 8) (size 9 to 14) (size 15 to 20)
#    0.000    1.500    0.000    3.000   14.000    7.000 
#    0.000    0.000    0.000    0.000    0.000    0.000 
#    0.000    0.000    0.000    0.000    0.000    0.000 
#
# Total GULP energy -89240.672684 kJ/mol
# GULP energy per Si atom -5577.542043 kJ/mol
# Density = 2.502606 g / cm^3
# Si number density = 25.083151 Si / 1000 Ang^3
#
#
#
# Elastic Constant Matrix: (Units=GPa)
#
#
# Indices 1 2 3 4 5 6 
#
# 1 93.9346 17.3581 27.7957 -6.3709 4.2473 3.9544
# 2 17.3581 91.4496 44.2103 -27.0097 -4.3036 12.0263
# 3 27.7957 44.2103 82.2832 -14.2200 -7.4632 14.1670
# 4 -6.3709 -27.0097 -14.2200 27.8775 2.7402 -11.4645
# 5 4.2473 -4.3036 -7.4632 2.7402 44.1676 -5.5587
# 6 3.9544 12.0263 14.1670 -11.4645 -5.5587 26.9595
#
#
#
# Elastic Compliance Matrix: (Units=1/GPa)
#
#
# Indices 1 2 3 4 5 6 
#
# 1 0.012003 -0.000231 -0.004030 0.000822 -0.001855 0.000427
# 2 -0.000231 0.018998 -0.007879 0.015231 -0.000133 0.002149
# 3 -0.004030 -0.007879 0.018679 -0.001701 0.002127 -0.005995
# 4 0.000822 0.015231 -0.001701 0.057536 -0.000134 0.018418
# 5 -0.001855 -0.000133 0.002127 -0.000134 0.023683 0.004039
# 6 0.000427 0.002149 -0.005995 0.018418 0.004039 0.047886
#
#
# Mechanical properties :
#
#
# Convention : Reuss Voigt Hill
#
# Bulk Modulus (GPa) = 39.37195 49.59952 44.48574
# Shear Modulus (GPa) = 23.63721 31.68781 27.66251
#
# Velocity S-wave (km/s) = 3.07311 3.55816 3.32449
# Velocity P-wave (km/s) = 5.32190 6.05786 5.70177
#
# Compressibility (1/GPa) = 0.02539879
#
# Stress axis : x y z
#
# Youngs Moduli (GPa) = 83.31562 52.63848 53.53559
#
# Poissons Ratio (x) = 0.01213 0.21577
# Poissons Ratio (y) = 0.01920 0.42182
# Poissons Ratio (z) = 0.33580 0.41475
#
# Static dielectric constant tensor:
#      x y z
#    x 2.077310 0.107050 -0.029860 
#    y 0.107050 2.365430 -0.115860 
#    z -0.029860 -0.115860 2.069860 
# 
# From -- ./inp_files/411017.got.cif
#   From: 2010.05.17/outbox.cif.g08.bks.cpg/sg2_206_cif.got.tgz:411017.got - 2010.06.03 11:33:40.
