data_PCOD9023445
_publ_section_title
;
Structure prediction by ZEFSAII (Michael W. Deem and Ramdas Pophale) SiO2 
 PCOD9023445
Probable space group: P -1
;
_chemical_formula_sum "Si O2"
_cell_formula_units_Z 14
_cell_length_a 16.221857
_cell_length_b 5.215685
_cell_length_c 25.584183
_cell_angle_alpha 114.218741
_cell_angle_beta 18.650597
_cell_angle_gamma 121.352607
_cell_volume 563.363318
_symmetry_space_group_name_H-M "P -1"
_symmetry_group_IT_number 2
_symmetry_cell_setting 'triclinic'
loop_
_space_group_symop_operation_xyz
x,y,z
-x,-y,-z
loop_
_atom_site_type_symbol
_atom_site_label
_atom_site_fract_x
_atom_site_fract_y
_atom_site_fract_z
Si Si1 0.232434 0.858085 0.901962
Si Si2 0.342075 0.520898 0.905037
Si Si3 0.621207 0.737243 0.588041
Si Si4 0.347918 0.665879 0.034026
Si Si5 0.832463 0.639043 0.556498
Si Si6 0.715364 0.288246 0.429684
Si Si7 0.919097 0.697790 0.688307
O O1 0.330373 0.778339 0.893198
O O2 0.443646 0.921516 0.729058
O O3 0.138251 0.140200 0.988596
O O4 0.000000 0.500000 0.000000
O O5 0.638163 0.499304 0.711919
O O6 0.339325 0.646631 0.974712
O O7 0.618197 0.578256 0.631489
O O8 0.540745 0.481923 0.569495
O O9 0.951991 0.974322 0.393934
O O10 0.015142 0.489626 0.236039
O O11 0.590266 0.548290 0.891602
O O12 0.500000 0.000000 0.000000
O O13 0.046614 0.529149 0.392857
O O14 0.000000 0.000000 0.500000
O O15 0.849297 0.218249 0.396575
O O16 0.500000 0.000000 0.500000
#
# Coordination Sequence:
#
# PCOD9023445 Si02
#       7
#     2   2   2   2   2   2   2
#     4  11  25  46  73 108 149 193 245 311 377 448
#     4  11  26  44  72 108 145 194 244 306 379 441
#     4  10  22  43  66 101 136 183 237 306 363 433
#     4  12  27  47  69 106 148 193 251 305 364 445
#     4  10  22  39  69 104 140 174 237 302 376 432
#     4  11  27  47  69 101 140 193 249 295 369 447
#     4  11  23  45  76  97 141 188 243 310 368 433
#
# _framework density 24.850750000000001
#
# number of rings (size 3 to 8) (size 9 to 14) (size 15 to 20)
#    0.000    1.143    2.857    1.714    8.000    4.000 
#    0.000    0.000    0.000    0.000    0.000    0.000 
#    0.000    0.000    0.000    0.000    0.000    0.000 
#
# Total GULP energy -77979.902669 kJ/mol
# GULP energy per Si atom -5569.993048 kJ/mol
# Density = 2.479419 g / cm^3
# Si number density = 24.850750 Si / 1000 Ang^3
#
#
#
# Elastic Constant Matrix: (Units=GPa)
#
#
# Indices 1 2 3 4 5 6 
#
# 1 122.7998 40.1625 47.0337 3.1671 12.9037 22.3790
# 2 40.1625 117.6005 18.8191 -2.9108 9.2093 28.4223
# 3 47.0337 18.8191 101.5058 -5.9462 17.3281 18.0919
# 4 3.1671 -2.9108 -5.9462 33.7978 7.7636 -3.2812
# 5 12.9037 9.2093 17.3281 7.7636 39.7321 1.8945
# 6 22.3790 28.4223 18.0919 -3.2812 1.8945 44.3266
#
#
#
# Elastic Compliance Matrix: (Units=1/GPa)
#
#
# Indices 1 2 3 4 5 6 
#
# 1 0.011181 -0.002558 -0.004297 -0.002108 -0.000639 -0.002380
# 2 -0.002558 0.010846 0.000587 0.001155 -0.001892 -0.005737
# 3 -0.004297 0.000587 0.013396 0.003684 -0.005151 -0.003182
# 4 -0.002108 0.001155 0.003684 0.032429 -0.007600 0.001545
# 5 -0.000639 -0.001892 -0.005151 -0.007600 0.029459 0.001816
# 6 -0.002380 -0.005737 -0.003182 0.001545 0.001816 0.028775
#
#
# Mechanical properties :
#
#
# Convention : Reuss Voigt Hill
#
# Bulk Modulus (GPa) = 43.69027 61.54853 52.61940
# Shear Modulus (GPa) = 34.18798 39.29736 36.74267
#
# Velocity S-wave (km/s) = 3.71311 3.98091 3.84934
# Velocity P-wave (km/s) = 6.00018 6.77874 6.40131
#
# Compressibility (1/GPa) = 0.02288839
#
# Stress axis : x y z
#
# Youngs Moduli (GPa) = 89.43904 92.19930 74.64880
#
# Poissons Ratio (x) = 0.23583 0.32075
# Poissons Ratio (y) = 0.22877 -0.04384
# Poissons Ratio (z) = 0.38430 -0.05415
#
# Static dielectric constant tensor:
#      x y z
#    x 2.062300 -0.118200 -0.018900 
#    y -0.118200 2.161300 -0.003700 
#    z -0.018900 -0.003700 2.219230 
# 
# From -- ./inp_files/620115.got.cif
#   From: 2010.05.17/outbox.cif.g08.bks.cpg/sg2_311_cif.got.tgz:620115.got - 2010.06.03 11:33:40.
