data_PCOD9023808
_publ_section_title
;
Structure prediction by ZEFSAII (Michael W. Deem and Ramdas Pophale) SiO2 
 PCOD9023808
Probable space group: P -1
;
_chemical_formula_sum "Si O2"
_cell_formula_units_Z 14
_cell_length_a 26.186984
_cell_length_b 14.098281
_cell_length_c 10.635689
_cell_angle_alpha 28.204884
_cell_angle_beta 145.673607
_cell_angle_gamma 157.954548
_cell_volume 695.666887
_symmetry_space_group_name_H-M "P -1"
_symmetry_group_IT_number 2
_symmetry_cell_setting 'triclinic'
loop_
_space_group_symop_operation_xyz
x,y,z
-x,-y,-z
loop_
_atom_site_type_symbol
_atom_site_label
_atom_site_fract_x
_atom_site_fract_y
_atom_site_fract_z
Si Si1 0.998319 0.709378 0.319098
Si Si2 0.268553 0.532970 0.322832
Si Si3 0.908358 0.543438 0.733566
Si Si4 0.915238 0.910038 0.736875
Si Si5 0.478170 0.542829 0.766906
Si Si6 0.489973 0.846834 0.790065
Si Si7 0.270103 0.751392 0.521144
O O1 0.854452 0.471978 0.377132
O O2 0.000000 0.500000 0.500000
O O3 0.001197 0.885918 0.013770
O O4 0.106031 0.949578 0.366623
O O5 0.158328 0.448537 0.293479
O O6 0.209389 0.411593 0.205156
O O7 0.334903 0.423665 0.612331
O O8 0.399426 0.886053 0.200674
O O9 0.790285 0.284902 0.695766
O O10 0.002645 0.854834 0.485200
O O11 0.000000 0.500000 0.000000
O O12 0.608342 0.903142 0.587911
O O13 0.500000 0.500000 0.000000
O O14 0.484237 0.345718 0.935876
O O15 0.339394 0.650901 0.757923
O O16 0.500000 0.000000 0.500000
#
# Coordination Sequence:
#
# PCOD9023808 Si02
#       7
#     2   2   2   2   2   2   2
#     4  10  24  46  66  85 127 178 218 263 304 377
#     4  11  23  38  61  98 131 160 209 262 322 388
#     4  11  23  37  62  99 137 164 199 266 331 388
#     4  10  25  41  61  94 126 169 216 258 316 377
#     4  11  20  35  63  88 127 168 202 258 320 374
#     4  11  20  38  61  92 128 165 200 265 316 384
#     4  10  22  40  61  95 122 165 219 253 316 387
#
# _framework density 20.124573999999999
#
# number of rings (size 3 to 8) (size 9 to 14) (size 15 to 20)
#    0.000    1.429    4.286    0.429    8.000    4.571 
#    0.000    2.857    0.000    5.143    0.000    0.000 
#    0.000    0.000    0.000    0.000    0.000    0.000 
#
# Total GULP energy -77994.781744 kJ/mol
# GULP energy per Si atom -5571.055839 kJ/mol
# Density = 2.007877 g / cm^3
# Si number density = 20.124574 Si / 1000 Ang^3
#
#
#
# Elastic Constant Matrix: (Units=GPa)
#
#
# Indices 1 2 3 4 5 6 
#
# 1 118.8800 50.0905 58.6163 11.7180 34.6493 -13.0508
# 2 50.0905 91.4290 29.9592 10.7079 9.7583 -25.7727
# 3 58.6163 29.9592 100.1774 4.0371 33.1651 0.1357
# 4 11.7180 10.7079 4.0371 32.8168 0.2898 2.6993
# 5 34.6493 9.7583 33.1651 0.2898 42.2263 -1.2600
# 6 -13.0508 -25.7727 0.1357 2.6993 -1.2600 40.5072
#
#
#
# Elastic Compliance Matrix: (Units=1/GPa)
#
#
# Indices 1 2 3 4 5 6 
#
# 1 0.015953 -0.005387 -0.004989 -0.003396 -0.007853 0.001711
# 2 -0.005387 0.017914 -0.003032 -0.004402 0.002992 0.010059
# 3 -0.004989 -0.003032 0.016517 0.001135 -0.008303 -0.003926
# 4 -0.003396 -0.004402 0.001135 0.033457 0.002502 -0.006051
# 5 -0.007853 0.002992 -0.008303 0.002502 0.035948 0.000353
# 6 0.001711 0.010059 -0.003926 -0.006051 0.000353 0.032066
#
#
# Mechanical properties :
#
#
# Convention : Reuss Voigt Hill
#
# Bulk Modulus (GPa) = 42.43237 65.31315 53.87276
# Shear Modulus (GPa) = 26.80567 34.56476 30.68521
#
# Velocity S-wave (km/s) = 3.65360 4.14882 3.90906
# Velocity P-wave (km/s) = 6.23931 7.44816 6.87038
#
# Compressibility (1/GPa) = 0.02356691
#
# Stress axis : x y z
#
# Youngs Moduli (GPa) = 62.68363 55.82211 60.54473
#
# Poissons Ratio (x) = 0.30072 0.30207
# Poissons Ratio (y) = 0.33768 0.18358
# Poissons Ratio (z) = 0.31274 0.16926
#
# Static dielectric constant tensor:
#      x y z
#    x 1.742190 -0.089920 0.020720 
#    y -0.089920 1.927710 -0.035610 
#    z 0.020720 -0.035610 1.732480 
# 
# From -- ./inp_files/476763.got.cif
#   From: 2010.05.17/outbox.cif.g08.bks.cpg/sg2_239_cif.got.tgz:476763.got - 2010.06.03 11:33:40.
