data_PCOD9023869
_publ_section_title
;
Structure prediction by ZEFSAII (Michael W. Deem and Ramdas Pophale) SiO2 
 PCOD9023869
Probable space group: P -1
;
_chemical_formula_sum "Si O2"
_cell_formula_units_Z 13
_cell_length_a 6.800919
_cell_length_b 15.635106
_cell_length_c 8.513163
_cell_angle_alpha 138.976596
_cell_angle_beta 96.479936
_cell_angle_gamma 84.861377
_cell_volume 590.354506
_symmetry_space_group_name_H-M "P -1"
_symmetry_group_IT_number 2
_symmetry_cell_setting 'triclinic'
loop_
_space_group_symop_operation_xyz
x,y,z
-x,-y,-z
loop_
_atom_site_type_symbol
_atom_site_label
_atom_site_fract_x
_atom_site_fract_y
_atom_site_fract_z
Si Si1 0.063459 0.577934 0.390280
Si Si2 0.500000 0.000000 0.000000
Si Si3 0.226933 0.195388 0.400844
Si Si4 0.531155 0.150109 0.889508
Si Si5 0.268770 0.574827 0.740091
Si Si6 0.187079 0.070119 0.541289
Si Si7 0.454245 0.593805 0.272096
O O1 0.181346 0.561434 0.540132
O O2 0.223370 0.595762 0.293123
O O3 0.921841 0.705181 0.559048
O O4 0.913022 0.456555 0.201278
O O5 0.710244 0.932273 0.865039
O O6 0.517444 0.112118 0.017655
O O7 0.136683 0.159676 0.511970
O O8 0.438376 0.268094 0.552816
O O9 0.313373 0.146160 0.788120
O O10 0.664794 0.039463 0.666028
O O11 0.633986 0.285356 0.048565
O O12 0.434442 0.469600 0.656140
O O13 0.000000 0.000000 0.500000
O O14 0.500000 0.500000 0.000000
#
# Coordination Sequence:
#
# PCOD9023869 Si02
#       7
#     2   1   2   2   2   2   2
#     4  10  23  41  64  95 126 163 210 256 312 378
#     4  10  22  42  64  90 124 166 208 258 314 362
#     4  10  23  42  64  92 126 164 210 261 312 372
#     4  10  22  40  62  88 122 163 206 255 310 367
#     4  10  22  40  64  92 125 164 206 257 312 372
#     4  10  23  40  60  88 122 162 209 256 305 368
#     4  11  23  40  64  93 129 166 205 259 316 371
#
# _framework density 22.020668000000001
#
# number of rings (size 3 to 8) (size 9 to 14) (size 15 to 20)
#    0.000    1.846    0.000    2.308    0.000   14.769 
#    0.000    5.385    0.000    0.000    0.000    0.000 
#    0.000    0.000    0.000    0.000    0.000    0.000 
#
# Total GULP energy -72376.335349 kJ/mol
# GULP energy per Si atom -5567.410411 kJ/mol
# Density = 2.197055 g / cm^3
# Si number density = 22.020668 Si / 1000 Ang^3
#
#
#
# Elastic Constant Matrix: (Units=GPa)
#
#
# Indices 1 2 3 4 5 6 
#
# 1 123.5498 41.7174 18.7185 -8.5528 3.7032 17.5827
# 2 41.7174 123.3940 7.1480 8.6071 4.1167 7.9503
# 3 18.7185 7.1480 16.0858 -0.7589 6.0742 -0.0427
# 4 -8.5528 8.6071 -0.7589 19.4600 10.7680 -2.3196
# 5 3.7032 4.1167 6.0742 10.7680 33.9530 5.5841
# 6 17.5827 7.9503 -0.0427 -2.3196 5.5841 36.1345
#
#
#
# Elastic Compliance Matrix: (Units=1/GPa)
#
#
# Indices 1 2 3 4 5 6 
#
# 1 0.012266 -0.003510 -0.012590 0.005677 0.000346 -0.004900
# 2 -0.003510 0.009885 -0.001369 -0.007167 0.001903 -0.001223
# 3 -0.012590 -0.001369 0.084849 0.009738 -0.018372 0.009992
# 4 0.005677 -0.007167 0.009738 0.072560 -0.025731 0.007460
# 5 0.000346 0.001903 -0.018372 -0.025731 0.042072 -0.008762
# 6 -0.004900 -0.001223 0.009992 0.007460 -0.008762 0.032173
#
#
# Mechanical properties :
#
#
# Convention : Reuss Voigt Hill
#
# Bulk Modulus (GPa) = 13.87654 44.24414 29.06034
# Shear Modulus (GPa) = 15.98650 30.93922 23.46286
#
# Velocity S-wave (km/s) = 2.69732 3.75241 3.26773
# Velocity P-wave (km/s) = 4.00200 6.23777 5.24051
#
# Compressibility (1/GPa) = 0.07206406
#
# Stress axis : x y z
#
# Youngs Moduli (GPa) = 81.52333 101.16202 11.78559
#
# Poissons Ratio (x) = 0.35503 0.14838
# Poissons Ratio (y) = 0.28611 0.01613
# Poissons Ratio (z) = 1.02639 0.13846
#
# Static dielectric constant tensor:
#      x y z
#    x 1.810160 0.004850 0.006640 
#    y 0.004850 1.814130 -0.007870 
#    z 0.006640 -0.007870 1.838090 
# 
# From -- ./inp_files/18524.got.cif
#   From: 2010.05.17/outbox.cif.g08.bks.cpg/sg2_10_cif.got.tgz:18524.got - 2010.06.03 11:33:40.
