data_PCOD9023780
_publ_section_title
;
Structure prediction by ZEFSAII (Michael W. Deem and Ramdas Pophale) SiO2 
 PCOD9023780
Probable space group: P -1
;
_chemical_formula_sum "Si O2"
_cell_formula_units_Z 14
_cell_length_a 4.889689
_cell_length_b 23.257863
_cell_length_c 5.426464
_cell_angle_alpha 64.435051
_cell_angle_beta 81.918880
_cell_angle_gamma 87.373847
_cell_volume 551.095655
_symmetry_space_group_name_H-M "P -1"
_symmetry_group_IT_number 2
_symmetry_cell_setting 'triclinic'
loop_
_space_group_symop_operation_xyz
x,y,z
-x,-y,-z
loop_
_atom_site_type_symbol
_atom_site_label
_atom_site_fract_x
_atom_site_fract_y
_atom_site_fract_z
Si Si1 0.259655 0.584889 0.739390
Si Si2 0.810107 0.187856 0.979167
Si Si3 0.762223 0.517160 0.686834
Si Si4 0.603446 0.925263 0.823452
Si Si5 0.237103 0.043019 0.764413
Si Si6 0.989009 0.710397 0.536372
Si Si7 0.275726 0.262415 0.983488
O O1 0.492804 0.557245 0.578346
O O2 0.231651 0.659829 0.611244
O O3 0.667083 0.451749 0.951696
O O4 0.946618 0.561062 0.767144
O O5 0.890773 0.217527 0.647188
O O6 0.586634 0.239554 0.002657
O O7 0.084126 0.198638 0.084468
O O8 0.654546 0.120832 0.122634
O O9 0.000000 0.500000 0.500000
O O10 0.807578 0.930944 0.553565
O O11 0.492295 0.996172 0.763525
O O12 0.705428 0.905676 0.120963
O O13 0.000000 0.000000 0.000000
O O14 0.815510 0.700929 0.321607
O O15 0.814707 0.704447 0.816868
#
# Coordination Sequence:
#
# PCOD9023780 Si02
#       7
#     2   2   2   2   2   2   2
#     4  10  23  38  62  91 124 161 212 256 312 377
#     4  10  26  42  66  97 127 173 209 271 315 387
#     4  10  22  40  61  92 122 165 205 260 315 369
#     4  10  23  38  62  90 126 154 217 248 322 371
#     4  10  22  40  62  91 120 166 201 263 310 377
#     4  10  26  43  67  96 130 170 217 263 320 380
#     4  10  26  41  66  93 131 165 221 251 330 367
#
# _framework density 25.403939999999999
#
# number of rings (size 3 to 8) (size 9 to 14) (size 15 to 20)
#    0.857    1.143    0.000    0.857   10.000    1.143 
#    0.000    0.000    0.000    0.000    0.000    0.000 
#    0.000    0.000    0.000    0.000    0.000    0.000 
#
# Total GULP energy -78120.998407 kJ/mol
# GULP energy per Si atom -5580.071315 kJ/mol
# Density = 2.534612 g / cm^3
# Si number density = 25.403940 Si / 1000 Ang^3
#
#
#
# Elastic Constant Matrix: (Units=GPa)
#
#
# Indices 1 2 3 4 5 6 
#
# 1 90.1044 5.1906 23.7326 -0.2151 -13.0935 -7.7816
# 2 5.1906 66.4034 50.5944 -3.3854 14.0722 -16.9707
# 3 23.7326 50.5944 147.7096 35.6638 6.9011 4.4268
# 4 -0.2151 -3.3854 35.6638 44.6951 0.2680 -2.4279
# 5 -13.0935 14.0722 6.9011 0.2680 29.2162 -5.8262
# 6 -7.7816 -16.9707 4.4268 -2.4279 -5.8262 27.8254
#
#
#
# Elastic Compliance Matrix: (Units=1/GPa)
#
#
# Indices 1 2 3 4 5 6 
#
# 1 0.014316 0.004483 -0.005814 0.005530 0.007517 0.009720
# 2 0.004483 0.039685 -0.019796 0.020438 -0.006842 0.028958
# 3 -0.005814 -0.019796 0.019460 -0.018060 -0.001216 -0.018626
# 4 0.005530 0.020438 -0.018060 0.039467 0.000618 0.020458
# 5 0.007517 -0.006842 -0.001216 0.000618 0.042588 0.007094
# 6 0.009720 0.028958 -0.018626 0.020458 0.007094 0.062552
#
#
# Mechanical properties :
#
#
# Convention : Reuss Voigt Hill
#
# Bulk Modulus (GPa) = 32.04252 51.47251 41.75751
# Shear Modulus (GPa) = 18.46901 35.32732 26.89816
#
# Velocity S-wave (km/s) = 2.69924 3.73315 3.25748
# Velocity P-wave (km/s) = 4.72812 6.23599 5.53365
#
# Compressibility (1/GPa) = 0.03120853
#
# Stress axis : x y z
#
# Youngs Moduli (GPa) = 69.85102 25.19851 51.38639
#
# Poissons Ratio (x) = -0.11298 0.29874
# Poissons Ratio (y) = -0.31317 1.01726
# Poissons Ratio (z) = 0.40609 0.49884
#
# Static dielectric constant tensor:
#      x y z
#    x 2.051360 0.028000 0.033630 
#    y 0.028000 2.061450 0.005740 
#    z 0.033630 0.005740 2.080020 
# 
# From -- ./inp_files/14347.got.cif
#   From: 2010.05.17/outbox.cif.g08.bks.cpg/sg2_8_cif.got.tgz:14347.got - 2010.06.03 11:33:40.
