data_PCOD9023371
_publ_section_title
;
Structure prediction by ZEFSAII (Michael W. Deem and Ramdas Pophale) SiO2 
 PCOD9023371
Probable space group: P -1
;
_chemical_formula_sum "Si O2"
_cell_formula_units_Z 14
_cell_length_a 10.135074
_cell_length_b 12.484113
_cell_length_c 19.323971
_cell_angle_alpha 152.829617
_cell_angle_beta 144.098601
_cell_angle_gamma 50.390131
_cell_volume 622.383678
_symmetry_space_group_name_H-M "P -1"
_symmetry_group_IT_number 2
_symmetry_cell_setting 'triclinic'
loop_
_space_group_symop_operation_xyz
x,y,z
-x,-y,-z
loop_
_atom_site_type_symbol
_atom_site_label
_atom_site_fract_x
_atom_site_fract_y
_atom_site_fract_z
Si Si1 0.458437 0.889397 0.618192
Si Si2 0.745025 0.117990 0.004142
Si Si3 0.736954 0.580428 0.487825
Si Si4 0.564576 0.656392 0.905095
Si Si5 0.570188 0.835178 0.375462
Si Si6 0.230231 0.399045 0.296091
Si Si7 0.052560 0.827795 0.640754
O O1 0.660711 0.772944 0.612081
O O2 0.234437 0.645987 0.398221
O O3 0.557254 0.045350 0.818745
O O4 0.426858 0.051786 0.633736
O O5 0.771257 0.855497 0.888635
O O6 0.639427 0.249080 0.093136
O O7 0.993611 0.295193 0.181997
O O8 0.527259 0.461334 0.275710
O O9 0.798694 0.355254 0.421288
O O10 0.952841 0.734632 0.620622
O O11 0.602013 0.442392 0.846321
O O12 0.786909 0.893658 0.129183
O O13 0.827473 0.812435 0.489432
O O14 0.500000 0.000000 0.500000
O O15 0.500000 0.500000 0.500000
#
# Coordination Sequence:
#
# PCOD9023371 Si02
#       7
#     2   2   2   2   2   2   2
#     4  11  22  42  65  92 135 170 209 260 327 377
#     4  10  23  40  63 100 126 163 217 269 310 385
#     4  10  22  40  64  98 127 162 217 270 318 380
#     4  11  23  41  65  92 129 166 219 264 322 376
#     4  11  24  45  58  94 135 171 212 268 315 386
#     4   9  21  40  66  94 133 167 208 263 328 377
#     4  10  22  39  68  93 126 170 214 268 320 375
#
# _framework density 22.494161999999999
#
# number of rings (size 3 to 8) (size 9 to 14) (size 15 to 20)
#    0.000    1.714    2.857    1.286    0.000   18.286 
#    0.000    1.429    0.000    0.000    0.000    0.000 
#    0.000    0.000    0.000    0.000    0.000    0.000 
#
# Total GULP energy -78242.577302 kJ/mol
# GULP energy per Si atom -5588.755522 kJ/mol
# Density = 2.244296 g / cm^3
# Si number density = 22.494162 Si / 1000 Ang^3
#
#
#
# Elastic Constant Matrix: (Units=GPa)
#
#
# Indices 1 2 3 4 5 6 
#
# 1 35.5499 1.0397 19.9514 -4.2111 18.4810 13.2532
# 2 1.0397 97.8273 33.0226 11.0087 12.4152 38.1481
# 3 19.9514 33.0226 131.7351 24.1934 38.8833 27.6852
# 4 -4.2111 11.0087 24.1934 30.4928 11.9094 6.1429
# 5 18.4810 12.4152 38.8833 11.9094 45.3850 4.4321
# 6 13.2532 38.1481 27.6852 6.1429 4.4321 39.0374
#
#
#
# Elastic Compliance Matrix: (Units=1/GPa)
#
#
# Indices 1 2 3 4 5 6 
#
# 1 0.058052 0.013606 -0.000689 0.021650 -0.029268 -0.032600
# 2 0.013606 0.020218 0.000202 0.003023 -0.009704 -0.023894
# 3 -0.000689 0.000202 0.012644 -0.005455 -0.008482 -0.007109
# 4 0.021650 0.003023 -0.005455 0.047843 -0.016341 -0.012109
# 5 -0.029268 -0.009704 -0.008482 -0.016341 0.045936 0.022791
# 6 -0.032600 -0.023894 -0.007109 -0.012109 0.022791 0.064394
#
#
# Mechanical properties :
#
#
# Convention : Reuss Voigt Hill
#
# Bulk Modulus (GPa) = 8.53587 41.45997 24.99792
# Shear Modulus (GPa) = 19.09138 37.05628 28.07383
#
# Velocity S-wave (km/s) = 2.91645 4.06319 3.53661
# Velocity P-wave (km/s) = 3.89151 6.36271 5.27390
#
# Compressibility (1/GPa) = 0.11715266
#
# Stress axis : x y z
#
# Youngs Moduli (GPa) = 17.22608 49.46002 79.08828
#
# Poissons Ratio (x) = -0.67297 0.05446
# Poissons Ratio (y) = -0.23438 -0.01595
# Poissons Ratio (z) = 0.01186 -0.00997
#
# Static dielectric constant tensor:
#      x y z
#    x 1.922270 0.044560 0.012250 
#    y 0.044560 1.872700 -0.003140 
#    z 0.012250 -0.003140 1.837140 
# 
# From -- ./inp_files/610590.got.cif
#   From: 2010.05.17/outbox.cif.g08.bks.cpg/sg2_306_cif.got.tgz:610590.got - 2010.06.03 11:33:40.
