data_PCOD9023377
_publ_section_title
;
Structure prediction by ZEFSAII (Michael W. Deem and Ramdas Pophale) SiO2 
 PCOD9023377
Probable space group: P -1
;
_chemical_formula_sum "Si O2"
_cell_formula_units_Z 12
_cell_length_a 5.047389
_cell_length_b 11.827915
_cell_length_c 11.732391
_cell_angle_alpha 124.767571
_cell_angle_beta 100.797921
_cell_angle_gamma 57.668416
_cell_volume 479.144112
_symmetry_space_group_name_H-M "P -1"
_symmetry_group_IT_number 2
_symmetry_cell_setting 'triclinic'
loop_
_space_group_symop_operation_xyz
x,y,z
-x,-y,-z
loop_
_atom_site_type_symbol
_atom_site_label
_atom_site_fract_x
_atom_site_fract_y
_atom_site_fract_z
Si Si1 0.530927 0.838244 0.277229
Si Si2 0.495161 0.072920 0.225734
Si Si3 0.795572 0.292526 0.689183
Si Si4 0.379816 0.397504 0.492086
Si Si5 0.976230 0.791708 0.941658
Si Si6 0.683778 0.624856 0.944553
O O1 0.256133 0.833002 0.317324
O O2 0.829634 0.794418 0.357543
O O3 0.434971 0.996884 0.288310
O O4 0.653180 0.696723 0.108966
O O5 0.523143 0.222508 0.347340
O O6 0.209404 0.139356 0.150744
O O7 0.801396 0.929626 0.103127
O O8 0.532321 0.362800 0.609880
O O9 0.729437 0.449552 0.845431
O O10 0.500000 0.500000 0.500000
O O11 0.000000 0.500000 0.500000
O O12 0.929622 0.647959 0.902513
O O13 0.336273 0.740310 0.928117
#
# Coordination Sequence:
#
# PCOD9023377 Si02
#       6
#     2   2   2   2   2   2
#     4  11  24  39  63  94 130 170 201 255 312 370
#     4  10  24  43  64  95 129 162 214 255 312 374
#     4  12  24  41  64  95 130 166 207 251 313 377
#     4  12  27  46  69  92 122 165 211 264 314 369
#     4  10  22  39  68  94 123 167 208 266 306 351
#     4  11  21  40  65  95 128 163 213 257 306 362
#
# _framework density 25.044656
#
# number of rings (size 3 to 8) (size 9 to 14) (size 15 to 20)
#    0.000    1.000    0.000    7.000    0.000   12.667 
#    0.000    0.000    0.000    0.000    0.000    0.000 
#    0.000    0.000    0.000    0.000    0.000    0.000 
#
# Total GULP energy -67301.888822 kJ/mol
# GULP energy per Si atom -5608.490735 kJ/mol
# Density = 2.498765 g / cm^3
# Si number density = 25.044656 Si / 1000 Ang^3
#
#
#
# Elastic Constant Matrix: (Units=GPa)
#
#
# Indices 1 2 3 4 5 6 
#
# 1 125.6151 56.0331 43.2090 -0.6247 27.9256 8.2041
# 2 56.0331 96.4184 25.6050 -0.4104 19.9758 30.0428
# 3 43.2090 25.6050 70.4343 10.8160 23.0176 16.7659
# 4 -0.6247 -0.4104 10.8160 40.8124 4.1829 17.1810
# 5 27.9256 19.9758 23.0176 4.1829 24.4788 -2.8951
# 6 8.2041 30.0428 16.7659 17.1810 -2.8951 49.9326
#
#
#
# Elastic Compliance Matrix: (Units=1/GPa)
#
#
# Indices 1 2 3 4 5 6 
#
# 1 0.013488 -0.006124 -0.004954 0.000995 -0.005609 0.002465
# 2 -0.006124 0.022354 0.005077 0.008457 -0.019627 -0.018196
# 3 -0.004954 0.005077 0.026540 0.000967 -0.025143 -0.012943
# 4 0.000995 0.008457 0.000967 0.033717 -0.016855 -0.018155
# 5 -0.005609 -0.019627 -0.025143 -0.016855 0.093622 0.032400
# 6 0.002465 -0.018196 -0.012943 -0.018155 0.032400 0.043042
#
#
# Mechanical properties :
#
#
# Convention : Reuss Voigt Hill
#
# Bulk Modulus (GPa) = 19.84934 60.24022 40.04478
# Shear Modulus (GPa) = 19.11619 34.21947 26.66783
#
# Velocity S-wave (km/s) = 2.76576 3.70041 3.26668
# Velocity P-wave (km/s) = 4.25934 6.50867 5.50022
#
# Compressibility (1/GPa) = 0.05037951
#
# Stress axis : x y z
#
# Youngs Moduli (GPa) = 74.14061 44.73423 37.67866
#
# Poissons Ratio (x) = 0.27396 0.18667
# Poissons Ratio (y) = 0.45406 -0.19130
# Poissons Ratio (z) = 0.36732 -0.22712
#
# Static dielectric constant tensor:
#      x y z
#    x 1.921900 -0.029660 -0.002140 
#    y -0.029660 1.979990 -0.005950 
#    z -0.002140 -0.005950 1.986600 
# 
# From -- ./inp_files/363469.got.cif
#   From: 2010.05.17/outbox.cif.g08.bks.cpg/sg2_182_cif.got.tgz:363469.got - 2010.06.03 11:33:40.
