data_PCOD9023842
_publ_section_title
;
Structure prediction by ZEFSAII (Michael W. Deem and Ramdas Pophale) SiO2 
 PCOD9023842
Probable space group: P -1
;
_chemical_formula_sum "Si O2"
_cell_formula_units_Z 15
_cell_length_a 6.673582
_cell_length_b 14.418533
_cell_length_c 21.196749
_cell_angle_alpha 28.701597
_cell_angle_beta 41.506571
_cell_angle_gamma 43.931180
_cell_volume 636.164428
_symmetry_space_group_name_H-M "P -1"
_symmetry_group_IT_number 2
_symmetry_cell_setting 'triclinic'
loop_
_space_group_symop_operation_xyz
x,y,z
-x,-y,-z
loop_
_atom_site_type_symbol
_atom_site_label
_atom_site_fract_x
_atom_site_fract_y
_atom_site_fract_z
Si Si1 0.746098 0.482785 0.121174
Si Si2 0.500000 0.500000 0.500000
Si Si3 0.777117 0.858818 0.282745
Si Si4 0.422603 0.788101 0.224186
Si Si5 0.392022 0.186737 0.508003
Si Si6 0.184072 0.513534 0.758062
Si Si7 0.330049 0.893535 0.957202
Si Si8 0.278044 0.208817 0.388939
O O1 0.909214 0.487266 0.147429
O O2 0.596592 0.289698 0.265105
O O3 0.452937 0.664041 0.077339
O O4 0.000000 0.500000 0.000000
O O5 0.641699 0.682340 0.389225
O O6 0.418097 0.631356 0.374696
O O7 0.697445 0.881719 0.362179
O O8 0.145692 0.804862 0.230432
O O9 0.667468 0.048406 0.151634
O O10 0.730391 0.700348 0.164738
O O11 0.430599 0.995922 0.129412
O O12 0.514702 0.386285 0.369930
O O13 0.157507 0.223741 0.481276
O O14 0.653206 0.011593 0.522366
O O15 0.954678 0.654123 0.682984
O O16 0.000000 0.000000 0.000000
#
# Coordination Sequence:
#
# PCOD9023842 Si02
#       8
#     2   1   2   2   2   2   2   2
#     4  11  27  46  66 101 136 179 238 276 329 405
#     4  10  22  40  62 104 134 170 214 284 340 412
#     4  11  24  41  71  99 137 174 225 282 346 404
#     4  11  24  40  69 101 133 179 223 280 339 407
#     4  10  23  42  66 103 130 175 223 277 342 412
#     4  11  23  43  71  95 134 177 219 285 342 400
#     4  11  26  47  67  99 142 184 233 279 334 409
#     4  10  24  44  68  94 138 177 221 280 336 405
#
# _framework density 23.578809
#
# number of rings (size 3 to 8) (size 9 to 14) (size 15 to 20)
#    0.000    1.333    1.333    2.400    5.600    5.867 
#    0.000    0.000    0.000    0.000    0.000    0.000 
#    0.000    0.000    0.000    0.000    0.000    0.000 
#
# Total GULP energy -83681.485643 kJ/mol
# GULP energy per Si atom -5578.765710 kJ/mol
# Density = 2.352514 g / cm^3
# Si number density = 23.578809 Si / 1000 Ang^3
#
#
#
# Elastic Constant Matrix: (Units=GPa)
#
#
# Indices 1 2 3 4 5 6 
#
# 1 142.3748 30.5087 24.7494 -5.9597 41.1372 7.7446
# 2 30.5087 64.3302 21.0567 2.1841 12.9363 11.8629
# 3 24.7494 21.0567 69.5775 -3.7476 16.0155 13.9349
# 4 -5.9597 2.1841 -3.7476 37.0469 12.8656 3.5336
# 5 41.1372 12.9363 16.0155 12.8656 44.7886 8.2756
# 6 7.7446 11.8629 13.9349 3.5336 8.2756 23.1782
#
#
#
# Elastic Compliance Matrix: (Units=1/GPa)
#
#
# Indices 1 2 3 4 5 6 
#
# 1 0.011159 -0.003391 -0.000365 0.005656 -0.011003 0.001292
# 2 -0.003391 0.019505 -0.003552 -0.001571 0.000426 -0.006627
# 3 -0.000365 -0.003552 0.018631 0.004588 -0.005116 -0.008134
# 4 0.005656 -0.001571 0.004588 0.034196 -0.015558 -0.003503
# 5 -0.011003 0.000426 -0.005116 -0.015558 0.039574 -0.005224
# 6 0.001292 -0.006627 -0.008134 -0.003503 -0.005224 0.053393
#
#
# Mechanical properties :
#
#
# Convention : Reuss Voigt Hill
#
# Bulk Modulus (GPa) = 28.83491 47.65688 38.24589
# Shear Modulus (GPa) = 24.67490 34.33392 29.50441
#
# Velocity S-wave (km/s) = 3.23845 3.82007 3.54122
# Velocity P-wave (km/s) = 5.12242 6.30182 5.74248
#
# Compressibility (1/GPa) = 0.03468019
#
# Stress axis : x y z
#
# Youngs Moduli (GPa) = 89.61023 51.26825 53.67370
#
# Poissons Ratio (x) = 0.17383 0.01958
# Poissons Ratio (y) = 0.30384 0.19067
# Poissons Ratio (z) = 0.03269 0.18213
#
# Static dielectric constant tensor:
#      x y z
#    x 1.924740 -0.067680 0.015550 
#    y -0.067680 1.950240 0.061760 
#    z 0.015550 0.061760 1.874950 
# 
# From -- ./inp_files/101073.got.cif
#   From: 2010.05.17/outbox.cif.g08.bks.cpg/sg2_51_cif.got.tgz:101073.got - 2010.06.03 11:33:40.
