data_PCOD9023949
_publ_section_title
;
Structure prediction by ZEFSAII (Michael W. Deem and Ramdas Pophale) SiO2 
 PCOD9023949
Probable space group: P -1
;
_chemical_formula_sum "Si O2"
_cell_formula_units_Z 16
_cell_length_a 12.256751
_cell_length_b 6.752956
_cell_length_c 15.437536
_cell_angle_alpha 52.394794
_cell_angle_beta 122.792970
_cell_angle_gamma 124.783918
_cell_volume 793.786227
_symmetry_space_group_name_H-M "P -1"
_symmetry_group_IT_number 2
_symmetry_cell_setting 'triclinic'
loop_
_space_group_symop_operation_xyz
x,y,z
-x,-y,-z
loop_
_atom_site_type_symbol
_atom_site_label
_atom_site_fract_x
_atom_site_fract_y
_atom_site_fract_z
Si Si1 0.906012 0.893476 0.570574
Si Si2 0.893139 0.292325 0.755420
Si Si3 0.594808 0.864427 0.690877
Si Si4 0.458930 0.564379 0.060996
Si Si5 0.591452 0.780919 0.507810
Si Si6 0.709732 0.104996 0.060369
Si Si7 0.127017 0.579615 0.100265
Si Si8 0.009672 0.997432 0.762346
O O1 0.909059 0.596322 0.664441
O O2 0.746308 0.868130 0.511813
O O3 0.980344 0.081496 0.632987
O O4 0.000000 0.000000 0.500000
O O5 0.899851 0.272817 0.866898
O O6 0.743272 0.100326 0.707895
O O7 0.006231 0.202644 0.779526
O O8 0.572241 0.660544 0.817019
O O9 0.592573 0.753736 0.620938
O O10 0.477995 0.000798 0.602815
O O11 0.585865 0.821828 0.082247
O O12 0.500000 0.500000 0.000000
O O13 0.331184 0.671229 0.967125
O O14 0.500000 0.500000 0.500000
O O15 0.849428 0.064658 0.161657
O O16 0.739336 0.226701 0.943361
O O17 0.119578 0.283634 0.201006
O O18 0.000000 0.500000 0.000000
#
# Coordination Sequence:
#
# PCOD9023949 Si02
#       8
#     2   2   2   2   2   2   2   2
#     4  11  25  42  64  98 135 171 219 289 347 395
#     4  11  21  39  66  94 127 174 218 280 326 405
#     4  11  24  42  71  98 127 178 240 272 337 413
#     4  11  25  41  64  96 135 173 223 276 339 406
#     4  11  24  45  71  98 132 178 232 288 340 399
#     4  10  23  40  59  94 132 175 209 272 334 391
#     4   9  20  37  62  89 125 167 213 261 321 399
#     4  10  22  40  62  92 130 170 222 263 337 404
#
# _framework density 20.156562000000001
#
# number of rings (size 3 to 8) (size 9 to 14) (size 15 to 20)
#    0.000    1.500    2.500    1.500    1.750   10.500 
#    0.000    0.000    0.000    0.000    0.000    0.000 
#    0.000    0.000    0.000    0.000    0.000    0.000 
#
# Total GULP energy -89266.113153 kJ/mol
# GULP energy per Si atom -5579.132072 kJ/mol
# Density = 2.011069 g / cm^3
# Si number density = 20.156562 Si / 1000 Ang^3
#
#
#
# Elastic Constant Matrix: (Units=GPa)
#
#
# Indices 1 2 3 4 5 6 
#
# 1 153.6068 38.6200 58.6943 3.0198 7.7043 -25.8740
# 2 38.6200 75.3117 31.1727 10.0158 -8.4064 -21.2756
# 3 58.6943 31.1727 78.7788 7.7654 -1.2856 -12.3619
# 4 3.0198 10.0158 7.7654 34.0913 -2.5402 -8.6077
# 5 7.7043 -8.4064 -1.2856 -2.5402 47.1858 0.1453
# 6 -25.8740 -21.2756 -12.3619 -8.6077 0.1453 39.4380
#
#
#
# Elastic Compliance Matrix: (Units=1/GPa)
#
#
# Indices 1 2 3 4 5 6 
#
# 1 0.010204 -0.001913 -0.006435 0.002001 -0.002087 0.004090
# 2 -0.001913 0.018828 -0.004656 -0.002299 0.003395 0.006929
# 3 -0.006435 -0.004656 0.019416 -0.002756 0.000606 -0.001252
# 4 0.002001 -0.002299 -0.002756 0.032094 0.000897 0.006210
# 5 -0.002087 0.003395 0.000606 0.000897 0.022201 0.000766
# 6 0.004090 0.006929 -0.001252 0.006210 0.000766 0.032738
#
#
# Mechanical properties :
#
#
# Convention : Reuss Voigt Hill
#
# Bulk Modulus (GPa) = 44.56255 62.74125 53.65190
# Shear Modulus (GPa) = 29.59121 36.09038 32.84079
#
# Velocity S-wave (km/s) = 3.83569 4.23602 4.04082
# Velocity P-wave (km/s) = 6.46320 7.42427 6.96034
#
# Compressibility (1/GPa) = 0.02244037
#
# Stress axis : x y z
#
# Youngs Moduli (GPa) = 97.99755 53.11174 51.50411
#
# Poissons Ratio (x) = 0.10159 0.33145
# Poissons Ratio (y) = 0.18744 0.23980
# Poissons Ratio (z) = 0.63065 0.24729
#
# Static dielectric constant tensor:
#      x y z
#    x 1.177310 0.024240 1.285090 
#    y 0.024240 1.700810 -0.071070 
#    z 1.285090 -0.071070 -1.032660 
# 
# From -- ./inp_files/123666.got.cif
#   From: 2010.05.17/outbox.cif.g08.bks.cpg/sg2_62_cif.got.tgz:123666.got - 2010.06.03 11:33:40.
