data_PCOD9023825
_publ_section_title
;
Structure prediction by ZEFSAII (Michael W. Deem and Ramdas Pophale) SiO2 
 PCOD9023825
Probable space group: P -1
;
_chemical_formula_sum "Si O2"
_cell_formula_units_Z 12
_cell_length_a 18.483673
_cell_length_b 8.004002
_cell_length_c 14.294889
_cell_angle_alpha 55.015038
_cell_angle_beta 160.319128
_cell_angle_gamma 116.316468
_cell_volume 546.655630
_symmetry_space_group_name_H-M "P -1"
_symmetry_group_IT_number 2
_symmetry_cell_setting 'triclinic'
loop_
_space_group_symop_operation_xyz
x,y,z
-x,-y,-z
loop_
_atom_site_type_symbol
_atom_site_label
_atom_site_fract_x
_atom_site_fract_y
_atom_site_fract_z
Si Si1 0.379089 0.685433 0.163149
Si Si2 0.726197 0.487795 0.515477
Si Si3 0.166104 0.169206 0.812993
Si Si4 0.201723 0.395092 0.157932
Si Si5 0.403157 0.924459 0.497878
Si Si6 0.234664 0.526689 0.652781
O O1 0.482624 0.664675 0.191965
O O2 0.266886 0.507689 0.109995
O O3 0.604702 0.620489 0.525289
O O4 0.215618 0.925397 0.915251
O O5 0.698476 0.262279 0.584797
O O6 0.787109 0.467135 0.487260
O O7 0.936803 0.527761 0.810528
O O8 0.168420 0.329216 0.679436
O O9 0.940644 0.266120 0.571896
O O10 0.385743 0.160976 0.145624
O O11 0.222775 0.146851 0.246349
O O12 0.500000 0.000000 0.500000
O O13 0.500000 0.500000 0.000000
#
# Coordination Sequence:
#
# PCOD9023825 Si02
#       6
#     2   2   2   2   2   2
#     4  10  23  42  63  95 136 165 203 264 325 377
#     4  12  23  39  69  97 127 167 222 257 308 381
#     4  10  24  44  65  90 131 170 206 265 324 369
#     4  10  22  40  61  97 137 168 201 258 326 381
#     4  11  20  39  66  95 130 166 212 260 320 376
#     4  11  24  44  67  92 123 169 222 263 307 378
#
# _framework density 21.951663
#
# number of rings (size 3 to 8) (size 9 to 14) (size 15 to 20)
#    0.000    1.333    3.333    2.000    0.000    2.000 
#    0.000    1.667    0.000    0.000    0.000    0.000 
#    0.000    0.000    0.000    0.000    0.000    0.000 
#
# Total GULP energy -67031.346819 kJ/mol
# GULP energy per Si atom -5585.945568 kJ/mol
# Density = 2.190170 g / cm^3
# Si number density = 21.951663 Si / 1000 Ang^3
#
#
#
# Elastic Constant Matrix: (Units=GPa)
#
#
# Indices 1 2 3 4 5 6 
#
# 1 137.3976 30.8164 38.2448 -15.3169 26.1070 19.3157
# 2 30.8164 71.2330 36.9251 -8.9028 12.5305 -1.8527
# 3 38.2448 36.9251 98.3657 -8.4323 39.3974 2.4399
# 4 -15.3169 -8.9028 -8.4323 26.3336 -5.5854 1.7355
# 5 26.1070 12.5305 39.3974 -5.5854 42.2082 -6.5330
# 6 19.3157 -1.8527 2.4399 1.7355 -6.5330 21.1620
#
#
#
# Elastic Compliance Matrix: (Units=1/GPa)
#
#
# Indices 1 2 3 4 5 6 
#
# 1 0.012272 -0.004084 0.001254 0.005198 -0.009176 -0.014962
# 2 -0.004084 0.019446 -0.008026 0.002332 0.005783 0.007950
# 3 0.001254 -0.008026 0.020729 0.001265 -0.019161 -0.010256
# 4 0.005198 0.002332 0.001265 0.042586 -0.000755 -0.008412
# 5 -0.009176 0.005783 -0.019161 -0.000755 0.049529 0.026444
# 6 -0.014962 0.007950 -0.010256 -0.008412 0.026444 0.071643
#
#
# Mechanical properties :
#
#
# Convention : Reuss Voigt Hill
#
# Bulk Modulus (GPa) = 32.53610 57.66321 45.09966
# Shear Modulus (GPa) = 20.14819 31.34144 25.74481
#
# Velocity S-wave (km/s) = 3.03288 3.78265 3.42833
# Velocity P-wave (km/s) = 5.20753 6.73819 6.02169
#
# Compressibility (1/GPa) = 0.03073509
#
# Stress axis : x y z
#
# Youngs Moduli (GPa) = 81.48849 51.42346 48.24248
#
# Poissons Ratio (x) = 0.21002 -0.06049
# Poissons Ratio (y) = 0.33281 0.38717
# Poissons Ratio (z) = -0.10218 0.41270
#
# Static dielectric constant tensor:
#      x y z
#    x 1.868010 -0.039780 -0.020120 
#    y -0.039780 1.763360 -0.007620 
#    z -0.020120 -0.007620 1.844440 
# 
# From -- ./inp_files/23092.got.cif
#   From: 2010.05.17/outbox.cif.g08.bks.cpg/sg2_12_cif.got.tgz:23092.got - 2010.06.03 11:33:40.
