data_PCOD9023853
_publ_section_title
;
Structure prediction by ZEFSAII (Michael W. Deem and Ramdas Pophale) SiO2 
 PCOD9023853
Probable space group: P -1
;
_chemical_formula_sum "Si O2"
_cell_formula_units_Z 10
_cell_length_a 10.850377
_cell_length_b 7.784898
_cell_length_c 7.589729
_cell_angle_alpha 139.520963
_cell_angle_beta 95.612054
_cell_angle_gamma 78.318405
_cell_volume 405.964415
_symmetry_space_group_name_H-M "P -1"
_symmetry_group_IT_number 2
_symmetry_cell_setting 'triclinic'
loop_
_space_group_symop_operation_xyz
x,y,z
-x,-y,-z
loop_
_atom_site_type_symbol
_atom_site_label
_atom_site_fract_x
_atom_site_fract_y
_atom_site_fract_z
Si Si1 0.897470 0.115611 0.274024
Si Si2 0.949752 0.542719 0.828456
Si Si3 0.694765 0.444622 0.237215
Si Si4 0.536502 0.998015 0.798268
Si Si5 0.259383 0.220543 0.816149
O O1 0.985994 0.300131 0.512255
O O2 0.791855 0.280035 0.261456
O O3 0.823210 0.009832 0.349329
O O4 0.970491 0.828892 0.987167
O O5 0.796176 0.601322 0.881562
O O6 0.000000 0.500000 0.000000
O O7 0.761342 0.590212 0.208843
O O8 0.593844 0.905701 0.249187
O O9 0.622419 0.224813 0.969136
O O10 0.603236 0.697787 0.515203
O O11 0.500000 0.000000 0.000000
#
# Coordination Sequence:
#
# PCOD9023853 Si02
#       5
#     2   2   2   2   2
#     4  10  22  40  62  86 123 153 201 243 303 347
#     4  10  22  43  66  85 119 157 199 254 305 345
#     4  12  24  39  61  91 126 158 199 241 293 359
#     4  12  23  39  61  89 128 164 193 240 296 354
#     4  10  25  37  64  89 122 159 205 240 294 355
#
# _framework density 24.6327
#
# number of rings (size 3 to 8) (size 9 to 14) (size 15 to 20)
#    1.200    0.000    2.000    4.800    5.600    0.000 
#    0.000    2.000    0.000    0.000    0.000    0.000 
#    0.000    0.000    0.000    0.000    0.000    0.000 
#
# Total GULP energy -55898.574569 kJ/mol
# GULP energy per Si atom -5589.857457 kJ/mol
# Density = 2.457663 g / cm^3
# Si number density = 24.632700 Si / 1000 Ang^3
#
#
#
# Elastic Constant Matrix: (Units=GPa)
#
#
# Indices 1 2 3 4 5 6 
#
# 1 85.2685 23.1114 23.3127 20.3125 1.1770 -13.6530
# 2 23.1114 161.9668 13.3148 32.0341 3.2814 -12.6496
# 3 23.3127 13.3148 132.9300 46.5597 6.3293 -12.3497
# 4 20.3125 32.0341 46.5597 39.1423 7.1309 -6.8373
# 5 1.1770 3.2814 6.3293 7.1309 36.5673 -1.4221
# 6 -13.6530 -12.6496 -12.3497 -6.8373 -1.4221 44.2838
#
#
#
# Elastic Compliance Matrix: (Units=1/GPa)
#
#
# Indices 1 2 3 4 5 6 
#
# 1 0.013890 -0.000439 0.000214 -0.006723 0.000991 0.003210
# 2 -0.000439 0.007959 0.002639 -0.009299 0.000713 0.001461
# 3 0.000214 0.002639 0.013871 -0.018641 0.001062 0.001844
# 4 -0.006723 -0.009299 -0.018641 0.060023 -0.007463 -0.000900
# 5 0.000991 0.000713 0.001062 -0.007463 0.028544 0.000570
# 6 0.003210 0.001461 0.001844 -0.000900 0.000570 0.024382
#
#
# Mechanical properties :
#
#
# Convention : Reuss Voigt Hill
#
# Bulk Modulus (GPa) = 24.66354 55.51590 40.08972
# Shear Modulus (GPa) = 31.77462 45.36045 38.56753
#
# Velocity S-wave (km/s) = 3.59546 4.29589 3.96119
# Velocity P-wave (km/s) = 5.22214 6.86969 6.10178
#
# Compressibility (1/GPa) = 0.04054569
#
# Stress axis : x y z
#
# Youngs Moduli (GPa) = 71.99367 125.64937 72.09317
#
# Poissons Ratio (x) = 0.05520 -0.01541
# Poissons Ratio (y) = 0.03163 -0.19022
# Poissons Ratio (z) = -0.01539 -0.33154
#
# Static dielectric constant tensor:
#      x y z
#    x 2.065630 -0.003890 -0.012670 
#    y -0.003890 1.972930 -0.002410 
#    z -0.012670 -0.002410 2.013300 
# 
# From -- ./inp_files/3910.got.cif
#   From: 2010.05.17/outbox.cif.g08.bks.cpg/sg2_2_cif.got.tgz:3910.got - 2010.06.03 11:33:40.
