data_PCOD9023153
_publ_section_title
;
Structure prediction by ZEFSAII (Michael W. Deem and Ramdas Pophale) SiO2 
 PCOD9023153
Probable space group: P -1
;
_chemical_formula_sum "Si O2"
_cell_formula_units_Z 16
_cell_length_a 10.113746
_cell_length_b 15.931984
_cell_length_c 9.298008
_cell_angle_alpha 31.197611
_cell_angle_beta 99.154369
_cell_angle_gamma 111.320338
_cell_volume 686.188584
_symmetry_space_group_name_H-M "P -1"
_symmetry_group_IT_number 2
_symmetry_cell_setting 'triclinic'
loop_
_space_group_symop_operation_xyz
x,y,z
-x,-y,-z
loop_
_atom_site_type_symbol
_atom_site_label
_atom_site_fract_x
_atom_site_fract_y
_atom_site_fract_z
Si Si1 0.460374 0.801205 0.856110
Si Si2 0.265373 0.174609 0.950765
Si Si3 0.996163 0.476000 0.834075
Si Si4 0.044543 0.010773 0.657758
Si Si5 0.198678 0.757390 0.091802
Si Si6 0.091504 0.206613 0.650642
Si Si7 0.658712 0.103573 0.799275
Si Si8 0.740148 0.364427 0.176257
O O1 0.595922 0.778346 0.987970
O O2 0.382717 0.649937 0.939924
O O3 0.500000 0.000000 0.500000
O O4 0.340641 0.776823 0.995595
O O5 0.118818 0.094376 0.142750
O O6 0.283909 0.037833 0.040045
O O7 0.229511 0.301101 0.647348
O O8 0.944100 0.398426 0.781729
O O9 0.995911 0.671494 0.548764
O O10 0.149323 0.488857 0.905821
O O11 0.864945 0.353716 0.104309
O O12 0.000000 0.000000 0.500000
O O13 0.122346 0.183590 0.523741
O O14 0.157933 0.923013 0.821774
O O15 0.237033 0.758330 0.263994
O O16 0.000000 0.000000 0.000000
O O17 0.652660 0.201487 0.508791
O O18 0.500000 0.000000 0.000000
#
# Coordination Sequence:
#
# PCOD9023153 Si02
#       8
#     2   2   2   2   2   2   2   2
#     4  11  20  38  68  96 132 181 235 276 334 411
#     4  11  22  40  64  98 136 179 222 286 341 397
#     4  10  24  43  68 100 141 181 230 288 351 407
#     4  11  24  37  65 101 141 170 233 282 348 402
#     4  11  24  40  65 108 132 179 235 288 335 418
#     4  10  22  42  66  93 139 185 222 282 348 408
#     4  12  22  41  70 104 135 179 233 284 333 414
#     4  10  22  39  66  95 136 174 229 282 346 390
#
# _framework density 23.317205999999999
#
# number of rings (size 3 to 8) (size 9 to 14) (size 15 to 20)
#    0.000    1.250    3.750    2.250    8.750    0.500 
#    0.000    2.500    0.000    1.500    0.000    0.000 
#    0.000    0.000    0.000    0.000    0.000    0.000 
#
# Total GULP energy -89147.177482 kJ/mol
# GULP energy per Si atom -5571.698593 kJ/mol
# Density = 2.326414 g / cm^3
# Si number density = 23.317206 Si / 1000 Ang^3
#
#
#
# Elastic Constant Matrix: (Units=GPa)
#
#
# Indices 1 2 3 4 5 6 
#
# 1 91.4189 25.0729 30.8894 34.5434 0.0942 28.1960
# 2 25.0729 183.2115 36.0894 52.3996 6.9238 37.0790
# 3 30.8894 36.0894 102.2869 32.7023 1.9629 -0.0405
# 4 34.5434 52.3996 32.7023 43.8785 0.6540 5.8997
# 5 0.0942 6.9238 1.9629 0.6540 35.1321 12.3351
# 6 28.1960 37.0790 -0.0405 5.8997 12.3351 56.2023
#
#
#
# Elastic Compliance Matrix: (Units=1/GPa)
#
#
# Indices 1 2 3 4 5 6 
#
# 1 0.022487 0.006245 -0.002125 -0.021753 0.004160 -0.014033
# 2 0.006245 0.011318 -0.000526 -0.016834 0.001297 -0.009118
# 3 -0.002125 -0.000526 0.013126 -0.007803 -0.001372 0.002543
# 4 -0.021753 -0.016834 -0.007803 0.063730 -0.002985 0.015979
# 5 0.004160 0.001297 -0.001372 -0.002985 0.031695 -0.009587
# 6 -0.014033 -0.009118 0.002543 0.015979 -0.009587 0.031277
#
#
# Mechanical properties :
#
#
# Convention : Reuss Voigt Hill
#
# Bulk Modulus (GPa) = 18.47741 62.33563 40.40652
# Shear Modulus (GPa) = 27.10250 46.03360 36.56805
#
# Velocity S-wave (km/s) = 3.41301 4.44805 3.96446
# Velocity P-wave (km/s) = 4.84490 7.29192 6.19052
#
# Compressibility (1/GPa) = 0.05412013
#
# Stress axis : x y z
#
# Youngs Moduli (GPa) = 44.46992 88.35387 76.18606
#
# Poissons Ratio (x) = -0.55181 0.16191
# Poissons Ratio (y) = -0.27773 0.04005
# Poissons Ratio (z) = 0.09451 0.04645
#
# Static dielectric constant tensor:
#      x y z
#    x 1.905780 0.123160 -0.012870 
#    y 0.123160 2.048670 -0.031900 
#    z -0.012870 -0.031900 1.988860 
# 
# From -- ./inp_files/205314.got.cif
#   From: 2010.05.17/outbox.cif.g08.bks.cpg/sg2_103_cif.got.tgz:205314.got - 2010.06.03 11:33:40.
