data_PCOD9023216
_publ_section_title
;
Structure prediction by ZEFSAII (Michael W. Deem and Ramdas Pophale) SiO2 
 PCOD9023216
Probable space group: P -1
;
_chemical_formula_sum "Si O2"
_cell_formula_units_Z 14
_cell_length_a 5.230133
_cell_length_b 18.790582
_cell_length_c 9.246860
_cell_angle_alpha 51.196486
_cell_angle_beta 69.822474
_cell_angle_gamma 58.221015
_cell_volume 601.872489
_symmetry_space_group_name_H-M "P -1"
_symmetry_group_IT_number 2
_symmetry_cell_setting 'triclinic'
loop_
_space_group_symop_operation_xyz
x,y,z
-x,-y,-z
loop_
_atom_site_type_symbol
_atom_site_label
_atom_site_fract_x
_atom_site_fract_y
_atom_site_fract_z
Si Si1 0.469141 0.787809 0.300670
Si Si2 0.956810 0.989831 0.193054
Si Si3 0.208150 0.319766 0.344923
Si Si4 0.105925 0.522932 0.211798
Si Si5 0.287160 0.111060 0.123532
Si Si6 0.432814 0.413634 0.549173
Si Si7 0.128590 0.711769 0.810527
O O1 0.719144 0.728840 0.447675
O O2 0.378870 0.706232 0.341765
O O3 0.609115 0.837639 0.093674
O O4 0.183361 0.874370 0.323401
O O5 0.600641 0.029135 0.234522
O O6 0.087116 0.057771 0.166808
O O7 0.000000 0.000000 0.000000
O O8 0.038909 0.441574 0.237285
O O9 0.539336 0.293130 0.250172
O O10 0.024319 0.281538 0.323484
O O11 0.383801 0.449453 0.347520
O O12 0.858164 0.577258 0.314433
O O13 0.155414 0.606370 0.006803
O O14 0.092680 0.196754 0.164468
O O15 0.500000 0.500000 0.500000
#
# Coordination Sequence:
#
# PCOD9023216 Si02
#       7
#     2   2   2   2   2   2   2
#     4  10  22  45  66  99 132 172 218 279 325 389
#     4  10  22  41  70 103 127 167 222 280 330 383
#     4  11  27  41  66  96 135 175 222 257 336 392
#     4  10  23  41  61  96 134 174 218 265 327 393
#     4  11  23  44  71  99 128 172 227 272 329 388
#     4  10  22  39  67 104 130 167 222 276 326 382
#     4  12  25  45  65  97 133 181 213 272 323 393
#
# _framework density 23.260743000000002
#
# number of rings (size 3 to 8) (size 9 to 14) (size 15 to 20)
#    0.000    1.429    1.429    3.429    6.000    5.714 
#    5.143    4.286    0.000    0.000    0.000    0.000 
#    0.000    0.000    0.000    0.000    0.000    0.000 
#
# Total GULP energy -78286.612735 kJ/mol
# GULP energy per Si atom -5591.900910 kJ/mol
# Density = 2.320780 g / cm^3
# Si number density = 23.260743 Si / 1000 Ang^3
#
#
#
# Elastic Constant Matrix: (Units=GPa)
#
#
# Indices 1 2 3 4 5 6 
#
# 1 112.6220 41.1753 20.5344 3.6471 -5.9867 3.8882
# 2 41.1753 156.5297 18.4502 -4.4347 1.3454 2.9008
# 3 20.5344 18.4502 50.6635 -0.6347 -5.5357 5.4828
# 4 3.6471 -4.4347 -0.6347 30.7529 -4.4295 -9.2492
# 5 -5.9867 1.3454 -5.5357 -4.4295 13.6436 7.1306
# 6 3.8882 2.9008 5.4828 -9.2492 7.1306 49.7258
#
#
#
# Elastic Compliance Matrix: (Units=1/GPa)
#
#
# Indices 1 2 3 4 5 6 
#
# 1 0.010613 -0.002509 -0.002850 -0.001480 0.003896 -0.001203
# 2 -0.002509 0.007325 -0.001977 0.001113 -0.002557 0.000561
# 3 -0.002850 -0.001977 0.023157 0.000980 0.010508 -0.003540
# 4 -0.001480 0.001113 0.000980 0.035703 0.008420 0.005376
# 5 0.003896 -0.002557 0.010508 0.008420 0.088774 -0.012478
# 6 -0.001203 0.000561 -0.003540 0.005376 -0.012478 0.023351
#
#
# Mechanical properties :
#
#
# Convention : Reuss Voigt Hill
#
# Bulk Modulus (GPa) = 37.84691 53.34834 45.59762
# Shear Modulus (GPa) = 23.54024 34.80147 29.17085
#
# Velocity S-wave (km/s) = 3.18467 3.87220 3.54514
# Velocity P-wave (km/s) = 5.46158 6.55566 6.03347
#
# Compressibility (1/GPa) = 0.02642224
#
# Stress axis : x y z
#
# Youngs Moduli (GPa) = 94.22591 136.52559 43.18415
#
# Poissons Ratio (x) = 0.34252 0.12309
# Poissons Ratio (y) = 0.23640 0.08536
# Poissons Ratio (z) = 0.26859 0.26986
#
# Static dielectric constant tensor:
#      x y z
#    x 1.922180 -0.040130 0.004500 
#    y -0.040130 1.970200 -0.042450 
#    z 0.004500 -0.042450 1.876980 
# 
# From -- ./inp_files/138483.got.cif
#   From: 2010.05.17/outbox.cif.g08.bks.cpg/sg2_70_cif.got.tgz:138483.got - 2010.06.03 11:33:40.
