data_PCOD9023207
_publ_section_title
;
Structure prediction by ZEFSAII (Michael W. Deem and Ramdas Pophale) SiO2 
 PCOD9023207
Probable space group: P -1
;
_chemical_formula_sum "Si O2"
_cell_formula_units_Z 14
_cell_length_a 10.190099
_cell_length_b 10.120489
_cell_length_c 18.760402
_cell_angle_alpha 27.915542
_cell_angle_beta 45.014166
_cell_angle_gamma 42.520058
_cell_volume 602.629224
_symmetry_space_group_name_H-M "P -1"
_symmetry_group_IT_number 2
_symmetry_cell_setting 'triclinic'
loop_
_space_group_symop_operation_xyz
x,y,z
-x,-y,-z
loop_
_atom_site_type_symbol
_atom_site_label
_atom_site_fract_x
_atom_site_fract_y
_atom_site_fract_z
Si Si1 0.443778 0.238923 0.105885
Si Si2 0.067004 0.808198 0.637898
Si Si3 0.090062 0.034451 0.666098
Si Si4 0.879983 0.785002 0.164462
Si Si5 0.557052 0.323882 0.211448
Si Si6 0.885163 0.397700 0.697172
Si Si7 0.567073 0.177732 0.583248
O O1 0.651509 0.966142 0.152180
O O2 0.325698 0.077385 0.276680
O O3 0.500000 0.500000 0.000000
O O4 0.364943 0.430435 0.974559
O O5 0.056265 0.484070 0.786063
O O6 0.300323 0.775340 0.554459
O O7 0.995908 0.931799 0.683642
O O8 0.000000 0.000000 0.500000
O O9 0.125404 0.325977 0.481139
O O10 0.958410 0.117603 0.748572
O O11 0.300365 0.799991 0.718421
O O12 0.952042 0.650635 0.279529
O O13 0.000000 0.000000 0.000000
O O14 0.329023 0.511230 0.227700
O O15 0.557826 0.019206 0.312843
O O16 0.500000 0.500000 0.500000
#
# Coordination Sequence:
#
# PCOD9023207 Si02
#       7
#     2   2   2   2   2   2   2
#     4  10  22  39  67 101 134 177 227 280 342 410
#     4  12  25  45  68 103 137 175 237 295 336 410
#     4  11  25  43  68 100 142 181 233 283 349 415
#     4  12  23  44  73  98 137 181 231 284 348 409
#     4  11  22  44  70  98 142 185 225 282 352 416
#     4  11  22  41  71 101 134 188 226 280 346 412
#     4  11  22  39  68 105 132 176 232 287 336 399
#
# _framework density 23.231532999999999
#
# number of rings (size 3 to 8) (size 9 to 14) (size 15 to 20)
#    0.000    0.857    5.714    2.143    2.000    0.000 
#    0.000    1.429    3.143    0.000    0.000    0.000 
#    0.000    0.000    0.000    0.000    0.000    0.000 
#
# Total GULP energy -77993.889971 kJ/mol
# GULP energy per Si atom -5570.992141 kJ/mol
# Density = 2.317866 g / cm^3
# Si number density = 23.231533 Si / 1000 Ang^3
#
#
#
# Elastic Constant Matrix: (Units=GPa)
#
#
# Indices 1 2 3 4 5 6 
#
# 1 87.6395 9.3938 7.6977 -7.4770 24.3948 11.3024
# 2 9.3938 98.9649 -1.7112 -15.3039 -5.2880 13.3906
# 3 7.6977 -1.7112 126.4431 -5.3196 5.7623 3.0479
# 4 -7.4770 -15.3039 -5.3196 30.4821 0.8606 4.1469
# 5 24.3948 -5.2880 5.7623 0.8606 40.0222 -4.0037
# 6 11.3024 13.3906 3.0479 4.1469 -4.0037 36.9395
#
#
#
# Elastic Compliance Matrix: (Units=1/GPa)
#
#
# Indices 1 2 3 4 5 6 
#
# 1 0.015516 -0.000457 -0.000138 0.004685 -0.010219 -0.006204
# 2 -0.000457 0.011888 0.000529 0.006573 0.001149 -0.004826
# 3 -0.000138 0.000529 0.008082 0.001831 -0.001164 -0.001148
# 4 0.004685 0.006573 0.001831 0.038879 -0.003963 -0.008761
# 5 -0.010219 0.001149 -0.001164 -0.003963 0.032295 0.006751
# 6 -0.006204 -0.004826 -0.001148 -0.008761 0.006751 0.032529
#
#
# Mechanical properties :
#
#
# Convention : Reuss Voigt Hill
#
# Bulk Modulus (GPa) = 28.28638 38.20089 33.24363
# Shear Modulus (GPa) = 33.08937 41.33326 37.21131
#
# Velocity S-wave (km/s) = 3.77812 4.22262 4.00654
# Velocity P-wave (km/s) = 5.58879 6.34455 5.97862
#
# Compressibility (1/GPa) = 0.03535271
#
# Stress axis : x y z
#
# Youngs Moduli (GPa) = 64.45026 84.11820 123.73132
#
# Poissons Ratio (x) = 0.03848 0.01713
# Poissons Ratio (y) = 0.02948 -0.06548
# Poissons Ratio (z) = 0.00892 -0.04452
#
# Static dielectric constant tensor:
#      x y z
#    x 2.036880 -0.044140 -0.033620 
#    y -0.044140 2.054210 0.091910 
#    z -0.033620 0.091910 1.930840 
# 
# From -- ./inp_files/177986.got.cif
#   From: 2010.05.17/outbox.cif.g08.bks.cpg/sg2_89_cif.got.tgz:177986.got - 2010.06.03 11:33:40.
