data_PCOD9023131
_publ_section_title
;
Structure prediction by ZEFSAII (Michael W. Deem and Ramdas Pophale) SiO2 
 PCOD9023131
Probable space group: P -1
;
_chemical_formula_sum "Si O2"
_cell_formula_units_Z 16
_cell_length_a 23.984783
_cell_length_b 8.645698
_cell_length_c 12.098458
_cell_angle_alpha 68.771255
_cell_angle_beta 40.375079
_cell_angle_gamma 35.262422
_cell_volume 674.540383
_symmetry_space_group_name_H-M "P -1"
_symmetry_group_IT_number 2
_symmetry_cell_setting 'triclinic'
loop_
_space_group_symop_operation_xyz
x,y,z
-x,-y,-z
loop_
_atom_site_type_symbol
_atom_site_label
_atom_site_fract_x
_atom_site_fract_y
_atom_site_fract_z
Si Si1 0.205315 0.807199 0.513783
Si Si2 0.264026 0.355818 0.965230
Si Si3 0.206182 0.554182 0.767259
Si Si4 0.838594 0.135488 0.689378
Si Si5 0.825457 0.837963 0.912403
Si Si6 0.776871 0.864844 0.212013
Si Si7 0.514884 0.856255 0.118632
Si Si8 0.255764 0.022763 0.526597
O O1 0.266793 0.557088 0.570001
O O2 0.240865 0.720764 0.352581
O O3 0.304864 0.798274 0.419770
O O4 0.966832 0.222431 0.769601
O O5 0.290461 0.112687 0.979227
O O6 0.309810 0.368947 0.777369
O O7 0.395569 0.202684 0.899908
O O8 0.228838 0.323624 0.753730
O O9 0.000000 0.000000 0.000000
O O10 0.893264 0.855178 0.715518
O O11 0.670742 0.453257 0.949283
O O12 0.000000 0.000000 0.500000
O O13 0.024965 0.413464 0.764673
O O14 0.729187 0.044328 0.123712
O O15 0.680040 0.100837 0.410098
O O16 0.000000 0.500000 0.000000
O O17 0.321591 0.092230 0.375190
O O18 0.500000 0.000000 0.000000
#
# Coordination Sequence:
#
# PCOD9023131 Si02
#       8
#     2   2   2   2   2   2   2   2
#     4  10  22  39  66  94 126 165 218 259 313 380
#     4   9  20  42  64  93 124 170 208 262 314 374
#     4   9  18  35  64  97 123 157 216 270 301 362
#     4  12  25  41  65  95 122 172 220 259 314 387
#     4   9  21  41  69  92 123 165 219 258 306 387
#     4   9  18  35  65  92 122 164 208 257 316 371
#     4  12  27  42  62  93 136 168 209 265 323 381
#     4  10  23  41  63  96 129 169 205 268 327 365
#
# _framework density 23.719856
#
# number of rings (size 3 to 8) (size 9 to 14) (size 15 to 20)
#    0.000    2.000    1.250    3.000    7.000    2.500 
#    0.000    5.000    0.000    0.000    0.000    0.000 
#    0.000    0.000    0.000    0.000    0.000    0.000 
#
# Total GULP energy -89229.109801 kJ/mol
# GULP energy per Si atom -5576.819363 kJ/mol
# Density = 2.366587 g / cm^3
# Si number density = 23.719856 Si / 1000 Ang^3
#
#
#
# Elastic Constant Matrix: (Units=GPa)
#
#
# Indices 1 2 3 4 5 6 
#
# 1 231.6743 55.3819 58.0381 -38.7457 12.9671 -24.3606
# 2 55.3819 72.2080 20.0636 -36.8103 1.7064 -17.6586
# 3 58.0381 20.0636 62.0608 -19.3648 0.4524 0.2382
# 4 -38.7457 -36.8103 -19.3648 56.6734 -3.4360 11.2276
# 5 12.9671 1.7064 0.4524 -3.4360 37.0388 -7.5445
# 6 -24.3606 -17.6586 0.2382 11.2276 -7.5445 16.9269
#
#
#
# Elastic Compliance Matrix: (Units=1/GPa)
#
#
# Indices 1 2 3 4 5 6 
#
# 1 0.007199 -0.001761 -0.006200 -0.000032 -0.000669 0.008334
# 2 -0.001761 0.026688 -0.003586 0.011232 0.004532 0.019927
# 3 -0.006200 -0.003586 0.024757 0.005175 -0.000920 -0.016854
# 4 -0.000032 0.011232 0.005175 0.028057 0.000666 -0.006716
# 5 -0.000669 0.004532 -0.000920 0.000666 0.030550 0.016953
# 6 0.008334 0.019927 -0.016854 -0.006716 0.016953 0.104108
#
#
# Mechanical properties :
#
#
# Convention : Reuss Voigt Hill
#
# Bulk Modulus (GPa) = 28.12977 70.32338 49.22657
# Shear Modulus (GPa) = 19.50816 37.62511 28.56664
#
# Velocity S-wave (km/s) = 2.87093 3.98707 3.47412
# Velocity P-wave (km/s) = 4.78274 7.13495 6.07380
#
# Compressibility (1/GPa) = 0.03554952
#
# Stress axis : x y z
#
# Youngs Moduli (GPa) = 138.90793 37.46996 40.39304
#
# Poissons Ratio (x) = 0.06600 0.25044
# Poissons Ratio (y) = 0.24468 0.14483
# Poissons Ratio (z) = 0.86125 0.13435
#
# Static dielectric constant tensor:
#      x y z
#    x 1.924790 0.114780 0.055740 
#    y 0.114780 2.191310 0.085420 
#    z 0.055740 0.085420 1.965430 
# 
# From -- ./inp_files/406890.got.cif
#   From: 2010.05.17/outbox.cif.g08.bks.cpg/sg2_204_cif.got.tgz:406890.got - 2010.06.03 11:33:40.
