data_PCOD9023307
_publ_section_title
;
Structure prediction by ZEFSAII (Michael W. Deem and Ramdas Pophale) SiO2 
 PCOD9023307
Probable space group: P -1
;
_chemical_formula_sum "Si O2"
_cell_formula_units_Z 14
_cell_length_a 12.098041
_cell_length_b 9.436430
_cell_length_c 10.473719
_cell_angle_alpha 132.786149
_cell_angle_beta 69.062447
_cell_angle_gamma 74.460161
_cell_volume 546.719187
_symmetry_space_group_name_H-M "P -1"
_symmetry_group_IT_number 2
_symmetry_cell_setting 'triclinic'
loop_
_space_group_symop_operation_xyz
x,y,z
-x,-y,-z
loop_
_atom_site_type_symbol
_atom_site_label
_atom_site_fract_x
_atom_site_fract_y
_atom_site_fract_z
Si Si1 0.068713 0.982477 0.154682
Si Si2 0.988901 0.434213 0.607619
Si Si3 0.666767 0.088911 0.171623
Si Si4 0.174699 0.177934 0.601196
Si Si5 0.661636 0.426796 0.835086
Si Si6 0.793604 0.544802 0.072926
Si Si7 0.670909 0.437317 0.545882
O O1 0.013046 0.175545 0.420800
O O2 0.881125 0.212378 0.297596
O O3 0.136976 0.693181 0.995685
O O4 0.225848 0.898530 0.962518
O O5 0.000000 0.500000 0.500000
O O6 0.162275 0.275031 0.521932
O O7 0.799899 0.749403 0.921280
O O8 0.644264 0.242356 0.403091
O O9 0.474214 0.281734 0.310389
O O10 0.965508 0.437266 0.875841
O O11 0.203926 0.915475 0.442879
O O12 0.290390 0.175183 0.641678
O O13 0.703080 0.533498 0.991275
O O14 0.630516 0.534225 0.769178
O O15 0.500000 0.500000 0.000000
#
# Coordination Sequence:
#
# PCOD9023307 Si02
#       7
#     2   2   2   2   2   2   2
#     4  11  20  42  71  95 133 180 223 277 346 397
#     4  10  22  39  67  98 134 174 226 278 334 410
#     4  10  24  42  65  98 137 175 227 277 337 412
#     4  11  23  42  71 100 129 177 228 280 338 405
#     4  12  25  43  69  98 141 176 226 286 338 404
#     4  11  23  42  70 100 132 173 230 281 338 407
#     4  11  23  41  65  97 132 179 223 278 339 398
#
# _framework density 25.607295000000001
#
# number of rings (size 3 to 8) (size 9 to 14) (size 15 to 20)
#    0.000    1.143    2.857    3.429    4.000    2.286 
#    0.000    0.000    3.143    0.000    0.000    0.000 
#    0.000    0.000    0.000    0.000    0.000    0.000 
#
# Total GULP energy -78171.249957 kJ/mol
# GULP energy per Si atom -5583.660711 kJ/mol
# Density = 2.554901 g / cm^3
# Si number density = 25.607295 Si / 1000 Ang^3
#
#
#
# Elastic Constant Matrix: (Units=GPa)
#
#
# Indices 1 2 3 4 5 6 
#
# 1 152.2343 41.3669 37.6172 -8.6815 27.6406 -34.9034
# 2 41.3669 80.6607 10.6416 9.8018 6.8749 0.6340
# 3 37.6172 10.6416 73.3558 6.2204 17.3950 -12.9219
# 4 -8.6815 9.8018 6.2204 23.1310 5.7428 6.7302
# 5 27.6406 6.8749 17.3950 5.7428 54.9204 -8.8326
# 6 -34.9034 0.6340 -12.9219 6.7302 -8.8326 43.9933
#
#
#
# Elastic Compliance Matrix: (Units=1/GPa)
#
#
# Indices 1 2 3 4 5 6 
#
# 1 0.011678 -0.006091 -0.003695 0.006977 -0.003634 0.006471
# 2 -0.006091 0.016427 0.000615 -0.008746 0.001196 -0.003310
# 3 -0.003695 0.000615 0.017020 -0.006326 -0.002542 0.002516
# 4 0.006977 -0.008746 -0.006326 0.054768 -0.007105 -0.006002
# 5 -0.003634 0.001196 -0.002542 -0.007105 0.021725 0.001802
# 6 0.006471 -0.003310 0.002516 -0.006002 0.001802 0.029931
#
#
# Mechanical properties :
#
#
# Convention : Reuss Voigt Hill
#
# Bulk Modulus (GPa) = 37.33578 53.94471 45.64024
# Shear Modulus (GPa) = 27.96126 38.85061 33.40594
#
# Velocity S-wave (km/s) = 3.30801 3.89931 3.61577
# Velocity P-wave (km/s) = 5.40392 6.43310 5.94084
#
# Compressibility (1/GPa) = 0.02678396
#
# Stress axis : x y z
#
# Youngs Moduli (GPa) = 85.63048 60.87574 58.75350
#
# Poissons Ratio (x) = 0.37077 0.21711
# Poissons Ratio (y) = 0.52154 -0.03614
# Poissons Ratio (z) = 0.31642 -0.03745
#
# Static dielectric constant tensor:
#      x y z
#    x 2.105610 -0.093370 0.110190 
#    y -0.093370 2.117060 -0.069050 
#    z 0.110190 -0.069050 2.353690 
# 
# From -- ./inp_files/429061.got.cif
#   From: 2010.05.17/outbox.cif.g08.bks.cpg/sg2_215_cif.got.tgz:429061.got - 2010.06.03 11:33:40.
