data_PCOD9023564
_publ_section_title
;
Structure prediction by ZEFSAII (Michael W. Deem and Ramdas Pophale) SiO2 
 PCOD9023564
Probable space group: P -1
;
_chemical_formula_sum "Si O2"
_cell_formula_units_Z 14
_cell_length_a 11.884625
_cell_length_b 14.994589
_cell_length_c 21.669292
_cell_angle_alpha 161.575073
_cell_angle_beta 147.181378
_cell_angle_gamma 28.393200
_cell_volume 579.941218
_symmetry_space_group_name_H-M "P -1"
_symmetry_group_IT_number 2
_symmetry_cell_setting 'triclinic'
loop_
_space_group_symop_operation_xyz
x,y,z
-x,-y,-z
loop_
_atom_site_type_symbol
_atom_site_label
_atom_site_fract_x
_atom_site_fract_y
_atom_site_fract_z
Si Si1 0.644321 0.341951 0.665159
Si Si2 0.746496 0.235142 0.507179
Si Si3 0.576745 0.741638 0.069771
Si Si4 0.098772 0.233212 0.941814
Si Si5 0.926747 0.272783 0.492233
Si Si6 0.769111 0.162222 0.138619
Si Si7 0.846265 0.934839 0.835426
O O1 0.602887 0.391959 0.605466
O O2 0.390739 0.486913 0.675494
O O3 0.810721 0.977583 0.525397
O O4 0.790963 0.536885 0.876287
O O5 0.781667 0.410682 0.579900
O O6 0.659944 0.005627 0.286880
O O7 0.000000 0.000000 0.500000
O O8 0.424233 0.798317 0.099696
O O9 0.389957 0.825599 0.984252
O O10 0.819173 0.423485 0.955605
O O11 0.221242 0.075099 0.959201
O O12 0.138689 0.960978 0.731585
O O13 0.894102 0.574514 0.635651
O O14 0.030032 0.069469 0.174788
O O15 0.000000 0.000000 0.000000
#
# Coordination Sequence:
#
# PCOD9023564 Si02
#       7
#     2   2   2   2   2   2   2
#     4  11  23  44  72 113 143 178 238 309 358 421
#     4  10  22  39  72 108 140 174 238 292 361 416
#     4  11  23  48  72 103 146 189 233 299 361 413
#     4  12  24  45  75 109 142 187 236 305 361 420
#     4  11  23  45  74 102 145 187 237 293 365 419
#     4  11  26  46  70 104 150 188 245 283 353 436
#     4  10  27  47  70 103 144 198 241 288 348 434
#
# _framework density 24.140377999999998
#
# number of rings (size 3 to 8) (size 9 to 14) (size 15 to 20)
#    0.000    1.143    4.286    1.714    6.000    2.286 
#    0.000    1.429    0.000    0.000    0.000    0.000 
#    0.000    0.000    0.000    0.000    0.000    0.000 
#
# Total GULP energy -78233.727503 kJ/mol
# GULP energy per Si atom -5588.123393 kJ/mol
# Density = 2.408543 g / cm^3
# Si number density = 24.140378 Si / 1000 Ang^3
#
#
#
# Elastic Constant Matrix: (Units=GPa)
#
#
# Indices 1 2 3 4 5 6 
#
# 1 138.2929 28.4114 15.4526 -0.4559 -28.2034 -15.3932
# 2 28.4114 101.0941 3.3891 4.0264 -12.4846 -19.3846
# 3 15.4526 3.3891 75.1827 7.5544 -15.7439 8.6873
# 4 -0.4559 4.0264 7.5544 10.9325 -3.7061 -1.8762
# 5 -28.2034 -12.4846 -15.7439 -3.7061 32.9394 4.0056
# 6 -15.3932 -19.3846 8.6873 -1.8762 4.0056 44.7295
#
#
#
# Elastic Compliance Matrix: (Units=1/GPa)
#
#
# Indices 1 2 3 4 5 6 
#
# 1 0.009395 -0.001441 -0.001086 0.004519 0.007200 0.002364
# 2 -0.001441 0.011490 0.000074 -0.002841 0.002333 0.004141
# 3 -0.001086 0.000074 0.016377 -0.010011 0.006348 -0.004511
# 4 0.004519 -0.002841 -0.010011 0.103659 0.008963 0.005814
# 5 0.007200 0.002333 0.006348 0.008963 0.041583 -0.001092
# 6 0.002364 0.004141 -0.004511 0.005814 -0.001092 0.026182
#
#
# Mechanical properties :
#
#
# Convention : Reuss Voigt Hill
#
# Bulk Modulus (GPa) = 30.90669 45.45288 38.17978
# Shear Modulus (GPa) = 22.28385 35.54141 28.91263
#
# Velocity S-wave (km/s) = 3.04154 3.84119 3.46452
# Velocity P-wave (km/s) = 5.01651 6.20826 5.64393
#
# Compressibility (1/GPa) = 0.03235546
#
# Stress axis : x y z
#
# Youngs Moduli (GPa) = 106.44148 87.03500 61.06018
#
# Poissons Ratio (x) = 0.12546 0.06628
# Poissons Ratio (y) = 0.15343 -0.00451
# Poissons Ratio (z) = 0.11555 -0.00643
#
# Static dielectric constant tensor:
#      x y z
#    x 1.997620 -0.071020 -0.066730 
#    y -0.071020 1.932240 -0.019210 
#    z -0.066730 -0.019210 1.899180 
# 
# From -- ./inp_files/519427.got.cif
#   From: 2010.05.17/outbox.cif.g08.bks.cpg/sg2_260_cif.got.tgz:519427.got - 2010.06.03 11:33:40.
