data_PCOD9023497
_publ_section_title
;
Structure prediction by ZEFSAII (Michael W. Deem and Ramdas Pophale) SiO2 
 PCOD9023497
Probable space group: P -1
;
_chemical_formula_sum "Si O2"
_cell_formula_units_Z 16
_cell_length_a 8.917139
_cell_length_b 12.130774
_cell_length_c 18.823582
_cell_angle_alpha 28.482887
_cell_angle_beta 129.511411
_cell_angle_gamma 116.972395
_cell_volume 717.603255
_symmetry_space_group_name_H-M "P -1"
_symmetry_group_IT_number 2
_symmetry_cell_setting 'triclinic'
loop_
_space_group_symop_operation_xyz
x,y,z
-x,-y,-z
loop_
_atom_site_type_symbol
_atom_site_label
_atom_site_fract_x
_atom_site_fract_y
_atom_site_fract_z
Si Si1 0.178425 0.137864 0.265027
Si Si2 0.894316 0.801940 0.106206
Si Si3 0.270230 0.009459 0.517654
Si Si4 0.154477 0.481829 0.491848
Si Si5 0.388211 0.850725 0.371947
Si Si6 0.526128 0.004689 0.174020
Si Si7 0.152822 0.596698 0.792374
Si Si8 0.721041 0.429745 0.000421
O O1 0.263979 0.974338 0.451199
O O2 0.945360 0.268614 0.136832
O O3 0.193459 0.015942 0.261718
O O4 0.305555 0.333504 0.188673
O O5 0.887354 0.609507 0.151700
O O6 0.020727 0.642984 0.297764
O O7 0.658054 0.948798 0.964064
O O8 0.000000 0.000000 0.000000
O O9 0.436584 0.123030 0.536816
O O10 0.059005 0.208863 0.360722
O O11 0.275080 0.759264 0.698322
O O12 0.340045 0.596725 0.496699
O O13 0.268877 0.206372 0.661403
O O14 0.000000 0.500000 0.500000
O O15 0.441446 0.933183 0.263969
O O16 0.579621 0.256585 0.052027
O O17 0.263180 0.495311 0.955856
#
# Coordination Sequence:
#
# PCOD9023497 Si02
#       8
#     2   2   2   2   2   2   2   2
#     4  10  23  39  65 105 144 176 231 299 362 410
#     4  12  28  46  73 109 145 190 243 295 350 431
#     4  10  22  39  70 104 141 184 235 294 356 421
#     4  12  30  51  73 102 147 193 237 301 358 424
#     4  12  23  42  72 101 137 186 238 292 350 429
#     4  12  26  48  77 104 141 191 248 287 358 435
#     4  10  22  41  69 102 142 186 233 292 355 425
#     4  10  22  43  67 101 140 189 229 295 357 420
#
# _framework density 22.296444000000001
#
# number of rings (size 3 to 8) (size 9 to 14) (size 15 to 20)
#    0.000    1.000    2.500    3.000    8.750    2.500 
#    2.250    0.000    0.000    0.000    0.000    0.000 
#    0.000    0.000    0.000    0.000    0.000    0.000 
#
# Total GULP energy -89474.662917 kJ/mol
# GULP energy per Si atom -5592.166432 kJ/mol
# Density = 2.224570 g / cm^3
# Si number density = 22.296444 Si / 1000 Ang^3
#
#
#
# Elastic Constant Matrix: (Units=GPa)
#
#
# Indices 1 2 3 4 5 6 
#
# 1 106.8886 29.0361 27.7876 -1.7049 -5.9813 -3.6191
# 2 29.0361 94.3000 22.9243 -8.9489 -9.6056 14.5340
# 3 27.7876 22.9243 106.0386 3.3051 0.1466 -7.4714
# 4 -1.7049 -8.9489 3.3051 31.7635 7.9279 0.1950
# 5 -5.9813 -9.6056 0.1466 7.9279 32.0879 -7.5874
# 6 -3.6191 14.5340 -7.4714 0.1950 -7.5874 41.3309
#
#
#
# Elastic Compliance Matrix: (Units=1/GPa)
#
#
# Indices 1 2 3 4 5 6 
#
# 1 0.010862 -0.003023 -0.002041 -0.000497 0.001716 0.001962
# 2 -0.003023 0.013452 -0.002599 0.003593 0.001350 -0.005234
# 3 -0.002041 -0.002599 0.010777 -0.001957 -0.000092 0.002676
# 4 -0.000497 0.003593 -0.001957 0.034789 -0.008399 -0.003367
# 5 0.001716 0.001350 -0.000092 -0.008399 0.035431 0.006203
# 6 0.001962 -0.005234 0.002676 -0.003367 0.006203 0.027846
#
#
# Mechanical properties :
#
#
# Convention : Reuss Voigt Hill
#
# Bulk Modulus (GPa) = 50.59512 51.85812 51.22662
# Shear Modulus (GPa) = 32.24321 36.20173 34.22247
#
# Velocity S-wave (km/s) = 3.80691 4.03383 3.92201
# Velocity P-wave (km/s) = 6.48573 6.70855 6.59808
#
# Compressibility (1/GPa) = 0.01976475
#
# Stress axis : x y z
#
# Youngs Moduli (GPa) = 92.06409 74.33699 92.79076
#
# Poissons Ratio (x) = 0.22473 0.18943
# Poissons Ratio (y) = 0.27832 0.24113
# Poissons Ratio (z) = 0.18795 0.19318
#
# Static dielectric constant tensor:
#      x y z
#    x 1.874290 0.005020 0.059760 
#    y 0.005020 1.800080 -0.011490 
#    z 0.059760 -0.011490 1.818720 
# 
# From -- ./inp_files/559581.got.cif
#   From: 2010.05.17/outbox.cif.g08.bks.cpg/sg2_280_cif.got.tgz:559581.got - 2010.06.03 11:33:40.
