data_PCOD9023479
_publ_section_title
;
Structure prediction by ZEFSAII (Michael W. Deem and Ramdas Pophale) SiO2 
 PCOD9023479
Probable space group: P -1
;
_chemical_formula_sum "Si O2"
_cell_formula_units_Z 14
_cell_length_a 5.354797
_cell_length_b 11.538842
_cell_length_c 12.380269
_cell_angle_alpha 74.623391
_cell_angle_beta 70.865018
_cell_angle_gamma 61.194812
_cell_volume 627.932258
_symmetry_space_group_name_H-M "P -1"
_symmetry_group_IT_number 2
_symmetry_cell_setting 'triclinic'
loop_
_space_group_symop_operation_xyz
x,y,z
-x,-y,-z
loop_
_atom_site_type_symbol
_atom_site_label
_atom_site_fract_x
_atom_site_fract_y
_atom_site_fract_z
Si Si1 0.169466 0.893409 0.791316
Si Si2 0.280563 0.432829 0.056119
Si Si3 0.738802 0.667666 0.688572
Si Si4 0.214428 0.920283 0.389870
Si Si5 0.654048 0.931745 0.161407
Si Si6 0.766511 0.807001 0.962459
Si Si7 0.630034 0.358346 0.456857
O O1 0.505344 0.812989 0.725917
O O2 0.077033 0.776466 0.869039
O O3 0.135062 0.997867 0.864493
O O4 0.996354 0.992123 0.696365
O O5 0.211467 0.430822 0.193073
O O6 0.389912 0.281250 0.035405
O O7 0.500000 0.500000 0.000000
O O8 0.000000 0.500000 0.000000
O O9 0.586693 0.639587 0.610799
O O10 0.048998 0.667972 0.623724
O O11 0.523732 0.912323 0.299090
O O12 0.306982 0.765804 0.441598
O O13 0.000000 0.000000 0.500000
O O14 0.396261 0.046151 0.101899
O O15 0.779933 0.810587 0.089083
O O16 0.500000 0.500000 0.500000
#
# Coordination Sequence:
#
# PCOD9023479 Si02
#       7
#     2   2   2   2   2   2   2
#     4  11  21  41  74 105 143 190 247 312 374 442
#     4  12  26  45  72 104 139 191 248 298 361 456
#     4  12  25  48  76  98 145 197 246 307 374 439
#     4  11  24  41  69 109 139 192 260 305 362 444
#     4  10  22  39  69  98 149 186 236 314 371 431
#     4  10  22  42  63 106 141 187 241 303 383 431
#     4  12  28  49  72 104 151 198 248 307 376 441
#
# _framework density 22.295397000000001
#
# number of rings (size 3 to 8) (size 9 to 14) (size 15 to 20)
#    0.000    0.857    2.857    4.286    2.000    3.429 
#    2.571    0.000    0.000    0.000    0.000    0.000 
#    0.000    0.000    0.000    0.000    0.000    0.000 
#
# Total GULP energy -78001.636837 kJ/mol
# GULP energy per Si atom -5571.545488 kJ/mol
# Density = 2.224465 g / cm^3
# Si number density = 22.295397 Si / 1000 Ang^3
#
#
#
# Elastic Constant Matrix: (Units=GPa)
#
#
# Indices 1 2 3 4 5 6 
#
# 1 127.0626 21.9383 58.2516 -16.1643 -3.2457 17.8806
# 2 21.9383 103.0061 53.0066 -14.8629 -3.8440 15.2519
# 3 58.2516 53.0066 139.6541 -20.1386 -4.2187 21.6962
# 4 -16.1643 -14.8629 -20.1386 37.9139 9.2554 8.0585
# 5 -3.2457 -3.8440 -4.2187 9.2554 38.8520 -5.5855
# 6 17.8806 15.2519 21.6962 8.0585 -5.5855 41.1451
#
#
#
# Elastic Compliance Matrix: (Units=1/GPa)
#
#
# Indices 1 2 3 4 5 6 
#
# 1 0.010338 0.000656 -0.003440 0.003869 -0.000913 -0.003804
# 2 0.000656 0.012735 -0.003931 0.004159 -0.000654 -0.003836
# 3 -0.003440 -0.003931 0.011245 0.004033 -0.000977 -0.003900
# 4 0.003869 0.004159 0.004033 0.037120 -0.009673 -0.013933
# 5 -0.000913 -0.000654 -0.000977 -0.009673 0.028796 0.006958
# 6 -0.003804 -0.003836 -0.003900 -0.013933 0.006958 0.033109
#
#
# Mechanical properties :
#
#
# Convention : Reuss Voigt Hill
#
# Bulk Modulus (GPa) = 47.87474 70.67954 59.27714
# Shear Modulus (GPa) = 32.52288 39.35063 35.93675
#
# Velocity S-wave (km/s) = 3.82347 4.20571 4.01914
# Velocity P-wave (km/s) = 6.40402 7.44004 6.94138
#
# Compressibility (1/GPa) = 0.02088784
#
# Stress axis : x y z
#
# Youngs Moduli (GPa) = 96.73078 78.52237 88.92489
#
# Poissons Ratio (x) = -0.05148 0.30588
# Poissons Ratio (y) = -0.06342 0.34959
# Poissons Ratio (z) = 0.33273 0.30870
#
# Static dielectric constant tensor:
#      x y z
#    x 2.069800 -0.040900 0.010030 
#    y -0.040900 1.908870 0.036840 
#    z 0.010030 0.036840 1.905130 
# 
# From -- ./inp_files/363994.got.cif
#   From: 2010.05.17/outbox.cif.g08.bks.cpg/sg2_182_cif.got.tgz:363994.got - 2010.06.03 11:33:40.
