data_PCOD9023953
_publ_section_title
;
Structure prediction by ZEFSAII (Michael W. Deem and Ramdas Pophale) SiO2 
 PCOD9023953
Probable space group: P -1
;
_chemical_formula_sum "Si O2"
_cell_formula_units_Z 16
_cell_length_a 18.984776
_cell_length_b 9.636731
_cell_length_c 12.691912
_cell_angle_alpha 37.459960
_cell_angle_beta 35.569370
_cell_angle_gamma 38.212634
_cell_volume 754.384310
_symmetry_space_group_name_H-M "P -1"
_symmetry_group_IT_number 2
_symmetry_cell_setting 'triclinic'
loop_
_space_group_symop_operation_xyz
x,y,z
-x,-y,-z
loop_
_atom_site_type_symbol
_atom_site_label
_atom_site_fract_x
_atom_site_fract_y
_atom_site_fract_z
Si Si1 0.259971 0.122591 0.162185
Si Si2 0.007229 0.514376 0.807624
Si Si3 0.160258 0.281041 0.558941
Si Si4 0.975260 0.030387 0.850512
Si Si5 0.745631 0.503453 0.879831
Si Si6 0.548273 0.293099 0.959156
Si Si7 0.068122 0.900527 0.590214
Si Si8 0.438038 0.197888 0.360806
O O1 0.142664 0.286303 0.128535
O O2 0.278166 0.323070 0.094765
O O3 0.384507 0.936222 0.061690
O O4 0.199423 0.953387 0.401910
O O5 0.070209 0.478674 0.635290
O O6 0.086901 0.613769 0.732101
O O7 0.007561 0.248095 0.986165
O O8 0.088512 0.099341 0.724643
O O9 0.174085 0.409050 0.356437
O O10 0.308643 0.161891 0.496868
O O11 0.837838 0.217129 0.954125
O O12 0.981686 0.040923 0.709638
O O13 0.604082 0.552954 0.976105
O O14 0.610134 0.500843 0.742792
O O15 0.541882 0.177814 0.151735
O O16 0.000000 0.000000 0.500000
O O17 0.500000 0.000000 0.500000
#
# Coordination Sequence:
#
# PCOD9023953 Si02
#       8
#     2   2   2   2   2   2   2   2
#     4  11  21  42  63  93 138 173 218 271 330 403
#     4  11  24  38  64 100 136 172 217 279 333 391
#     4  11  22  42  66  97 128 177 226 269 334 396
#     4  12  23  40  67 100 135 170 222 279 332 394
#     4  11  22  40  70  94 131 177 221 273 328 401
#     4  10  24  43  67 100 131 179 229 267 338 405
#     4  10  22  40  62  92 132 175 214 267 334 391
#     4  10  24  46  70  96 134 181 227 280 328 400
#
# _framework density 21.209349
#
# number of rings (size 3 to 8) (size 9 to 14) (size 15 to 20)
#    0.000    1.250    2.500    3.750    1.750    5.000 
#    4.500    0.000    0.000    3.750    0.000    0.000 
#    0.000    0.000    0.000    0.000    0.000    0.000 
#
# Total GULP energy -89287.352142 kJ/mol
# GULP energy per Si atom -5580.459509 kJ/mol
# Density = 2.116108 g / cm^3
# Si number density = 21.209349 Si / 1000 Ang^3
#
#
#
# Elastic Constant Matrix: (Units=GPa)
#
#
# Indices 1 2 3 4 5 6 
#
# 1 85.0480 46.3955 34.4958 -9.9336 -0.1381 16.8459
# 2 46.3955 128.4505 50.0085 -4.3652 -11.8519 22.8257
# 3 34.4958 50.0085 76.4289 -15.5197 -5.1914 -1.0559
# 4 -9.9336 -4.3652 -15.5197 37.9993 10.0712 3.5574
# 5 -0.1381 -11.8519 -5.1914 10.0712 29.1987 -2.6562
# 6 16.8459 22.8257 -1.0559 3.5574 -2.6562 41.7728
#
#
#
# Elastic Compliance Matrix: (Units=1/GPa)
#
#
# Indices 1 2 3 4 5 6 
#
# 1 0.017301 -0.003459 -0.005162 0.003622 -0.004015 -0.005781
# 2 -0.003459 0.013251 -0.007513 -0.003163 0.004619 -0.005472
# 3 -0.005162 -0.007513 0.021631 0.006266 -0.000830 0.006147
# 4 0.003622 -0.003163 0.006266 0.032872 -0.011775 -0.003123
# 5 -0.004015 0.004619 -0.000830 -0.011775 0.040258 0.002637
# 6 -0.005781 -0.005472 0.006147 -0.003123 0.002637 0.029850
#
#
# Mechanical properties :
#
#
# Convention : Reuss Voigt Hill
#
# Bulk Modulus (GPa) = 50.21702 61.30301 55.76002
# Shear Modulus (GPa) = 25.76418 32.39598 29.08008
#
# Velocity S-wave (km/s) = 3.48912 3.91249 3.70685
# Velocity P-wave (km/s) = 6.32140 7.02685 6.68344
#
# Compressibility (1/GPa) = 0.01991357
#
# Stress axis : x y z
#
# Youngs Moduli (GPa) = 57.80144 75.46820 46.23060
#
# Poissons Ratio (x) = 0.26106 0.23865
# Poissons Ratio (y) = 0.19995 0.34732
# Poissons Ratio (z) = 0.29838 0.56698
#
# Static dielectric constant tensor:
#      x y z
#    x 1.807610 0.006160 0.013060 
#    y 0.006160 1.755890 -0.041890 
#    z 0.013060 -0.041890 1.861190 
# 
# From -- ./inp_files/461783.got.cif
#   From: 2010.05.17/outbox.cif.g08.bks.cpg/sg2_231_cif.got.tgz:461783.got - 2010.06.03 11:33:40.
