data_PCOD9023226
_publ_section_title
;
Structure prediction by ZEFSAII (Michael W. Deem and Ramdas Pophale) SiO2 
 PCOD9023226
Probable space group: P -1
;
_chemical_formula_sum "Si O2"
_cell_formula_units_Z 16
_cell_length_a 11.131816
_cell_length_b 15.055788
_cell_length_c 5.063917
_cell_angle_alpha 107.369021
_cell_angle_beta 90.024946
_cell_angle_gamma 125.644528
_cell_volume 641.391055
_symmetry_space_group_name_H-M "P -1"
_symmetry_group_IT_number 2
_symmetry_cell_setting 'triclinic'
loop_
_space_group_symop_operation_xyz
x,y,z
-x,-y,-z
loop_
_atom_site_type_symbol
_atom_site_label
_atom_site_fract_x
_atom_site_fract_y
_atom_site_fract_z
Si Si1 0.527912 0.909489 0.814714
Si Si2 0.915407 0.224339 0.798814
Si Si3 0.438677 0.528808 0.277565
Si Si4 0.223766 0.682699 0.791776
Si Si5 0.714984 0.968951 0.369215
Si Si6 0.054302 0.450263 0.737208
Si Si7 0.710896 0.764167 0.365340
Si Si8 0.825459 0.706716 0.813308
O O1 0.653061 0.928322 0.036751
O O2 0.373802 0.779895 0.728025
O O3 0.581145 0.936523 0.538801
O O4 0.500000 0.000000 0.000000
O O5 0.045429 0.342736 0.750882
O O6 0.836593 0.108289 0.524880
O O7 0.801076 0.250587 0.924009
O O8 0.999188 0.219716 0.045521
O O9 0.500000 0.500000 0.500000
O O10 0.532113 0.668763 0.362085
O O11 0.260078 0.433314 0.258080
O O12 0.500000 0.500000 0.000000
O O13 0.072808 0.614772 0.549789
O O14 0.217245 0.571994 0.782678
O O15 0.762945 0.894031 0.433412
O O16 0.000000 0.500000 0.000000
O O17 0.795234 0.745301 0.575202
O O18 0.747072 0.733058 0.060170
#
# Coordination Sequence:
#
# PCOD9023226 Si02
#       8
#     2   2   2   2   2   2   2   2
#     4  12  25  44  69  95 128 180 218 267 337 384
#     4  11  24  39  65  96 132 176 220 266 332 396
#     4   8  16  35  59  81 116 159 206 263 311 363
#     4  10  22  42  66  94 137 166 219 278 326 398
#     4  12  27  42  68  97 133 177 225 271 320 393
#     4   9  21  41  64  93 133 165 211 282 326 385
#     4  10  22  43  60  95 129 165 222 270 315 384
#     4  10  22  39  67  89 128 175 211 268 331 378
#
# _framework density 24.945782999999999
#
# number of rings (size 3 to 8) (size 9 to 14) (size 15 to 20)
#    0.000    1.750    1.250    1.875    5.250    2.000 
#    4.500    1.250    0.000    0.000    0.000    0.000 
#    0.000    0.000    0.000    0.000    0.000    0.000 
#
# Total GULP energy -89413.709539 kJ/mol
# GULP energy per Si atom -5588.356846 kJ/mol
# Density = 2.488901 g / cm^3
# Si number density = 24.945783 Si / 1000 Ang^3
#
#
#
# Elastic Constant Matrix: (Units=GPa)
#
#
# Indices 1 2 3 4 5 6 
#
# 1 45.5207 28.6288 8.3932 7.4817 -8.0419 -9.9187
# 2 28.6288 167.1498 28.5666 22.2133 5.0415 -13.9516
# 3 8.3932 28.5666 97.0139 -6.1504 4.9547 -6.6408
# 4 7.4817 22.2133 -6.1504 42.5220 0.6045 1.1550
# 5 -8.0419 5.0415 4.9547 0.6045 44.2419 6.8633
# 6 -9.9187 -13.9516 -6.6408 1.1550 6.8633 28.8177
#
#
#
# Elastic Compliance Matrix: (Units=1/GPa)
#
#
# Indices 1 2 3 4 5 6 
#
# 1 0.027215 -0.003602 -0.001302 -0.003333 0.004560 0.006371
# 2 -0.003602 0.007687 -0.001925 -0.003707 -0.001665 0.002583
# 3 -0.001302 -0.001925 0.011350 0.002858 -0.001559 0.001492
# 4 -0.003333 -0.003707 0.002858 0.026547 -0.000360 -0.003261
# 5 0.004560 -0.001665 -0.001559 -0.000360 0.024647 -0.005451
# 6 0.006371 0.002583 0.001492 -0.003261 -0.005451 0.039917
#
#
# Mechanical properties :
#
#
# Convention : Reuss Voigt Hill
#
# Bulk Modulus (GPa) = 30.67983 48.98461 39.83222
# Shear Modulus (GPa) = 30.88595 39.38936 35.13766
#
# Velocity S-wave (km/s) = 3.52251 3.97797 3.75715
# Velocity P-wave (km/s) = 5.37303 6.38577 5.90117
#
# Compressibility (1/GPa) = 0.03259470
#
# Stress axis : x y z
#
# Youngs Moduli (GPa) = 36.74461 130.08978 88.10380
#
# Poissons Ratio (x) = 0.46852 0.11472
# Poissons Ratio (y) = 0.13234 0.16960
# Poissons Ratio (z) = 0.04785 0.25043
#
# Static dielectric constant tensor:
#      x y z
#    x 2.049900 0.008470 0.031420 
#    y 0.008470 2.059200 -0.018470 
#    z 0.031420 -0.018470 2.013340 
# 
# From -- ./inp_files/78187.got.cif
#   From: 2010.05.17/outbox.cif.g08.bks.cpg/sg2_40_cif.got.tgz:78187.got - 2010.06.03 11:33:40.
