data_PCOD9023090
_publ_section_title
;
Structure prediction by ZEFSAII (Michael W. Deem and Ramdas Pophale) SiO2 
 PCOD9023090
Probable space group: P -1
;
_chemical_formula_sum "Si O2"
_cell_formula_units_Z 16
_cell_length_a 17.458272
_cell_length_b 10.608155
_cell_length_c 11.390344
_cell_angle_alpha 67.548428
_cell_angle_beta 158.779562
_cell_angle_gamma 112.611846
_cell_volume 703.109166
_symmetry_space_group_name_H-M "P -1"
_symmetry_group_IT_number 2
_symmetry_cell_setting 'triclinic'
loop_
_space_group_symop_operation_xyz
x,y,z
-x,-y,-z
loop_
_atom_site_type_symbol
_atom_site_label
_atom_site_fract_x
_atom_site_fract_y
_atom_site_fract_z
Si Si1 0.141277 0.586104 0.398045
Si Si2 0.476002 0.557936 0.718503
Si Si3 0.297149 0.585392 0.201641
Si Si4 0.990069 0.175434 0.035813
Si Si5 0.827625 0.809824 0.148063
Si Si6 0.176585 0.627730 0.698353
Si Si7 0.230669 0.880611 0.021923
Si Si8 0.279867 0.103351 0.289228
O O1 0.324789 0.508384 0.627316
O O2 0.099178 0.700148 0.202450
O O3 0.215319 0.644621 0.608199
O O4 0.916158 0.499626 0.113457
O O5 0.333599 0.597165 0.390803
O O6 0.634936 0.691116 0.936966
O O7 0.616960 0.433148 0.931437
O O8 0.500000 0.500000 0.500000
O O9 0.263906 0.737834 0.053407
O O10 0.948401 0.165952 0.118883
O O11 0.836100 0.046564 0.819225
O O12 0.221826 0.166782 0.309655
O O13 0.052636 0.754032 0.519872
O O14 0.822527 0.822915 0.993412
O O15 0.812602 0.961657 0.127160
O O16 0.000000 0.500000 0.500000
O O17 0.479510 0.904618 0.402917
#
# Coordination Sequence:
#
# PCOD9023090 Si02
#       8
#     2   2   2   2   2   2   2   2
#     4  12  21  38  57  88 123 150 199 246 292 357
#     4  11  22  38  61  90 117 159 197 245 297 347
#     4  12  24  37  59  87 123 159 194 242 302 355
#     4  10  19  29  55  84 117 149 185 243 304 339
#     4  10  18  36  58  83 119 150 198 247 292 345
#     4  10  22  38  61  85 117 160 197 240 295 356
#     4  11  21  35  55  88 120 153 195 247 299 348
#     4  10  17  31  51  86 120 147 183 248 306 344
#
# _framework density 22.756067999999999
#
# number of rings (size 3 to 8) (size 9 to 14) (size 15 to 20)
#    0.000    1.250    3.750    5.250    0.000    0.000 
#    0.000    0.000    0.000    7.500    0.000    0.000 
#    0.000    0.000    0.000    0.000    0.000    0.000 
#
# Total GULP energy -89068.799274 kJ/mol
# GULP energy per Si atom -5566.799955 kJ/mol
# Density = 2.270427 g / cm^3
# Si number density = 22.756068 Si / 1000 Ang^3
#
#
#
# Elastic Constant Matrix: (Units=GPa)
#
#
# Indices 1 2 3 4 5 6 
#
# 1 64.0298 38.0099 32.7455 2.9001 32.3841 -18.1624
# 2 38.0099 69.3317 36.2200 -31.2748 -11.7835 12.4605
# 3 32.7455 36.2200 100.8329 -22.6066 1.9089 -5.5196
# 4 2.9001 -31.2748 -22.6066 34.3780 -7.9255 18.1316
# 5 32.3841 -11.7835 1.9089 -7.9255 20.7376 7.8381
# 6 -18.1624 12.4605 -5.5196 18.1316 7.8381 7.2223
#
#
#
# Elastic Compliance Matrix: (Units=1/GPa)
#
#
# Indices 1 2 3 4 5 6 
#
# 1 0.008639 0.005007 -0.003092 0.010993 0.000372 -0.017281
# 2 0.005007 0.008915 -0.004862 -0.003804 -0.008329 0.012086
# 3 -0.003092 -0.004862 0.013469 0.002595 0.000269 0.004100
# 4 0.010993 -0.003804 0.002595 0.017762 -0.016284 0.009273
# 5 0.000372 -0.008329 0.000269 -0.016284 0.026017 0.028157
# 6 -0.017281 0.012086 0.004100 0.009273 0.028157 0.023449
#
#
# Mechanical properties :
#
#
# Convention : Reuss Voigt Hill
#
# Bulk Modulus (GPa) = 39.79575 49.79391 44.79483
# Shear Modulus (GPa) = 44.43653 20.94884 32.69268
#
# Velocity S-wave (km/s) = 4.42377 3.03740 3.79444
# Velocity P-wave (km/s) = 6.60446 5.85066 6.23895
#
# Compressibility (1/GPa) = 0.02512831
#
# Stress axis : x y z
#
# Youngs Moduli (GPa) = 115.75796 112.17678 74.24363
#
# Poissons Ratio (x) = -0.56172 0.22960
# Poissons Ratio (y) = -0.57965 0.36097
# Poissons Ratio (z) = 0.35798 0.54540
#
# Static dielectric constant tensor:
#      x y z
#    x 2.019870 -0.012080 0.053410 
#    y -0.012080 1.923570 0.005890 
#    z 0.053410 0.005890 1.877630 
# 
# From -- ./inp_files/426561.got.cif
#   From: 2010.05.17/outbox.cif.g08.bks.cpg/sg2_214_cif.got.tgz:426561.got - 2010.06.03 11:33:40.
