data_PCOD9023380
_publ_section_title
;
Structure prediction by ZEFSAII (Michael W. Deem and Ramdas Pophale) SiO2 
 PCOD9023380
Probable space group: P -1
;
_chemical_formula_sum "Si O2"
_cell_formula_units_Z 16
_cell_length_a 11.472848
_cell_length_b 20.274790
_cell_length_c 6.278103
_cell_angle_alpha 58.853723
_cell_angle_beta 52.239965
_cell_angle_gamma 42.845500
_cell_volume 778.751638
_symmetry_space_group_name_H-M "P -1"
_symmetry_group_IT_number 2
_symmetry_cell_setting 'triclinic'
loop_
_space_group_symop_operation_xyz
x,y,z
-x,-y,-z
loop_
_atom_site_type_symbol
_atom_site_label
_atom_site_fract_x
_atom_site_fract_y
_atom_site_fract_z
Si Si1 0.489793 0.467544 0.312160
Si Si2 0.901555 0.374081 0.445376
Si Si3 0.505257 0.232226 0.001365
Si Si4 0.795171 0.266515 0.500026
Si Si5 0.205581 0.139183 0.065469
Si Si6 0.777333 0.700797 0.446543
Si Si7 0.129335 0.399295 0.892856
Si Si8 0.536381 0.043106 0.189285
O O1 0.500000 0.500000 0.500000
O O2 0.272039 0.515529 0.485651
O O3 0.656608 0.353661 0.341418
O O4 0.500000 0.500000 0.000000
O O5 0.827044 0.312247 0.593535
O O6 0.063866 0.333569 0.499878
O O7 0.998216 0.365573 0.129856
O O8 0.415101 0.261236 0.288740
O O9 0.548737 0.129515 0.076636
O O10 0.683334 0.227982 0.768268
O O11 0.331446 0.319740 0.905827
O O12 0.995987 0.191589 0.291719
O O13 0.351428 0.091686 0.174117
O O14 0.238449 0.212327 0.799357
O O15 0.279985 0.048816 0.977240
O O16 0.839643 0.611228 0.374312
O O17 0.000000 0.500000 0.000000
O O18 0.500000 0.000000 0.500000
#
# Coordination Sequence:
#
# PCOD9023380 Si02
#       8
#     2   2   2   2   2   2   2   2
#     4  10  22  41  63  98 142 190 238 285 352 426
#     4  10  22  39  68  94 135 189 236 278 342 423
#     4  11  24  43  65 105 143 174 226 297 356 413
#     4  11  23  44  65 103 146 177 232 295 360 419
#     4  11  22  42  74  96 125 181 236 283 351 429
#     4  11  21  43  72  95 134 188 237 281 350 425
#     4  11  23  43  67  98 135 180 237 284 338 425
#     4  11  23  43  74  97 128 178 235 287 348 427
#
# _framework density 20.545705000000002
#
# number of rings (size 3 to 8) (size 9 to 14) (size 15 to 20)
#    0.000    1.250    3.750    2.250    1.750    2.500 
#   11.250    0.625    0.000    0.000    0.000    0.000 
#    0.000    0.000    0.000    0.000    0.000    0.000 
#
# Total GULP energy -89117.196030 kJ/mol
# GULP energy per Si atom -5569.824752 kJ/mol
# Density = 2.049894 g / cm^3
# Si number density = 20.545705 Si / 1000 Ang^3
#
#
#
# Elastic Constant Matrix: (Units=GPa)
#
#
# Indices 1 2 3 4 5 6 
#
# 1 64.4522 52.6592 61.2827 12.6354 -10.6625 18.5175
# 2 52.6592 145.1043 72.0914 23.0989 -3.7038 6.5533
# 3 61.2827 72.0914 137.2393 26.3037 -7.3238 0.4272
# 4 12.6354 23.0989 26.3037 36.8201 -7.5662 -4.9613
# 5 -10.6625 -3.7038 -7.3238 -7.5662 38.8081 3.8934
# 6 18.5175 6.5533 0.4272 -4.9613 3.8934 38.6429
#
#
#
# Elastic Compliance Matrix: (Units=1/GPa)
#
#
# Indices 1 2 3 4 5 6 
#
# 1 0.042901 -0.006970 -0.014808 -0.000392 0.010287 -0.020299
# 2 -0.006970 0.010854 -0.002096 -0.003158 -0.002023 0.001321
# 3 -0.014808 -0.002096 0.015678 -0.004453 -0.002880 0.006997
# 4 -0.000392 -0.003158 -0.004453 0.034096 0.004931 0.004653
# 5 0.010287 -0.002023 -0.002880 0.004931 0.029511 -0.006895
# 6 -0.020299 0.001321 0.006997 0.004653 -0.006895 0.036596
#
#
# Mechanical properties :
#
#
# Convention : Reuss Voigt Hill
#
# Bulk Modulus (GPa) = 46.11692 79.87360 62.99526
# Shear Modulus (GPa) = 22.26066 33.57172 27.91619
#
# Velocity S-wave (km/s) = 3.29518 4.04666 3.69010
# Velocity P-wave (km/s) = 6.08049 7.79708 6.99167
#
# Compressibility (1/GPa) = 0.02168402
#
# Stress axis : x y z
#
# Youngs Moduli (GPa) = 23.30949 92.13418 63.78421
#
# Poissons Ratio (x) = 0.64219 0.94453
# Poissons Ratio (y) = 0.16247 0.13368
# Poissons Ratio (z) = 0.34517 0.19310
#
# Static dielectric constant tensor:
#      x y z
#    x 1.764940 0.019340 0.042540 
#    y 0.019340 1.872090 -0.098090 
#    z 0.042540 -0.098090 1.868470 
# 
# From -- ./inp_files/45782.got.cif
#   From: 2010.05.17/outbox.cif.g08.bks.cpg/sg2_23_cif.got.tgz:45782.got - 2010.06.03 11:33:40.
