data_PCOD9023228
_publ_section_title
;
Structure prediction by ZEFSAII (Michael W. Deem and Ramdas Pophale) SiO2 
 PCOD9023228
Probable space group: P -1
;
_chemical_formula_sum "Si O2"
_cell_formula_units_Z 16
_cell_length_a 7.450261
_cell_length_b 9.313497
_cell_length_c 20.427316
_cell_angle_alpha 124.680623
_cell_angle_beta 51.104921
_cell_angle_gamma 85.221544
_cell_volume 658.020734
_symmetry_space_group_name_H-M "P -1"
_symmetry_group_IT_number 2
_symmetry_cell_setting 'triclinic'
loop_
_space_group_symop_operation_xyz
x,y,z
-x,-y,-z
loop_
_atom_site_type_symbol
_atom_site_label
_atom_site_fract_x
_atom_site_fract_y
_atom_site_fract_z
Si Si1 0.954702 0.782293 0.306841
Si Si2 0.511125 0.693632 0.787245
Si Si3 0.821900 0.427908 0.933992
Si Si4 0.640693 0.687295 0.448343
Si Si5 0.095473 0.167651 0.224870
Si Si6 0.349660 0.882444 0.220456
Si Si7 0.108911 0.302158 0.477046
Si Si8 0.928223 0.111145 0.941631
O O1 0.899654 0.665599 0.342962
O O2 0.960384 0.686217 0.209632
O O3 0.266525 0.736700 0.231248
O O4 0.679688 0.072480 0.447100
O O5 0.684980 0.780430 0.794892
O O6 0.782400 0.430926 0.624707
O O7 0.262681 0.883335 0.837801
O O8 0.305632 0.725894 0.902384
O O9 0.956566 0.243735 0.914361
O O10 0.500000 0.500000 0.000000
O O11 0.693879 0.679270 0.055397
O O12 0.751815 0.429693 0.354568
O O13 0.661217 0.733372 0.530973
O O14 0.201109 0.989898 0.095429
O O15 0.112555 0.047622 0.256695
O O16 0.281943 0.057876 0.336414
O O17 0.000000 0.500000 0.500000
#
# Coordination Sequence:
#
# PCOD9023228 Si02
#       8
#     2   2   2   2   2   2   2   2
#     4  10  23  43  64  94 132 165 223 266 326 410
#     4  10  25  41  66 101 134 164 231 274 324 391
#     4  10  22  39  67  90 132 171 221 267 333 394
#     4  10  24  42  64  99 128 172 215 278 323 389
#     4  11  22  41  72  97 129 176 222 274 326 386
#     4  11  23  40  66  98 121 180 222 256 342 393
#     4  11  23  42  65  90 136 163 216 281 323 384
#     4  11  23  44  67 100 133 179 214 282 329 390
#
# _framework density 24.315342000000001
#
# number of rings (size 3 to 8) (size 9 to 14) (size 15 to 20)
#    0.000    1.500    5.000    0.375   10.500    2.000 
#    0.000    3.750    0.000    0.000    0.000    0.000 
#    0.000    0.000    0.000    0.000    0.000    0.000 
#
# Total GULP energy -89481.933072 kJ/mol
# GULP energy per Si atom -5592.620817 kJ/mol
# Density = 2.426000 g / cm^3
# Si number density = 24.315342 Si / 1000 Ang^3
#
#
#
# Elastic Constant Matrix: (Units=GPa)
#
#
# Indices 1 2 3 4 5 6 
#
# 1 65.0148 22.0696 10.8180 -2.1818 12.8708 -15.9512
# 2 22.0696 119.7983 31.6707 1.9649 13.7803 -26.7355
# 3 10.8180 31.6707 116.0611 1.1808 34.9850 0.5963
# 4 -2.1818 1.9649 1.1808 36.2655 -3.8564 -1.3837
# 5 12.8708 13.7803 34.9850 -3.8564 43.1639 0.0025
# 6 -15.9512 -26.7355 0.5963 -1.3837 0.0025 31.8087
#
#
#
# Elastic Compliance Matrix: (Units=1/GPa)
#
#
# Indices 1 2 3 4 5 6 
#
# 1 0.018918 -0.000955 0.000034 0.000960 -0.005278 0.008725
# 2 -0.000955 0.011429 -0.002711 -0.000366 -0.001199 0.009162
# 3 0.000034 -0.002711 0.012117 -0.001309 -0.009082 -0.002545
# 4 0.000960 -0.000366 -0.001309 0.028111 0.003403 0.001421
# 5 -0.005278 -0.001199 -0.009082 0.003403 0.032790 -0.003339
# 6 0.008725 0.009162 -0.002545 0.001421 -0.003339 0.043624
#
#
# Mechanical properties :
#
#
# Convention : Reuss Voigt Hill
#
# Bulk Modulus (GPa) = 28.41122 47.77675 38.09399
# Shear Modulus (GPa) = 30.12297 38.00202 34.06250
#
# Velocity S-wave (km/s) = 3.52354 3.95762 3.74687
# Velocity P-wave (km/s) = 5.31636 6.36986 5.86680
#
# Compressibility (1/GPa) = 0.03519736
#
# Stress axis : x y z
#
# Youngs Moduli (GPa) = 52.86081 87.49795 82.52866
#
# Poissons Ratio (x) = 0.08360 -0.00279
# Poissons Ratio (y) = 0.05050 0.22377
# Poissons Ratio (z) = -0.00179 0.23725
#
# Static dielectric constant tensor:
#      x y z
#    x 1.979500 0.024980 -0.057670 
#    y 0.024980 1.881600 -0.013560 
#    z -0.057670 -0.013560 2.026380 
# 
# From -- ./inp_files/389270.got.cif
#   From: 2010.05.17/outbox.cif.g08.bks.cpg/sg2_195_cif.got.tgz:389270.got - 2010.06.03 11:33:40.
