data_PCOD9023473
_publ_section_title
;
Structure prediction by ZEFSAII (Michael W. Deem and Ramdas Pophale) SiO2 
 PCOD9023473
Probable space group: P -1
;
_chemical_formula_sum "Si O2"
_cell_formula_units_Z 16
_cell_length_a 9.199930
_cell_length_b 12.641530
_cell_length_c 18.162303
_cell_angle_alpha 43.078594
_cell_angle_beta 31.443130
_cell_angle_gamma 54.843138
_cell_volume 745.913749
_symmetry_space_group_name_H-M "P -1"
_symmetry_group_IT_number 2
_symmetry_cell_setting 'triclinic'
loop_
_space_group_symop_operation_xyz
x,y,z
-x,-y,-z
loop_
_atom_site_type_symbol
_atom_site_label
_atom_site_fract_x
_atom_site_fract_y
_atom_site_fract_z
Si Si1 0.188729 0.548642 0.104553
Si Si2 0.736502 0.367302 0.494183
Si Si3 0.620421 0.620185 0.508403
Si Si4 0.282140 0.981677 0.346030
Si Si5 0.866744 0.117952 0.812612
Si Si6 0.090559 0.616154 0.835333
Si Si7 0.257733 0.109408 0.138162
Si Si8 0.878678 0.086282 0.078138
O O1 0.062898 0.457858 0.133305
O O2 0.007788 0.475564 0.289411
O O3 0.500000 0.500000 0.000000
O O4 0.136586 0.729937 0.023686
O O5 0.662264 0.440838 0.566387
O O6 0.513843 0.355677 0.527409
O O7 0.766572 0.188841 0.580841
O O8 0.899933 0.738943 0.340348
O O9 0.411437 0.638532 0.656916
O O10 0.330272 0.099308 0.197740
O O11 0.554086 0.010494 0.265640
O O12 0.000000 0.000000 0.500000
O O13 0.863331 0.054553 0.763490
O O14 0.557219 0.158442 0.944714
O O15 0.937039 0.967780 0.907060
O O16 0.973349 0.774976 0.826219
O O17 0.000000 0.500000 0.000000
O O18 0.000000 0.000000 0.000000
#
# Coordination Sequence:
#
# PCOD9023473 Si02
#       8
#     2   2   2   2   2   2   2   2
#     4  11  24  42  67 102 134 175 225 285 338 396
#     4  10  22  39  69  97 135 170 226 278 332 398
#     4  10  22  42  69  98 129 180 227 275 333 408
#     4  12  24  43  65 101 136 173 224 285 337 399
#     4  11  24  45  69 100 135 178 231 281 343 405
#     4  11  25  46  66  93 138 179 223 275 348 411
#     4  11  26  44  67  98 140 176 226 290 340 405
#     4  12  23  40  74  98 130 181 232 272 339 406
#
# _framework density 21.450201
#
# number of rings (size 3 to 8) (size 9 to 14) (size 15 to 20)
#    0.000    1.000    2.500    4.500    5.250    2.500 
#    4.500    1.250    0.000    0.000    0.000    0.000 
#    0.000    0.000    0.000    0.000    0.000    0.000 
#
# Total GULP energy -89339.988510 kJ/mol
# GULP energy per Si atom -5583.749282 kJ/mol
# Density = 2.140138 g / cm^3
# Si number density = 21.450201 Si / 1000 Ang^3
#
#
#
# Elastic Constant Matrix: (Units=GPa)
#
#
# Indices 1 2 3 4 5 6 
#
# 1 33.1890 -10.5883 2.3448 9.9848 -2.6892 13.9995
# 2 -10.5883 123.9055 38.9960 9.4353 -6.1762 8.6167
# 3 2.3448 38.9960 83.7490 12.7786 -22.4059 9.3189
# 4 9.9848 9.4353 12.7786 38.3998 1.1907 1.6286
# 5 -2.6892 -6.1762 -22.4059 1.1907 33.1885 -1.8977
# 6 13.9995 8.6167 9.3189 1.6286 -1.8977 25.4514
#
#
#
# Elastic Compliance Matrix: (Units=1/GPa)
#
#
# Indices 1 2 3 4 5 6 
#
# 1 0.048997 0.006814 0.002336 -0.014147 0.005677 -0.028784
# 2 0.006814 0.010549 -0.004209 -0.002706 -0.000552 -0.005646
# 3 0.002336 -0.004209 0.018480 -0.005860 0.011785 -0.005372
# 4 -0.014147 -0.002706 -0.005860 0.032178 -0.006285 0.008316
# 5 0.005677 -0.000552 0.011785 -0.006285 0.038442 -0.003982
# 6 -0.028784 -0.005646 -0.005372 0.008316 -0.003982 0.058173
#
#
# Mechanical properties :
#
#
# Convention : Reuss Voigt Hill
#
# Bulk Modulus (GPa) = 11.37575 33.59427 22.48501
# Shear Modulus (GPa) = 22.10044 33.41401 27.75723
#
# Velocity S-wave (km/s) = 3.21333 3.95111 3.60117
# Velocity P-wave (km/s) = 4.36832 6.04240 5.27223
#
# Compressibility (1/GPa) = 0.08790626
#
# Stress axis : x y z
#
# Youngs Moduli (GPa) = 20.40945 94.79665 54.11310
#
# Poissons Ratio (x) = -0.64594 -0.12638
# Poissons Ratio (y) = -0.13907 0.22777
# Poissons Ratio (z) = -0.04767 0.39901
#
# Static dielectric constant tensor:
#      x y z
#    x 1.746320 -0.026390 0.013930 
#    y -0.026390 1.823890 0.016190 
#    z 0.013930 0.016190 1.817420 
# 
# From -- ./inp_files/559740.got.cif
#   From: 2010.05.17/outbox.cif.g08.bks.cpg/sg2_280_cif.got.tgz:559740.got - 2010.06.03 11:33:40.
