data_PCOD9023740
_publ_section_title
;
Structure prediction by ZEFSAII (Michael W. Deem and Ramdas Pophale) SiO2 
 PCOD9023740
Probable space group: P -1
;
_chemical_formula_sum "Si O2"
_cell_formula_units_Z 16
_cell_length_a 8.179067
_cell_length_b 16.404523
_cell_length_c 19.135595
_cell_angle_alpha 158.597715
_cell_angle_beta 45.446495
_cell_angle_gamma 124.791912
_cell_volume 633.064838
_symmetry_space_group_name_H-M "P -1"
_symmetry_group_IT_number 2
_symmetry_cell_setting 'triclinic'
loop_
_space_group_symop_operation_xyz
x,y,z
-x,-y,-z
loop_
_atom_site_type_symbol
_atom_site_label
_atom_site_fract_x
_atom_site_fract_y
_atom_site_fract_z
Si Si1 0.204886 0.702271 0.606556
Si Si2 0.303322 0.236703 0.716582
Si Si3 0.867223 0.632986 0.756921
Si Si4 0.338977 0.182796 0.497422
Si Si5 0.555495 0.970398 0.844495
Si Si6 0.961253 0.581799 0.335161
Si Si7 0.841166 0.215340 0.773060
Si Si8 0.235138 0.849410 0.953127
O O1 0.203036 0.490083 0.387338
O O2 0.456111 0.743871 0.546939
O O3 0.127264 0.653303 0.669360
O O4 0.980535 0.918331 0.818151
O O5 0.358479 0.238495 0.617965
O O6 0.036909 0.200555 0.764582
O O7 0.500000 0.000000 0.500000
O O8 0.274617 0.494910 0.966152
O O9 0.840571 0.492176 0.722110
O O10 0.676720 0.889948 0.018569
O O11 0.071786 0.341920 0.674739
O O12 0.367380 0.907420 0.255345
O O13 0.768212 0.805241 0.604971
O O14 0.459509 0.830441 0.820380
O O15 0.674059 0.133381 0.982690
O O16 0.871271 0.358826 0.187611
O O17 0.000000 0.000000 0.500000
#
# Coordination Sequence:
#
# PCOD9023740 Si02
#       8
#     2   2   2   2   2   2   2   2
#     4  10  22  43  62  99 136 189 244 292 345 393
#     4  10  23  51  82 105 140 183 220 278 364 444
#     4  10  23  41  66  85 138 198 249 290 337 397
#     4  11  26  41  66 109 145 174 230 295 344 425
#     4  10  22  41  60  84 124 184 247 297 335 391
#     4  12  25  39  63  96 132 186 234 290 344 397
#     4   9  22  49  77 111 140 176 220 282 354 444
#     4  10  22  40  61  87 129 184 239 293 344 390
#
# _framework density 25.273873999999999
#
# number of rings (size 3 to 8) (size 9 to 14) (size 15 to 20)
#    0.000    1.750    1.250    1.125    7.000    6.000 
#    9.000    0.000    0.000    0.000    0.000    0.000 
#    0.000    0.000    0.000    0.000    0.000    0.000 
#
# Total GULP energy -89191.750807 kJ/mol
# GULP energy per Si atom -5574.484425 kJ/mol
# Density = 2.521635 g / cm^3
# Si number density = 25.273874 Si / 1000 Ang^3
#
#
#
# Elastic Constant Matrix: (Units=GPa)
#
#
# Indices 1 2 3 4 5 6 
#
# 1 88.9710 27.0095 32.0158 5.2914 -1.1885 -25.6817
# 2 27.0095 83.2631 41.1235 5.9217 5.7933 -16.3150
# 3 32.0158 41.1235 156.4059 15.2571 -2.5364 -14.9076
# 4 5.2914 5.9217 15.2571 29.3578 0.2700 -0.9318
# 5 -1.1885 5.7933 -2.5364 0.2700 58.4696 18.0747
# 6 -25.6817 -16.3150 -14.9076 -0.9318 18.0747 56.4372
#
#
#
# Elastic Compliance Matrix: (Units=1/GPa)
#
#
# Indices 1 2 3 4 5 6 
#
# 1 0.014300 -0.002545 -0.001632 -0.001022 -0.001297 0.005739
# 2 -0.002545 0.015282 -0.003144 -0.000861 -0.002714 0.003284
# 3 -0.001632 -0.003144 0.007892 -0.003172 0.000575 0.000196
# 4 -0.001022 -0.000861 -0.003172 0.036037 0.000062 -0.000977
# 5 -0.001297 -0.002714 0.000575 0.000062 0.019698 -0.007530
# 6 0.005739 0.003284 0.000196 -0.000977 -0.007530 0.023727
#
#
# Mechanical properties :
#
#
# Convention : Reuss Voigt Hill
#
# Bulk Modulus (GPa) = 43.80097 58.77084 51.28590
# Shear Modulus (GPa) = 35.92242 44.08567 40.00405
#
# Velocity S-wave (km/s) = 3.77414 4.18103 3.98279
# Velocity P-wave (km/s) = 6.02995 6.82731 6.44098
#
# Compressibility (1/GPa) = 0.02283055
#
# Stress axis : x y z
#
# Youngs Moduli (GPa) = 69.93235 65.43608 126.71193
#
# Poissons Ratio (x) = 0.16653 0.20684
# Poissons Ratio (y) = 0.17798 0.39841
# Poissons Ratio (z) = 0.11415 0.20574
#
# Static dielectric constant tensor:
#      x y z
#    x 2.147210 -0.039980 -0.021380 
#    y -0.039980 2.238360 0.052340 
#    z -0.021380 0.052340 2.105810 
# 
# From -- ./inp_files/591050.got.cif
#   From: 2010.05.17/outbox.cif.g08.bks.cpg/sg2_296_cif.got.tgz:591050.got - 2010.06.03 11:33:40.
