data_PCOD9023830
_publ_section_title
;
Structure prediction by ZEFSAII (Michael W. Deem and Ramdas Pophale) SiO2 
 PCOD9023830
Probable space group: P -1
;
_chemical_formula_sum "Si O2"
_cell_formula_units_Z 15
_cell_length_a 13.248672
_cell_length_b 11.367873
_cell_length_c 7.580459
_cell_angle_alpha 106.056330
_cell_angle_beta 107.778957
_cell_angle_gamma 132.365425
_cell_volume 584.789941
_symmetry_space_group_name_H-M "P -1"
_symmetry_group_IT_number 2
_symmetry_cell_setting 'triclinic'
loop_
_space_group_symop_operation_xyz
x,y,z
-x,-y,-z
loop_
_atom_site_type_symbol
_atom_site_label
_atom_site_fract_x
_atom_site_fract_y
_atom_site_fract_z
Si Si1 0.286735 0.910746 0.641325
Si Si2 0.726983 0.884358 0.056322
Si Si3 0.307721 0.106358 0.432576
Si Si4 0.977044 0.452140 0.257847
Si Si5 0.425542 0.980816 0.265953
Si Si6 0.681416 0.606899 0.441582
Si Si7 0.000000 0.000000 0.500000
Si Si8 0.031552 0.226245 0.082415
O O1 0.108441 0.685318 0.348729
O O2 0.245125 0.945762 0.808190
O O3 0.370013 0.097239 0.639894
O O4 0.414051 0.913138 0.735525
O O5 0.864693 0.999881 0.010863
O O6 0.506278 0.646073 0.814707
O O7 0.818052 0.886658 0.255769
O O8 0.381595 0.312451 0.540530
O O9 0.381685 0.080630 0.316015
O O10 0.072552 0.891075 0.212438
O O11 0.043804 0.381940 0.200377
O O12 0.000000 0.500000 0.500000
O O13 0.767000 0.266415 0.998596
O O14 0.500000 0.000000 0.500000
O O15 0.777038 0.649316 0.691832
O O16 0.850160 0.772077 0.454537
#
# Coordination Sequence:
#
# PCOD9023830 Si02
#       8
#     2   2   2   2   2   2   1   2
#     4  11  23  42  70  97 130 174 221 272 330 391
#     4  11  23  41  66 100 131 169 222 269 327 390
#     4  10  22  45  64  95 135 169 219 269 325 404
#     4  11  23  42  67  97 134 177 220 278 330 385
#     4   9  23  42  62  96 132 168 221 269 324 396
#     4  11  23  42  70  96 132 175 214 270 332 387
#     4  10  22  40  62 100 128 164 218 272 316 386
#     4  10  24  42  63  98 134 166 223 268 327 397
#
# _framework density 25.650236
#
# number of rings (size 3 to 8) (size 9 to 14) (size 15 to 20)
#    0.000    1.600    2.667    0.800    1.867    8.000 
#    2.400    6.667    0.000    0.000    0.000    0.000 
#    0.000    0.000    0.000    0.000    0.000    0.000 
#
# Total GULP energy -83616.172878 kJ/mol
# GULP energy per Si atom -5574.411525 kJ/mol
# Density = 2.559185 g / cm^3
# Si number density = 25.650236 Si / 1000 Ang^3
#
#
#
# Elastic Constant Matrix: (Units=GPa)
#
#
# Indices 1 2 3 4 5 6 
#
# 1 64.8705 4.3537 28.3550 16.7617 20.5436 -12.0074
# 2 4.3537 57.1220 31.6241 6.0589 8.7156 -9.4114
# 3 28.3550 31.6241 154.3921 26.6631 18.7010 -8.0115
# 4 16.7617 6.0589 26.6631 50.9316 -5.3744 -1.3104
# 5 20.5436 8.7156 18.7010 -5.3744 46.6375 4.3603
# 6 -12.0074 -9.4114 -8.0115 -1.3104 4.3603 36.6979
#
#
#
# Elastic Compliance Matrix: (Units=1/GPa)
#
#
# Indices 1 2 3 4 5 6 
#
# 1 0.023704 0.003412 -0.001623 -0.008410 -0.012280 0.009435
# 2 0.003412 0.021292 -0.003726 -0.002052 -0.004810 0.006262
# 3 -0.001623 -0.003726 0.008510 -0.003726 -0.002480 0.000533
# 4 -0.008410 -0.002052 -0.003726 0.025427 0.008909 -0.004242
# 5 -0.012280 -0.004810 -0.002480 0.008909 0.030623 -0.009113
# 6 0.009435 0.006262 0.000533 -0.004242 -0.009113 0.032990
#
#
# Mechanical properties :
#
#
# Convention : Reuss Voigt Hill
#
# Bulk Modulus (GPa) = 20.14806 45.00559 32.57682
# Shear Modulus (GPa) = 30.68137 40.99018 35.83577
#
# Velocity S-wave (km/s) = 3.46228 4.00189 3.74183
# Velocity P-wave (km/s) = 4.88418 6.23999 5.60324
#
# Compressibility (1/GPa) = 0.04963258
#
# Stress axis : x y z
#
# Youngs Moduli (GPa) = 42.18666 46.96515 117.51220
#
# Poissons Ratio (x) = -0.16025 0.19070
# Poissons Ratio (y) = -0.14394 0.43786
# Poissons Ratio (z) = 0.06846 0.17500
#
# Static dielectric constant tensor:
#      x y z
#    x 2.188440 0.146320 -0.108570 
#    y 0.146320 2.134450 -0.106570 
#    z -0.108570 -0.106570 2.186050 
# 
# From -- ./inp_files/308132.got.cif
#   From: 2010.05.17/outbox.cif.g08.bks.cpg/sg2_155_cif.got.tgz:308132.got - 2010.06.03 11:33:40.
