data_PCOD9023803
_publ_section_title
;
Structure prediction by ZEFSAII (Michael W. Deem and Ramdas Pophale) SiO2 
 PCOD9023803
Probable space group: P -1
;
_chemical_formula_sum "Si O2"
_cell_formula_units_Z 14
_cell_length_a 5.323635
_cell_length_b 23.590633
_cell_length_c 4.892477
_cell_angle_alpha 60.733638
_cell_angle_beta 112.351868
_cell_angle_gamma 95.673302
_cell_volume 492.840320
_symmetry_space_group_name_H-M "P -1"
_symmetry_group_IT_number 2
_symmetry_cell_setting 'triclinic'
loop_
_space_group_symop_operation_xyz
x,y,z
-x,-y,-z
loop_
_atom_site_type_symbol
_atom_site_label
_atom_site_fract_x
_atom_site_fract_y
_atom_site_fract_z
Si Si1 0.702251 0.955558 0.721251
Si Si2 0.873549 0.307859 0.138197
Si Si3 0.840258 0.418752 0.285228
Si Si4 0.625850 0.549041 0.636299
Si Si5 0.024564 0.231464 0.872886
Si Si6 0.957439 0.073279 0.623317
Si Si7 0.421476 0.804647 0.572767
O O1 0.899031 0.938166 0.590736
O O2 0.758717 0.912200 0.108409
O O3 0.635261 0.037941 0.487722
O O4 0.000000 0.000000 0.000000
O O5 0.085513 0.261874 0.531251
O O6 0.842585 0.378047 0.101742
O O7 0.609552 0.269416 0.165185
O O8 0.959270 0.292526 0.903454
O O9 0.596359 0.402618 0.415058
O O10 0.152272 0.414508 0.514785
O O11 0.769521 0.497798 0.037925
O O12 0.500000 0.500000 0.500000
O O13 0.744118 0.198028 0.777859
O O14 0.272205 0.187830 0.221110
O O15 0.772855 0.139115 0.487151
#
# Coordination Sequence:
#
# PCOD9023803 Si02
#       7
#     2   2   2   2   2   2   2
#     4  10  22  40  61  94 124 172 213 277 333 403
#     4  10  26  42  68  98 135 181 229 285 352 410
#     4  10  23  41  63 101 131 184 227 297 344 440
#     4  10  22  40  67  95 136 175 235 280 364 410
#     4  10  26  43  68  98 136 177 232 276 352 406
#     4  10  23  38  63  92 129 166 224 269 338 405
#     4  10  26  44  68 100 134 180 227 284 343 415
#
# _framework density 28.406766999999999
#
# number of rings (size 3 to 8) (size 9 to 14) (size 15 to 20)
#    0.857    1.143    0.000    0.857   10.000    1.143 
#    0.000    0.000    0.000    0.000    0.000    0.000 
#    0.000    0.000    0.000    0.000    0.000    0.000 
#
# Total GULP energy -77994.586585 kJ/mol
# GULP energy per Si atom -5571.041899 kJ/mol
# Density = 2.834211 g / cm^3
# Si number density = 28.406767 Si / 1000 Ang^3
#
#
#
# Elastic Constant Matrix: (Units=GPa)
#
#
# Indices 1 2 3 4 5 6 
#
# 1 116.6962 50.5226 32.4696 7.2097 26.6163 -13.8850
# 2 50.5226 183.1446 40.3393 14.2358 13.3018 -9.8276
# 3 32.4696 40.3393 131.1436 2.7112 10.7462 -12.7784
# 4 7.2097 14.2358 2.7112 54.2621 -16.3450 3.9437
# 5 26.6163 13.3018 10.7462 -16.3450 48.4523 -0.2120
# 6 -13.8850 -9.8276 -12.7784 3.9437 -0.2120 53.4391
#
#
#
# Elastic Compliance Matrix: (Units=1/GPa)
#
#
# Indices 1 2 3 4 5 6 
#
# 1 0.011908 -0.002097 -0.001438 -0.003166 -0.006704 0.002572
# 2 -0.002097 0.006557 -0.001343 -0.001684 -0.000916 0.000460
# 3 -0.001438 -0.001343 0.008608 -0.000241 -0.000826 0.001452
# 4 -0.003166 -0.001684 -0.000241 0.022466 0.009822 -0.002809
# 5 -0.006704 -0.000916 -0.000826 0.009822 0.028057 -0.002721
# 6 0.002572 0.000460 0.001452 -0.002809 -0.002721 0.020010
#
#
# Mechanical properties :
#
#
# Convention : Reuss Voigt Hill
#
# Bulk Modulus (GPa) = 57.74614 75.29418 66.52016
# Shear Modulus (GPa) = 44.19538 51.74089 47.96813
#
# Velocity S-wave (km/s) = 3.94865 4.27245 4.11374
# Velocity P-wave (km/s) = 6.41573 7.13454 6.78466
#
# Compressibility (1/GPa) = 0.01731718
#
# Stress axis : x y z
#
# Youngs Moduli (GPa) = 83.97814 152.51796 116.16526
#
# Poissons Ratio (x) = 0.31987 0.16702
# Poissons Ratio (y) = 0.17612 0.15599
# Poissons Ratio (z) = 0.12074 0.20480
#
# Static dielectric constant tensor:
#      x y z
#    x 2.167650 -0.214030 -0.211350 
#    y -0.214030 1.604500 -0.634370 
#    z -0.211350 -0.634370 1.792660 
# 
# From -- ./inp_files/13364.got.cif
#   From: 2010.05.17/outbox.cif.g08.bks.cpg/sg2_7_cif.got.tgz:13364.got - 2010.06.03 11:33:40.
