data_PCOD9023794
_publ_section_title
;
Structure prediction by ZEFSAII (Michael W. Deem and Ramdas Pophale) SiO2 
 PCOD9023794
Probable space group: P -1
;
_chemical_formula_sum "Si O2"
_cell_formula_units_Z 14
_cell_length_a 7.909208
_cell_length_b 13.749048
_cell_length_c 21.011214
_cell_angle_alpha 155.191048
_cell_angle_beta 42.818481
_cell_angle_gamma 137.302941
_cell_volume 632.176782
_symmetry_space_group_name_H-M "P -1"
_symmetry_group_IT_number 2
_symmetry_cell_setting 'triclinic'
loop_
_space_group_symop_operation_xyz
x,y,z
-x,-y,-z
loop_
_atom_site_type_symbol
_atom_site_label
_atom_site_fract_x
_atom_site_fract_y
_atom_site_fract_z
Si Si1 0.610037 0.271705 0.825089
Si Si2 0.844268 0.682119 0.333487
Si Si3 0.368236 0.750792 0.564592
Si Si4 0.080339 0.467097 0.352560
Si Si5 0.522643 0.214741 0.072350
Si Si6 0.195414 0.945313 0.541894
Si Si7 0.850913 0.225711 0.867042
O O1 0.700842 0.209267 0.832456
O O2 0.864382 0.331692 0.747056
O O3 0.412437 0.035037 0.714964
O O4 0.500000 0.500000 0.000000
O O5 0.649459 0.696168 0.452598
O O6 0.708766 0.452716 0.192267
O O7 0.849094 0.915930 0.427439
O O8 0.224947 0.616478 0.462414
O O9 0.198705 0.659179 0.618735
O O10 0.251356 0.283087 0.177838
O O11 0.088686 0.662579 0.411926
O O12 0.653442 0.152078 0.935097
O O13 0.500000 0.000000 0.000000
O O14 0.500000 0.000000 0.500000
O O15 0.055053 0.067508 0.707211
O O16 0.000000 0.500000 0.000000
#
# Coordination Sequence:
#
# PCOD9023794 Si02
#       7
#     2   2   2   2   2   2   2
#     4  11  25  40  67  97 132 172 214 273 323 382
#     4  10  22  41  62  97 124 173 215 265 324 383
#     4  10  22  40  61  93 130 158 222 251 326 382
#     4  10  23  38  66  96 122 175 213 265 323 390
#     4  11  23  38  66  95 133 166 221 266 324 385
#     4  11  19  37  64  95 124 162 222 264 313 384
#     4  11  23  41  64  94 131 166 222 264 321 383
#
# _framework density 22.145706000000001
#
# number of rings (size 3 to 8) (size 9 to 14) (size 15 to 20)
#    0.000    1.429    5.714    0.429   10.000    1.143 
#    0.000    3.571    3.143    0.000    0.000    0.000 
#    0.000    0.000    0.000    0.000    0.000    0.000 
#
# Total GULP energy -78311.671128 kJ/mol
# GULP energy per Si atom -5593.690795 kJ/mol
# Density = 2.209530 g / cm^3
# Si number density = 22.145706 Si / 1000 Ang^3
#
#
#
# Elastic Constant Matrix: (Units=GPa)
#
#
# Indices 1 2 3 4 5 6 
#
# 1 56.2393 38.1661 32.6337 -10.5770 -16.4403 -1.2274
# 2 38.1661 192.1028 76.0005 -35.8148 -27.3330 4.7519
# 3 32.6337 76.0005 154.0715 -34.6009 -34.8646 5.0794
# 4 -10.5770 -35.8148 -34.6009 41.0517 0.7933 -0.7132
# 5 -16.4403 -27.3330 -34.8646 0.7933 39.3567 -2.2474
# 6 -1.2274 4.7519 5.0794 -0.7132 -2.2474 30.8559
#
#
#
# Elastic Compliance Matrix: (Units=1/GPa)
#
#
# Indices 1 2 3 4 5 6 
#
# 1 0.022831 -0.002632 -0.001734 0.002041 0.006252 0.002101
# 2 -0.002632 0.007587 -0.001521 0.004595 0.002689 -0.000721
# 3 -0.001734 -0.001521 0.011067 0.007387 0.007822 -0.000916
# 4 0.002041 0.004595 0.007387 0.034924 0.009866 -0.000317
# 5 0.006252 0.002689 0.007822 0.009866 0.036701 0.001448
# 6 0.002101 -0.000721 -0.000916 -0.000317 0.001448 0.032852
#
#
# Mechanical properties :
#
#
# Convention : Reuss Voigt Hill
#
# Bulk Modulus (GPa) = 33.65682 77.33491 55.49586
# Shear Modulus (GPa) = 29.82582 39.29374 34.55978
#
# Velocity S-wave (km/s) = 3.67386 4.21685 3.95468
# Velocity P-wave (km/s) = 5.76430 7.66197 6.77986
#
# Compressibility (1/GPa) = 0.02971166
#
# Stress axis : x y z
#
# Youngs Moduli (GPa) = 43.80087 131.80063 90.35529
#
# Poissons Ratio (x) = 0.34690 0.15664
# Poissons Ratio (y) = 0.11528 0.13745
# Poissons Ratio (z) = 0.07593 0.20049
#
# Static dielectric constant tensor:
#      x y z
#    x 1.883290 0.002800 0.043060 
#    y 0.002800 1.816700 -0.017260 
#    z 0.043060 -0.017260 1.812080 
# 
# From -- ./inp_files/450772.got.cif
#   From: 2010.05.17/outbox.cif.g08.bks.cpg/sg2_226_cif.got.tgz:450772.got - 2010.06.03 11:33:40.
