data_PCOD9023576
_publ_section_title
;
Structure prediction by ZEFSAII (Michael W. Deem and Ramdas Pophale) SiO2 
 PCOD9023576
Probable space group: P -1
;
_chemical_formula_sum "Si O2"
_cell_formula_units_Z 16
_cell_length_a 7.014136
_cell_length_b 10.874282
_cell_length_c 12.694266
_cell_angle_alpha 79.903439
_cell_angle_beta 49.907796
_cell_angle_gamma 85.477190
_cell_volume 728.494933
_symmetry_space_group_name_H-M "P -1"
_symmetry_group_IT_number 2
_symmetry_cell_setting 'triclinic'
loop_
_space_group_symop_operation_xyz
x,y,z
-x,-y,-z
loop_
_atom_site_type_symbol
_atom_site_label
_atom_site_fract_x
_atom_site_fract_y
_atom_site_fract_z
Si Si1 0.203289 0.829300 0.655786
Si Si2 0.249846 0.571464 0.200987
Si Si3 0.768786 0.244187 0.660176
Si Si4 0.747857 0.437870 0.048900
Si Si5 0.097159 0.822580 0.919885
Si Si6 0.229924 0.100895 0.558320
Si Si7 0.286289 0.102276 0.790386
Si Si8 0.257017 0.575139 0.543448
O O1 0.024827 0.815760 0.822923
O O2 0.488450 0.868061 0.583957
O O3 0.218634 0.698573 0.610359
O O4 0.144233 0.955181 0.594158
O O5 0.273106 0.713720 0.211417
O O6 0.497743 0.504470 0.158919
O O7 0.990674 0.512607 0.346439
O O8 0.231654 0.556724 0.084864
O O9 0.569536 0.140581 0.707668
O O10 0.722461 0.365707 0.588386
O O11 0.042365 0.194123 0.560543
O O12 0.731415 0.293142 0.107895
O O13 0.000000 0.500000 0.000000
O O14 0.226698 0.959300 0.864603
O O15 0.880316 0.815154 0.085578
O O16 0.232307 0.119529 0.682761
O O17 0.500000 0.500000 0.500000
#
# Coordination Sequence:
#
# PCOD9023576 Si02
#       8
#     2   2   2   2   2   2   2   2
#     4  10  22  43  67  99 133 175 220 285 335 397
#     4  11  27  42  64 103 129 179 238 267 342 409
#     4  12  25  42  71  94 136 181 224 279 343 407
#     4  11  24  45  70  94 138 181 218 289 338 402
#     4  10  22  39  73  94 135 172 225 277 340 406
#     4  10  22  43  69  96 134 171 226 277 339 409
#     4  10  22  45  65 103 129 179 217 280 351 397
#     4  12  27  43  67  99 139 183 230 283 338 407
#
# _framework density 21.963087999999999
#
# number of rings (size 3 to 8) (size 9 to 14) (size 15 to 20)
#    0.000    1.250    1.250    3.375    7.000    2.500 
#    0.000   10.000    0.000    0.000    0.000    0.000 
#    0.000    0.000    0.000    0.000    0.000    0.000 
#
# Total GULP energy -89432.018900 kJ/mol
# GULP energy per Si atom -5589.501181 kJ/mol
# Density = 2.191310 g / cm^3
# Si number density = 21.963088 Si / 1000 Ang^3
#
#
#
# Elastic Constant Matrix: (Units=GPa)
#
#
# Indices 1 2 3 4 5 6 
#
# 1 105.5833 37.8489 21.1336 0.8927 -9.3341 -12.2171
# 2 37.8489 89.5789 3.0498 18.2481 9.6846 -5.2046
# 3 21.1336 3.0498 81.2730 15.9037 2.2781 2.5636
# 4 0.8927 18.2481 15.9037 33.3087 6.5222 2.2984
# 5 -9.3341 9.6846 2.2781 6.5222 16.2320 7.0932
# 6 -12.2171 -5.2046 2.5636 2.2984 7.0932 40.2669
#
#
#
# Elastic Compliance Matrix: (Units=1/GPa)
#
#
# Indices 1 2 3 4 5 6 
#
# 1 0.014313 -0.007804 -0.004521 0.003719 0.011416 0.001399
# 2 -0.007804 0.017679 0.003353 -0.008683 -0.013114 0.002509
# 3 -0.004521 0.003353 0.015084 -0.008268 -0.003003 -0.000898
# 4 0.003719 -0.008683 -0.008268 0.040116 -0.007445 -0.000446
# 5 0.011416 -0.013114 -0.003003 -0.007445 0.084902 -0.012571
# 6 0.001399 0.002509 -0.000898 -0.000446 -0.012571 0.027880
#
#
# Mechanical properties :
#
#
# Convention : Reuss Voigt Hill
#
# Bulk Modulus (GPa) = 34.32494 44.49998 39.41246
# Shear Modulus (GPa) = 21.96553 32.25503 27.11028
#
# Velocity S-wave (km/s) = 3.16588 3.83639 3.51715
# Velocity P-wave (km/s) = 5.38759 6.31895 5.87177
#
# Compressibility (1/GPa) = 0.02913334
#
# Stress axis : x y z
#
# Youngs Moduli (GPa) = 69.86476 56.56441 66.29373
#
# Poissons Ratio (x) = 0.44144 0.29970
# Poissons Ratio (y) = 0.54524 -0.22231
# Poissons Ratio (z) = 0.31585 -0.18968
#
# Static dielectric constant tensor:
#      x y z
#    x 1.785560 0.008330 0.042440 
#    y 0.008330 1.836240 0.044210 
#    z 0.042440 0.044210 1.858650 
# 
# From -- ./inp_files/97852.got.cif
#   From: 2010.05.17/outbox.cif.g08.bks.cpg/sg2_49_cif.got.tgz:97852.got - 2010.06.03 11:33:40.
