data_PCOD9023777
_publ_section_title
;
Structure prediction by ZEFSAII (Michael W. Deem and Ramdas Pophale) SiO2 
 PCOD9023777
Probable space group: P -1
;
_chemical_formula_sum "Si O2"
_cell_formula_units_Z 14
_cell_length_a 5.301171
_cell_length_b 9.435723
_cell_length_c 26.651103
_cell_angle_alpha 29.602369
_cell_angle_beta 93.042813
_cell_angle_gamma 91.667006
_cell_volume 657.199059
_symmetry_space_group_name_H-M "P -1"
_symmetry_group_IT_number 2
_symmetry_cell_setting 'triclinic'
loop_
_space_group_symop_operation_xyz
x,y,z
-x,-y,-z
loop_
_atom_site_type_symbol
_atom_site_label
_atom_site_fract_x
_atom_site_fract_y
_atom_site_fract_z
Si Si1 0.436380 0.555148 0.241779
Si Si2 0.272671 0.905505 0.891524
Si Si3 0.380455 0.891411 0.699049
Si Si4 0.235906 0.048815 0.451877
Si Si5 0.137763 0.794771 0.421962
Si Si6 0.884797 0.984311 0.949684
Si Si7 0.601308 0.424038 0.101531
O O1 0.595386 0.314025 0.286620
O O2 0.251905 0.370269 0.330565
O O3 0.566341 0.806048 0.197003
O O4 0.310703 0.749251 0.137340
O O5 0.259977 0.789381 0.870916
O O6 0.041731 0.004625 0.893675
O O7 0.386934 0.621840 0.009813
O O8 0.465238 0.737735 0.798803
O O9 0.586719 0.139957 0.618210
O O10 0.084054 0.983192 0.668347
O O11 0.500000 0.000000 0.500000
O O12 0.191564 0.844934 0.466170
O O13 0.000000 0.000000 0.500000
O O14 0.000000 0.500000 0.500000
O O15 0.781959 0.670848 0.043291
O O16 0.000000 0.000000 0.000000
#
# Coordination Sequence:
#
# PCOD9023777 Si02
#       7
#     2   2   2   2   2   2   2
#     4  10  24  40  64  97 127 175 224 273 331 405
#     4  10  22  40  61  91 143 169 224 276 332 405
#     4  11  24  43  71 100 134 180 227 281 338 417
#     4  11  25  44  70  98 134 178 226 287 342 404
#     4  11  26  47  71 100 137 173 232 290 346 412
#     4  11  22  37  67  94 135 174 221 271 328 406
#     4  10  23  39  59  98 131 180 218 274 339 398
#
# _framework density 21.302527999999999
#
# number of rings (size 3 to 8) (size 9 to 14) (size 15 to 20)
#    0.000    1.429    0.000    4.286   12.000    4.571 
#    0.000    0.000    0.000    0.000    0.000    0.000 
#    0.000    0.000    0.000    0.000    0.000    0.000 
#
# Total GULP energy -78021.249818 kJ/mol
# GULP energy per Si atom -5572.946416 kJ/mol
# Density = 2.125404 g / cm^3
# Si number density = 21.302528 Si / 1000 Ang^3
#
#
#
# Elastic Constant Matrix: (Units=GPa)
#
#
# Indices 1 2 3 4 5 6 
#
# 1 49.6776 9.6753 2.3972 -2.9275 -16.2093 12.8811
# 2 9.6753 692.7820 -126.8070 -249.6054 -260.9256 106.0900
# 3 2.3972 -126.8070 137.5539 64.9377 41.4869 -10.9932
# 4 -2.9275 -249.6054 64.9377 132.8187 92.8215 -39.5417
# 5 -16.2093 -260.9256 41.4869 92.8215 135.8953 -34.0064
# 6 12.8811 106.0900 -10.9932 -39.5417 -34.0064 43.3046
#
#
#
# Elastic Compliance Matrix: (Units=1/GPa)
#
#
# Indices 1 2 3 4 5 6 
#
# 1 0.026057 0.005717 0.000797 -0.000813 0.010974 -0.013679
# 2 0.005717 0.011525 0.001734 0.007594 0.014248 -0.011371
# 3 0.000797 0.001734 0.009920 -0.004524 0.002439 -0.004181
# 4 -0.000813 0.007594 -0.004524 0.025435 -0.000720 0.003149
# 5 0.010974 0.014248 0.002439 -0.000720 0.032621 -0.012592
# 6 -0.013679 -0.011371 -0.004181 0.003149 -0.012592 0.046945
#
#
# Mechanical properties :
#
#
# Convention : Reuss Voigt Hill
#
# Bulk Modulus (GPa) = 15.62576 72.28272 43.95424
# Shear Modulus (GPa) = 31.77829 128.72026 80.24928
#
# Velocity S-wave (km/s) = 3.86652 7.78178 6.14435
# Velocity P-wave (km/s) = 5.22345 10.71198 8.42707
#
# Compressibility (1/GPa) = 0.06399689
#
# Stress axis : x y z
#
# Youngs Moduli (GPa) = 38.37670 86.77099 100.80584
#
# Poissons Ratio (x) = -0.49605 -0.08035
# Poissons Ratio (y) = -0.21939 -0.17475
# Poissons Ratio (z) = -0.03059 -0.15042
#
# Static dielectric constant tensor:
#      x y z
#    x 1.844510 0.008110 0.021210 
#    y 0.008110 1.738080 -0.013600 
#    z 0.021210 -0.013600 1.743520 
# 
# From -- ./inp_files/36265.got.cif
#   From: 2010.05.17/outbox.cif.g08.bks.cpg/sg2_19_cif.got.tgz:36265.got - 2010.06.03 11:33:40.
