data_PCOD9023799
_publ_section_title
;
Structure prediction by ZEFSAII (Michael W. Deem and Ramdas Pophale) SiO2 
 PCOD9023799
Probable space group: P -1
;
_chemical_formula_sum "Si O2"
_cell_formula_units_Z 12
_cell_length_a 5.536419
_cell_length_b 5.044809
_cell_length_c 19.197733
_cell_angle_alpha 88.368012
_cell_angle_beta 120.458917
_cell_angle_gamma 95.319540
_cell_volume 460.099448
_symmetry_space_group_name_H-M "P -1"
_symmetry_group_IT_number 2
_symmetry_cell_setting 'triclinic'
loop_
_space_group_symop_operation_xyz
x,y,z
-x,-y,-z
loop_
_atom_site_type_symbol
_atom_site_label
_atom_site_fract_x
_atom_site_fract_y
_atom_site_fract_z
Si Si1 0.331046 0.074293 0.905965
Si Si2 0.118573 0.266342 0.236644
Si Si3 0.093109 0.749491 0.059237
Si Si4 0.074620 0.908148 0.434625
Si Si5 0.739221 0.569601 0.604139
Si Si6 0.517525 0.242262 0.694845
O O1 0.568997 0.202620 0.887694
O O2 0.095985 0.254445 0.899381
O O3 0.151015 0.824740 0.847437
O O4 0.500000 0.000000 0.000000
O O5 0.344367 0.506450 0.242124
O O6 0.038540 0.379333 0.299708
O O7 0.284057 0.000446 0.273035
O O8 0.000000 0.500000 0.000000
O O9 0.000000 0.000000 0.000000
O O10 0.174039 0.615492 0.443546
O O11 0.798614 0.885532 0.344287
O O12 0.289056 0.138075 0.430373
O O13 0.000000 0.000000 0.500000
O O14 0.508723 0.392839 0.616829
#
# Coordination Sequence:
#
# PCOD9023799 Si02
#       6
#     2   2   2   2   2   2
#     4  10  23  43  69 102 133 179 236 287 343 399
#     4  10  22  44  64  90 131 183 214 279 338 408
#     4  10  22  40  61  93 133 166 214 285 342 399
#     4  12  24  40  70 100 127 173 222 277 330 403
#     4  10  22  44  59  94 135 167 220 263 341 396
#     4  10  23  43  62  92 133 171 223 258 345 397
#
# _framework density 26.081319000000001
#
# number of rings (size 3 to 8) (size 9 to 14) (size 15 to 20)
#    1.000    0.667    1.667    2.000    0.000    9.333 
#    0.000    0.000    0.000    0.000    0.000    0.000 
#    0.000    0.000    0.000    0.000    0.000    0.000 
#
# Total GULP energy -66998.545221 kJ/mol
# GULP energy per Si atom -5583.212102 kJ/mol
# Density = 2.602196 g / cm^3
# Si number density = 26.081319 Si / 1000 Ang^3
#
#
#
# Elastic Constant Matrix: (Units=GPa)
#
#
# Indices 1 2 3 4 5 6 
#
# 1 128.9937 46.4189 28.8360 20.2058 16.0553 12.4229
# 2 46.4189 185.0840 51.6405 25.6892 6.7571 2.8996
# 3 28.8360 51.6405 164.3199 45.2250 25.3186 2.8641
# 4 20.2058 25.6892 45.2250 60.5392 2.7029 -5.7817
# 5 16.0553 6.7571 25.3186 2.7029 38.0695 9.3199
# 6 12.4229 2.8996 2.8641 -5.7817 9.3199 29.5389
#
#
#
# Elastic Compliance Matrix: (Units=1/GPa)
#
#
# Indices 1 2 3 4 5 6 
#
# 1 0.009497 -0.001896 0.000150 -0.002689 -0.002723 -0.003490
# 2 -0.001896 0.006416 -0.001527 -0.000995 0.000778 -0.000124
# 3 0.000150 -0.001527 0.008982 -0.005902 -0.005280 -0.000273
# 4 -0.002689 -0.000995 -0.005902 0.022673 0.002275 0.005521
# 5 -0.002723 0.000778 -0.005280 0.002275 0.032654 -0.008277
# 6 -0.003490 -0.000124 -0.000273 0.005521 -0.008277 0.039052
#
#
# Mechanical properties :
#
#
# Convention : Reuss Voigt Hill
#
# Bulk Modulus (GPa) = 54.50246 81.35427 67.92837
# Shear Modulus (GPa) = 37.89615 49.06300 43.47958
#
# Velocity S-wave (km/s) = 3.81596 4.34193 4.08742
# Velocity P-wave (km/s) = 6.35279 7.50978 6.95538
#
# Compressibility (1/GPa) = 0.01834779
#
# Stress axis : x y z
#
# Youngs Moduli (GPa) = 105.29101 155.84938 111.33194
#
# Poissons Ratio (x) = 0.29556 -0.01667
# Poissons Ratio (y) = 0.19968 0.17005
# Poissons Ratio (z) = -0.01577 0.23805
#
# Static dielectric constant tensor:
#      x y z
#    x 2.097800 0.013340 0.011590 
#    y 0.013340 1.997170 -0.050650 
#    z 0.011590 -0.050650 2.095600 
# 
# From -- ./inp_files/5028.got.cif
#   From: 2010.05.17/outbox.cif.g08.bks.cpg/sg2_3_cif.got.tgz:5028.got - 2010.06.03 11:33:40.
