data_PCOD9023444
_publ_section_title
;
Structure prediction by ZEFSAII (Michael W. Deem and Ramdas Pophale) SiO2 
 PCOD9023444
Probable space group: P -1
;
_chemical_formula_sum "Si O2"
_cell_formula_units_Z 16
_cell_length_a 5.974970
_cell_length_b 11.959078
_cell_length_c 16.848533
_cell_angle_alpha 50.261565
_cell_angle_beta 128.173768
_cell_angle_gamma 112.943135
_cell_volume 727.760773
_symmetry_space_group_name_H-M "P -1"
_symmetry_group_IT_number 2
_symmetry_cell_setting 'triclinic'
loop_
_space_group_symop_operation_xyz
x,y,z
-x,-y,-z
loop_
_atom_site_type_symbol
_atom_site_label
_atom_site_fract_x
_atom_site_fract_y
_atom_site_fract_z
Si Si1 0.376311 0.843932 0.028078
Si Si2 0.156577 0.314058 0.987596
Si Si3 0.212781 0.349155 0.163346
Si Si4 0.712166 0.561122 0.204025
Si Si5 0.576435 0.062721 0.403315
Si Si6 0.166479 0.123826 0.575233
Si Si7 0.176499 0.449128 0.479891
Si Si8 0.252272 0.837721 0.822708
O O1 0.625437 0.723984 0.136701
O O2 0.234824 0.853861 0.905819
O O3 0.122764 0.777565 0.054428
O O4 0.500000 0.000000 0.000000
O O5 0.136621 0.384483 0.038843
O O6 0.421873 0.203226 0.101963
O O7 0.217470 0.425175 0.879839
O O8 0.427662 0.465371 0.193195
O O9 0.382649 0.194712 0.272429
O O10 0.937785 0.302380 0.174561
O O11 0.966269 0.499686 0.340144
O O12 0.890292 0.129674 0.455136
O O13 0.500000 0.000000 0.500000
O O14 0.581688 0.927625 0.405122
O O15 0.195725 0.273154 0.560666
O O16 0.148240 0.983261 0.691706
O O17 0.500000 0.500000 0.500000
O O18 0.000000 0.500000 0.500000
#
# Coordination Sequence:
#
# PCOD9023444 Si02
#       8
#     2   2   2   2   2   2   2   2
#     4  10  25  44  69  95 134 188 244 298 357 431
#     4  10  23  43  68 104 135 182 235 300 375 437
#     4  11  21  41  67 106 146 178 236 297 386 449
#     4  11  26  46  70 101 142 190 239 308 368 447
#     4  11  22  40  71 105 141 191 235 303 375 452
#     4  11  24  43  70 105 142 192 244 302 373 440
#     4  12  32  52  76 110 152 207 258 311 369 448
#     4  10  22  39  69 104 136 182 235 300 362 446
#
# _framework density 21.985244999999999
#
# number of rings (size 3 to 8) (size 9 to 14) (size 15 to 20)
#    0.000    1.250    3.750    0.375    5.250    8.500 
#    0.000    0.000    0.000    0.000    0.000    0.000 
#    0.000    0.000    0.000    0.000    0.000    0.000 
#
# Total GULP energy -89309.282694 kJ/mol
# GULP energy per Si atom -5581.830168 kJ/mol
# Density = 2.193521 g / cm^3
# Si number density = 21.985245 Si / 1000 Ang^3
#
#
#
# Elastic Constant Matrix: (Units=GPa)
#
#
# Indices 1 2 3 4 5 6 
#
# 1 79.7241 49.9052 19.6050 -14.7948 4.0012 2.1623
# 2 49.9052 142.9743 26.7958 -26.3270 9.7900 0.5114
# 3 19.6050 26.7958 120.6450 -14.3070 1.0671 6.8529
# 4 -14.7948 -26.3270 -14.3070 31.6533 6.0824 9.4958
# 5 4.0012 9.7900 1.0671 6.0824 35.4699 0.2142
# 6 2.1623 0.5114 6.8529 9.4958 0.2142 33.9107
#
#
#
# Elastic Compliance Matrix: (Units=1/GPa)
#
#
# Indices 1 2 3 4 5 6 
#
# 1 0.016670 -0.004762 -0.001033 0.004186 -0.001241 -0.001947
# 2 -0.004762 0.010363 -0.000519 0.007381 -0.003562 -0.001792
# 3 -0.001033 -0.000519 0.009261 0.004313 -0.000740 -0.003001
# 4 0.004186 0.007381 0.004313 0.048109 -0.010800 -0.014653
# 5 -0.001241 -0.003562 -0.000740 -0.010800 0.031172 0.003110
# 6 -0.001947 -0.001792 -0.003001 -0.014653 0.003110 0.034330
#
#
# Mechanical properties :
#
#
# Convention : Reuss Voigt Hill
#
# Bulk Modulus (GPa) = 42.25728 59.55061 50.90395
# Shear Modulus (GPa) = 29.33876 36.67594 33.00735
#
# Velocity S-wave (km/s) = 3.65701 4.08880 3.87892
# Velocity P-wave (km/s) = 6.09049 7.03111 6.57764
#
# Compressibility (1/GPa) = 0.02366456
#
# Stress axis : x y z
#
# Youngs Moduli (GPa) = 59.98658 96.49397 107.98524
#
# Poissons Ratio (x) = 0.45954 0.11157
# Poissons Ratio (y) = 0.28568 0.05607
# Poissons Ratio (z) = 0.06198 0.05011
#
# Static dielectric constant tensor:
#      x y z
#    x 1.946520 0.004820 0.001880 
#    y 0.004820 1.815780 0.001980 
#    z 0.001880 0.001980 1.772230 
# 
# From -- ./inp_files/549473.got.cif
#   From: 2010.05.17/outbox.cif.g08.bks.cpg/sg2_275_cif.got.tgz:549473.got - 2010.06.03 11:33:40.
