data_PCOD9023357
_publ_section_title
;
Structure prediction by ZEFSAII (Michael W. Deem and Ramdas Pophale) SiO2 
 PCOD9023357
Probable space group: P -1
;
_chemical_formula_sum "Si O2"
_cell_formula_units_Z 12
_cell_length_a 17.998085
_cell_length_b 7.104728
_cell_length_c 5.141240
_cell_angle_alpha 103.511266
_cell_angle_beta 81.033878
_cell_angle_gamma 130.231660
_cell_volume 487.997356
_symmetry_space_group_name_H-M "P -1"
_symmetry_group_IT_number 2
_symmetry_cell_setting 'triclinic'
loop_
_space_group_symop_operation_xyz
x,y,z
-x,-y,-z
loop_
_atom_site_type_symbol
_atom_site_label
_atom_site_fract_x
_atom_site_fract_y
_atom_site_fract_z
Si Si1 0.734313 0.430187 0.023243
Si Si2 0.474509 0.586001 0.290047
Si Si3 0.660415 0.098087 0.464352
Si Si4 0.934432 0.164792 0.692177
Si Si5 0.723308 0.768336 0.472820
Si Si6 0.054413 0.349563 0.184916
O O1 0.718618 0.286832 0.254973
O O2 0.714055 0.615567 0.179592
O O3 0.668069 0.229998 0.769482
O O4 0.844068 0.581873 0.915816
O O5 0.500000 0.500000 0.500000
O O6 0.360781 0.432665 0.346275
O O7 0.549876 0.884998 0.360691
O O8 0.500000 0.500000 0.000000
O O9 0.705951 0.961767 0.461295
O O10 0.928807 0.390523 0.757766
O O11 0.013347 0.236779 0.454718
O O12 0.828913 0.917320 0.589822
O O13 0.973211 0.171159 0.955250
#
# Coordination Sequence:
#
# PCOD9023357 Si02
#       6
#     2   2   2   2   2   2
#     4  12  26  43  72 102 135 180 227 271 342 401
#     4  10  23  43  70 100 133 178 223 272 338 397
#     4  11  25  46  68  99 143 175 219 288 327 398
#     4  10  22  39  68  90 134 177 218 276 331 395
#     4  11  26  45  72 102 133 182 227 275 340 399
#     4  10  22  40  63  98 129 177 221 270 339 389
#
# _framework density 24.590299000000002
#
# number of rings (size 3 to 8) (size 9 to 14) (size 15 to 20)
#    0.000    1.333    1.667    3.000    4.667    9.333 
#    0.000    0.000    0.000    0.000    0.000    0.000 
#    0.000    0.000    0.000    0.000    0.000    0.000 
#
# Total GULP energy -67329.859983 kJ/mol
# GULP energy per Si atom -5610.821665 kJ/mol
# Density = 2.453433 g / cm^3
# Si number density = 24.590299 Si / 1000 Ang^3
#
#
#
# Elastic Constant Matrix: (Units=GPa)
#
#
# Indices 1 2 3 4 5 6 
#
# 1 52.9707 37.0393 42.8626 1.6906 -2.5400 -9.4613
# 2 37.0393 112.7190 59.0695 15.8695 -5.2117 30.6491
# 3 42.8626 59.0695 212.5263 23.6553 -5.8339 9.0749
# 4 1.6906 15.8695 23.6553 51.5804 4.1204 -3.4520
# 5 -2.5400 -5.2117 -5.8339 4.1204 41.3049 -1.0190
# 6 -9.4613 30.6491 9.0749 -3.4520 -1.0190 52.9062
#
#
#
# Elastic Compliance Matrix: (Units=1/GPa)
#
#
# Indices 1 2 3 4 5 6 
#
# 1 0.035240 -0.014474 -0.004497 0.006466 -0.000548 0.015870
# 2 -0.014474 0.018770 -0.001018 -0.005873 0.001584 -0.013640
# 3 -0.004497 -0.001018 0.006261 -0.002563 0.000699 -0.001442
# 4 0.006466 -0.005873 -0.002563 0.022814 -0.002823 0.006433
# 5 -0.000548 0.001584 0.000699 -0.002823 0.024736 -0.000843
# 6 0.015870 -0.013640 -0.001442 0.006433 -0.000843 0.030292
#
#
# Mechanical properties :
#
#
# Convention : Reuss Voigt Hill
#
# Bulk Modulus (GPa) = 49.27713 72.90655 61.09184
# Shear Modulus (GPa) = 27.04815 45.10793 36.07804
#
# Velocity S-wave (km/s) = 3.32015 4.28761 3.83452
# Velocity P-wave (km/s) = 5.89751 7.36372 6.67102
#
# Compressibility (1/GPa) = 0.02029339
#
# Stress axis : x y z
#
# Youngs Moduli (GPa) = 28.37710 53.27549 159.71166
#
# Poissons Ratio (x) = 0.77111 0.71817
# Poissons Ratio (y) = 0.41073 0.16263
# Poissons Ratio (z) = 0.12760 0.05425
#
# Static dielectric constant tensor:
#      x y z
#    x 1.972360 -0.016900 -0.013250 
#    y -0.016900 1.975260 0.038470 
#    z -0.013250 0.038470 1.875650 
# 
# From -- ./inp_files/33406.got.cif
#   From: 2010.05.17/outbox.cif.g08.bks.cpg/sg2_17_cif.got.tgz:33406.got - 2010.06.03 11:33:40.
