data_PCOD9023365
_publ_section_title
;
Structure prediction by ZEFSAII (Michael W. Deem and Ramdas Pophale) SiO2 
 PCOD9023365
Probable space group: P -1
;
_chemical_formula_sum "Si O2"
_cell_formula_units_Z 16
_cell_length_a 17.717254
_cell_length_b 8.671011
_cell_length_c 6.665915
_cell_angle_alpha 77.056854
_cell_angle_beta 95.968257
_cell_angle_gamma 131.891372
_cell_volume 741.487279
_symmetry_space_group_name_H-M "P -1"
_symmetry_group_IT_number 2
_symmetry_cell_setting 'triclinic'
loop_
_space_group_symop_operation_xyz
x,y,z
-x,-y,-z
loop_
_atom_site_type_symbol
_atom_site_label
_atom_site_fract_x
_atom_site_fract_y
_atom_site_fract_z
Si Si1 0.572519 0.318055 0.546208
Si Si2 0.431232 0.051675 0.230696
Si Si3 0.914949 0.082826 0.139789
Si Si4 0.097493 0.691031 0.594033
Si Si5 0.566274 0.458654 0.917895
Si Si6 0.864373 0.526509 0.006287
Si Si7 0.741561 0.607316 0.170159
Si Si8 0.207376 0.832078 0.189407
O O1 0.472060 0.174281 0.420343
O O2 0.566852 0.440632 0.684292
O O3 0.668000 0.476926 0.377094
O O4 0.582059 0.154276 0.686902
O O5 0.327552 0.987822 0.146335
O O6 0.518941 0.227235 0.051913
O O7 0.916853 0.166355 0.333892
O O8 0.031678 0.231407 0.061134
O O9 0.846404 0.833121 0.197947
O O10 0.855492 0.122801 0.963276
O O11 0.187394 0.825262 0.420544
O O12 0.000000 0.500000 0.500000
O O13 0.114667 0.583601 0.798316
O O14 0.500000 0.500000 0.000000
O O15 0.678289 0.627158 0.991540
O O16 0.836330 0.397621 0.831434
O O17 0.772755 0.498126 0.082246
#
# Coordination Sequence:
#
# PCOD9023365 Si02
#       8
#     2   2   2   2   2   2   2   2
#     4  10  23  44  62  92 124 157 208 256 304 368
#     4  10  22  39  68  92 120 163 205 252 306 364
#     4  11  23  39  61  90 128 165 204 250 305 361
#     4  11  20  40  64  89 123 162 208 253 297 355
#     4  11  24  43  65  91 127 159 200 257 312 366
#     4  11  22  40  62  89 126 163 206 254 299 363
#     4  11  25  41  61  92 126 164 204 250 309 366
#     4  11  21  38  65  93 120 161 209 253 301 361
#
# _framework density 21.578253
#
# number of rings (size 3 to 8) (size 9 to 14) (size 15 to 20)
#    0.000    1.250    2.500    3.750    0.000    9.000 
#    0.000    0.625    0.000    0.000    0.000    0.000 
#    0.000    0.000    0.000    0.000    0.000    0.000 
#
# Total GULP energy -89396.944255 kJ/mol
# GULP energy per Si atom -5587.309016 kJ/mol
# Density = 2.152914 g / cm^3
# Si number density = 21.578253 Si / 1000 Ang^3
#
#
#
# Elastic Constant Matrix: (Units=GPa)
#
#
# Indices 1 2 3 4 5 6 
#
# 1 74.9916 15.3410 20.5747 17.3171 -18.1108 5.6482
# 2 15.3410 72.6848 25.0362 0.1078 -16.5161 6.8719
# 3 20.5747 25.0362 91.8836 20.3584 -30.1717 -6.0258
# 4 17.3171 0.1078 20.3584 24.1769 -7.0620 -2.8158
# 5 -18.1108 -16.5161 -30.1717 -7.0620 32.6132 5.8842
# 6 5.6482 6.8719 -6.0258 -2.8158 5.8842 36.0201
#
#
#
# Elastic Compliance Matrix: (Units=1/GPa)
#
#
# Indices 1 2 3 4 5 6 
#
# 1 0.018807 -0.002070 0.001949 -0.012954 0.009251 -0.004752
# 2 -0.002070 0.017281 -0.003831 0.005927 0.006089 -0.004144
# 3 0.001949 -0.003831 0.018978 -0.013303 0.013763 0.000312
# 4 -0.012954 0.005927 -0.013303 0.061125 -0.004004 0.004107
# 5 0.009251 0.006089 0.013763 -0.004004 0.052406 -0.009184
# 6 -0.004752 -0.004144 0.000312 0.004107 -0.009184 0.031172
#
#
# Mechanical properties :
#
#
# Convention : Reuss Voigt Hill
#
# Bulk Modulus (GPa) = 21.20339 40.16264 30.68301
# Shear Modulus (GPa) = 22.38213 30.46926 26.42570
#
# Velocity S-wave (km/s) = 3.22414 3.76178 3.50329
# Velocity P-wave (km/s) = 4.86905 6.12544 5.53302
#
# Compressibility (1/GPa) = 0.04716228
#
# Stress axis : x y z
#
# Youngs Moduli (GPa) = 53.17167 57.86644 52.69292
#
# Poissons Ratio (x) = 0.11980 -0.10270
# Poissons Ratio (y) = 0.11008 0.20185
# Poissons Ratio (z) = -0.10364 0.22167
#
# Static dielectric constant tensor:
#      x y z
#    x 1.824740 -0.009430 0.030420 
#    y -0.009430 1.810870 0.000770 
#    z 0.030420 0.000770 1.793840 
# 
# From -- ./inp_files/46250.got.cif
#   From: 2010.05.17/outbox.cif.g08.bks.cpg/sg2_24_cif.got.tgz:46250.got - 2010.06.03 11:33:40.
