data_PCOD9023951
_publ_section_title
;
Structure prediction by ZEFSAII (Michael W. Deem and Ramdas Pophale) SiO2 
 PCOD9023951
Probable space group: P -1
;
_chemical_formula_sum "Si O2"
_cell_formula_units_Z 14
_cell_length_a 14.349641
_cell_length_b 12.135890
_cell_length_c 12.155041
_cell_angle_alpha 128.514608
_cell_angle_beta 35.605589
_cell_angle_gamma 147.818567
_cell_volume 641.592286
_symmetry_space_group_name_H-M "P -1"
_symmetry_group_IT_number 2
_symmetry_cell_setting 'triclinic'
loop_
_space_group_symop_operation_xyz
x,y,z
-x,-y,-z
loop_
_atom_site_type_symbol
_atom_site_label
_atom_site_fract_x
_atom_site_fract_y
_atom_site_fract_z
Si Si1 0.582218 0.787046 0.070521
Si Si2 0.131510 0.260620 0.613152
Si Si3 0.241324 0.852817 0.713870
Si Si4 0.593681 0.015164 0.035790
Si Si5 0.774227 0.371087 0.219149
Si Si6 0.938504 0.623374 0.649207
Si Si7 0.011743 0.106607 0.384762
O O1 0.350460 0.559228 0.200859
O O2 0.714418 0.984035 0.147735
O O3 0.473604 0.808531 0.087285
O O4 0.784744 0.822002 0.846704
O O5 0.282791 0.501837 0.635967
O O6 0.121479 0.216509 0.466828
O O7 0.864356 0.135444 0.829185
O O8 0.171658 0.142402 0.568024
O O9 0.177650 0.674792 0.739377
O O10 0.042341 0.740948 0.740666
O O11 0.500000 0.000000 0.500000
O O12 0.500000 0.000000 0.000000
O O13 0.584461 0.145715 0.202587
O O14 0.000000 0.500000 0.000000
O O15 0.062919 0.800512 0.546930
O O16 0.000000 0.500000 0.500000
#
# Coordination Sequence:
#
# PCOD9023951 Si02
#       7
#     2   2   2   2   2   2   2
#     4  10  23  42  59  95 129 165 208 261 322 374
#     4   9  19  38  64  85 127 172 197 260 320 369
#     4  11  23  40  64  99 128 160 215 272 313 374
#     4   9  19  33  63  95 122 155 212 262 305 376
#     4   9  19  36  61  92 121 159 207 261 311 362
#     4  12  24  39  70  91 119 172 217 258 320 386
#     4  10  22  40  62  92 132 165 210 258 322 381
#
# _framework density 21.820710999999999
#
# number of rings (size 3 to 8) (size 9 to 14) (size 15 to 20)
#    0.000    2.000    1.429    2.143    6.000    0.571 
#    0.000    0.000    6.286    3.429    0.000    0.000 
#    0.000    0.000    0.000    0.000    0.000    0.000 
#
# Total GULP energy -78121.114296 kJ/mol
# GULP energy per Si atom -5580.079593 kJ/mol
# Density = 2.177105 g / cm^3
# Si number density = 21.820711 Si / 1000 Ang^3
#
#
#
# Elastic Constant Matrix: (Units=GPa)
#
#
# Indices 1 2 3 4 5 6 
#
# 1 99.4016 46.6317 -3.6854 6.6747 15.6298 -29.8321
# 2 46.6317 97.8877 32.0023 13.7274 -1.6970 -25.3907
# 3 -3.6854 32.0023 100.3505 10.8114 3.7041 -4.9759
# 4 6.6747 13.7274 10.8114 40.2511 -2.8774 -1.7001
# 5 15.6298 -1.6970 3.7041 -2.8774 25.4189 -3.6031
# 6 -29.8321 -25.3907 -4.9759 -1.7001 -3.6031 43.5892
#
#
#
# Elastic Compliance Matrix: (Units=1/GPa)
#
#
# Indices 1 2 3 4 5 6 
#
# 1 0.018074 -0.008075 0.004220 -0.001896 -0.011472 0.007126
# 2 -0.008075 0.017572 -0.005685 -0.002409 0.007342 0.004574
# 3 0.004220 -0.005685 0.012403 -0.002428 -0.004988 0.000485
# 4 -0.001896 -0.002409 -0.002428 0.026864 0.004175 -0.001585
# 5 -0.011472 0.007342 -0.004988 0.004175 0.048084 -0.000007
# 6 0.007126 0.004574 0.000485 -0.001585 -0.000007 0.030476
#
#
# Mechanical properties :
#
#
# Convention : Reuss Voigt Hill
#
# Bulk Modulus (GPa) = 34.51824 49.72634 42.12229
# Shear Modulus (GPa) = 27.44096 36.69793 32.06944
#
# Velocity S-wave (km/s) = 3.55006 4.10542 3.83780
# Velocity P-wave (km/s) = 5.71466 6.73132 6.24372
#
# Compressibility (1/GPa) = 0.02897019
#
# Stress axis : x y z
#
# Youngs Moduli (GPa) = 55.32668 56.90720 80.62644
#
# Poissons Ratio (x) = 0.45950 -0.34023
# Poissons Ratio (y) = 0.44674 0.45838
# Poissons Ratio (z) = -0.23347 0.32353
#
# Static dielectric constant tensor:
#      x y z
#    x 1.835110 -0.003670 -0.029890 
#    y -0.003670 1.770560 0.038220 
#    z -0.029890 0.038220 1.765880 
# 
# From -- ./inp_files/306767.got.cif
#   From: 2010.05.17/outbox.cif.g08.bks.cpg/sg2_154_cif.got.tgz:306767.got - 2010.06.03 11:33:40.
