data_PCOD9023810
_publ_section_title
;
Structure prediction by ZEFSAII (Michael W. Deem and Ramdas Pophale) SiO2 
 PCOD9023810
Probable space group: P -1
;
_chemical_formula_sum "Si O2"
_cell_formula_units_Z 16
_cell_length_a 11.239934
_cell_length_b 25.494326
_cell_length_c 5.350416
_cell_angle_alpha 48.376768
_cell_angle_beta 51.005023
_cell_angle_gamma 37.511292
_cell_volume 680.005307
_symmetry_space_group_name_H-M "P -1"
_symmetry_group_IT_number 2
_symmetry_cell_setting 'triclinic'
loop_
_space_group_symop_operation_xyz
x,y,z
-x,-y,-z
loop_
_atom_site_type_symbol
_atom_site_label
_atom_site_fract_x
_atom_site_fract_y
_atom_site_fract_z
Si Si1 0.488238 0.587067 0.560915
Si Si2 0.289073 0.245207 0.755027
Si Si3 0.649065 0.526431 0.036542
Si Si4 0.886569 0.238930 0.622692
Si Si5 0.687806 0.921089 0.664617
Si Si6 0.964885 0.667409 0.677124
Si Si7 0.908272 0.978288 0.408045
Si Si8 0.727051 0.160378 0.363355
O O1 0.550668 0.596766 0.173774
O O2 0.477483 0.506959 0.761926
O O3 0.261161 0.677177 0.639867
O O4 0.636906 0.564708 0.657576
O O5 0.150765 0.310725 0.498471
O O6 0.501746 0.220731 0.557318
O O7 0.334855 0.148503 0.962400
O O8 0.181533 0.284776 0.040045
O O9 0.863619 0.438410 0.135368
O O10 0.105813 0.148610 0.543086
O O11 0.926846 0.288201 0.617470
O O12 0.762232 0.207933 0.959566
O O13 0.735081 0.973739 0.603532
O O14 0.500000 0.000000 0.500000
O O15 0.100633 0.874480 0.554613
O O16 0.807026 0.061683 0.472156
O O17 0.000000 0.000000 0.000000
#
# Coordination Sequence:
#
# PCOD9023810 Si02
#       8
#     2   2   2   2   2   2   2   2
#     4   9  18  32  60  91 122 156 206 257 312 371
#     4  11  25  40  64  94 129 170 212 263 316 377
#     4   9  17  34  61  91 122 158 199 260 318 370
#     4  10  22  40  61  95 124 165 214 263 314 377
#     4  11  24  41  67  91 128 172 216 268 320 374
#     4  10  22  41  65  96 129 162 211 265 319 380
#     4  11  23  41  63  85 122 167 225 265 317 374
#     4  11  25  40  62  89 123 174 213 268 317 377
#
# _framework density 23.529228
#
# number of rings (size 3 to 8) (size 9 to 14) (size 15 to 20)
#    0.000    1.750    1.250    2.250    7.000    7.500 
#    0.000    0.000    0.000    4.500    0.000    0.000 
#    0.000    0.000    0.000    0.000    0.000    0.000 
#
# Total GULP energy -89294.074466 kJ/mol
# GULP energy per Si atom -5580.879654 kJ/mol
# Density = 2.347567 g / cm^3
# Si number density = 23.529228 Si / 1000 Ang^3
#
#
#
# Elastic Constant Matrix: (Units=GPa)
#
#
# Indices 1 2 3 4 5 6 
#
# 1 87.5875 35.7569 34.7162 -0.0059 14.6897 -30.6385
# 2 35.7569 125.7279 24.1927 0.7265 7.4404 -15.3884
# 3 34.7162 24.1927 60.6498 13.5595 11.1183 -5.5033
# 4 -0.0059 0.7265 13.5595 29.8877 -7.0112 4.7527
# 5 14.6897 7.4404 11.1183 -7.0112 45.8925 0.8299
# 6 -30.6385 -15.3884 -5.5033 4.7527 0.8299 28.3288
#
#
#
# Elastic Compliance Matrix: (Units=1/GPa)
#
#
# Indices 1 2 3 4 5 6 
#
# 1 0.026582 -0.001942 -0.010842 -0.000578 -0.006123 0.025864
# 2 -0.001942 0.009279 -0.002415 0.000422 -0.000277 0.002408
# 3 -0.010842 -0.002415 0.026655 -0.012151 -0.004349 -0.005694
# 4 -0.000578 0.000422 -0.012151 0.042887 0.009798 -0.010238
# 5 -0.006123 -0.000277 -0.004349 0.009798 0.026527 -0.010038
# 6 0.025864 0.002408 -0.005694 -0.010238 -0.010038 0.065486
#
#
# Mechanical properties :
#
#
# Convention : Reuss Voigt Hill
#
# Bulk Modulus (GPa) = 31.13588 51.47742 41.30665
# Shear Modulus (GPa) = 20.96255 32.77509 26.86882
#
# Velocity S-wave (km/s) = 2.98806 3.73628 3.38292
# Velocity P-wave (km/s) = 5.01660 6.36699 5.73170
#
# Compressibility (1/GPa) = 0.03211728
#
# Stress axis : x y z
#
# Youngs Moduli (GPa) = 37.61980 107.76546 37.51684
#
# Poissons Ratio (x) = 0.20931 0.40677
# Poissons Ratio (y) = 0.07307 0.09059
# Poissons Ratio (z) = 0.40789 0.26022
#
# Static dielectric constant tensor:
#      x y z
#    x 2.012690 0.035200 0.072270 
#    y 0.035200 1.906000 0.034570 
#    z 0.072270 0.034570 1.685220 
# 
# From -- ./inp_files/84951.got.cif
#   From: 2010.05.17/outbox.cif.g08.bks.cpg/sg2_43_cif.got.tgz:84951.got - 2010.06.03 11:33:40.
