data_PCOD9024863
_publ_section_title
;
Structure prediction by ZEFSAII (Michael W. Deem and Ramdas Pophale) SiO2 
 PCOD9024863
Probable space group: P -1
;
_chemical_formula_sum "Si O2"
_cell_formula_units_Z 14
_cell_length_a 11.037078
_cell_length_b 11.897708
_cell_length_c 11.647579
_cell_angle_alpha 101.609483
_cell_angle_beta 101.655929
_cell_angle_gamma 145.753756
_cell_volume 627.205037
_symmetry_space_group_name_H-M "P -1"
_symmetry_group_IT_number 2
_symmetry_cell_setting 'triclinic'
loop_
_space_group_symop_operation_xyz
x,y,z
-x,-y,-z
loop_
_atom_site_type_symbol
_atom_site_label
_atom_site_fract_x
_atom_site_fract_y
_atom_site_fract_z
Si Si1 0.864986 0.072909 0.999150
Si Si2 0.946002 0.815278 0.190401
Si Si3 0.808824 0.239008 0.166520
Si Si4 0.206590 0.251825 0.285772
Si Si5 0.699178 0.758482 0.322321
Si Si6 0.900437 0.159123 0.379067
Si Si7 0.834469 0.515511 0.273892
O O1 0.051160 0.213121 0.948941
O O2 0.518679 0.780417 0.851123
O O3 0.952994 0.266549 0.116169
O O4 0.935948 0.036535 0.100971
O O5 0.720063 0.704068 0.196615
O O6 0.947023 0.698961 0.237685
O O7 0.217062 0.131764 0.310088
O O8 0.937530 0.472838 0.257074
O O9 0.781322 0.152076 0.265380
O O10 0.500000 0.000000 0.000000
O O11 0.466079 0.508152 0.309144
O O12 0.135190 0.279759 0.379004
O O13 0.000000 0.000000 0.500000
O O14 0.670673 0.869281 0.312967
O O15 0.041521 0.337276 0.551651
#
# Coordination Sequence:
#
# PCOD9024863 Si02
#       7
#     2   2   2   2   2   2   2
#     4  10  23  41  61  92 125 170 207 260 306 364
#     4  11  23  37  64  91 127 166 206 253 307 371
#     4   9  21  43  65  89 124 166 211 259 307 362
#     4  10  24  40  62  92 131 163 209 253 310 374
#     4  11  23  40  62  96 126 164 203 252 320 370
#     4  10  22  40  66  94 124 165 203 261 311 368
#     4  11  22  39  65  93 126 163 212 251 316 364
#
# _framework density 22.321249999999999
#
# number of rings (size 3 to 8) (size 9 to 14) (size 15 to 20)
#    0.000    1.714    1.429    1.714    2.000    7.429 
#    0.000    4.286    0.000    8.571    0.000    0.000 
#    0.000    0.000    0.000    0.000    0.000    0.000 
#
# Total GULP energy -78196.064755 kJ/mol
# GULP energy per Si atom -5585.433197 kJ/mol
# Density = 2.227045 g / cm^3
# Si number density = 22.321250 Si / 1000 Ang^3
#
#
#
# Elastic Constant Matrix: (Units=GPa)
#
#
# Indices 1 2 3 4 5 6 
#
# 1 111.8443 74.7733 53.8817 -5.7787 -37.5767 -36.3891
# 2 74.7733 180.2049 58.3775 -5.3581 -18.7101 -21.4182
# 3 53.8817 58.3775 96.8052 -28.0471 -24.9788 -9.9922
# 4 -5.7787 -5.3581 -28.0471 39.7068 5.7897 -2.5330
# 5 -37.5767 -18.7101 -24.9788 5.7897 46.8991 -1.8749
# 6 -36.3891 -21.4182 -9.9922 -2.5330 -1.8749 53.4372
#
#
#
# Elastic Compliance Matrix: (Units=1/GPa)
#
#
# Indices 1 2 3 4 5 6 
#
# 1 0.025199 -0.005209 -0.006135 -0.002751 0.015758 0.014347
# 2 -0.005209 0.008386 -0.003397 -0.001730 -0.002463 -0.000989
# 3 -0.006135 -0.003397 0.019950 0.012261 0.002797 -0.001129
# 4 -0.002751 -0.001730 0.012261 0.033357 -0.000430 0.001292
# 5 0.015758 -0.002463 0.002797 -0.000430 0.034966 0.011473
# 6 0.014347 -0.000989 -0.001129 0.001292 0.011473 0.028339
#
#
# Mechanical properties :
#
#
# Convention : Reuss Voigt Hill
#
# Bulk Modulus (GPa) = 41.57211 84.76881 63.17046
# Shear Modulus (GPa) = 26.63874 41.46342 34.05108
#
# Velocity S-wave (km/s) = 3.45835 4.31464 3.91000
# Velocity P-wave (km/s) = 5.88318 7.92973 6.98185
#
# Compressibility (1/GPa) = 0.02405459
#
# Stress axis : x y z
#
# Youngs Moduli (GPa) = 39.68459 119.24251 50.12447
#
# Poissons Ratio (x) = 0.62114 0.30749
# Poissons Ratio (y) = 0.20672 0.17026
# Poissons Ratio (z) = 0.24345 0.40504
#
# Static dielectric constant tensor:
#      x y z
#    x 1.863450 -0.008150 0.003140 
#    y -0.008150 1.806920 0.016310 
#    z 0.003140 0.016310 1.876220 
# 
# From -- ./inp_files/284453.got.cif
#   From: 2010.05.17/outbox.cif.g08.bks.cpg/sg2_143_cif.got.tgz:284453.got - 2010.06.03 11:33:40.
