data_PCOD9024492
_publ_section_title
;
Structure prediction by ZEFSAII (Michael W. Deem and Ramdas Pophale) SiO2 
 PCOD9024492
Probable space group: P -1
;
_chemical_formula_sum "Si O2"
_cell_formula_units_Z 14
_cell_length_a 12.889156
_cell_length_b 8.399739
_cell_length_c 9.755187
_cell_angle_alpha 96.538899
_cell_angle_beta 54.675947
_cell_angle_gamma 56.775039
_cell_volume 559.197588
_symmetry_space_group_name_H-M "P -1"
_symmetry_group_IT_number 2
_symmetry_cell_setting 'triclinic'
loop_
_space_group_symop_operation_xyz
x,y,z
-x,-y,-z
loop_
_atom_site_type_symbol
_atom_site_label
_atom_site_fract_x
_atom_site_fract_y
_atom_site_fract_z
Si Si1 0.361792 0.224306 0.738829
Si Si2 0.632801 0.275513 0.482597
Si Si3 0.811609 0.049421 0.878104
Si Si4 0.989498 0.328856 0.542549
Si Si5 0.070262 0.197289 0.965027
Si Si6 0.401886 0.490820 0.200329
Si Si7 0.835620 0.408472 0.920341
O O1 0.498539 0.257468 0.623929
O O2 0.197806 0.232590 0.865756
O O3 0.500000 0.000000 0.500000
O O4 0.329699 0.299606 0.938765
O O5 0.500000 0.500000 0.500000
O O6 0.675494 0.329899 0.595994
O O7 0.822072 0.040709 0.230098
O O8 0.815858 0.238331 0.904349
O O9 0.587111 0.218971 0.092343
O O10 0.875254 0.917621 0.671783
O O11 0.947139 0.844424 0.871040
O O12 0.774645 0.452624 0.706886
O O13 0.018885 0.290343 0.679736
O O14 0.000000 0.500000 0.500000
O O15 0.863673 0.419143 0.066637
O O16 0.500000 0.500000 0.000000
#
# Coordination Sequence:
#
# PCOD9024492 Si02
#       7
#     2   2   2   2   2   2   2
#     4  10  22  40  65 101 142 176 227 292 356 412
#     4  11  21  42  67 100 135 183 239 288 343 427
#     4  12  25  47  75 103 142 188 246 287 357 427
#     4  12  29  49  71 107 146 187 240 294 362 424
#     4  11  24  40  69 104 143 180 231 298 361 409
#     4  12  25  46  76 100 143 190 240 294 350 425
#     4  12  23  46  70 102 143 186 236 293 348 431
#
# _framework density 25.035871
#
# number of rings (size 3 to 8) (size 9 to 14) (size 15 to 20)
#    0.000    0.571    4.286    3.000    2.000    2.857 
#    2.571    0.000    0.000    0.000    0.000    0.000 
#    0.000    0.000    0.000    0.000    0.000    0.000 
#
# Total GULP energy -77950.125091 kJ/mol
# GULP energy per Si atom -5567.866078 kJ/mol
# Density = 2.497889 g / cm^3
# Si number density = 25.035871 Si / 1000 Ang^3
#
#
#
# Elastic Constant Matrix: (Units=GPa)
#
#
# Indices 1 2 3 4 5 6 
#
# 1 82.8585 29.3103 17.8813 -4.8717 -2.2326 28.8896
# 2 29.3103 59.0255 14.4374 6.7427 12.2096 10.8596
# 3 17.8813 14.4374 152.2595 26.5724 30.1782 22.0381
# 4 -4.8717 6.7427 26.5724 43.0523 9.7968 12.9825
# 5 -2.2326 12.2096 30.1782 9.7968 52.8736 0.9037
# 6 28.8896 10.8596 22.0381 12.9825 0.9037 42.5083
#
#
#
# Elastic Compliance Matrix: (Units=1/GPa)
#
#
# Indices 1 2 3 4 5 6 
#
# 1 0.020903 -0.008950 -0.001576 0.008288 0.002547 -0.013688
# 2 -0.008950 0.022533 0.000425 -0.004086 -0.005092 0.001462
# 3 -0.001576 0.000425 0.008560 -0.003889 -0.004292 -0.002196
# 4 0.008288 -0.004086 -0.003889 0.031328 -0.002084 -0.012096
# 5 0.002547 -0.005092 -0.004292 -0.002084 0.022999 0.001943
# 6 -0.013688 0.001462 -0.002196 -0.012096 0.001943 0.037246
#
#
# Mechanical properties :
#
#
# Convention : Reuss Voigt Hill
#
# Bulk Modulus (GPa) = 31.45184 46.37794 38.91489
# Shear Modulus (GPa) = 28.67490 43.18780 35.93135
#
# Velocity S-wave (km/s) = 3.38798 4.15786 3.79251
# Velocity P-wave (km/s) = 5.28152 6.45099 5.89533
#
# Compressibility (1/GPa) = 0.03179465
#
# Stress axis : x y z
#
# Youngs Moduli (GPa) = 47.83956 44.37912 116.82393
#
# Poissons Ratio (x) = 0.39718 0.18415
# Poissons Ratio (y) = 0.42815 -0.04968
# Poissons Ratio (z) = 0.07541 -0.01887
#
# Static dielectric constant tensor:
#      x y z
#    x 2.242940 -0.286780 -0.002110 
#    y -0.286780 2.189880 0.163810 
#    z -0.002110 0.163810 2.419710 
# 
# From -- ./inp_files/244873.got.cif
#   From: 2010.05.17/outbox.cif.g08.bks.cpg/sg2_123_cif.got.tgz:244873.got - 2010.06.03 11:33:40.
