data_PCOD9024425
_publ_section_title
;
Structure prediction by ZEFSAII (Michael W. Deem and Ramdas Pophale) SiO2 
 PCOD9024425
Probable space group: P -1
;
_chemical_formula_sum "Si O2"
_cell_formula_units_Z 16
_cell_length_a 8.908873
_cell_length_b 17.939731
_cell_length_c 6.140210
_cell_angle_alpha 108.599260
_cell_angle_beta 126.842689
_cell_angle_gamma 79.850168
_cell_volume 744.192706
_symmetry_space_group_name_H-M "P -1"
_symmetry_group_IT_number 2
_symmetry_cell_setting 'triclinic'
loop_
_space_group_symop_operation_xyz
x,y,z
-x,-y,-z
loop_
_atom_site_type_symbol
_atom_site_label
_atom_site_fract_x
_atom_site_fract_y
_atom_site_fract_z
Si Si1 0.497564 0.916292 0.645254
Si Si2 0.939634 0.413790 0.465626
Si Si3 0.941526 0.718720 0.267580
Si Si4 0.206907 0.336596 0.343998
Si Si5 0.589421 0.497785 0.328435
Si Si6 0.297563 0.817897 0.758145
Si Si7 0.201717 0.965256 0.087789
Si Si8 0.383145 0.221771 0.690088
O O1 0.414561 0.867373 0.727641
O O2 0.324708 0.956587 0.407307
O O3 0.585686 0.856054 0.492993
O O4 0.665867 0.978231 0.895496
O O5 0.726825 0.424011 0.360339
O O6 0.000000 0.500000 0.500000
O O7 0.047996 0.372495 0.722936
O O8 0.999808 0.349778 0.279815
O O9 0.817350 0.773449 0.363639
O O10 0.145895 0.757997 0.468611
O O11 0.829701 0.714520 0.944582
O O12 0.285900 0.423487 0.467763
O O13 0.364262 0.295360 0.584340
O O14 0.500000 0.500000 0.500000
O O15 0.500000 0.500000 0.000000
O O16 0.196006 0.880902 0.885215
O O17 0.447256 0.772052 0.989509
O O18 0.000000 0.000000 0.000000
#
# Coordination Sequence:
#
# PCOD9024425 Si02
#       8
#     2   2   2   2   2   2   2   2
#     4  10  22  40  64  96 131 171 224 280 335 409
#     4   9  23  43  64  91 131 177 227 280 346 415
#     4  11  24  41  67  96 133 180 224 287 348 422
#     4  10  24  44  67  91 136 179 226 284 352 418
#     4  11  27  43  71 104 136 180 239 299 359 426
#     4  11  24  40  66  98 132 174 226 278 347 412
#     4  10  22  41  65  93 132 174 221 276 337 409
#     4  10  23  43  62  94 133 173 224 278 343 413
#
# _framework density 21.499808000000002
#
# number of rings (size 3 to 8) (size 9 to 14) (size 15 to 20)
#    0.000    1.750    0.000    1.875    8.750    8.500 
#    0.000    0.000    0.000    0.000    0.000    0.000 
#    0.000    0.000    0.000    0.000    0.000    0.000 
#
# Total GULP energy -89091.594268 kJ/mol
# GULP energy per Si atom -5568.224642 kJ/mol
# Density = 2.145087 g / cm^3
# Si number density = 21.499808 Si / 1000 Ang^3
#
#
#
# Elastic Constant Matrix: (Units=GPa)
#
#
# Indices 1 2 3 4 5 6 
#
# 1 103.6417 53.6407 60.2137 -24.9834 4.7394 -15.0128
# 2 53.6407 90.3705 39.0567 -16.2596 15.0882 -9.0738
# 3 60.2137 39.0567 95.3381 -6.3099 6.1765 4.4997
# 4 -24.9834 -16.2596 -6.3099 34.4770 -0.1459 10.6917
# 5 4.7394 15.0882 6.1765 -0.1459 25.5023 -5.1881
# 6 -15.0128 -9.0738 4.4997 10.6917 -5.1881 34.9455
#
#
#
# Elastic Compliance Matrix: (Units=1/GPa)
#
#
# Indices 1 2 3 4 5 6 
#
# 1 0.023226 -0.007000 -0.011837 0.009038 0.004281 0.007555
# 2 -0.007000 0.018230 -0.002242 0.003165 -0.008982 -0.000287
# 3 -0.011837 -0.002242 0.019144 -0.003866 -0.002626 -0.007339
# 4 0.009038 0.003165 -0.003866 0.038544 -0.003853 -0.007162
# 5 0.004281 -0.008982 -0.002626 -0.003853 0.045940 0.007844
# 6 0.007555 -0.000287 -0.007339 -0.007162 0.007844 0.036088
#
#
# Mechanical properties :
#
#
# Convention : Reuss Voigt Hill
#
# Bulk Modulus (GPa) = 54.22588 66.13027 60.17807
# Shear Modulus (GPa) = 21.78855 28.08091 24.93473
#
# Velocity S-wave (km/s) = 3.18690 3.61792 3.40923
# Velocity P-wave (km/s) = 6.23041 6.94822 6.59908
#
# Compressibility (1/GPa) = 0.01844138
#
# Stress axis : x y z
#
# Youngs Moduli (GPa) = 43.05508 54.85461 52.23556
#
# Poissons Ratio (x) = 0.38401 0.61831
# Poissons Ratio (y) = 0.30140 0.11711
# Poissons Ratio (z) = 0.50964 0.12298
#
# Static dielectric constant tensor:
#      x y z
#    x 1.872710 -0.022770 -0.107180 
#    y -0.022770 1.845170 -0.022760 
#    z -0.107180 -0.022760 1.759480 
# 
# From -- ./inp_files/48454.got.cif
#   From: 2010.05.17/outbox.cif.g08.bks.cpg/sg2_25_cif.got.tgz:48454.got - 2010.06.03 11:33:40.
