data_PCOD9024878
_publ_section_title
;
Structure prediction by ZEFSAII (Michael W. Deem and Ramdas Pophale) SiO2 
 PCOD9024878
Probable space group: P -1
;
_chemical_formula_sum "Si O2"
_cell_formula_units_Z 15
_cell_length_a 13.764123
_cell_length_b 6.624662
_cell_length_c 11.690504
_cell_angle_alpha 81.049939
_cell_angle_beta 91.648200
_cell_angle_gamma 40.202275
_cell_volume 661.236596
_symmetry_space_group_name_H-M "P -1"
_symmetry_group_IT_number 2
_symmetry_cell_setting 'triclinic'
loop_
_space_group_symop_operation_xyz
x,y,z
-x,-y,-z
loop_
_atom_site_type_symbol
_atom_site_label
_atom_site_fract_x
_atom_site_fract_y
_atom_site_fract_z
Si Si1 0.300484 0.418040 0.025860
Si Si2 0.168242 0.832132 0.191385
Si Si3 0.641900 0.106156 0.809970
Si Si4 0.661467 0.626309 0.566449
Si Si5 0.157262 0.342985 0.565194
Si Si6 0.647874 0.370858 0.383220
Si Si7 0.500000 0.500000 0.000000
Si Si8 0.157099 0.625425 0.758648
O O1 0.173881 0.749192 0.068234
O O2 0.434467 0.365561 0.017622
O O3 0.335913 0.158373 0.122341
O O4 0.243160 0.439334 0.897278
O O5 0.200985 0.021131 0.186195
O O6 0.307337 0.490852 0.293253
O O7 0.013035 0.033010 0.235813
O O8 0.530852 0.298364 0.680659
O O9 0.550999 0.377779 0.881092
O O10 0.792145 0.564596 0.529195
O O11 0.676273 0.400484 0.509376
O O12 0.500000 0.000000 0.500000
O O13 0.144606 0.463635 0.680139
O O14 0.000000 0.500000 0.500000
O O15 0.292424 0.953763 0.604903
O O16 0.748911 0.350384 0.304755
#
# Coordination Sequence:
#
# PCOD9024878 Si02
#       8
#     2   2   2   2   2   2   1   2
#     4  11  24  43  69  97 136 175 222 273 338 391
#     4  11  25  42  64  98 137 175 219 275 334 395
#     4  11  24  40  66  98 131 174 218 273 331 393
#     4  11  24  44  67  97 134 173 226 276 331 395
#     4  11  25  43  69  96 131 182 222 273 335 392
#     4  11  24  42  68  97 130 178 225 276 329 388
#     4  10  22  40  66  94 132 168 216 274 322 392
#     4  11  25  43  66  98 136 176 221 275 329 406
#
# _framework density 22.684771000000001
#
# number of rings (size 3 to 8) (size 9 to 14) (size 15 to 20)
#    0.000    1.067    1.333    4.000    1.867   11.200 
#    0.000    0.000    0.000    0.000    0.000    0.000 
#    0.000    0.000    0.000    0.000    0.000    0.000 
#
# Total GULP energy -83655.587841 kJ/mol
# GULP energy per Si atom -5577.039189 kJ/mol
# Density = 2.263314 g / cm^3
# Si number density = 22.684771 Si / 1000 Ang^3
#
#
#
# Elastic Constant Matrix: (Units=GPa)
#
#
# Indices 1 2 3 4 5 6 
#
# 1 123.8365 29.0474 49.9554 -2.1991 4.1040 9.6635
# 2 29.0474 58.3310 23.1771 0.4667 1.2845 13.4452
# 3 49.9554 23.1771 104.2345 5.6188 -1.4749 18.0037
# 4 -2.1991 0.4667 5.6188 42.4796 1.7093 -1.8103
# 5 4.1040 1.2845 -1.4749 1.7093 29.6453 10.0600
# 6 9.6635 13.4452 18.0037 -1.8103 10.0600 31.8122
#
#
#
# Elastic Compliance Matrix: (Units=1/GPa)
#
#
# Indices 1 2 3 4 5 6 
#
# 1 0.010872 -0.003906 -0.004769 0.001407 -0.002282 0.001849
# 2 -0.003906 0.021425 -0.001484 -0.000661 0.002212 -0.007766
# 3 -0.004769 -0.001484 0.013610 -0.002487 0.003923 -0.007009
# 4 0.001407 -0.000661 -0.002487 0.024218 -0.002892 0.003552
# 5 -0.002282 0.002212 0.003923 -0.002892 0.039438 -0.015098
# 6 0.001849 -0.007766 -0.007009 0.003552 -0.015098 0.043098
#
#
# Mechanical properties :
#
#
# Convention : Reuss Voigt Hill
#
# Bulk Modulus (GPa) = 39.08080 54.52909 46.80495
# Shear Modulus (GPa) = 27.54725 33.06890 30.30808
#
# Velocity S-wave (km/s) = 3.48853 3.82220 3.65917
# Velocity P-wave (km/s) = 5.78720 6.60067 6.20728
#
# Compressibility (1/GPa) = 0.02558801
#
# Stress axis : x y z
#
# Youngs Moduli (GPa) = 91.98261 46.67499 73.47794
#
# Poissons Ratio (x) = 0.18231 0.35044
# Poissons Ratio (y) = 0.35928 0.10901
# Poissons Ratio (z) = 0.43870 0.06925
#
# Static dielectric constant tensor:
#      x y z
#    x 1.860350 -0.015300 0.018880 
#    y -0.015300 1.855740 -0.014720 
#    z 0.018880 -0.014720 1.791050 
# 
# From -- ./inp_files/69085.got.cif
#   From: 2010.05.17/outbox.cif.g08.bks.cpg/sg2_35_cif.got.tgz:69085.got - 2010.06.03 11:33:40.
