data_PCOD9024071
_publ_section_title
;
Structure prediction by ZEFSAII (Michael W. Deem and Ramdas Pophale) SiO2 
 PCOD9024071
Probable space group: P -1
;
_chemical_formula_sum "Si O2"
_cell_formula_units_Z 16
_cell_length_a 6.507858
_cell_length_b 14.818313
_cell_length_c 13.097410
_cell_angle_alpha 134.176159
_cell_angle_beta 83.328058
_cell_angle_gamma 123.282175
_cell_volume 678.530426
_symmetry_space_group_name_H-M "P -1"
_symmetry_group_IT_number 2
_symmetry_cell_setting 'triclinic'
loop_
_space_group_symop_operation_xyz
x,y,z
-x,-y,-z
loop_
_atom_site_type_symbol
_atom_site_label
_atom_site_fract_x
_atom_site_fract_y
_atom_site_fract_z
Si Si1 0.954669 0.589294 0.716288
Si Si2 0.422220 0.677321 0.624635
Si Si3 0.781422 0.181723 0.598770
Si Si4 0.431812 0.222126 0.934683
Si Si5 0.546939 0.060370 0.302930
Si Si6 0.072705 0.222576 0.798113
Si Si7 0.849287 0.809718 0.869473
Si Si8 0.921765 0.514731 0.893301
O O1 0.679768 0.454168 0.562151
O O2 0.044126 0.768603 0.838631
O O3 0.183447 0.592638 0.656466
O O4 0.900496 0.544175 0.800439
O O5 0.454068 0.828093 0.691020
O O6 0.681074 0.731897 0.713447
O O7 0.763528 0.178974 0.474960
O O8 0.027998 0.209882 0.667877
O O9 0.781031 0.322599 0.755226
O O10 0.500000 0.000000 0.500000
O O11 0.264356 0.199881 0.827047
O O12 0.389139 0.056278 0.827265
O O13 0.331282 0.254902 0.067536
O O14 0.753411 0.373195 0.018661
O O15 0.235254 0.925563 0.257937
O O16 0.166844 0.398989 0.969171
O O17 0.000000 0.000000 0.000000
#
# Coordination Sequence:
#
# PCOD9024071 Si02
#       8
#     2   2   2   2   2   2   2   2
#     4  11  23  40  63  89 127 168 204 249 308 363
#     4  11  23  40  62  90 128 166 204 250 305 365
#     4  10  22  43  68  92 119 163 206 256 318 365
#     4  11  23  38  61  93 126 161 207 251 306 366
#     4  10  22  40  63  90 127 163 204 255 306 363
#     4  10  22  41  65  91 124 160 207 256 310 361
#     4  12  24  38  62  95 127 166 209 247 301 366
#     4  11  21  42  66  90 124 163 205 257 306 367
#
# _framework density 23.580372000000001
#
# number of rings (size 3 to 8) (size 9 to 14) (size 15 to 20)
#    0.000    1.250    3.750    2.250    1.750    2.000 
#    0.000    3.750    0.000    0.000    0.000    0.000 
#    0.000    0.000    0.000    0.000    0.000    0.000 
#
# Total GULP energy -89493.695255 kJ/mol
# GULP energy per Si atom -5593.355953 kJ/mol
# Density = 2.352670 g / cm^3
# Si number density = 23.580372 Si / 1000 Ang^3
#
#
#
# Elastic Constant Matrix: (Units=GPa)
#
#
# Indices 1 2 3 4 5 6 
#
# 1 64.5583 19.0864 18.1936 -5.9522 8.9261 -22.1743
# 2 19.0864 84.3863 31.2549 2.7558 0.6540 -31.2855
# 3 18.1936 31.2549 101.7141 5.4914 11.5949 -14.9146
# 4 -5.9522 2.7558 5.4914 49.4558 -12.8029 -1.3198
# 5 8.9261 0.6540 11.5949 -12.8029 29.6339 -3.0355
# 6 -22.1743 -31.2855 -14.9146 -1.3198 -3.0355 37.4114
#
#
#
# Elastic Compliance Matrix: (Units=1/GPa)
#
#
# Indices 1 2 3 4 5 6 
#
# 1 0.020517 0.000214 -0.001783 0.002075 -0.003421 0.011425
# 2 0.000214 0.018533 -0.003985 0.000536 0.002780 0.014281
# 3 -0.001783 -0.003985 0.012112 -0.002710 -0.005294 -0.000086
# 4 0.002075 0.000536 -0.002710 0.023615 0.010863 0.002312
# 5 -0.003421 0.002780 -0.005294 0.010863 0.041678 0.001952
# 6 0.011425 0.014281 -0.000086 0.002312 0.001952 0.045651
#
#
# Mechanical properties :
#
#
# Convention : Reuss Voigt Hill
#
# Bulk Modulus (GPa) = 24.96504 43.08095 34.02300
# Shear Modulus (GPa) = 26.80023 35.44182 31.12103
#
# Velocity S-wave (km/s) = 3.37493 3.88109 3.63683
# Velocity P-wave (km/s) = 5.07908 6.19623 5.66526
#
# Compressibility (1/GPa) = 0.04005601
#
# Stress axis : x y z
#
# Youngs Moduli (GPa) = 48.73910 53.95637 82.56205
#
# Poissons Ratio (x) = -0.01155 0.14717
# Poissons Ratio (y) = -0.01044 0.32902
# Poissons Ratio (z) = 0.08688 0.21502
#
# Static dielectric constant tensor:
#      x y z
#    x 1.883900 -0.009890 0.000160 
#    y -0.009890 1.924110 -0.013580 
#    z 0.000160 -0.013580 1.916530 
# 
# From -- ./inp_files/37947.got.cif
#   From: 2010.05.17/outbox.cif.g08.bks.cpg/sg2_19_cif.got.tgz:37947.got - 2010.06.03 11:33:40.
