data_PCOD9024600
_publ_section_title
;
Structure prediction by ZEFSAII (Michael W. Deem and Ramdas Pophale) SiO2 
 PCOD9024600
Probable space group: P -1
;
_chemical_formula_sum "Si O2"
_cell_formula_units_Z 16
_cell_length_a 8.646937
_cell_length_b 8.532470
_cell_length_c 12.716607
_cell_angle_alpha 57.054183
_cell_angle_beta 85.940271
_cell_angle_gamma 78.285827
_cell_volume 770.051873
_symmetry_space_group_name_H-M "P -1"
_symmetry_group_IT_number 2
_symmetry_cell_setting 'triclinic'
loop_
_space_group_symop_operation_xyz
x,y,z
-x,-y,-z
loop_
_atom_site_type_symbol
_atom_site_label
_atom_site_fract_x
_atom_site_fract_y
_atom_site_fract_z
Si Si1 0.561965 0.488109 0.830377
Si Si2 0.321401 0.599954 0.484998
Si Si3 0.074342 0.971722 0.624415
Si Si4 0.969578 0.804193 0.883545
Si Si5 0.832538 0.231701 0.789712
Si Si6 0.090197 0.343025 0.631185
Si Si7 0.590857 0.172666 0.420859
Si Si8 0.262626 0.479886 0.982385
O O1 0.692651 0.309249 0.849180
O O2 0.529935 0.644036 0.683078
O O3 0.637519 0.570281 0.897781
O O4 0.391187 0.458170 0.890567
O O5 0.500000 0.500000 0.500000
O O6 0.242596 0.689380 0.348293
O O7 0.244195 0.434392 0.604083
O O8 0.329237 0.776286 0.494955
O O9 0.257330 0.870850 0.645291
O O10 0.969419 0.855086 0.740788
O O11 0.091588 0.153767 0.630194
O O12 0.000000 0.000000 0.500000
O O13 0.856423 0.662963 0.972444
O O14 0.903170 0.006270 0.869191
O O15 0.150355 0.688624 0.930261
O O16 0.989886 0.325564 0.747605
O O17 0.000000 0.500000 0.500000
O O18 0.500000 0.000000 0.500000
#
# Coordination Sequence:
#
# PCOD9024600 Si02
#       8
#     2   2   2   2   2   2   2   2
#     4  11  24  44  63  92 127 170 216 262 322 375
#     4  11  21  39  59  96 139 167 202 258 330 396
#     4  11  22  38  65  99 127 164 216 260 323 391
#     4  10  22  44  66  92 123 166 217 268 318 369
#     4  10  22  40  65  94 127 164 212 262 323 382
#     4   9  20  37  57  88 133 169 198 255 316 389
#     4  12  25  38  63  98 132 167 209 261 330 392
#     4  10  24  45  67  86 127 170 220 271 305 378
#
# _framework density 20.777822
#
# number of rings (size 3 to 8) (size 9 to 14) (size 15 to 20)
#    0.000    1.500    2.500    3.000    5.250    2.000 
#    0.000    0.000    0.000    0.000    0.000    0.000 
#    0.000    0.000    0.000    0.000    0.000    0.000 
#
# Total GULP energy -89104.796552 kJ/mol
# GULP energy per Si atom -5569.049784 kJ/mol
# Density = 2.073053 g / cm^3
# Si number density = 20.777822 Si / 1000 Ang^3
#
#
#
# Elastic Constant Matrix: (Units=GPa)
#
#
# Indices 1 2 3 4 5 6 
#
# 1 123.7684 47.8910 30.1609 -5.1845 -36.2026 -12.5675
# 2 47.8910 95.1412 23.3299 -5.0632 -25.7274 -19.7620
# 3 30.1609 23.3299 63.2514 0.0178 -10.0657 6.0921
# 4 -5.1845 -5.0632 0.0178 25.7500 -1.6727 2.6462
# 5 -36.2026 -25.7274 -10.0657 -1.6727 35.9651 4.5208
# 6 -12.5675 -19.7620 6.0921 2.6462 4.5208 42.3128
#
#
#
# Elastic Compliance Matrix: (Units=1/GPa)
#
#
# Indices 1 2 3 4 5 6 
#
# 1 0.013374 -0.002284 -0.004070 0.002705 0.010540 0.002196
# 2 -0.002284 0.016226 -0.004356 0.002537 0.007380 0.006580
# 3 -0.004070 -0.004356 0.019770 -0.001146 -0.000990 -0.005912
# 4 0.002705 0.002537 -0.001146 0.040390 0.006226 -0.001038
# 5 0.010540 0.007380 -0.000990 0.006226 0.043494 0.001683
# 6 0.002196 0.006580 -0.005912 -0.001038 0.001683 0.028095
#
#
# Mechanical properties :
#
#
# Convention : Reuss Voigt Hill
#
# Bulk Modulus (GPa) = 35.77811 53.88051 44.82931
# Shear Modulus (GPa) = 26.03009 32.85752 29.44380
#
# Velocity S-wave (km/s) = 3.54331 3.98096 3.76849
# Velocity P-wave (km/s) = 5.83068 6.86431 6.36850
#
# Compressibility (1/GPa) = 0.02795005
#
# Stress axis : x y z
#
# Youngs Moduli (GPa) = 74.76967 61.63040 50.58296
#
# Poissons Ratio (x) = 0.14076 0.20588
# Poissons Ratio (y) = 0.17077 0.22033
# Poissons Ratio (z) = 0.30432 0.26845
#
# Static dielectric constant tensor:
#      x y z
#    x 1.798490 -0.040420 -0.021430 
#    y -0.040420 1.686590 0.033350 
#    z -0.021430 0.033350 1.771380 
# 
# From -- ./inp_files/354377.got.cif
#   From: 2010.05.17/outbox.cif.g08.bks.cpg/sg2_178_cif.got.tgz:354377.got - 2010.06.03 11:33:40.
