data_PCOD9024026
_publ_section_title
;
Structure prediction by ZEFSAII (Michael W. Deem and Ramdas Pophale) SiO2 
 PCOD9024026
Probable space group: P -1
;
_chemical_formula_sum "Si O2"
_cell_formula_units_Z 15
_cell_length_a 12.508034
_cell_length_b 18.995144
_cell_length_c 7.337345
_cell_angle_alpha 128.355721
_cell_angle_beta 100.783194
_cell_angle_gamma 36.922378
_cell_volume 619.873615
_symmetry_space_group_name_H-M "P -1"
_symmetry_group_IT_number 2
_symmetry_cell_setting 'triclinic'
loop_
_space_group_symop_operation_xyz
x,y,z
-x,-y,-z
loop_
_atom_site_type_symbol
_atom_site_label
_atom_site_fract_x
_atom_site_fract_y
_atom_site_fract_z
Si Si1 0.241297 0.577184 0.012798
Si Si2 0.523900 0.363100 0.096141
Si Si3 0.820695 0.314046 0.210103
Si Si4 0.273446 0.043268 0.035158
Si Si5 0.082358 0.349998 0.874840
Si Si6 0.243636 0.999185 0.365817
Si Si7 0.500000 0.000000 0.500000
Si Si8 0.222942 0.271382 0.205214
O O1 0.463491 0.428505 0.972621
O O2 0.122194 0.568950 0.018309
O O3 0.286741 0.548953 0.769194
O O4 0.027365 0.803695 0.338382
O O5 0.710072 0.296780 0.130800
O O6 0.278983 0.562892 0.444938
O O7 0.614605 0.196134 0.877255
O O8 0.103478 0.105072 0.957899
O O9 0.187202 0.203261 0.183934
O O10 0.223644 0.037536 0.207976
O O11 0.557036 0.841860 0.810859
O O12 0.301475 0.154426 0.515504
O O13 0.249804 0.234717 0.931289
O O14 0.000000 0.500000 0.000000
O O15 0.382682 0.979576 0.473081
O O16 0.000000 0.500000 0.500000
#
# Coordination Sequence:
#
# PCOD9024026 Si02
#       8
#     2   2   2   2   2   2   1   2
#     4  11  24  46  69 103 148 187 241 311 360 435
#     4  11  26  49  74 107 142 194 251 309 360 429
#     4  11  25  50  75 103 147 193 249 307 366 426
#     4  11  24  45  63 102 146 184 236 299 356 441
#     4  11  23  38  65  97 132 182 233 281 362 432
#     4  11  24  42  74 100 146 195 238 299 374 425
#     4  10  22  40  62  98 134 182 222 286 354 424
#     4  11  26  41  67 104 137 187 234 297 359 438
#
# _framework density 24.198481000000001
#
# number of rings (size 3 to 8) (size 9 to 14) (size 15 to 20)
#    0.000    1.067    4.000    1.200    5.600    1.067 
#    4.800    0.000    0.000    0.000    0.000    0.000 
#    0.000    0.000    0.000    0.000    0.000    0.000 
#
# Total GULP energy -83651.050049 kJ/mol
# GULP energy per Si atom -5576.736670 kJ/mol
# Density = 2.414340 g / cm^3
# Si number density = 24.198481 Si / 1000 Ang^3
#
#
#
# Elastic Constant Matrix: (Units=GPa)
#
#
# Indices 1 2 3 4 5 6 
#
# 1 96.3203 35.2237 48.2232 24.4360 13.1102 -9.6328
# 2 35.2237 140.5739 38.9622 12.0027 13.2996 10.6540
# 3 48.2232 38.9622 82.0240 29.9259 24.4573 -1.7838
# 4 24.4360 12.0027 29.9259 44.0023 12.3696 -6.5102
# 5 13.1102 13.2996 24.4573 12.3696 31.8273 3.4285
# 6 -9.6328 10.6540 -1.7838 -6.5102 3.4285 37.0019
#
#
#
# Elastic Compliance Matrix: (Units=1/GPa)
#
#
# Indices 1 2 3 4 5 6 
#
# 1 0.015854 -0.002018 -0.007473 -0.002821 0.000744 0.003783
# 2 -0.002018 0.008698 -0.003107 0.000484 -0.000273 -0.003069
# 3 -0.007473 -0.003107 0.024489 -0.008601 -0.011060 -0.000359
# 4 -0.002821 0.000484 -0.008601 0.032283 -0.005505 0.004902
# 5 0.000744 -0.000273 -0.011060 -0.005505 0.042422 -0.005160
# 6 0.003783 -0.003069 -0.000359 0.004902 -0.005160 0.030217
#
#
# Mechanical properties :
#
#
# Convention : Reuss Voigt Hill
#
# Bulk Modulus (GPa) = 41.93595 62.63737 52.28666
# Shear Modulus (GPa) = 26.72284 35.66689 31.19487
#
# Velocity S-wave (km/s) = 3.32673 3.84335 3.59433
# Velocity P-wave (km/s) = 5.66779 6.75545 6.23538
#
# Compressibility (1/GPa) = 0.02384589
#
# Stress axis : x y z
#
# Youngs Moduli (GPa) = 63.07639 114.97524 40.83483
#
# Poissons Ratio (x) = 0.23197 0.30514
# Poissons Ratio (y) = 0.12726 0.12688
# Poissons Ratio (z) = 0.47134 0.35723
#
# Static dielectric constant tensor:
#      x y z
#    x 1.917780 -0.019960 -0.040660 
#    y -0.019960 1.959040 -0.084330 
#    z -0.040660 -0.084330 2.126290 
# 
# From -- ./inp_files/278410.got.cif
#   From: 2010.05.17/outbox.cif.g08.bks.cpg/sg2_140_cif.got.tgz:278410.got - 2010.06.03 11:33:40.
