data_PCOD9024544
_publ_section_title
;
Structure prediction by ZEFSAII (Michael W. Deem and Ramdas Pophale) SiO2 
 PCOD9024544
Probable space group: P -1
;
_chemical_formula_sum "Si O2"
_cell_formula_units_Z 16
_cell_length_a 10.533639
_cell_length_b 16.166893
_cell_length_c 9.253706
_cell_angle_alpha 54.290079
_cell_angle_beta 43.424492
_cell_angle_gamma 80.620070
_cell_volume 777.543928
_symmetry_space_group_name_H-M "P -1"
_symmetry_group_IT_number 2
_symmetry_cell_setting 'triclinic'
loop_
_space_group_symop_operation_xyz
x,y,z
-x,-y,-z
loop_
_atom_site_type_symbol
_atom_site_label
_atom_site_fract_x
_atom_site_fract_y
_atom_site_fract_z
Si Si1 0.210136 0.675913 0.766644
Si Si2 0.614248 0.598178 0.961480
Si Si3 0.989438 0.978232 0.859775
Si Si4 0.074498 0.219007 0.065167
Si Si5 0.435587 0.093858 0.896950
Si Si6 0.521389 0.416099 0.455865
Si Si7 0.200562 0.531099 0.202551
Si Si8 0.764759 0.833712 0.759999
O O1 0.384210 0.806162 0.450731
O O2 0.271524 0.599558 0.685774
O O3 0.003204 0.689240 0.924872
O O4 0.207800 0.616439 0.981860
O O5 0.520999 0.476617 0.245253
O O6 0.423356 0.595703 0.033072
O O7 0.797288 0.587064 0.733767
O O8 0.690278 0.704096 0.899676
O O9 0.018697 0.866812 0.904562
O O10 0.771699 0.956125 0.983268
O O11 0.165187 0.086343 0.518673
O O12 0.000000 0.000000 0.000000
O O13 0.046568 0.141464 0.309009
O O14 0.319860 0.293374 0.754610
O O15 0.393862 0.146515 0.026286
O O16 0.500000 0.000000 0.000000
O O17 0.500000 0.500000 0.500000
O O18 0.000000 0.500000 0.500000
#
# Coordination Sequence:
#
# PCOD9024544 Si02
#       8
#     2   2   2   2   2   2   2   2
#     4  11  22  38  70  92 127 176 215 266 328 394
#     4  10  22  40  65  90 133 171 213 268 328 390
#     4  11  25  42  69  96 133 177 221 275 337 394
#     4  11  22  43  67  95 134 168 219 273 330 388
#     4  11  22  45  67  97 133 171 226 278 330 393
#     4  11  20  40  64  98 125 166 216 271 325 387
#     4  10  23  42  60  95 136 173 214 267 334 390
#     4  11  22  43  65  95 133 172 217 273 333 386
#
# _framework density 20.577615000000002
#
# number of rings (size 3 to 8) (size 9 to 14) (size 15 to 20)
#    0.000    1.250    3.750    3.750    1.750    2.500 
#    9.000    1.250    0.000    0.000    0.000    0.000 
#    0.000    0.000    0.000    0.000    0.000    0.000 
#
# Total GULP energy -89140.362863 kJ/mol
# GULP energy per Si atom -5571.272679 kJ/mol
# Density = 2.053078 g / cm^3
# Si number density = 20.577615 Si / 1000 Ang^3
#
#
#
# Elastic Constant Matrix: (Units=GPa)
#
#
# Indices 1 2 3 4 5 6 
#
# 1 58.5640 49.7365 25.6185 17.6565 10.0010 -9.7804
# 2 49.7365 153.9384 50.4544 21.3842 7.2245 -10.8887
# 3 25.6185 50.4544 120.8831 10.1017 17.1680 -1.3053
# 4 17.6565 21.3842 10.1017 36.8459 -3.6605 -1.9392
# 5 10.0010 7.2245 17.1680 -3.6605 26.2125 6.4323
# 6 -9.7804 -10.8887 -1.3053 -1.9392 6.4323 42.0602
#
#
#
# Elastic Compliance Matrix: (Units=1/GPa)
#
#
# Indices 1 2 3 4 5 6 
#
# 1 0.029567 -0.006775 -0.000752 -0.010886 -0.012020 0.006434
# 2 -0.006775 0.009759 -0.002688 -0.001520 0.001296 0.000599
# 3 -0.000752 -0.002688 0.010569 -0.001575 -0.006196 0.000332
# 4 -0.010886 -0.001520 -0.001575 0.034620 0.011197 -0.003090
# 5 -0.012020 0.001296 -0.006196 0.011197 0.050416 -0.009846
# 6 0.006434 0.000599 0.000332 -0.003090 -0.009846 0.026800
#
#
# Mechanical properties :
#
#
# Convention : Reuss Voigt Hill
#
# Bulk Modulus (GPa) = 33.93867 65.00048 49.46957
# Shear Modulus (GPa) = 26.04389 34.86214 30.45301
#
# Velocity S-wave (km/s) = 3.56145 4.12050 3.85113
# Velocity P-wave (km/s) = 5.78279 7.36849 6.62326
#
# Compressibility (1/GPa) = 0.02946492
#
# Stress axis : x y z
#
# Youngs Moduli (GPa) = 33.82098 102.47229 94.61717
#
# Poissons Ratio (x) = 0.69426 0.07116
# Poissons Ratio (y) = 0.22914 0.25433
# Poissons Ratio (z) = 0.02544 0.27544
#
# Static dielectric constant tensor:
#      x y z
#    x 1.749640 -0.003610 0.017830 
#    y -0.003610 1.789390 0.040130 
#    z 0.017830 0.040130 1.800350 
# 
# From -- ./inp_files/272065.got.cif
#   From: 2010.05.17/outbox.cif.g08.bks.cpg/sg2_137_cif.got.tgz:272065.got - 2010.06.03 11:33:40.
