data_PCOD9024889
_publ_section_title
;
Structure prediction by ZEFSAII (Michael W. Deem and Ramdas Pophale) SiO2 
 PCOD9024889
Probable space group: P -1
;
_chemical_formula_sum "Si O2"
_cell_formula_units_Z 15
_cell_length_a 5.701733
_cell_length_b 8.815576
_cell_length_c 21.907486
_cell_angle_alpha 145.756881
_cell_angle_beta 83.744089
_cell_angle_gamma 100.859682
_cell_volume 606.348069
_symmetry_space_group_name_H-M "P -1"
_symmetry_group_IT_number 2
_symmetry_cell_setting 'triclinic'
loop_
_space_group_symop_operation_xyz
x,y,z
-x,-y,-z
loop_
_atom_site_type_symbol
_atom_site_label
_atom_site_fract_x
_atom_site_fract_y
_atom_site_fract_z
Si Si1 0.682281 0.536977 0.599333
Si Si2 0.084202 0.462587 0.161565
Si Si3 0.212999 0.325849 0.560545
Si Si4 0.000000 0.500000 0.500000
Si Si5 0.485163 0.184189 0.875408
Si Si6 0.784101 0.274061 0.635575
Si Si7 0.668362 0.980443 0.046598
Si Si8 0.998530 0.909482 0.224748
O O1 0.416806 0.590259 0.634324
O O2 0.706409 0.377004 0.483387
O O3 0.716478 0.433278 0.631767
O O4 0.916429 0.771466 0.650866
O O5 0.252117 0.594244 0.255263
O O6 0.964984 0.692651 0.208098
O O7 0.227453 0.300937 0.057276
O O8 0.886567 0.229633 0.118601
O O9 0.058352 0.322989 0.503337
O O10 0.067946 0.305776 0.621346
O O11 0.320570 0.046118 0.465464
O O12 0.453719 0.018579 0.884646
O O13 0.745848 0.139949 0.827926
O O14 0.238873 0.123802 0.821343
O O15 0.500000 0.500000 0.000000
O O16 0.500000 0.000000 0.000000
#
# Coordination Sequence:
#
# PCOD9024889 Si02
#       8
#     2   2   2   1   2   2   2   2
#     4  11  24  42  69  99 136 182 238 289 362 421
#     4  11  25  44  66 102 140 185 242 293 358 430
#     4  10  22  43  67 100 135 183 225 300 353 428
#     4  10  22  40  66  94 138 172 234 286 350 420
#     4  12  26  49  74 103 147 190 242 300 360 425
#     4  10  23  43  66  98 136 180 234 291 359 426
#     4  11  26  43  70 100 141 191 237 297 359 423
#     4  12  28  46  75 108 142 193 241 299 359 432
#
# _framework density 24.738268999999999
#
# number of rings (size 3 to 8) (size 9 to 14) (size 15 to 20)
#    0.000    1.067    1.333    3.600   11.200    0.000 
#    0.000    0.000    0.000    0.000    0.000    0.000 
#    0.000    0.000    0.000    0.000    0.000    0.000 
#
# Total GULP energy -83515.934774 kJ/mol
# GULP energy per Si atom -5567.728985 kJ/mol
# Density = 2.468196 g / cm^3
# Si number density = 24.738269 Si / 1000 Ang^3
#
#
#
# Elastic Constant Matrix: (Units=GPa)
#
#
# Indices 1 2 3 4 5 6 
#
# 1 89.2443 24.3204 29.0783 -1.2229 3.6201 0.5869
# 2 24.3204 135.1802 38.0592 -15.7792 -5.4390 -17.4683
# 3 29.0783 38.0592 97.5288 3.0601 1.6872 -4.6237
# 4 -1.2229 -15.7792 3.0601 36.7372 -3.5270 -3.4957
# 5 3.6201 -5.4390 1.6872 -3.5270 30.3102 -7.8245
# 6 0.5869 -17.4683 -4.6237 -3.4957 -7.8245 52.9584
#
#
#
# Elastic Compliance Matrix: (Units=1/GPa)
#
#
# Indices 1 2 3 4 5 6 
#
# 1 0.012786 -0.001702 -0.003163 -0.000362 -0.002035 -0.001304
# 2 -0.001702 0.009932 -0.003413 0.005229 0.003791 0.003902
# 3 -0.003163 -0.003413 0.012622 -0.002788 -0.001358 -0.000373
# 4 -0.000362 0.005229 -0.002788 0.030662 0.005833 0.004371
# 5 -0.002035 0.003791 -0.001358 0.005833 0.036458 0.006926
# 6 -0.001304 0.003902 -0.000373 0.004371 0.006926 0.021464
#
#
# Mechanical properties :
#
#
# Convention : Reuss Voigt Hill
#
# Bulk Modulus (GPa) = 53.24046 56.09658 54.66852
# Shear Modulus (GPa) = 34.07376 39.36753 36.72064
#
# Velocity S-wave (km/s) = 3.71532 3.99351 3.85693
# Velocity P-wave (km/s) = 6.32242 6.63246 6.47929
#
# Compressibility (1/GPa) = 0.01878271
#
# Stress axis : x y z
#
# Youngs Moduli (GPa) = 78.21113 100.68662 79.22963
#
# Poissons Ratio (x) = 0.17141 0.25061
# Poissons Ratio (y) = 0.13314 0.27040
# Poissons Ratio (z) = 0.24739 0.34363
#
# Static dielectric constant tensor:
#      x y z
#    x 2.341790 0.019960 -0.081450 
#    y 0.019960 1.962060 0.093630 
#    z -0.081450 0.093630 2.410150 
# 
# From -- ./inp_files/48663.got.cif
#   From: 2010.05.17/outbox.cif.g08.bks.cpg/sg2_25_cif.got.tgz:48663.got - 2010.06.03 11:33:40.
