data_PCOD9024114
_publ_section_title
;
Structure prediction by ZEFSAII (Michael W. Deem and Ramdas Pophale) SiO2 
 PCOD9024114
Probable space group: P -1
;
_chemical_formula_sum "Si O2"
_cell_formula_units_Z 16
_cell_length_a 14.486235
_cell_length_b 8.566139
_cell_length_c 11.866175
_cell_angle_alpha 111.256613
_cell_angle_beta 152.346043
_cell_angle_gamma 75.299262
_cell_volume 629.159172
_symmetry_space_group_name_H-M "P -1"
_symmetry_group_IT_number 2
_symmetry_cell_setting 'triclinic'
loop_
_space_group_symop_operation_xyz
x,y,z
-x,-y,-z
loop_
_atom_site_type_symbol
_atom_site_label
_atom_site_fract_x
_atom_site_fract_y
_atom_site_fract_z
Si Si1 0.876804 0.986658 0.547639
Si Si2 0.001213 0.554618 0.386397
Si Si3 0.285618 0.737321 0.397271
Si Si4 0.965524 0.245341 0.093650
Si Si5 0.373578 0.011489 0.251912
Si Si6 0.608512 0.389012 0.308304
Si Si7 0.376094 0.249942 0.631256
Si Si8 0.770818 0.869489 0.166322
O O1 0.807382 0.123045 0.591998
O O2 0.116607 0.033166 0.793384
O O3 0.766770 0.806725 0.430345
O O4 0.796375 0.988458 0.333747
O O5 0.228413 0.625214 0.613509
O O6 0.000000 0.500000 0.500000
O O7 0.944298 0.394881 0.198892
O O8 0.878743 0.706281 0.266932
O O9 0.289664 0.586471 0.451038
O O10 0.516450 0.807028 0.627065
O O11 0.144825 0.712521 0.128837
O O12 0.201477 0.227752 0.340166
O O13 0.850756 0.067418 0.973644
O O14 0.460004 0.872191 0.231213
O O15 0.500000 0.000000 0.500000
O O16 0.522021 0.556433 0.220020
O O17 0.456374 0.217347 0.112249
#
# Coordination Sequence:
#
# PCOD9024114 Si02
#       8
#     2   2   2   2   2   2   2   2
#     4  10  23  43  65  94 132 170 218 262 327 388
#     4  11  24  43  67 100 129 170 220 264 326 387
#     4  10  22  43  63  98 132 168 220 267 320 391
#     4  10  22  41  68  91 136 170 212 273 324 374
#     4   9  20  38  60  92 127 165 218 256 318 384
#     4  11  24  42  66  99 128 170 219 266 324 381
#     4  10  22  40  63  93 124 172 217 260 323 386
#     4  11  23  43  66  94 135 169 215 270 322 378
#
# _framework density 25.430766999999999
#
# number of rings (size 3 to 8) (size 9 to 14) (size 15 to 20)
#    0.000    1.750    1.250    2.250    1.750   11.000 
#    2.250    3.125    0.000    0.000    0.000    0.000 
#    0.000    0.000    0.000    0.000    0.000    0.000 
#
# Total GULP energy -89424.303744 kJ/mol
# GULP energy per Si atom -5589.018984 kJ/mol
# Density = 2.537289 g / cm^3
# Si number density = 25.430767 Si / 1000 Ang^3
#
#
#
# Elastic Constant Matrix: (Units=GPa)
#
#
# Indices 1 2 3 4 5 6 
#
# 1 126.0798 31.1294 31.1235 10.3442 -9.3276 31.3528
# 2 31.1294 89.8163 1.2391 -2.7334 -10.6265 15.9690
# 3 31.1235 1.2391 81.9164 19.1960 13.6487 0.1566
# 4 10.3442 -2.7334 19.1960 36.8966 1.6396 5.8214
# 5 -9.3276 -10.6265 13.6487 1.6396 52.0710 7.1283
# 6 31.3528 15.9690 0.1566 5.8214 7.1283 52.9849
#
#
#
# Elastic Compliance Matrix: (Units=1/GPa)
#
#
# Indices 1 2 3 4 5 6 
#
# 1 0.011715 -0.002331 -0.005064 0.000069 0.003871 -0.006743
# 2 -0.002331 0.012867 -0.000232 0.002097 0.002625 -0.003081
# 3 -0.005064 -0.000232 0.016938 -0.007888 -0.005784 0.004661
# 4 0.000069 0.002097 -0.007888 0.031950 0.002110 -0.004444
# 5 0.003871 0.002625 -0.005784 0.002110 0.022754 -0.006358
# 6 -0.006743 -0.003081 0.004661 -0.004444 -0.006358 0.025122
#
#
# Mechanical properties :
#
#
# Convention : Reuss Voigt Hill
#
# Bulk Modulus (GPa) = 38.07167 47.19961 42.63564
# Shear Modulus (GPa) = 34.39859 44.01187 39.20523
#
# Velocity S-wave (km/s) = 3.68181 4.16463 3.93064
# Velocity P-wave (km/s) = 5.75131 6.45955 6.11569
#
# Compressibility (1/GPa) = 0.02626625
#
# Stress axis : x y z
#
# Youngs Moduli (GPa) = 85.36378 77.71654 59.03751
#
# Poissons Ratio (x) = 0.18119 0.29896
# Poissons Ratio (y) = 0.19901 0.01368
# Poissons Ratio (z) = 0.43228 0.01801
#
# Static dielectric constant tensor:
#      x y z
#    x 1.997860 -0.007620 0.013700 
#    y -0.007620 2.070610 -0.040710 
#    z 0.013700 -0.040710 2.149150 
# 
# From -- ./inp_files/447968.got.cif
#   From: 2010.05.17/outbox.cif.g08.bks.cpg/sg2_224_cif.got.tgz:447968.got - 2010.06.03 11:33:40.
