data_PCOD9024224
_publ_section_title
;
Structure prediction by ZEFSAII (Michael W. Deem and Ramdas Pophale) SiO2 
 PCOD9024224
Probable space group: P -1
;
_chemical_formula_sum "Si O2"
_cell_formula_units_Z 14
_cell_length_a 6.275258
_cell_length_b 12.220002
_cell_length_c 20.930462
_cell_angle_alpha 150.408157
_cell_angle_beta 129.563841
_cell_angle_gamma 48.923707
_cell_volume 588.138385
_symmetry_space_group_name_H-M "P -1"
_symmetry_group_IT_number 2
_symmetry_cell_setting 'triclinic'
loop_
_space_group_symop_operation_xyz
x,y,z
-x,-y,-z
loop_
_atom_site_type_symbol
_atom_site_label
_atom_site_fract_x
_atom_site_fract_y
_atom_site_fract_z
Si Si1 0.845441 0.897768 0.511130
Si Si2 0.824371 0.154282 0.100929
Si Si3 0.805691 0.728649 0.965673
Si Si4 0.192209 0.599921 0.540831
Si Si5 0.353918 0.740611 0.126932
Si Si6 0.890794 0.704333 0.283378
Si Si7 0.635080 0.809926 0.719415
O O1 0.931734 0.741363 0.384580
O O2 0.983947 0.756480 0.528179
O O3 0.500000 0.000000 0.500000
O O4 0.986293 0.108738 0.635196
O O5 0.508933 0.295250 0.090118
O O6 0.048976 0.278584 0.235525
O O7 0.776245 0.977944 0.055647
O O8 0.000000 0.000000 0.000000
O O9 0.951775 0.539375 0.843555
O O10 0.026550 0.730437 0.066299
O O11 0.384142 0.757210 0.687629
O O12 0.387713 0.354465 0.427120
O O13 0.000000 0.500000 0.500000
O O14 0.548846 0.759212 0.233498
O O15 0.384897 0.938810 0.183693
O O16 0.500000 0.500000 0.000000
#
# Coordination Sequence:
#
# PCOD9024224 Si02
#       7
#     2   2   2   2   2   2   2
#     4  11  26  42  67 106 136 185 236 291 357 410
#     4  10  22  40  64 101 139 173 231 283 351 423
#     4   9  21  39  67 101 131 183 223 284 356 421
#     4  11  26  44  69 100 139 189 236 288 352 423
#     4   9  18  41  70 101 135 180 228 289 347 422
#     4  10  22  43  71  95 147 174 232 291 351 425
#     4  10  23  43  67  98 137 179 237 286 355 411
#
# _framework density 23.803923000000001
#
# number of rings (size 3 to 8) (size 9 to 14) (size 15 to 20)
#    0.000    2.000    1.429    0.000    6.000    4.571 
#    0.000    0.000    0.000    7.714    0.000    0.000 
#    0.000    0.000    0.000    0.000    0.000    0.000 
#
# Total GULP energy -78155.443988 kJ/mol
# GULP energy per Si atom -5582.531713 kJ/mol
# Density = 2.374974 g / cm^3
# Si number density = 23.803923 Si / 1000 Ang^3
#
#
#
# Elastic Constant Matrix: (Units=GPa)
#
#
# Indices 1 2 3 4 5 6 
#
# 1 95.7486 53.9287 39.4279 -8.9468 26.2220 -24.0340
# 2 53.9287 107.3426 38.7223 4.7417 41.8571 -16.0086
# 3 39.4279 38.7223 111.6425 8.4733 38.0127 -11.1508
# 4 -8.9468 4.7417 8.4733 42.9675 -8.1602 16.8517
# 5 26.2220 41.8571 38.0127 -8.1602 42.4197 -2.5788
# 6 -24.0340 -16.0086 -11.1508 16.8517 -2.5788 47.1268
#
#
#
# Elastic Compliance Matrix: (Units=1/GPa)
#
#
# Indices 1 2 3 4 5 6 
#
# 1 0.017157 -0.007021 -0.003632 0.003477 0.000506 0.004290
# 2 -0.007021 0.022129 0.004569 -0.012481 -0.023493 0.008195
# 3 -0.003632 0.004569 0.016426 -0.010518 -0.018621 0.006328
# 4 0.003477 -0.012481 -0.010518 0.039297 0.026082 -0.017580
# 5 0.000506 -0.023493 -0.018621 0.026082 0.067065 -0.017785
# 6 0.004290 0.008195 0.006328 -0.017580 -0.017785 0.033001
#
#
# Mechanical properties :
#
#
# Convention : Reuss Voigt Hill
#
# Bulk Modulus (GPa) = 22.96508 64.32127 43.64317
# Shear Modulus (GPa) = 22.54721 38.67978 30.61350
#
# Velocity S-wave (km/s) = 3.08101 4.03542 3.59007
# Velocity P-wave (km/s) = 4.72497 6.98518 5.96314
#
# Compressibility (1/GPa) = 0.04354438
#
# Stress axis : x y z
#
# Youngs Moduli (GPa) = 58.28547 45.18919 60.88022
#
# Poissons Ratio (x) = 0.31726 0.22111
# Poissons Ratio (y) = 0.40920 -0.27815
# Poissons Ratio (z) = 0.21169 -0.20646
#
# Static dielectric constant tensor:
#      x y z
#    x 2.801510 -0.093780 0.167550 
#    y -0.093780 1.942470 -0.032380 
#    z 0.167550 -0.032380 1.835920 
# 
# From -- ./inp_files/583394.got.cif
#   From: 2010.05.17/outbox.cif.g08.bks.cpg/sg2_292_cif.got.tgz:583394.got - 2010.06.03 11:33:40.
