data_PCOD9024347
_publ_section_title
;
Structure prediction by ZEFSAII (Michael W. Deem and Ramdas Pophale) SiO2 
 PCOD9024347
Probable space group: P -1
;
_chemical_formula_sum "Si O2"
_cell_formula_units_Z 14
_cell_length_a 7.094093
_cell_length_b 7.068570
_cell_length_c 16.375162
_cell_angle_alpha 93.230592
_cell_angle_beta 99.677724
_cell_angle_gamma 66.265416
_cell_volume 740.926900
_symmetry_space_group_name_H-M "P -1"
_symmetry_group_IT_number 2
_symmetry_cell_setting 'triclinic'
loop_
_space_group_symop_operation_xyz
x,y,z
-x,-y,-z
loop_
_atom_site_type_symbol
_atom_site_label
_atom_site_fract_x
_atom_site_fract_y
_atom_site_fract_z
Si Si1 0.171661 0.326159 0.761065
Si Si2 0.893934 0.100256 0.683936
Si Si3 0.271142 0.600540 0.024892
Si Si4 0.015718 0.644696 0.618061
Si Si5 0.349178 0.877156 0.172522
Si Si6 0.742659 0.419478 0.534751
Si Si7 0.097076 0.341345 0.118145
O O1 0.162206 0.458765 0.682189
O O2 0.401062 0.224616 0.812339
O O3 0.088108 0.151605 0.728004
O O4 0.011271 0.488113 0.816091
O O5 0.729039 0.168252 0.747086
O O6 0.805654 0.234262 0.599675
O O7 0.956552 0.861104 0.663710
O O8 0.266361 0.775730 0.091925
O O9 0.219721 0.430423 0.067616
O O10 0.500000 0.500000 0.000000
O O11 0.091844 0.683584 0.945472
O O12 0.128145 0.648110 0.541334
O O13 0.815490 0.591544 0.582883
O O14 0.251416 0.123234 0.159540
O O15 0.500000 0.500000 0.500000
#
# Coordination Sequence:
#
# PCOD9024347 Si02
#       7
#     2   2   2   2   2   2   2
#     4  11  23  41  62  95 128 165 213 259 311 375
#     4  11  23  40  64  94 130 167 211 257 315 373
#     4  11  24  44  66  91 127 168 211 265 316 373
#     4  10  22  41  63  91 131 165 206 264 305 368
#     4  12  24  40  67  94 125 173 209 258 325 366
#     4  10  22  40  64  93 128 166 211 254 309 375
#     4  11  24  43  64  91 129 162 214 265 308 381
#
# _framework density 18.895250000000001
#
# number of rings (size 3 to 8) (size 9 to 14) (size 15 to 20)
#    0.000    1.143    4.286    1.714    0.000    4.571 
#    0.000    0.000    0.000    0.000    0.000    0.000 
#    0.000    0.000    0.000    0.000    0.000    0.000 
#
# Total GULP energy -78244.885219 kJ/mol
# GULP energy per Si atom -5588.920373 kJ/mol
# Density = 1.885224 g / cm^3
# Si number density = 18.895250 Si / 1000 Ang^3
#
#
#
# Elastic Constant Matrix: (Units=GPa)
#
#
# Indices 1 2 3 4 5 6 
#
# 1 44.0559 41.4382 13.4137 -5.7228 6.2419 1.3061
# 2 41.4382 102.3161 29.0633 15.2173 7.8691 0.1397
# 3 13.4137 29.0633 75.4496 3.7705 -0.2186 -2.1782
# 4 -5.7228 15.2173 3.7705 38.8896 4.4575 -0.1048
# 5 6.2419 7.8691 -0.2186 4.4575 42.2884 2.8772
# 6 1.3061 0.1397 -2.1782 -0.1048 2.8772 13.3683
#
#
#
# Elastic Compliance Matrix: (Units=1/GPa)
#
#
# Indices 1 2 3 4 5 6 
#
# 1 0.043687 -0.019183 -0.001209 0.014524 -0.004195 -0.003248
# 2 -0.019183 0.020156 -0.003809 -0.010348 0.000088 0.000943
# 3 -0.001209 -0.003809 0.015020 -0.000232 0.000824 0.002426
# 4 0.014524 -0.010348 -0.000232 0.032335 -0.003606 -0.000319
# 5 -0.004195 0.000088 0.000824 -0.003606 0.024965 -0.004858
# 6 -0.003248 0.000943 0.002426 -0.000319 -0.004858 0.076550
#
#
# Mechanical properties :
#
#
# Convention : Reuss Voigt Hill
#
# Bulk Modulus (GPa) = 32.82947 43.29467 38.06207
# Shear Modulus (GPa) = 18.43188 28.10301 23.26745
#
# Velocity S-wave (km/s) = 3.12665 3.86074 3.51293
# Velocity P-wave (km/s) = 5.51786 6.54496 6.05323
#
# Compressibility (1/GPa) = 0.03046044
#
# Stress axis : x y z
#
# Youngs Moduli (GPa) = 22.89000 49.61365 66.57745
#
# Poissons Ratio (x) = 0.95174 0.08051
# Poissons Ratio (y) = 0.43910 0.25359
# Poissons Ratio (z) = 0.02768 0.18898
#
# Static dielectric constant tensor:
#      x y z
#    x 1.624390 0.014110 -0.002470 
#    y 0.014110 1.622230 0.003100 
#    z -0.002470 0.003100 1.659170 
# 
# From -- ./inp_files/7391.got.cif
#   From: 2010.05.17/outbox.cif.g08.bks.cpg/sg2_4_cif.got.tgz:7391.got - 2010.06.03 11:33:40.
