data_PCOD9024098
_publ_section_title
;
Structure prediction by ZEFSAII (Michael W. Deem and Ramdas Pophale) SiO2 
 PCOD9024098
Probable space group: P -1
;
_chemical_formula_sum "Si O2"
_cell_formula_units_Z 14
_cell_length_a 5.024144
_cell_length_b 5.334065
_cell_length_c 20.793334
_cell_angle_alpha 88.378336
_cell_angle_beta 114.761523
_cell_angle_gamma 83.241819
_cell_volume 500.629940
_symmetry_space_group_name_H-M "P -1"
_symmetry_group_IT_number 2
_symmetry_cell_setting 'triclinic'
loop_
_space_group_symop_operation_xyz
x,y,z
-x,-y,-z
loop_
_atom_site_type_symbol
_atom_site_label
_atom_site_fract_x
_atom_site_fract_y
_atom_site_fract_z
Si Si1 0.370072 0.014482 0.235788
Si Si2 0.165008 0.496088 0.340170
Si Si3 0.702178 0.768730 0.375905
Si Si4 0.304215 0.268142 0.482301
Si Si5 0.945112 0.062852 0.085800
Si Si6 0.643742 0.476424 0.203542
Si Si7 0.439328 0.733513 0.056596
O O1 0.546073 0.225634 0.223724
O O2 0.048453 0.083556 0.169564
O O3 0.456159 0.989693 0.320190
O O4 0.483863 0.731201 0.221841
O O5 0.971835 0.739523 0.353683
O O6 0.987392 0.467555 0.257317
O O7 0.496013 0.544507 0.360009
O O8 0.132719 0.304739 0.397268
O O9 0.837081 0.754924 0.461296
O O10 0.500000 0.500000 0.500000
O O11 0.500000 0.000000 0.500000
O O12 0.728833 0.851021 0.065053
O O13 0.766936 0.296081 0.025879
O O14 0.235185 0.954430 0.075234
O O15 0.532858 0.515643 0.119254
#
# Coordination Sequence:
#
# PCOD9024098 Si02
#       7
#     2   2   2   2   2   2   2
#     4  10  22  40  63  92 126 166 210 258 312 371
#     4  10  22  43  66  94 128 166 211 260 315 374
#     4  10  22  43  66  94 128 166 211 260 315 374
#     4  10  23  42  66  94 126 164 208 258 314 374
#     4   9  18  36  61  90 124 163 207 256 310 368
#     4  10  22  40  63  92 126 166 210 258 312 371
#     4   9  18  36  61  90 124 163 207 256 310 368
#
# _framework density 27.964766999999998
#
# number of rings (size 3 to 8) (size 9 to 14) (size 15 to 20)
#    0.000    2.286    0.000    1.286    0.000    9.714 
#    0.000   23.571    0.000   15.429    0.000    0.000 
#    0.000    0.000    0.000    0.000    0.000    0.000 
#
# Total GULP energy -78322.828790 kJ/mol
# GULP energy per Si atom -5594.487771 kJ/mol
# Density = 2.790112 g / cm^3
# Si number density = 27.964767 Si / 1000 Ang^3
#
#
#
# Elastic Constant Matrix: (Units=GPa)
#
#
# Indices 1 2 3 4 5 6 
#
# 1 106.1226 35.0019 30.3815 9.0013 -1.8385 9.5358
# 2 35.0019 112.7197 50.6353 -9.0031 -6.4241 13.6948
# 3 30.3815 50.6353 234.0292 -46.5210 -7.1958 -8.7194
# 4 9.0013 -9.0031 -46.5210 58.7036 -5.2246 -7.2348
# 5 -1.8385 -6.4241 -7.1958 -5.2246 56.0724 -3.1844
# 6 9.5358 13.6948 -8.7194 -7.2348 -3.1844 26.4059
#
#
#
# Elastic Compliance Matrix: (Units=1/GPa)
#
#
# Indices 1 2 3 4 5 6 
#
# 1 0.011651 -0.002493 -0.002079 -0.004503 -0.000870 -0.004940
# 2 -0.002493 0.011461 -0.002458 -0.000491 0.000534 -0.005925
# 3 -0.002079 -0.002458 0.006528 0.005976 0.001385 0.005986
# 4 -0.004503 -0.000491 0.005976 0.024027 0.003418 0.010849
# 5 -0.000870 0.000534 0.001385 0.003418 0.018571 0.003671
# 6 -0.004940 -0.005925 0.005986 0.010849 0.003671 0.048119
#
#
# Mechanical properties :
#
#
# Convention : Reuss Voigt Hill
#
# Bulk Modulus (GPa) = 64.18376 76.10099 70.14238
# Shear Modulus (GPa) = 35.81367 50.69324 43.25345
#
# Velocity S-wave (km/s) = 3.58253 4.26226 3.93709
# Velocity P-wave (km/s) = 6.33357 7.17599 6.76790
#
# Compressibility (1/GPa) = 0.01558026
#
# Stress axis : x y z
#
# Youngs Moduli (GPa) = 85.82757 87.25233 153.18099
#
# Poissons Ratio (x) = 0.21753 0.31846
# Poissons Ratio (y) = 0.21398 0.37651
# Poissons Ratio (z) = 0.17844 0.21446
#
# Static dielectric constant tensor:
#      x y z
#    x 2.170290 -0.138570 -0.071590 
#    y -0.138570 2.190070 0.041330 
#    z -0.071590 0.041330 2.441170 
# 
# From -- ./inp_files/603232.got.cif
#   From: 2010.05.17/outbox.cif.g08.bks.cpg/sg2_302_cif.got.tgz:603232.got - 2010.06.03 11:33:40.
