data_PCOD9024807
_publ_section_title
;
Structure prediction by ZEFSAII (Michael W. Deem and Ramdas Pophale) SiO2 
 PCOD9024807
Probable space group: P -1
;
_chemical_formula_sum "Si O2"
_cell_formula_units_Z 14
_cell_length_a 16.669649
_cell_length_b 9.053651
_cell_length_c 11.047358
_cell_angle_alpha 58.803906
_cell_angle_beta 144.102992
_cell_angle_gamma 95.936862
_cell_volume 649.152511
_symmetry_space_group_name_H-M "P -1"
_symmetry_group_IT_number 2
_symmetry_cell_setting 'triclinic'
loop_
_space_group_symop_operation_xyz
x,y,z
-x,-y,-z
loop_
_atom_site_type_symbol
_atom_site_label
_atom_site_fract_x
_atom_site_fract_y
_atom_site_fract_z
Si Si1 0.374733 0.314701 0.631460
Si Si2 0.768048 0.899497 0.340126
Si Si3 0.712712 0.294089 0.813495
Si Si4 0.625003 0.385623 0.315265
Si Si5 0.893173 0.108594 0.574053
Si Si6 0.406303 0.399753 0.256677
Si Si7 0.923607 0.432539 0.333439
O O1 0.254398 0.244100 0.534793
O O2 0.318566 0.499315 0.383892
O O3 0.355634 0.441853 0.676373
O O4 0.576403 0.087789 0.966255
O O5 0.919000 0.741328 0.492912
O O6 0.816664 0.022930 0.429865
O O7 0.565725 0.270448 0.605212
O O8 0.701716 0.355300 0.915362
O O9 0.898875 0.079152 0.091187
O O10 0.806175 0.171082 0.573222
O O11 0.522648 0.354063 0.301954
O O12 0.500000 0.500000 0.000000
O O13 0.860024 0.317387 0.380881
O O14 0.254700 0.383954 0.041311
O O15 0.000000 0.500000 0.500000
#
# Coordination Sequence:
#
# PCOD9024807 Si02
#       7
#     2   2   2   2   2   2   2
#     4  10  23  41  64  96 133 170 219 270 329 381
#     4  11  23  40  69  95 124 177 228 267 315 394
#     4  10  23  42  67  96 132 175 216 267 325 403
#     4  11  20  38  66  94 132 168 217 277 312 385
#     4  12  23  39  70  96 127 176 220 264 332 385
#     4  10  22  40  66  91 132 172 208 266 329 376
#     4  12  25  41  66  99 131 166 227 277 319 386
#
# _framework density 21.566582
#
# number of rings (size 3 to 8) (size 9 to 14) (size 15 to 20)
#    0.000    1.143    4.286    2.143    6.000    2.857 
#    0.000    0.714    0.000    0.000    0.000    0.000 
#    0.000    0.000    0.000    0.000    0.000    0.000 
#
# Total GULP energy -78083.778884 kJ/mol
# GULP energy per Si atom -5577.412777 kJ/mol
# Density = 2.151750 g / cm^3
# Si number density = 21.566582 Si / 1000 Ang^3
#
#
#
# Elastic Constant Matrix: (Units=GPa)
#
#
# Indices 1 2 3 4 5 6 
#
# 1 88.1312 36.6640 30.7440 2.7736 16.3899 -28.4808
# 2 36.6640 85.5437 18.9174 32.2634 18.3616 -8.5711
# 3 30.7440 18.9174 94.3323 3.9258 32.6183 -13.4542
# 4 2.7736 32.2634 3.9258 42.3967 -5.9452 10.3076
# 5 16.3899 18.3616 32.6183 -5.9452 44.1474 -12.8585
# 6 -28.4808 -8.5711 -13.4542 10.3076 -12.8585 45.9340
#
#
#
# Elastic Compliance Matrix: (Units=1/GPa)
#
#
# Indices 1 2 3 4 5 6 
#
# 1 0.018282 -0.007921 -0.004179 0.003495 0.002560 0.008566
# 2 -0.007921 0.025127 0.002788 -0.021004 -0.011816 0.001999
# 3 -0.004179 0.002788 0.015754 -0.005054 -0.011821 0.000368
# 4 0.003495 -0.021004 -0.005054 0.044042 0.014463 -0.009067
# 5 0.002560 -0.011816 -0.011821 0.014463 0.038285 0.003392
# 6 0.008566 0.001999 0.000368 -0.009067 0.003392 0.030547
#
#
# Mechanical properties :
#
#
# Convention : Reuss Voigt Hill
#
# Bulk Modulus (GPa) = 24.66817 48.96201 36.81509
# Shear Modulus (GPa) = 24.48890 38.60773 31.54832
#
# Velocity S-wave (km/s) = 3.37338 4.23562 3.82885
# Velocity P-wave (km/s) = 5.16100 6.83174 6.05428
#
# Compressibility (1/GPa) = 0.04053807
#
# Stress axis : x y z
#
# Youngs Moduli (GPa) = 54.69941 39.79811 63.47520
#
# Poissons Ratio (x) = 0.31524 0.26525
# Poissons Ratio (y) = 0.43328 -0.17694
# Poissons Ratio (z) = 0.22858 -0.11094
#
# Static dielectric constant tensor:
#      x y z
#    x 1.859220 -0.065590 -0.004020 
#    y -0.065590 1.853120 -0.021480 
#    z -0.004020 -0.021480 1.879390 
# 
# From -- ./inp_files/181751.got.cif
#   From: 2010.05.17/outbox.cif.g08.bks.cpg/sg2_91_cif.got.tgz:181751.got - 2010.06.03 11:33:40.
