data_PCOD9024820
_publ_section_title
;
Structure prediction by ZEFSAII (Michael W. Deem and Ramdas Pophale) SiO2 
 PCOD9024820
Probable space group: P -1
;
_chemical_formula_sum "Si O2"
_cell_formula_units_Z 15
_cell_length_a 10.404731
_cell_length_b 8.830894
_cell_length_c 14.722753
_cell_angle_alpha 73.277304
_cell_angle_beta 26.002068
_cell_angle_gamma 79.276758
_cell_volume 559.435286
_symmetry_space_group_name_H-M "P -1"
_symmetry_group_IT_number 2
_symmetry_cell_setting 'triclinic'
loop_
_space_group_symop_operation_xyz
x,y,z
-x,-y,-z
loop_
_atom_site_type_symbol
_atom_site_label
_atom_site_fract_x
_atom_site_fract_y
_atom_site_fract_z
Si Si1 0.829830 0.173086 0.253137
Si Si2 0.000000 0.500000 0.000000
Si Si3 0.443971 0.037584 0.675996
Si Si4 0.286667 0.728865 0.946320
Si Si5 0.705186 0.790145 0.830976
Si Si6 0.228300 0.304521 0.573168
Si Si7 0.797922 0.169922 0.711864
Si Si8 0.721526 0.329107 0.542051
O O1 0.750509 0.072898 0.414067
O O2 0.513670 0.232219 0.430743
O O3 0.829301 0.035646 0.202237
O O4 0.041631 0.336336 0.064062
O O5 0.171607 0.616668 0.953253
O O6 0.456653 0.207765 0.684987
O O7 0.424544 0.902816 0.787960
O O8 0.536474 0.700726 0.866086
O O9 0.008470 0.724609 0.191072
O O10 0.969302 0.691442 0.700070
O O11 0.798663 0.982786 0.719794
O O12 0.485417 0.801488 0.052864
O O13 0.340969 0.494075 0.458177
O O14 0.073608 0.240913 0.588683
O O15 0.777474 0.268592 0.616783
#
# Coordination Sequence:
#
# PCOD9024820 Si02
#       8
#     2   1   2   2   2   2   2   2
#     4  10  23  45  66  93 131 173 222 281 315 403
#     4  10  22  40  66  92 128 168 220 264 344 366
#     4  10  22  42  68  95 123 176 232 255 337 386
#     4  10  22  41  64  96 126 174 213 276 322 393
#     4  10  22  41  69  96 141 168 226 266 329 394
#     4  11  25  42  65  97 140 164 219 273 341 381
#     4  10  22  41  65 105 130 178 218 271 322 404
#     4  12  23  40  68 102 133 181 211 273 335 401
#
# _framework density 26.812753000000001
#
# number of rings (size 3 to 8) (size 9 to 14) (size 15 to 20)
#    0.000    1.600    1.333    2.400    3.733    4.800 
#    7.200    1.333    0.000    0.000    0.000    0.000 
#    0.000    0.000    0.000    0.000    0.000    0.000 
#
# Total GULP energy -83729.834121 kJ/mol
# GULP energy per Si atom -5581.988941 kJ/mol
# Density = 2.675173 g / cm^3
# Si number density = 26.812753 Si / 1000 Ang^3
#
#
#
# Elastic Constant Matrix: (Units=GPa)
#
#
# Indices 1 2 3 4 5 6 
#
# 1 102.4977 53.2168 17.0026 -8.1459 9.4006 25.6747
# 2 53.2168 169.2585 37.5292 -35.1906 -8.7045 13.8710
# 3 17.0026 37.5292 99.9963 -8.4597 20.8034 5.9903
# 4 -8.1459 -35.1906 -8.4597 42.9656 -2.0500 -0.6046
# 5 9.4006 -8.7045 20.8034 -2.0500 35.7262 -6.3253
# 6 25.6747 13.8710 5.9903 -0.6046 -6.3253 50.2951
#
#
#
# Elastic Compliance Matrix: (Units=1/GPa)
#
#
# Indices 1 2 3 4 5 6 
#
# 1 0.014368 -0.004850 0.001118 -0.001458 -0.006940 -0.007021
# 2 -0.004850 0.009914 -0.003726 0.006789 0.006442 0.001077
# 3 0.001118 -0.003726 0.013233 -0.000713 -0.009357 -0.002305
# 4 -0.001458 0.006789 -0.000713 0.028609 0.004061 -0.000188
# 5 -0.006940 0.006442 -0.009357 0.004061 0.038443 0.007764
# 6 -0.007021 0.001077 -0.002305 -0.000188 0.007764 0.024418
#
#
# Mechanical properties :
#
#
# Convention : Reuss Voigt Hill
#
# Bulk Modulus (GPa) = 44.25054 65.24996 54.75025
# Shear Modulus (GPa) = 33.01757 43.39766 38.20761
#
# Velocity S-wave (km/s) = 3.51296 4.02748 3.77898
# Velocity P-wave (km/s) = 5.74403 6.78349 6.28528
#
# Compressibility (1/GPa) = 0.02259860
#
# Stress axis : x y z
#
# Youngs Moduli (GPa) = 69.59756 100.86883 75.56832
#
# Poissons Ratio (x) = 0.48924 -0.08451
# Poissons Ratio (y) = 0.33757 0.28160
# Poissons Ratio (z) = -0.07784 0.37588
#
# Static dielectric constant tensor:
#      x y z
#    x 2.127530 0.034490 -0.018580 
#    y 0.034490 2.089270 0.043340 
#    z -0.018580 0.043340 2.222050 
# 
# From -- ./inp_files/201056.got.cif
#   From: 2010.05.17/outbox.cif.g08.bks.cpg/sg2_101_cif.got.tgz:201056.got - 2010.06.03 11:33:40.
