data_PCOD9024750
_publ_section_title
;
Structure prediction by ZEFSAII (Michael W. Deem and Ramdas Pophale) SiO2 
 PCOD9024750
Probable space group: P -1
;
_chemical_formula_sum "Si O2"
_cell_formula_units_Z 10
_cell_length_a 5.451100
_cell_length_b 11.787805
_cell_length_c 15.475205
_cell_angle_alpha 151.304332
_cell_angle_beta 123.001793
_cell_angle_gamma 53.192320
_cell_volume 381.805807
_symmetry_space_group_name_H-M "P -1"
_symmetry_group_IT_number 2
_symmetry_cell_setting 'triclinic'
loop_
_space_group_symop_operation_xyz
x,y,z
-x,-y,-z
loop_
_atom_site_type_symbol
_atom_site_label
_atom_site_fract_x
_atom_site_fract_y
_atom_site_fract_z
Si Si1 0.037649 0.780306 0.592845
Si Si2 0.528505 0.191602 0.709872
Si Si3 0.468732 0.469925 0.612670
Si Si4 0.629969 0.103204 0.009698
Si Si5 0.331624 0.310689 0.929159
O O1 0.283552 0.678078 0.647153
O O2 0.210259 0.658060 0.457140
O O3 0.758938 0.683649 0.507644
O O4 0.870260 0.064699 0.729842
O O5 0.325871 0.186986 0.751971
O O6 0.500000 0.000000 0.500000
O O7 0.471604 0.488564 0.889330
O O8 0.494886 0.607711 0.797255
O O9 0.480004 0.093869 0.881767
O O10 0.500000 0.000000 0.000000
O O11 0.000000 0.000000 0.000000
O O12 0.000000 0.500000 0.000000
#
# Coordination Sequence:
#
# PCOD9024750 Si02
#       5
#     2   2   2   2   2
#     4  10  22  40  68 100 139 187 243 307 361 444
#     4  11  26  47  77 103 156 203 254 307 399 451
#     4  10  22  40  66 102 140 184 252 298 364 448
#     4  12  27  46  76 104 153 204 252 314 391 450
#     4  11  29  47  75 116 154 196 265 321 378 475
#
# _framework density 26.191326
#
# number of rings (size 3 to 8) (size 9 to 14) (size 15 to 20)
#    0.000    1.200    0.000    3.600   14.000    2.400 
#    0.000    0.000    0.000    0.000    0.000    0.000 
#    0.000    0.000    0.000    0.000    0.000    0.000 
#
# Total GULP energy -55799.454286 kJ/mol
# GULP energy per Si atom -5579.945429 kJ/mol
# Density = 2.613171 g / cm^3
# Si number density = 26.191326 Si / 1000 Ang^3
#
#
#
# Elastic Constant Matrix: (Units=GPa)
#
#
# Indices 1 2 3 4 5 6 
#
# 1 152.6849 55.1065 45.3158 0.5099 -40.8337 11.1287
# 2 55.1065 108.8365 9.3408 4.7289 -7.8120 26.2073
# 3 45.3158 9.3408 126.3580 -11.0605 -29.2512 21.4207
# 4 0.5099 4.7289 -11.0605 46.1726 10.7027 -8.7152
# 5 -40.8337 -7.8120 -29.2512 10.7027 59.6086 8.1407
# 6 11.1287 26.2073 21.4207 -8.7152 8.1407 51.0005
#
#
#
# Elastic Compliance Matrix: (Units=1/GPa)
#
#
# Indices 1 2 3 4 5 6 
#
# 1 0.010394 -0.004545 -0.002154 -0.001544 0.005774 -0.000213
# 2 -0.004545 0.013226 0.001874 -0.002428 0.000953 -0.007159
# 3 -0.002154 0.001874 0.010620 0.000212 0.004718 -0.005670
# 4 -0.001544 -0.002428 0.000212 0.024799 -0.006652 0.006795
# 5 0.005774 0.000953 0.004718 -0.006652 0.025588 -0.008952
# 6 -0.000213 -0.007159 -0.005670 0.006795 -0.008952 0.028305
#
#
# Mechanical properties :
#
#
# Convention : Reuss Voigt Hill
#
# Bulk Modulus (GPa) = 40.66685 67.48952 54.07819
# Shear Modulus (GPa) = 38.23260 49.89742 44.06501
#
# Velocity S-wave (km/s) = 3.82480 4.36949 4.10619
# Velocity P-wave (km/s) = 5.92166 7.16104 6.57064
#
# Compressibility (1/GPa) = 0.02459005
#
# Stress axis : x y z
#
# Youngs Moduli (GPa) = 96.21018 75.60780 94.16273
#
# Poissons Ratio (x) = 0.34363 0.20282
# Poissons Ratio (y) = 0.43727 -0.17646
# Poissons Ratio (z) = 0.20723 -0.14168
#
# Static dielectric constant tensor:
#      x y z
#    x 2.111720 0.165780 0.054620 
#    y 0.165780 2.157870 -0.000560 
#    z 0.054620 -0.000560 2.111450 
# 
# From -- ./inp_files/40485.got.cif
#   From: 2010.05.17/outbox.cif.g08.bks.cpg/sg2_21_cif.got.tgz:40485.got - 2010.06.03 11:33:40.
