data_PCOD9024043
_publ_section_title
;
Structure prediction by ZEFSAII (Michael W. Deem and Ramdas Pophale) SiO2 
 PCOD9024043
Probable space group: P -1
;
_chemical_formula_sum "Si O2"
_cell_formula_units_Z 14
_cell_length_a 10.191292
_cell_length_b 9.252925
_cell_length_c 10.551148
_cell_angle_alpha 61.524279
_cell_angle_beta 121.941170
_cell_angle_gamma 139.841949
_cell_volume 539.707305
_symmetry_space_group_name_H-M "P -1"
_symmetry_group_IT_number 2
_symmetry_cell_setting 'triclinic'
loop_
_space_group_symop_operation_xyz
x,y,z
-x,-y,-z
loop_
_atom_site_type_symbol
_atom_site_label
_atom_site_fract_x
_atom_site_fract_y
_atom_site_fract_z
Si Si1 0.896215 0.441304 0.802402
Si Si2 0.490791 0.624544 0.331471
Si Si3 0.763761 0.111315 0.650785
Si Si4 0.870820 0.800354 0.322935
Si Si5 0.197168 0.865480 0.625987
Si Si6 0.656795 0.733989 0.908584
Si Si7 0.959735 0.153870 0.075647
O O1 0.742488 0.471517 0.763619
O O2 0.782527 0.272637 0.691783
O O3 0.912404 0.308634 0.968693
O O4 0.119773 0.669016 0.764580
O O5 0.500000 0.500000 0.500000
O O6 0.618623 0.628067 0.281613
O O7 0.634581 0.885997 0.335003
O O8 0.006940 0.212431 0.719166
O O9 0.718514 0.126279 0.475209
O O10 0.621529 0.855659 0.736313
O O11 0.951663 0.045548 0.245669
O O12 0.978528 0.798756 0.501621
O O13 0.824427 0.736018 0.928060
O O14 0.500000 0.500000 0.000000
O O15 0.774762 0.926780 0.996670
#
# Coordination Sequence:
#
# PCOD9024043 Si02
#       7
#     2   2   2   2   2   2   2
#     4  11  22  38  62  91 121 152 191 249 301 339
#     4  12  24  39  62  86 116 160 206 239 287 358
#     4   8  19  37  60  89 117 148 194 239 298 342
#     4   9  20  41  62  82 117 161 194 236 294 347
#     4  10  22  40  63  81 120 157 197 241 294 350
#     4   9  17  34  60  86 119 158 191 231 296 354
#     4   9  20  38  56  87 124 147 192 249 288 347
#
# _framework density 25.939988
#
# number of rings (size 3 to 8) (size 9 to 14) (size 15 to 20)
#    0.857    1.429    1.429    1.714    0.000    4.571 
#    0.000    0.714    0.000    0.000    0.000    0.000 
#    0.000    0.000    0.000    0.000    0.000    0.000 
#
# Total GULP energy -78254.666466 kJ/mol
# GULP energy per Si atom -5589.619033 kJ/mol
# Density = 2.588095 g / cm^3
# Si number density = 25.939988 Si / 1000 Ang^3
#
#
#
# Elastic Constant Matrix: (Units=GPa)
#
#
# Indices 1 2 3 4 5 6 
#
# 1 113.4518 34.0323 37.9580 -14.8360 -1.3031 1.4529
# 2 34.0323 99.5556 16.6594 -37.6031 0.9592 2.4276
# 3 37.9580 16.6594 130.9580 -27.8016 0.2530 21.7278
# 4 -14.8360 -37.6031 -27.8016 51.0579 6.0130 -5.9421
# 5 -1.3031 0.9592 0.2530 6.0130 45.7422 -3.2514
# 6 1.4529 2.4276 21.7278 -5.9421 -3.2514 45.1605
#
#
#
# Elastic Compliance Matrix: (Units=1/GPa)
#
#
# Indices 1 2 3 4 5 6 
#
# 1 0.010790 -0.003650 -0.003122 -0.001184 0.000645 0.001242
# 2 -0.003650 0.015311 0.001519 0.011258 -0.001920 -0.000094
# 3 -0.003122 0.001519 0.010207 0.005414 -0.001192 -0.004266
# 4 -0.001184 0.011258 0.005414 0.031062 -0.004340 0.000603
# 5 0.000645 -0.001920 -0.001192 -0.004340 0.022619 0.001713
# 6 0.001242 -0.000094 -0.004266 0.000603 0.001713 0.024363
#
#
# Mechanical properties :
#
#
# Convention : Reuss Voigt Hill
#
# Bulk Modulus (GPa) = 38.75381 57.91830 48.33606
# Shear Modulus (GPa) = 37.46460 45.41316 41.43888
#
# Velocity S-wave (km/s) = 3.80449 4.18868 4.00120
# Velocity P-wave (km/s) = 5.85415 6.76533 6.32617
#
# Compressibility (1/GPa) = 0.02580391
#
# Stress axis : x y z
#
# Youngs Moduli (GPa) = 92.67532 65.31135 97.97269
#
# Poissons Ratio (x) = 0.23838 0.30586
# Poissons Ratio (y) = 0.33826 -0.14887
# Poissons Ratio (z) = 0.28932 -0.09924
#
# Static dielectric constant tensor:
#      x y z
#    x 2.085410 -0.030350 -0.025510 
#    y -0.030350 2.093040 0.037620 
#    z -0.025510 0.037620 2.030470 
# 
# From -- ./inp_files/518674.got.cif
#   From: 2010.05.17/outbox.cif.g08.bks.cpg/sg2_260_cif.got.tgz:518674.got - 2010.06.03 11:33:40.
