data_PCOD9024245
_publ_section_title
;
Structure prediction by ZEFSAII (Michael W. Deem and Ramdas Pophale) SiO2 
 PCOD9024245
Probable space group: P -1
;
_chemical_formula_sum "Si O2"
_cell_formula_units_Z 14
_cell_length_a 12.449153
_cell_length_b 5.606992
_cell_length_c 11.502995
_cell_angle_alpha 109.089767
_cell_angle_beta 56.887637
_cell_angle_gamma 82.641360
_cell_volume 585.892039
_symmetry_space_group_name_H-M "P -1"
_symmetry_group_IT_number 2
_symmetry_cell_setting 'triclinic'
loop_
_space_group_symop_operation_xyz
x,y,z
-x,-y,-z
loop_
_atom_site_type_symbol
_atom_site_label
_atom_site_fract_x
_atom_site_fract_y
_atom_site_fract_z
Si Si1 0.205857 0.024388 0.412121
Si Si2 0.092782 0.604570 0.328033
Si Si3 0.537225 0.041357 0.616475
Si Si4 0.395438 0.690037 0.786935
Si Si5 0.964603 0.645575 0.173906
Si Si6 0.657399 0.983207 0.902316
Si Si7 0.126953 0.820959 0.812828
O O1 0.312162 0.923885 0.225675
O O2 0.068915 0.302571 0.522633
O O3 0.143143 0.792664 0.411973
O O4 0.301833 0.049837 0.462077
O O5 0.216636 0.310519 0.210227
O O6 0.075440 0.663867 0.206745
O O7 0.475565 0.371358 0.719153
O O8 0.500000 0.000000 0.500000
O O9 0.479039 0.859022 0.704097
O O10 0.271949 0.717798 0.776784
O O11 0.331598 0.841214 0.967704
O O12 0.905258 0.441958 0.239224
O O13 0.875680 0.961237 0.247622
O O14 0.000000 0.500000 0.000000
O O15 0.500000 0.000000 0.000000
O O16 0.000000 0.000000 0.000000
#
# Coordination Sequence:
#
# PCOD9024245 Si02
#       7
#     2   2   2   2   2   2   2
#     4  11  28  50  75 111 158 216 267 318 407 474
#     4  11  27  48  77 111 159 211 261 332 394 477
#     4  12  29  55  76 115 157 213 259 327 398 484
#     4  12  27  47  83 113 152 207 268 326 399 458
#     4  10  22  41  69 108 148 196 251 315 383 448
#     4  12  25  48  78 114 157 201 268 332 389 479
#     4  10  22  40  64 111 146 186 243 312 385 445
#
# _framework density 23.895188999999998
#
# number of rings (size 3 to 8) (size 9 to 14) (size 15 to 20)
#    0.000    0.857    1.429    4.286   12.000    1.143 
#    0.000    0.000    0.000    0.000    0.000    0.000 
#    0.000    0.000    0.000    0.000    0.000    0.000 
#
# Total GULP energy -78143.852308 kJ/mol
# GULP energy per Si atom -5581.703736 kJ/mol
# Density = 2.384080 g / cm^3
# Si number density = 23.895189 Si / 1000 Ang^3
#
#
#
# Elastic Constant Matrix: (Units=GPa)
#
#
# Indices 1 2 3 4 5 6 
#
# 1 136.7030 32.9779 33.3845 11.0938 -13.4684 5.3575
# 2 32.9779 146.8062 51.5072 31.1907 -16.5715 15.5184
# 3 33.3845 51.5072 132.5911 6.0480 -4.8276 16.3019
# 4 11.0938 31.1907 6.0480 48.7588 -3.2835 -6.8008
# 5 -13.4684 -16.5715 -4.8276 -3.2835 53.7717 5.1216
# 6 5.3575 15.5184 16.3019 -6.8008 5.1216 34.2116
#
#
#
# Elastic Compliance Matrix: (Units=1/GPa)
#
#
# Indices 1 2 3 4 5 6 
#
# 1 0.008167 -0.000791 -0.001557 -0.001139 0.001655 -0.000653
# 2 -0.000791 0.010154 -0.002752 -0.006468 0.002753 -0.004869
# 3 -0.001557 -0.002752 0.009321 0.000558 -0.000098 -0.002824
# 4 -0.001139 -0.006468 0.000558 0.025885 -0.001430 0.008206
# 5 0.001655 0.002753 -0.000098 -0.001430 0.020219 -0.004772
# 6 -0.000653 -0.004869 -0.002824 0.008206 -0.004772 0.035232
#
#
# Mechanical properties :
#
#
# Convention : Reuss Voigt Hill
#
# Bulk Modulus (GPa) = 57.32482 72.42662 64.87572
# Shear Modulus (GPa) = 40.00278 47.23045 43.61662
#
# Velocity S-wave (km/s) = 4.09601 4.45068 4.27702
# Velocity P-wave (km/s) = 6.81263 7.53574 7.18329
#
# Compressibility (1/GPa) = 0.01744445
#
# Stress axis : x y z
#
# Youngs Moduli (GPa) = 122.44265 98.47890 107.28365
#
# Poissons Ratio (x) = 0.07786 0.16702
# Poissons Ratio (y) = 0.09681 0.29521
# Poissons Ratio (z) = 0.19061 0.27098
#
# Static dielectric constant tensor:
#      x y z
#    x 1.838520 -0.018880 -0.014710 
#    y -0.018880 1.973070 -0.042300 
#    z -0.014710 -0.042300 1.941510 
# 
# From -- ./inp_files/72235.got.cif
#   From: 2010.05.17/outbox.cif.g08.bks.cpg/sg2_37_cif.got.tgz:72235.got - 2010.06.03 11:33:40.
