data_PCOD9024489
_publ_section_title
;
Structure prediction by ZEFSAII (Michael W. Deem and Ramdas Pophale) SiO2 
 PCOD9024489
Probable space group: P -1
;
_chemical_formula_sum "Si O2"
_cell_formula_units_Z 16
_cell_length_a 6.936375
_cell_length_b 10.436381
_cell_length_c 18.113461
_cell_angle_alpha 52.227476
_cell_angle_beta 133.742678
_cell_angle_gamma 118.495883
_cell_volume 745.498490
_symmetry_space_group_name_H-M "P -1"
_symmetry_group_IT_number 2
_symmetry_cell_setting 'triclinic'
loop_
_space_group_symop_operation_xyz
x,y,z
-x,-y,-z
loop_
_atom_site_type_symbol
_atom_site_label
_atom_site_fract_x
_atom_site_fract_y
_atom_site_fract_z
Si Si1 0.517538 0.669598 0.490422
Si Si2 0.816840 0.960364 0.226460
Si Si3 0.786307 0.130303 0.895893
Si Si4 0.881632 0.350758 0.338529
Si Si5 0.570877 0.548765 0.917935
Si Si6 0.049489 0.724191 0.259396
Si Si7 0.849523 0.263327 0.026250
Si Si8 0.277895 0.846650 0.491013
O O1 0.500000 0.500000 0.500000
O O2 0.348532 0.773824 0.353895
O O3 0.362140 0.697235 0.515161
O O4 0.826557 0.707729 0.579505
O O5 0.512425 0.937381 0.181863
O O6 0.866451 0.843000 0.210942
O O7 0.016909 0.910658 0.360728
O O8 0.873851 0.139305 0.143838
O O9 0.911417 0.261523 0.823173
O O10 0.756042 0.184236 0.952532
O O11 0.000000 0.000000 0.000000
O O12 0.670878 0.363317 0.212756
O O13 0.765876 0.230425 0.413461
O O14 0.944420 0.538664 0.316017
O O15 0.854273 0.654627 0.944229
O O16 0.500000 0.500000 0.000000
O O17 0.633190 0.385990 0.948459
O O18 0.500000 0.000000 0.500000
#
# Coordination Sequence:
#
# PCOD9024489 Si02
#       8
#     2   2   2   2   2   2   2   2
#     4   9  22  41  66  98 133 169 222 273 331 394
#     4  11  24  42  67  96 138 173 221 278 337 395
#     4  12  24  39  68  98 132 173 217 276 334 394
#     4  11  23  42  69  95 132 173 222 273 333 399
#     4  11  26  43  66  94 134 181 223 274 331 399
#     4  10  22  40  65 101 133 170 222 274 336 398
#     4  11  25  43  64  98 134 176 227 270 334 402
#     4  11  25  45  68 100 134 177 222 277 335 400
#
# _framework density 21.462149
#
# number of rings (size 3 to 8) (size 9 to 14) (size 15 to 20)
#    0.000    1.250    1.250    3.375    3.500   12.000 
#    0.000    0.000    0.000    0.000    0.000    0.000 
#    0.000    0.000    0.000    0.000    0.000    0.000 
#
# Total GULP energy -89287.622773 kJ/mol
# GULP energy per Si atom -5580.476423 kJ/mol
# Density = 2.141330 g / cm^3
# Si number density = 21.462149 Si / 1000 Ang^3
#
#
#
# Elastic Constant Matrix: (Units=GPa)
#
#
# Indices 1 2 3 4 5 6 
#
# 1 104.0482 27.1081 77.3489 4.4271 9.5750 21.8727
# 2 27.1081 46.8608 36.5947 -2.3215 1.4940 19.5353
# 3 77.3489 36.5947 156.9619 11.3435 -4.3545 22.3329
# 4 4.4271 -2.3215 11.3435 34.2513 8.8441 -8.8770
# 5 9.5750 1.4940 -4.3545 8.8441 45.4704 -4.5655
# 6 21.8727 19.5353 22.3329 -8.8770 -4.5655 24.9647
#
#
#
# Elastic Compliance Matrix: (Units=1/GPa)
#
#
# Indices 1 2 3 4 5 6 
#
# 1 0.017798 -0.000181 -0.007324 -0.001199 -0.005243 -0.010286
# 2 -0.000181 0.035366 -0.004667 -0.001422 -0.003758 -0.024534
# 3 -0.007324 -0.004667 0.011682 -0.004502 0.003556 -0.001332
# 4 -0.001199 -0.001422 -0.004502 0.036905 -0.005471 0.018313
# 5 -0.005243 -0.003758 0.003556 -0.005471 0.025331 0.007040
# 6 -0.010286 -0.024534 -0.001332 0.018313 0.007040 0.077257
#
#
# Mechanical properties :
#
#
# Convention : Reuss Voigt Hill
#
# Bulk Modulus (GPa) = 24.68986 65.55271 45.12129
# Shear Modulus (GPa) = 20.64548 32.05853 26.35200
#
# Velocity S-wave (km/s) = 3.10489 3.86907 3.50785
# Velocity P-wave (km/s) = 4.93788 7.11121 6.12176
#
# Compressibility (1/GPa) = 0.04050245
#
# Stress axis : x y z
#
# Youngs Moduli (GPa) = 56.18486 28.27573 85.60399
#
# Poissons Ratio (x) = 0.00512 0.62696
# Poissons Ratio (y) = 0.01017 0.39951
# Poissons Ratio (z) = 0.41149 0.13196
#
# Static dielectric constant tensor:
#      x y z
#    x 1.787410 -0.021470 -0.025270 
#    y -0.021470 1.838190 0.056910 
#    z -0.025270 0.056910 1.823280 
# 
# From -- ./inp_files/364697.got.cif
#   From: 2010.05.17/outbox.cif.g08.bks.cpg/sg2_183_cif.got.tgz:364697.got - 2010.06.03 11:33:40.
