data_PCOD9024215
_publ_section_title
;
Structure prediction by ZEFSAII (Michael W. Deem and Ramdas Pophale) SiO2 
 PCOD9024215
Probable space group: P -1
;
_chemical_formula_sum "Si O2"
_cell_formula_units_Z 16
_cell_length_a 9.723552
_cell_length_b 13.079216
_cell_length_c 10.761197
_cell_angle_alpha 56.001349
_cell_angle_beta 64.752312
_cell_angle_gamma 108.432538
_cell_volume 690.546039
_symmetry_space_group_name_H-M "P -1"
_symmetry_group_IT_number 2
_symmetry_cell_setting 'triclinic'
loop_
_space_group_symop_operation_xyz
x,y,z
-x,-y,-z
loop_
_atom_site_type_symbol
_atom_site_label
_atom_site_fract_x
_atom_site_fract_y
_atom_site_fract_z
Si Si1 0.916776 0.459007 0.420498
Si Si2 0.008283 0.090977 0.283126
Si Si3 0.189629 0.040119 0.824374
Si Si4 0.014893 0.658824 0.915392
Si Si5 0.379741 0.537807 0.595337
Si Si6 0.513799 0.040514 0.822530
Si Si7 0.364044 0.290873 0.188009
Si Si8 0.647669 0.234663 0.118041
O O1 0.768172 0.490808 0.437867
O O2 0.745647 0.253302 0.578000
O O3 0.000000 0.500000 0.500000
O O4 0.132144 0.593184 0.159637
O O5 0.975651 0.213842 0.263564
O O6 0.268552 0.220340 0.131404
O O7 0.929674 0.056953 0.194600
O O8 0.861553 0.886372 0.529441
O O9 0.412140 0.256451 0.575130
O O10 0.294287 0.987437 0.896937
O O11 0.000000 0.000000 0.000000
O O12 0.259347 0.803251 0.790446
O O13 0.803622 0.568101 0.149200
O O14 0.000000 0.500000 0.000000
O O15 0.500000 0.500000 0.500000
O O16 0.514787 0.925905 0.809216
O O17 0.500000 0.000000 0.000000
O O18 0.533921 0.288997 0.172636
O O19 0.500000 0.500000 0.000000
#
# Coordination Sequence:
#
# PCOD9024215 Si02
#       8
#     2   2   2   2   2   2   2   2
#     4  10  22  40  64 100 134 179 233 286 356 429
#     4  11  26  48  73 106 147 191 252 306 370 444
#     4  11  25  43  70 108 147 189 243 302 371 447
#     4  11  24  45  77 107 144 191 249 306 371 447
#     4  10  24  42  68 103 143 187 235 297 362 432
#     4  11  23  42  67 102 143 179 231 294 369 433
#     4  11  28  50  71 102 143 196 250 308 372 439
#     4  11  24  44  70  98 141 186 238 300 367 441
#
# _framework density 23.170069000000002
#
# number of rings (size 3 to 8) (size 9 to 14) (size 15 to 20)
#    0.000    1.250    2.500    1.500    7.000    6.500 
#    0.000    0.000    0.000    0.000    0.000    0.000 
#    0.000    0.000    0.000    0.000    0.000    0.000 
#
# Total GULP energy -89173.699145 kJ/mol
# GULP energy per Si atom -5573.356197 kJ/mol
# Density = 2.311733 g / cm^3
# Si number density = 23.170069 Si / 1000 Ang^3
#
#
#
# Elastic Constant Matrix: (Units=GPa)
#
#
# Indices 1 2 3 4 5 6 
#
# 1 110.0778 39.1654 40.7131 -7.2415 -4.6332 9.3932
# 2 39.1654 89.7687 34.3812 -13.8071 -1.8552 3.0005
# 3 40.7131 34.3812 112.0448 -23.4475 -14.0273 -8.8464
# 4 -7.2415 -13.8071 -23.4475 21.0177 1.3437 -4.2932
# 5 -4.6332 -1.8552 -14.0273 1.3437 35.9107 -7.2043
# 6 9.3932 3.0005 -8.8464 -4.2932 -7.2043 46.7005
#
#
#
# Elastic Compliance Matrix: (Units=1/GPa)
#
#
# Indices 1 2 3 4 5 6 
#
# 1 0.012188 -0.004164 -0.004407 -0.004117 -0.000920 -0.003539
# 2 -0.004164 0.014565 -0.001730 0.006257 -0.000686 0.000043
# 3 -0.004407 -0.001730 0.015599 0.015650 0.006120 0.006335
# 4 -0.004117 0.006257 0.015650 0.069553 0.005434 0.010623
# 5 -0.000920 -0.000686 0.006120 0.005434 0.031225 0.006705
# 6 -0.003539 0.000043 0.006335 0.010623 0.006705 0.025333
#
#
# Mechanical properties :
#
#
# Convention : Reuss Voigt Hill
#
# Bulk Modulus (GPa) = 45.97375 60.04565 53.00970
# Shear Modulus (GPa) = 25.46921 33.90123 29.68522
#
# Velocity S-wave (km/s) = 3.31906 3.82926 3.58325
# Velocity P-wave (km/s) = 5.87989 6.74703 6.32833
#
# Compressibility (1/GPa) = 0.02175154
#
# Stress axis : x y z
#
# Youngs Moduli (GPa) = 82.04478 68.65551 64.10782
#
# Poissons Ratio (x) = 0.28586 0.28255
# Poissons Ratio (y) = 0.34160 0.11088
# Poissons Ratio (z) = 0.36160 0.11874
#
# Static dielectric constant tensor:
#      x y z
#    x 1.924330 -0.050940 0.023610 
#    y -0.050940 1.853270 -0.117450 
#    z 0.023610 -0.117450 1.889750 
# 
# From -- ./inp_files/398585.got.cif
#   From: 2010.05.17/outbox.cif.g08.bks.cpg/sg2_200_cif.got.tgz:398585.got - 2010.06.03 11:33:40.
