data_PCOD9024861
_publ_section_title
;
Structure prediction by ZEFSAII (Michael W. Deem and Ramdas Pophale) SiO2 
 PCOD9024861
Probable space group: P -1
;
_chemical_formula_sum "Si O2"
_cell_formula_units_Z 13
_cell_length_a 12.618574
_cell_length_b 18.637905
_cell_length_c 15.378928
_cell_angle_alpha 158.626874
_cell_angle_beta 30.869555
_cell_angle_gamma 158.440342
_cell_volume 483.565514
_symmetry_space_group_name_H-M "P -1"
_symmetry_group_IT_number 2
_symmetry_cell_setting 'triclinic'
loop_
_space_group_symop_operation_xyz
x,y,z
-x,-y,-z
loop_
_atom_site_type_symbol
_atom_site_label
_atom_site_fract_x
_atom_site_fract_y
_atom_site_fract_z
Si Si1 0.684601 0.526237 0.140777
Si Si2 0.261000 0.405987 0.629536
Si Si3 0.604298 0.005399 0.648985
Si Si4 0.823745 0.837573 0.026481
Si Si5 0.500000 0.000000 0.500000
Si Si6 0.332507 0.907343 0.104608
Si Si7 0.730893 0.476601 0.796176
O O1 0.639668 0.586703 0.335986
O O2 0.015310 0.785766 0.176245
O O3 0.620438 0.248965 0.888199
O O4 0.460216 0.450562 0.142743
O O5 0.500000 0.500000 0.500000
O O6 0.923960 0.130823 0.546364
O O7 0.262330 0.641242 0.886164
O O8 0.537014 0.921662 0.703352
O O9 0.396261 0.777896 0.465093
O O10 0.739857 0.984370 0.298338
O O11 0.965647 0.766331 0.908606
O O12 0.000000 0.000000 0.000000
O O13 0.759240 0.352794 0.718425
O O14 0.500000 0.000000 0.000000
O O15 0.500000 0.500000 0.000000
#
# Coordination Sequence:
#
# PCOD9024861 Si02
#       7
#     2   2   2   2   1   2   2
#     4   9  19  40  60  85 134 170 204 277 328 390
#     4   9  19  33  60  90 122 165 208 257 329 401
#     4   9  18  39  61  84 132 171 205 271 332 391
#     4  11  24  42  66  96 128 176 233 266 334 402
#     4  10  22  46  64  86 136 166 220 298 314 378
#     4   9  19  36  60  95 124 168 212 255 341 394
#     4  10  22  40  66  94 122 176 226 266 339 392
#
# _framework density 26.883638000000001
#
# number of rings (size 3 to 8) (size 9 to 14) (size 15 to 20)
#    0.000    2.462    1.538    1.846    0.000    5.538 
#    2.769    7.692    0.000    0.000    0.000    0.000 
#    0.000    0.000    0.000    0.000    0.000    0.000 
#
# Total GULP energy -72396.157065 kJ/mol
# GULP energy per Si atom -5568.935159 kJ/mol
# Density = 2.682245 g / cm^3
# Si number density = 26.883638 Si / 1000 Ang^3
#
#
#
# Elastic Constant Matrix: (Units=GPa)
#
#
# Indices 1 2 3 4 5 6 
#
# 1 100.6960 39.9040 9.4384 -5.4848 16.5952 -18.7577
# 2 39.9040 121.5707 12.4938 -26.1099 11.6158 -33.3289
# 3 9.4384 12.4938 118.5982 3.2768 -18.8513 -7.6676
# 4 -5.4848 -26.1099 3.2768 30.5370 -19.0289 -1.2945
# 5 16.5952 11.6158 -18.8513 -19.0289 55.3931 -4.7456
# 6 -18.7577 -33.3289 -7.6676 -1.2945 -4.7456 45.7162
#
#
#
# Elastic Compliance Matrix: (Units=1/GPa)
#
#
# Indices 1 2 3 4 5 6 
#
# 1 0.012384 -0.003920 -0.001073 -0.003687 -0.004393 0.001483
# 2 -0.003920 0.015300 -0.000424 0.015338 0.003975 0.010322
# 3 -0.001073 -0.000424 0.009252 0.001004 0.004011 0.001247
# 4 -0.003687 0.015338 0.001004 0.057610 0.019173 0.013459
# 5 -0.004393 0.003975 0.004011 0.019173 0.026924 0.005106
# 6 0.001483 0.010322 0.001247 0.013459 0.005106 0.031128
#
#
# Mechanical properties :
#
#
# Convention : Reuss Voigt Hill
#
# Bulk Modulus (GPa) = 38.31258 51.61526 44.96392
# Shear Modulus (GPa) = 29.04705 44.93117 36.98911
#
# Velocity S-wave (km/s) = 3.29062 4.09261 3.71333
# Velocity P-wave (km/s) = 5.35908 6.44778 5.92847
#
# Compressibility (1/GPa) = 0.02610109
#
# Stress axis : x y z
#
# Youngs Moduli (GPa) = 80.74677 65.35899 108.08060
#
# Poissons Ratio (x) = 0.25623 0.11598
# Poissons Ratio (y) = 0.31655 0.04588
# Poissons Ratio (z) = 0.08665 0.02774
#
# Static dielectric constant tensor:
#      x y z
#    x 1.976640 -0.019500 0.149290 
#    y -0.019500 2.406310 -0.116090 
#    z 0.149290 -0.116090 2.208970 
# 
# From -- ./inp_files/374031.got.cif
#   From: 2010.05.17/outbox.cif.g08.bks.cpg/sg2_188_cif.got.tgz:374031.got - 2010.06.03 11:33:40.
