data_PCOD9024902
_publ_section_title
;
Structure prediction by ZEFSAII (Michael W. Deem and Ramdas Pophale) SiO2 
 PCOD9024902
Probable space group: P -1
;
_chemical_formula_sum "Si O2"
_cell_formula_units_Z 14
_cell_length_a 8.892576
_cell_length_b 14.474052
_cell_length_c 8.677915
_cell_angle_alpha 37.669643
_cell_angle_beta 112.477125
_cell_angle_gamma 111.758294
_cell_volume 626.122465
_symmetry_space_group_name_H-M "P -1"
_symmetry_group_IT_number 2
_symmetry_cell_setting 'triclinic'
loop_
_space_group_symop_operation_xyz
x,y,z
-x,-y,-z
loop_
_atom_site_type_symbol
_atom_site_label
_atom_site_fract_x
_atom_site_fract_y
_atom_site_fract_z
Si Si1 0.109791 0.356572 0.744338
Si Si2 0.545798 0.571199 0.088856
Si Si3 0.958484 0.705135 0.643881
Si Si4 0.405111 0.698879 0.326627
Si Si5 0.157663 0.826973 0.266542
Si Si6 0.766215 0.369165 0.966959
Si Si7 0.261032 0.163068 0.813780
O O1 0.256694 0.376192 0.900103
O O2 0.217308 0.307776 0.704346
O O3 0.000000 0.500000 0.500000
O O4 0.970591 0.212994 0.871563
O O5 0.523268 0.446140 0.382306
O O6 0.402494 0.673355 0.945626
O O7 0.500000 0.500000 0.000000
O O8 0.080720 0.732102 0.507502
O O9 0.850076 0.539872 0.819053
O O10 0.830255 0.823732 0.402383
O O11 0.083476 0.724813 0.807979
O O12 0.319335 0.767079 0.347273
O O13 0.282925 0.648106 0.207039
O O14 0.547348 0.818861 0.158382
O O15 0.192417 0.005447 0.073198
#
# Coordination Sequence:
#
# PCOD9024902 Si02
#       7
#     2   2   2   2   2   2   2
#     4  11  22  39  68  97 123 167 218 269 317 379
#     4  12  24  39  65 100 134 164 219 280 328 378
#     4  10  22  40  66  95 130 170 218 270 328 375
#     4  12  22  42  66  95 131 174 220 259 330 389
#     4  11  24  41  70  96 134 176 219 257 326 398
#     4  11  23  39  67  98 130 171 214 280 326 378
#     4  11  23  44  68  93 137 177 210 265 330 390
#
# _framework density 22.359842
#
# number of rings (size 3 to 8) (size 9 to 14) (size 15 to 20)
#    0.000    0.857    4.286    5.143    2.000    1.143 
#    0.000    1.429    6.286    0.000    0.000    0.000 
#    0.000    0.000    0.000    0.000    0.000    0.000 
#
# Total GULP energy -78007.403294 kJ/mol
# GULP energy per Si atom -5571.957378 kJ/mol
# Density = 2.230895 g / cm^3
# Si number density = 22.359842 Si / 1000 Ang^3
#
#
#
# Elastic Constant Matrix: (Units=GPa)
#
#
# Indices 1 2 3 4 5 6 
#
# 1 110.0355 29.1799 1.1763 -8.3732 0.0501 22.7166
# 2 29.1799 83.6328 28.2449 15.5532 9.4823 16.1546
# 3 1.1763 28.2449 31.0261 12.1396 9.3610 15.3756
# 4 -8.3732 15.5532 12.1396 43.3659 9.7142 5.0769
# 5 0.0501 9.4823 9.3610 9.7142 31.7001 5.7525
# 6 22.7166 16.1546 15.3756 5.0769 5.7525 30.2423
#
#
#
# Elastic Compliance Matrix: (Units=1/GPa)
#
#
# Indices 1 2 3 4 5 6 
#
# 1 0.013511 -0.006367 0.010059 0.003514 0.000099 -0.012471
# 2 -0.006367 0.020493 -0.018964 -0.003725 -0.000127 0.004127
# 3 0.010059 -0.018964 0.068155 -0.005173 -0.007479 -0.029786
# 4 0.003514 -0.003725 -0.005173 0.027978 -0.005639 -0.001644
# 5 0.000099 -0.000127 -0.007479 -0.005639 0.035899 -0.002085
# 6 -0.012471 0.004127 -0.029786 -0.001644 -0.002085 0.056045
#
#
# Mechanical properties :
#
#
# Convention : Reuss Voigt Hill
#
# Bulk Modulus (GPa) = 13.96345 37.98851 25.97598
# Shear Modulus (GPa) = 18.08344 32.13455 25.10899
#
# Velocity S-wave (km/s) = 2.84693 3.79509 3.35468
# Velocity P-wave (km/s) = 4.13100 6.01915 5.16214
#
# Compressibility (1/GPa) = 0.07161554
#
# Stress axis : x y z
#
# Youngs Moduli (GPa) = 74.01485 48.79663 14.67244
#
# Poissons Ratio (x) = 0.31070 -0.14760
# Poissons Ratio (y) = 0.47127 0.27825
# Poissons Ratio (z) = -0.74455 0.92538
#
# Static dielectric constant tensor:
#      x y z
#    x 1.915340 0.005800 0.043790 
#    y 0.005800 1.871470 0.027590 
#    z 0.043790 0.027590 1.890830 
# 
# From -- ./inp_files/205407.got.cif
#   From: 2010.05.17/outbox.cif.g08.bks.cpg/sg2_103_cif.got.tgz:205407.got - 2010.06.03 11:33:40.
