data_PCOD9024449
_publ_section_title
;
Structure prediction by ZEFSAII (Michael W. Deem and Ramdas Pophale) SiO2 
 PCOD9024449
Probable space group: P -1
;
_chemical_formula_sum "Si O2"
_cell_formula_units_Z 16
_cell_length_a 9.652056
_cell_length_b 15.768726
_cell_length_c 9.578033
_cell_angle_alpha 37.588718
_cell_angle_beta 97.423741
_cell_angle_gamma 114.887539
_cell_volume 749.677439
_symmetry_space_group_name_H-M "P -1"
_symmetry_group_IT_number 2
_symmetry_cell_setting 'triclinic'
loop_
_space_group_symop_operation_xyz
x,y,z
-x,-y,-z
loop_
_atom_site_type_symbol
_atom_site_label
_atom_site_fract_x
_atom_site_fract_y
_atom_site_fract_z
Si Si1 0.222107 0.739408 0.273193
Si Si2 0.136965 0.391543 0.725197
Si Si3 0.735577 0.076157 0.683058
Si Si4 0.846224 0.015376 0.510330
Si Si5 0.704684 0.658223 0.958121
Si Si6 0.618388 0.676634 0.617658
Si Si7 0.184810 0.153417 0.850922
Si Si8 0.395727 0.013109 0.712534
O O1 0.245896 0.586522 0.465090
O O2 0.217833 0.786295 0.372335
O O3 0.045131 0.673851 0.266257
O O4 0.345665 0.898043 0.992378
O O5 0.148493 0.350154 0.941325
O O6 0.191074 0.285831 0.783276
O O7 0.863592 0.113441 0.525661
O O8 0.561986 0.031659 0.653183
O O9 0.720923 0.927058 0.964886
O O10 0.758325 0.055552 0.323655
O O11 0.716694 0.825701 0.781161
O O12 0.000000 0.000000 0.500000
O O13 0.539520 0.500748 0.197565
O O14 0.702380 0.656902 0.792431
O O15 0.739737 0.756062 0.401737
O O16 0.566763 0.807591 0.476382
O O17 0.000000 0.000000 0.000000
#
# Coordination Sequence:
#
# PCOD9024449 Si02
#       8
#     2   2   2   2   2   2   2   2
#     4  11  24  41  66  96 139 182 223 281 355 402
#     4  11  23  41  63  98 138 177 229 289 332 413
#     4  12  24  41  70 100 133 179 230 282 343 410
#     4  11  25  43  72 100 138 183 234 287 340 415
#     4  10  22  40  64  97 131 177 224 279 346 393
#     4  10  23  41  67  97 137 180 222 287 343 417
#     4  12  24  42  69 103 136 177 241 283 338 413
#     4  11  23  42  66 101 138 181 226 279 353 411
#
# _framework density 21.342513
#
# number of rings (size 3 to 8) (size 9 to 14) (size 15 to 20)
#    0.000    1.000    3.750    2.250    5.250    1.500 
#    0.000    2.500    0.000    6.000    0.000    0.000 
#    0.000    0.000    0.000    0.000    0.000    0.000 
#
# Total GULP energy -89375.581541 kJ/mol
# GULP energy per Si atom -5585.973846 kJ/mol
# Density = 2.129394 g / cm^3
# Si number density = 21.342513 Si / 1000 Ang^3
#
#
#
# Elastic Constant Matrix: (Units=GPa)
#
#
# Indices 1 2 3 4 5 6 
#
# 1 103.0223 47.3768 44.6237 14.5539 8.0809 1.2198
# 2 47.3768 107.0405 46.6138 0.6675 5.2735 -4.9340
# 3 44.6237 46.6138 111.8933 -2.7675 4.5782 -2.4586
# 4 14.5539 0.6675 -2.7675 41.1329 1.4007 9.5408
# 5 8.0809 5.2735 4.5782 1.4007 40.0861 5.4869
# 6 1.2198 -4.9340 -2.4586 9.5408 5.4869 31.2639
#
#
#
# Elastic Compliance Matrix: (Units=1/GPa)
#
#
# Indices 1 2 3 4 5 6 
#
# 1 0.014350 -0.004524 -0.003891 -0.005285 -0.001714 0.000334
# 2 -0.004524 0.012991 -0.003521 0.000749 -0.000673 0.001839
# 3 -0.003891 -0.003521 0.012017 0.002277 -0.000188 -0.000121
# 4 -0.005285 0.000749 0.002277 0.028208 0.000851 -0.008254
# 5 -0.001714 -0.000673 -0.000188 0.000851 0.026041 -0.004884
# 6 0.000334 0.001839 -0.000121 -0.008254 -0.004884 0.035630
#
#
# Mechanical properties :
#
#
# Convention : Reuss Voigt Hill
#
# Bulk Modulus (GPa) = 64.57882 66.57608 65.57745
# Shear Modulus (GPa) = 31.59132 34.71936 33.15534
#
# Velocity S-wave (km/s) = 3.85152 4.03770 3.94571
# Velocity P-wave (km/s) = 7.07834 7.28005 7.17991
#
# Compressibility (1/GPa) = 0.01548495
#
# Stress axis : x y z
#
# Youngs Moduli (GPa) = 69.68831 76.97455 83.21309
#
# Poissons Ratio (x) = 0.34822 0.32381
# Poissons Ratio (y) = 0.31526 0.29303
# Poissons Ratio (z) = 0.27118 0.27106
#
# Static dielectric constant tensor:
#      x y z
#    x 1.801100 0.032870 -0.012780 
#    y 0.032870 1.814450 0.018500 
#    z -0.012780 0.018500 1.782600 
# 
# From -- ./inp_files/205335.got.cif
#   From: 2010.05.17/outbox.cif.g08.bks.cpg/sg2_103_cif.got.tgz:205335.got - 2010.06.03 11:33:40.
