data_PCOD9024291
_publ_section_title
;
Structure prediction by ZEFSAII (Michael W. Deem and Ramdas Pophale) SiO2 
 PCOD9024291
Probable space group: P -1
;
_chemical_formula_sum "Si O2"
_cell_formula_units_Z 14
_cell_length_a 5.279874
_cell_length_b 18.576449
_cell_length_c 5.045071
_cell_angle_alpha 83.939503
_cell_angle_beta 87.384037
_cell_angle_gamma 87.173235
_cell_volume 491.055386
_symmetry_space_group_name_H-M "P -1"
_symmetry_group_IT_number 2
_symmetry_cell_setting 'triclinic'
loop_
_space_group_symop_operation_xyz
x,y,z
-x,-y,-z
loop_
_atom_site_type_symbol
_atom_site_label
_atom_site_fract_x
_atom_site_fract_y
_atom_site_fract_z
Si Si1 0.380078 0.709212 0.733425
Si Si2 0.994341 0.188844 0.440860
Si Si3 0.994848 0.553443 0.226857
Si Si4 0.479359 0.585720 0.412170
Si Si5 0.843956 0.949181 0.336412
Si Si6 0.628757 0.783139 0.184642
Si Si7 0.298923 0.909841 0.910460
O O1 0.433476 0.627346 0.670828
O O2 0.471493 0.751099 0.446728
O O3 0.083541 0.736229 0.736163
O O4 0.545546 0.737584 0.952586
O O5 0.214624 0.122797 0.464474
O O6 0.082813 0.217754 0.717453
O O7 0.791635 0.139453 0.312790
O O8 0.740473 0.601883 0.252624
O O9 0.000000 0.500000 0.500000
O O10 0.239703 0.600006 0.229033
O O11 0.000000 0.500000 0.000000
O O12 0.500000 0.500000 0.500000
O O13 0.639692 0.009509 0.218745
O O14 0.000000 0.000000 0.500000
O O15 0.051540 0.922670 0.111839
O O16 0.513550 0.863520 0.079903
#
# Coordination Sequence:
#
# PCOD9024291 Si02
#       7
#     2   2   2   2   2   2   2
#     4  11  26  44  65  98 136 173 228 282 344 414
#     4  10  22  40  64  90 130 178 220 278 344 404
#     4  10  22  42  71 102 139 177 224 283 351 418
#     4  10  24  47  72 107 142 186 235 296 357 427
#     4   9  17  35  61  89 127 169 216 284 332 398
#     4  11  25  42  67  95 132 178 229 275 345 416
#     4   9  19  38  60  90 131 166 225 280 333 402
#
# _framework density 28.510020000000001
#
# number of rings (size 3 to 8) (size 9 to 14) (size 15 to 20)
#    0.000    2.000    1.429    0.429    4.000    5.143 
#    0.000    6.429    0.000    0.000    0.000    0.000 
#    0.000    0.000    0.000    0.000    0.000    0.000 
#
# Total GULP energy -78133.338640 kJ/mol
# GULP energy per Si atom -5580.952760 kJ/mol
# Density = 2.844513 g / cm^3
# Si number density = 28.510020 Si / 1000 Ang^3
#
#
#
# Elastic Constant Matrix: (Units=GPa)
#
#
# Indices 1 2 3 4 5 6 
#
# 1 159.7398 16.2373 75.0619 9.7710 33.6080 -15.1012
# 2 16.2373 164.7351 47.9021 21.1451 13.6935 -27.2961
# 3 75.0619 47.9021 231.5009 38.4725 27.1029 -11.0451
# 4 9.7710 21.1451 38.4725 63.9796 3.8607 5.6442
# 5 33.6080 13.6935 27.1029 3.8607 63.0541 -11.4089
# 6 -15.1012 -27.2961 -11.0451 5.6442 -11.4089 32.5706
#
#
#
# Elastic Compliance Matrix: (Units=1/GPa)
#
#
# Indices 1 2 3 4 5 6 
#
# 1 0.008142 0.000514 -0.002263 -0.000079 -0.003042 0.002387
# 2 0.000514 0.007795 -0.000996 -0.002651 -0.000138 0.006845
# 3 -0.002263 -0.000996 0.005841 -0.002810 -0.000865 0.000280
# 4 -0.000079 -0.002651 -0.002810 0.018828 -0.000532 -0.006661
# 5 -0.003042 -0.000138 -0.000865 -0.000532 0.018794 0.004856
# 6 0.002387 0.006845 0.000280 -0.006661 0.004856 0.040496
#
#
# Mechanical properties :
#
#
# Convention : Reuss Voigt Hill
#
# Bulk Modulus (GPa) = 61.39660 92.70871 77.05266
# Shear Modulus (GPa) = 45.12004 59.70582 52.41293
#
# Velocity S-wave (km/s) = 3.98251 4.58121 4.29231
# Velocity P-wave (km/s) = 6.53674 7.78279 7.18683
#
# Compressibility (1/GPa) = 0.01628755
#
# Stress axis : x y z
#
# Youngs Moduli (GPa) = 122.82302 128.28270 171.19511
#
# Poissons Ratio (x) = -0.06594 0.38743
# Poissons Ratio (y) = -0.06314 0.17058
# Poissons Ratio (z) = 0.27796 0.12782
#
# Static dielectric constant tensor:
#      x y z
#    x 2.794670 0.095990 -0.194130 
#    y 0.095990 2.280280 -0.069920 
#    z -0.194130 -0.069920 2.316530 
# 
# From -- ./inp_files/8158.got.cif
#   From: 2010.05.17/outbox.cif.g08.bks.cpg/sg2_5_cif.got.tgz:8158.got - 2010.06.03 11:33:40.
