data_PCOD9024398
_publ_section_title
;
Structure prediction by ZEFSAII (Michael W. Deem and Ramdas Pophale) SiO2 
 PCOD9024398
Probable space group: P -1
;
_chemical_formula_sum "Si O2"
_cell_formula_units_Z 12
_cell_length_a 12.338614
_cell_length_b 8.692921
_cell_length_c 7.694743
_cell_angle_alpha 53.414068
_cell_angle_beta 53.261786
_cell_angle_gamma 52.674123
_cell_volume 489.418609
_symmetry_space_group_name_H-M "P -1"
_symmetry_group_IT_number 2
_symmetry_cell_setting 'triclinic'
loop_
_space_group_symop_operation_xyz
x,y,z
-x,-y,-z
loop_
_atom_site_type_symbol
_atom_site_label
_atom_site_fract_x
_atom_site_fract_y
_atom_site_fract_z
Si Si1 0.299838 0.919391 0.691411
Si Si2 0.893534 0.378044 0.650745
Si Si3 0.807665 0.381629 0.127927
Si Si4 0.899713 0.956273 0.864655
Si Si5 0.618328 0.731833 0.563748
Si Si6 0.356959 0.140762 0.938528
O O1 0.272802 0.777993 0.664643
O O2 0.451942 0.765085 0.742109
O O3 0.327773 0.121233 0.467303
O O4 0.167022 0.016336 0.892193
O O5 0.749121 0.510474 0.589949
O O6 0.000000 0.500000 0.500000
O O7 0.953167 0.146535 0.669067
O O8 0.833755 0.368090 0.905891
O O9 0.718103 0.619814 0.091717
O O10 0.967866 0.265921 0.134773
O O11 0.764485 0.960697 0.875976
O O12 0.609616 0.827813 0.315884
O O13 0.500000 0.000000 0.000000
#
# Coordination Sequence:
#
# PCOD9024398 Si02
#       6
#     2   2   2   2   2   2
#     4   9  20  38  67  91 124 159 210 259 313 361
#     4  11  22  39  70  98 121 162 217 261 309 371
#     4  11  23  41  68  90 131 165 208 256 323 370
#     4  10  22  43  64  94 130 164 207 259 317 372
#     4  10  22  40  64  95 130 157 216 262 305 372
#     4  11  26  44  62  89 133 172 205 254 322 375
#
# _framework density 24.518886999999999
#
# number of rings (size 3 to 8) (size 9 to 14) (size 15 to 20)
#    0.000    1.667    0.000    5.500    9.333    2.000 
#    0.000    1.667    0.000    0.000    0.000    0.000 
#    0.000    0.000    0.000    0.000    0.000    0.000 
#
# Total GULP energy -67022.003228 kJ/mol
# GULP energy per Si atom -5585.166936 kJ/mol
# Density = 2.446308 g / cm^3
# Si number density = 24.518887 Si / 1000 Ang^3
#
#
#
# Elastic Constant Matrix: (Units=GPa)
#
#
# Indices 1 2 3 4 5 6 
#
# 1 139.8303 66.1994 24.3529 -17.7377 -20.6459 -24.6152
# 2 66.1994 191.7204 16.1881 -20.7143 -18.0635 -16.1464
# 3 24.3529 16.1881 39.6608 -6.0668 -3.3418 -4.8348
# 4 -17.7377 -20.7143 -6.0668 22.7346 -0.5012 -1.4221
# 5 -20.6459 -18.0635 -3.3418 -0.5012 39.6885 -9.1936
# 6 -24.6152 -16.1464 -4.8348 -1.4221 -9.1936 56.1983
#
#
#
# Elastic Compliance Matrix: (Units=1/GPa)
#
#
# Indices 1 2 3 4 5 6 
#
# 1 0.011396 -0.001870 -0.004082 0.006560 0.006034 0.005256
# 2 -0.001870 0.006790 -0.000486 0.004754 0.002512 0.001621
# 3 -0.004082 -0.000486 0.028647 0.004066 0.000278 0.000685
# 4 0.006560 0.004754 0.004066 0.055163 0.008316 0.007345
# 5 0.006034 0.002512 0.000278 0.008316 0.031639 0.008775
# 6 0.005256 0.001621 0.000685 0.007345 0.008775 0.022242
#
#
# Mechanical properties :
#
#
# Convention : Reuss Voigt Hill
#
# Bulk Modulus (GPa) = 29.44956 64.96582 47.20769
# Shear Modulus (GPa) = 27.76652 41.35571 34.56111
#
# Velocity S-wave (km/s) = 3.36885 4.11139 3.75850
# Velocity P-wave (km/s) = 5.21241 7.00655 6.17499
#
# Compressibility (1/GPa) = 0.03395637
#
# Stress axis : x y z
#
# Youngs Moduli (GPa) = 87.74898 147.28340 34.90714
#
# Poissons Ratio (x) = 0.27549 0.14248
# Poissons Ratio (y) = 0.16413 0.01698
# Poissons Ratio (z) = 0.35815 0.07163
#
# Static dielectric constant tensor:
#      x y z
#    x 2.121450 0.058130 -0.162420 
#    y 0.058130 1.994850 -0.033250 
#    z -0.162420 -0.033250 2.150590 
# 
# From -- ./inp_files/150252.got.cif
#   From: 2010.05.17/outbox.cif.g08.bks.cpg/sg2_76_cif.got.tgz:150252.got - 2010.06.03 11:33:40.
