data_PCOD9024870
_publ_section_title
;
Structure prediction by ZEFSAII (Michael W. Deem and Ramdas Pophale) SiO2 
 PCOD9024870
Probable space group: P -1
;
_chemical_formula_sum "Si O2"
_cell_formula_units_Z 13
_cell_length_a 9.822851
_cell_length_b 18.807400
_cell_length_c 15.318031
_cell_angle_alpha 159.951575
_cell_angle_beta 141.416445
_cell_angle_gamma 40.679044
_cell_volume 601.186623
_symmetry_space_group_name_H-M "P -1"
_symmetry_group_IT_number 2
_symmetry_cell_setting 'triclinic'
loop_
_space_group_symop_operation_xyz
x,y,z
-x,-y,-z
loop_
_atom_site_type_symbol
_atom_site_label
_atom_site_fract_x
_atom_site_fract_y
_atom_site_fract_z
Si Si1 0.005079 0.144743 0.923547
Si Si2 0.351997 0.477822 0.815326
Si Si3 0.412765 0.683363 0.732849
Si Si4 0.500000 0.000000 0.000000
Si Si5 0.363107 0.456436 0.135026
Si Si6 0.067220 0.122124 0.259558
Si Si7 0.988174 0.147333 0.578653
O O1 0.897257 0.035873 0.824873
O O2 0.867788 0.366157 0.099653
O O3 0.991867 0.999991 0.665335
O O4 0.263479 0.139470 0.064066
O O5 0.483541 0.538191 0.865966
O O6 0.273971 0.250105 0.499856
O O7 0.500000 0.500000 0.000000
O O8 0.500000 0.500000 0.500000
O O9 0.502181 0.620112 0.799870
O O10 0.150154 0.723634 0.647616
O O11 0.494472 0.887493 0.965071
O O12 0.232682 0.688695 0.349573
O O13 0.183197 0.294892 0.846569
O O14 0.000000 0.000000 0.000000
O O15 0.000000 0.000000 0.500000
#
# Coordination Sequence:
#
# PCOD9024870 Si02
#       7
#     2   2   2   1   2   2   2
#     4  11  24  43  69  97 133 180 230 280 347 412
#     4  12  27  46  69 100 142 185 229 285 346 412
#     4  11  23  41  66  95 130 171 224 281 339 402
#     4  10  22  40  66  94 126 170 218 276 336 396
#     4  11  25  42  67 102 138 181 234 286 344 416
#     4  11  26  44  66  99 136 177 227 283 344 408
#     4  11  24  43  67  99 138 183 233 285 344 412
#
# _framework density 21.623901
#
# number of rings (size 3 to 8) (size 9 to 14) (size 15 to 20)
#    0.000    0.923    0.000    6.462    0.000   17.231 
#    0.000    0.000    0.000    0.000    0.000    0.000 
#    0.000    0.000    0.000    0.000    0.000    0.000 
#
# Total GULP energy -72490.430687 kJ/mol
# GULP energy per Si atom -5576.186976 kJ/mol
# Density = 2.157468 g / cm^3
# Si number density = 21.623901 Si / 1000 Ang^3
#
#
#
# Elastic Constant Matrix: (Units=GPa)
#
#
# Indices 1 2 3 4 5 6 
#
# 1 133.4695 33.3259 49.1550 1.8792 10.9203 28.9518
# 2 33.3259 98.8446 22.0194 12.6916 20.5898 31.6501
# 3 49.1550 22.0194 101.4861 -1.3401 7.7519 16.3851
# 4 1.8792 12.6916 -1.3401 25.9068 1.5657 -4.9130
# 5 10.9203 20.5898 7.7519 1.5657 38.7399 -6.9467
# 6 28.9518 31.6501 16.3851 -4.9130 -6.9467 47.6397
#
#
#
# Elastic Compliance Matrix: (Units=1/GPa)
#
#
# Indices 1 2 3 4 5 6 
#
# 1 0.010443 0.000078 -0.003940 -0.001890 -0.003142 -0.005696
# 2 0.000078 0.019436 -0.000924 -0.011794 -0.012503 -0.015682
# 3 -0.003940 -0.000924 0.012266 0.001204 -0.001126 -0.001250
# 4 -0.001890 -0.011794 0.001204 0.046881 0.007259 0.014463
# 5 -0.003142 -0.012503 -0.001126 0.007259 0.036259 0.016639
# 6 -0.005696 -0.015682 -0.001250 0.014463 0.016639 0.039219
#
#
# Mechanical properties :
#
#
# Convention : Reuss Voigt Hill
#
# Bulk Modulus (GPa) = 30.69992 60.31122 45.50557
# Shear Modulus (GPa) = 27.03643 37.74394 32.39018
#
# Velocity S-wave (km/s) = 3.53980 4.18242 3.87445
# Velocity P-wave (km/s) = 5.56192 7.16066 6.41132
#
# Compressibility (1/GPa) = 0.03257337
#
# Stress axis : x y z
#
# Youngs Moduli (GPa) = 95.75422 51.44981 81.52400
#
# Poissons Ratio (x) = -0.00400 0.32124
# Poissons Ratio (y) = -0.00745 0.07530
# Poissons Ratio (z) = 0.37732 0.04752
#
# Static dielectric constant tensor:
#      x y z
#    x 1.708960 -0.032750 0.030040 
#    y -0.032750 1.772690 -0.000610 
#    z 0.030040 -0.000610 1.849720 
# 
# From -- ./inp_files/117144.got.cif
#   From: 2010.05.17/outbox.cif.g08.bks.cpg/sg2_59_cif.got.tgz:117144.got - 2010.06.03 11:33:40.
