data_PCOD9024428
_publ_section_title
;
Structure prediction by ZEFSAII (Michael W. Deem and Ramdas Pophale) SiO2 
 PCOD9024428
Probable space group: P -1
;
_chemical_formula_sum "Si O2"
_cell_formula_units_Z 14
_cell_length_a 7.381563
_cell_length_b 15.278187
_cell_length_c 8.433514
_cell_angle_alpha 102.748970
_cell_angle_beta 98.138471
_cell_angle_gamma 137.493190
_cell_volume 556.001384
_symmetry_space_group_name_H-M "P -1"
_symmetry_group_IT_number 2
_symmetry_cell_setting 'triclinic'
loop_
_space_group_symop_operation_xyz
x,y,z
-x,-y,-z
loop_
_atom_site_type_symbol
_atom_site_label
_atom_site_fract_x
_atom_site_fract_y
_atom_site_fract_z
Si Si1 0.286313 0.543279 0.133031
Si Si2 0.627007 0.052800 0.213147
Si Si3 0.097181 0.588501 0.390564
Si Si4 0.073917 0.769527 0.148015
Si Si5 0.660494 0.867173 0.719729
Si Si6 0.267334 0.195020 0.959982
Si Si7 0.857283 0.694107 0.426464
O O1 0.065719 0.518350 0.200434
O O2 0.493715 0.681947 0.094146
O O3 0.514126 0.584161 0.303277
O O4 0.109542 0.392893 0.966913
O O5 0.500031 0.098569 0.275884
O O6 0.978390 0.195460 0.359540
O O7 0.428321 0.898577 0.210903
O O8 0.500000 0.000000 0.000000
O O9 0.460120 0.744306 0.510682
O O10 0.000000 0.500000 0.500000
O O11 0.914740 0.609966 0.391856
O O12 0.917409 0.784158 0.024829
O O13 0.036624 0.793428 0.329597
O O14 0.618414 0.799830 0.856350
O O15 0.014406 0.024437 0.803334
#
# Coordination Sequence:
#
# PCOD9024428 Si02
#       7
#     2   2   2   2   2   2   2
#     4  11  25  42  72  98 130 184 217 271 336 399
#     4  10  22  40  64  96 131 177 222 265 331 395
#     4  11  27  42  61  97 139 171 222 273 330 392
#     4  10  22  40  67  99 132 172 220 272 334 391
#     4   9  21  40  63  91 134 171 212 286 315 386
#     4   9  19  41  66  94 127 168 228 266 329 392
#     4  10  23  45  66  95 132 173 221 277 321 391
#
# _framework density 25.179796
#
# number of rings (size 3 to 8) (size 9 to 14) (size 15 to 20)
#    0.000    2.000    0.000    2.143    8.000    7.429 
#    0.000    0.000    0.000    0.000    0.000    0.000 
#    0.000    0.000    0.000    0.000    0.000    0.000 
#
# Total GULP energy -78266.053918 kJ/mol
# GULP energy per Si atom -5590.432423 kJ/mol
# Density = 2.512249 g / cm^3
# Si number density = 25.179796 Si / 1000 Ang^3
#
#
#
# Elastic Constant Matrix: (Units=GPa)
#
#
# Indices 1 2 3 4 5 6 
#
# 1 91.9401 42.4621 27.3118 14.3164 23.6171 -2.4479
# 2 42.4621 102.4903 25.9897 -4.0743 -3.0356 -20.1763
# 3 27.3118 25.9897 123.5979 24.6491 1.1270 -2.1046
# 4 14.3164 -4.0743 24.6491 25.5526 1.1669 -2.1000
# 5 23.6171 -3.0356 1.1270 1.1669 43.8500 -6.6223
# 6 -2.4479 -20.1763 -2.1046 -2.1000 -6.6223 24.6945
#
#
#
# Elastic Compliance Matrix: (Units=1/GPa)
#
#
# Indices 1 2 3 4 5 6 
#
# 1 0.022935 -0.013650 0.000978 -0.016453 -0.015033 -0.014226
# 2 -0.013650 0.021616 -0.004617 0.016698 0.011611 0.020448
# 3 0.000978 -0.004617 0.011266 -0.012428 -0.001433 -0.004156
# 4 -0.016453 0.016698 -0.012428 0.064079 0.011577 0.019507
# 5 -0.015033 0.011611 -0.001433 0.011577 0.034155 0.018018
# 6 -0.014226 0.020448 -0.004156 0.019507 0.018018 0.061928
#
#
# Mechanical properties :
#
#
# Convention : Reuss Voigt Hill
#
# Bulk Modulus (GPa) = 47.08072 56.61727 51.84899
# Shear Modulus (GPa) = 19.40715 33.63706 26.52210
#
# Velocity S-wave (km/s) = 2.77924 3.65893 3.24899
# Velocity P-wave (km/s) = 5.38863 6.35487 5.89159
#
# Compressibility (1/GPa) = 0.02124012
#
# Stress axis : x y z
#
# Youngs Moduli (GPa) = 43.60132 46.26154 88.76048
#
# Poissons Ratio (x) = 0.63147 -0.08683
# Poissons Ratio (y) = 0.59516 0.40980
# Poissons Ratio (z) = -0.04265 0.21359
#
# Static dielectric constant tensor:
#      x y z
#    x 2.012530 0.008570 0.059840 
#    y 0.008570 2.031470 -0.003150 
#    z 0.059840 -0.003150 2.133700 
# 
# From -- ./inp_files/213081.got.cif
#   From: 2010.05.17/outbox.cif.g08.bks.cpg/sg2_107_cif.got.tgz:213081.got - 2010.06.03 11:33:40.
