data_PCOD9024990
_publ_section_title
;
Structure prediction by ZEFSAII (Michael W. Deem and Ramdas Pophale) SiO2 
 PCOD9024990
Probable space group: P -1
;
_chemical_formula_sum "Si O2"
_cell_formula_units_Z 15
_cell_length_a 5.757575
_cell_length_b 21.221639
_cell_length_c 4.977102
_cell_angle_alpha 100.212205
_cell_angle_beta 89.557086
_cell_angle_gamma 90.082266
_cell_volume 598.476163
_symmetry_space_group_name_H-M "P -1"
_symmetry_group_IT_number 2
_symmetry_cell_setting 'triclinic'
loop_
_space_group_symop_operation_xyz
x,y,z
-x,-y,-z
loop_
_atom_site_type_symbol
_atom_site_label
_atom_site_fract_x
_atom_site_fract_y
_atom_site_fract_z
Si Si1 0.806925 0.552397 0.064180
Si Si2 0.310990 0.950987 0.849922
Si Si3 0.079455 0.073667 0.751660
Si Si4 0.518688 0.382521 0.262715
Si Si5 0.096107 0.681218 0.134146
Si Si6 0.302791 0.137515 0.305455
Si Si7 0.500000 0.500000 0.500000
Si Si8 0.146207 0.276490 0.331491
O O1 0.676331 0.538665 0.325635
O O2 0.924333 0.620685 0.087799
O O3 0.613956 0.553784 0.824831
O O4 0.000000 0.500000 0.000000
O O5 0.446949 0.893746 0.661092
O O6 0.166576 0.999798 0.701815
O O7 0.161874 0.926552 0.084771
O O8 0.500000 0.000000 0.000000
O O9 0.119696 0.106383 0.490459
O O10 0.240487 0.114241 0.988470
O O11 0.682019 0.429195 0.466177
O O12 0.337020 0.333419 0.354881
O O13 0.660257 0.343707 0.005296
O O14 0.065281 0.708675 0.451363
O O15 0.977892 0.729675 0.960209
O O16 0.279415 0.213150 0.371678
#
# Coordination Sequence:
#
# PCOD9024990 Si02
#       8
#     2   2   2   2   2   2   1   2
#     4  11  24  39  63  96 124 157 206 268 328 394
#     4   9  21  40  67 100 134 167 211 268 320 374
#     4  10  22  40  66  99 131 169 213 264 323 376
#     4  11  26  41  65  94 127 166 215 266 330 386
#     4  11  25  44  65  89 128 168 212 269 320 382
#     4  11  23  41  64  93 131 174 219 262 315 379
#     4  12  22  40  68  94 122 164 210 266 338 388
#     4  11  26  44  63  92 128 174 221 264 313 382
#
# _framework density 25.063654
#
# number of rings (size 3 to 8) (size 9 to 14) (size 15 to 20)
#    0.000    1.333    2.667    1.600    1.867    9.600 
#    0.000    0.000    0.000    0.000    0.000    0.000 
#    0.000    0.000    0.000    0.000    0.000    0.000 
#
# Total GULP energy -83782.714938 kJ/mol
# GULP energy per Si atom -5585.514329 kJ/mol
# Density = 2.500661 g / cm^3
# Si number density = 25.063654 Si / 1000 Ang^3
#
#
#
# Elastic Constant Matrix: (Units=GPa)
#
#
# Indices 1 2 3 4 5 6 
#
# 1 76.9853 39.0519 22.6952 -6.2184 -21.5521 -13.3777
# 2 39.0519 176.7777 41.2086 -8.6770 -28.8762 -12.2967
# 3 22.6952 41.2086 111.9330 -18.1489 -26.0944 -10.8283
# 4 -6.2184 -8.6770 -18.1489 32.3331 -1.3810 -5.7083
# 5 -21.5521 -28.8762 -26.0944 -1.3810 42.9511 4.2490
# 6 -13.3777 -12.2967 -10.8283 -5.7083 4.2490 23.8006
#
#
#
# Elastic Compliance Matrix: (Units=1/GPa)
#
#
# Indices 1 2 3 4 5 6 
#
# 1 0.017878 -0.002003 0.000506 0.005114 0.007187 0.009187
# 2 -0.002003 0.007023 -0.001116 0.001313 0.002903 0.001791
# 3 0.000506 -0.001116 0.012839 0.008418 0.006948 0.006328
# 4 0.005114 0.001313 0.008418 0.040083 0.008317 0.015511
# 5 0.007187 0.002903 0.006948 0.008317 0.032851 0.004831
# 6 0.009187 0.001791 0.006328 0.015511 0.004831 0.053841
#
#
# Mechanical properties :
#
#
# Convention : Reuss Voigt Hill
#
# Bulk Modulus (GPa) = 30.75710 63.51191 47.13451
# Shear Modulus (GPa) = 27.68844 37.33300 32.51072
#
# Velocity S-wave (km/s) = 3.32735 3.86363 3.60547
# Velocity P-wave (km/s) = 5.20191 6.73043 6.01492
#
# Compressibility (1/GPa) = 0.03251281
#
# Stress axis : x y z
#
# Youngs Moduli (GPa) = 55.93445 142.39215 77.88618
#
# Poissons Ratio (x) = 0.28526 -0.03941
# Poissons Ratio (y) = 0.11206 0.08695
# Poissons Ratio (z) = -0.02830 0.15896
#
# Static dielectric constant tensor:
#      x y z
#    x 2.119350 -0.106410 0.129210 
#    y -0.106410 2.049710 0.110870 
#    z 0.129210 0.110870 2.216390 
# 
# From -- ./inp_files/9292.got.cif
#   From: 2010.05.17/outbox.cif.g08.bks.cpg/sg2_5_cif.got.tgz:9292.got - 2010.06.03 11:33:40.
