data_PCOD9024836
_publ_section_title
;
Structure prediction by ZEFSAII (Michael W. Deem and Ramdas Pophale) SiO2 
 PCOD9024836
Probable space group: P -1
;
_chemical_formula_sum "Si O2"
_cell_formula_units_Z 16
_cell_length_a 7.682239
_cell_length_b 5.174959
_cell_length_c 20.964209
_cell_angle_alpha 102.859979
_cell_angle_beta 61.537814
_cell_angle_gamma 116.227531
_cell_volume 657.191760
_symmetry_space_group_name_H-M "P -1"
_symmetry_group_IT_number 2
_symmetry_cell_setting 'triclinic'
loop_
_space_group_symop_operation_xyz
x,y,z
-x,-y,-z
loop_
_atom_site_type_symbol
_atom_site_label
_atom_site_fract_x
_atom_site_fract_y
_atom_site_fract_z
Si Si1 0.717039 0.106648 0.535622
Si Si2 0.873167 0.469068 0.860244
Si Si3 0.829851 0.607383 0.455149
Si Si4 0.630428 0.861803 0.304694
Si Si5 0.681078 0.981545 0.161410
Si Si6 0.890624 0.524769 0.296281
Si Si7 0.564400 0.874343 0.045668
Si Si8 0.000943 0.233471 0.943847
O O1 0.731352 0.277043 0.476780
O O2 0.555113 0.165340 0.614848
O O3 0.948831 0.249087 0.536725
O O4 0.683281 0.777842 0.511461
O O5 0.633041 0.429967 0.920868
O O6 0.919288 0.250862 0.887646
O O7 0.895574 0.389570 0.778824
O O8 0.085212 0.761181 0.851124
O O9 0.889794 0.652391 0.373015
O O10 0.565941 0.876735 0.242896
O O11 0.726936 0.621685 0.288382
O O12 0.808661 0.182661 0.302074
O O13 0.569287 0.041994 0.121558
O O14 0.758680 0.739996 0.107397
O O15 0.500000 0.000000 0.000000
O O16 0.817314 0.952493 0.992075
O O17 0.000000 0.500000 0.000000
#
# Coordination Sequence:
#
# PCOD9024836 Si02
#       8
#     2   2   2   2   2   2   2   2
#     4  10  22  41  63  98 128 177 215 261 330 387
#     4  10  23  42  61  93 132 165 223 267 336 393
#     4  10  22  40  66  92 136 168 217 272 315 385
#     4  11  24  40  68  93 132 173 215 264 340 387
#     4  11  23  43  64  92 134 172 209 286 329 392
#     4  11  23  42  64  96 131 171 215 276 321 390
#     4  10  23  40  66  94 119 172 221 264 333 400
#     4  11  21  42  66  89 129 169 213 274 330 390
#
# _framework density 24.346018000000001
#
# number of rings (size 3 to 8) (size 9 to 14) (size 15 to 20)
#    0.000    1.500    2.500    1.875    1.750    3.500 
#    4.500    0.000    2.750    0.000    0.000    0.000 
#    0.000    0.000    0.000    0.000    0.000    0.000 
#
# Total GULP energy -89297.917100 kJ/mol
# GULP energy per Si atom -5581.119819 kJ/mol
# Density = 2.429061 g / cm^3
# Si number density = 24.346018 Si / 1000 Ang^3
#
#
#
# Elastic Constant Matrix: (Units=GPa)
#
#
# Indices 1 2 3 4 5 6 
#
# 1 81.3013 4.7598 33.6522 -7.1983 10.9378 10.7481
# 2 4.7598 78.9105 18.7627 -8.0750 -3.8884 -1.8260
# 3 33.6522 18.7627 184.5499 -9.5844 15.6839 -5.2605
# 4 -7.1983 -8.0750 -9.5844 33.7699 2.6322 0.5449
# 5 10.9378 -3.8884 15.6839 2.6322 52.5276 2.5722
# 6 10.7481 -1.8260 -5.2605 0.5449 2.5722 26.7109
#
#
#
# Elastic Compliance Matrix: (Units=1/GPa)
#
#
# Indices 1 2 3 4 5 6 
#
# 1 0.014709 -0.000272 -0.002514 0.002626 -0.002157 -0.006278
# 2 -0.000272 0.013337 -0.001257 0.002666 0.001257 0.000598
# 3 -0.002514 -0.001257 0.006260 0.001028 -0.001602 0.002292
# 4 0.002626 0.002666 0.001028 0.031288 -0.002170 -0.001101
# 5 -0.002157 0.001257 -0.001602 -0.002170 0.020229 -0.001266
# 6 -0.006278 0.000598 0.002292 -0.001101 -0.001266 0.040601
#
#
# Mechanical properties :
#
#
# Convention : Reuss Voigt Hill
#
# Bulk Modulus (GPa) = 38.14149 51.01236 44.57692
# Shear Modulus (GPa) = 34.90406 41.77415 38.33911
#
# Velocity S-wave (km/s) = 3.79049 4.14678 3.97263
# Velocity P-wave (km/s) = 5.90402 6.62769 6.27629
#
# Compressibility (1/GPa) = 0.02621817
#
# Stress axis : x y z
#
# Youngs Moduli (GPa) = 67.98555 74.98142 159.75189
#
# Poissons Ratio (x) = 0.02042 0.40158
# Poissons Ratio (y) = 0.01852 0.20089
# Poissons Ratio (z) = 0.17090 0.09429
#
# Static dielectric constant tensor:
#      x y z
#    x 2.069020 0.008540 0.032650 
#    y 0.008540 1.989490 0.033890 
#    z 0.032650 0.033890 1.945880 
# 
# From -- ./inp_files/585322.got.cif
#   From: 2010.05.17/outbox.cif.g08.bks.cpg/sg2_293_cif.got.tgz:585322.got - 2010.06.03 11:33:40.
