data_PCOD9024051
_publ_section_title
;
Structure prediction by ZEFSAII (Michael W. Deem and Ramdas Pophale) SiO2 
 PCOD9024051
Probable space group: P -1
;
_chemical_formula_sum "Si O2"
_cell_formula_units_Z 14
_cell_length_a 29.294004
_cell_length_b 16.189243
_cell_length_c 15.150811
_cell_angle_alpha 18.347400
_cell_angle_beta 161.142053
_cell_angle_gamma 160.200026
_cell_volume 663.672593
_symmetry_space_group_name_H-M "P -1"
_symmetry_group_IT_number 2
_symmetry_cell_setting 'triclinic'
loop_
_space_group_symop_operation_xyz
x,y,z
-x,-y,-z
loop_
_atom_site_type_symbol
_atom_site_label
_atom_site_fract_x
_atom_site_fract_y
_atom_site_fract_z
Si Si1 0.450098 0.216920 0.635779
Si Si2 0.735580 0.628708 0.401932
Si Si3 0.182615 0.283132 0.723596
Si Si4 0.431801 0.779379 0.342143
Si Si5 0.099520 0.833418 0.318595
Si Si6 0.235540 0.808046 0.406804
Si Si7 0.859962 0.222510 0.114607
O O1 0.500000 0.500000 0.500000
O O2 0.537789 0.310750 0.607081
O O3 0.268805 0.023131 0.478605
O O4 0.500000 0.000000 0.000000
O O5 0.704961 0.564565 0.307982
O O6 0.600677 0.455480 0.400566
O O7 0.794429 0.966655 0.183109
O O8 0.866998 0.518457 0.784719
O O9 0.204374 0.496081 0.628827
O O10 0.011394 0.216541 0.440594
O O11 0.206097 0.003177 0.079999
O O12 0.587161 0.048882 0.381098
O O13 0.278394 0.841412 0.002085
O O14 0.131754 0.819696 0.287484
O O15 0.000000 0.500000 0.500000
O O16 0.000000 0.000000 0.000000
#
# Coordination Sequence:
#
# PCOD9024051 Si02
#       7
#     2   2   2   2   2   2   2
#     4  11  25  43  69  97 126 165 219 273 317 386
#     4  10  22  40  66  88 130 168 210 254 314 370
#     4  12  23  40  65  96 127 166 217 253 306 377
#     4   9  26  42  64  89 134 163 206 258 329 363
#     4  11  24  47  67  93 134 172 208 268 335 381
#     4  11  26  41  63  96 130 163 208 265 313 375
#     4  10  22  40  63  88 126 169 212 253 310 363
#
# _framework density 21.094739000000001
#
# number of rings (size 3 to 8) (size 9 to 14) (size 15 to 20)
#    0.857    0.571    0.000    4.286    4.000    6.857 
#    0.000    0.000    0.000    0.000    0.000    0.000 
#    0.000    0.000    0.000    0.000    0.000    0.000 
#
# Total GULP energy -78141.788575 kJ/mol
# GULP energy per Si atom -5581.556327 kJ/mol
# Density = 2.104673 g / cm^3
# Si number density = 21.094739 Si / 1000 Ang^3
#
#
#
# Elastic Constant Matrix: (Units=GPa)
#
#
# Indices 1 2 3 4 5 6 
#
# 1 140.2122 42.6025 24.0851 5.5732 8.3423 5.9202
# 2 42.6025 69.8126 11.6946 -18.7665 13.1522 -11.6700
# 3 24.0851 11.6946 64.9285 -11.6836 11.3313 7.7999
# 4 5.5732 -18.7665 -11.6836 35.4699 -2.7465 2.4883
# 5 8.3423 13.1522 11.3313 -2.7465 29.2004 -4.5138
# 6 5.9202 -11.6700 7.7999 2.4883 -4.5138 31.7184
#
#
#
# Elastic Compliance Matrix: (Units=1/GPa)
#
#
# Indices 1 2 3 4 5 6 
#
# 1 0.010731 -0.008664 -0.003414 -0.007065 0.000930 -0.003664
# 2 -0.008664 0.026062 0.001294 0.014416 -0.007057 0.008753
# 3 -0.003414 0.001294 0.019723 0.007523 -0.007385 -0.005378
# 4 -0.007065 0.014416 0.007523 0.039050 -0.003535 0.001206
# 5 0.000930 -0.007057 -0.007385 -0.003535 0.040478 0.005084
# 6 -0.003664 0.008753 -0.005378 0.001206 0.005084 0.037383
#
#
# Mechanical properties :
#
#
# Convention : Reuss Voigt Hill
#
# Bulk Modulus (GPa) = 28.61292 47.96866 38.29079
# Shear Modulus (GPa) = 24.19611 32.38247 28.28929
#
# Velocity S-wave (km/s) = 3.39044 3.92228 3.66602
# Velocity P-wave (km/s) = 5.37776 6.58038 6.00923
#
# Compressibility (1/GPa) = 0.03494925
#
# Stress axis : x y z
#
# Youngs Moduli (GPa) = 93.18741 38.37002 50.70097
#
# Poissons Ratio (x) = 0.33243 0.17308
# Poissons Ratio (y) = 0.80735 -0.06559
# Poissons Ratio (z) = 0.31811 -0.04964
#
# Static dielectric constant tensor:
#      x y z
#    x 1.795080 0.015670 0.002340 
#    y 0.015670 1.647770 -0.000130 
#    z 0.002340 -0.000130 1.728340 
# 
# From -- ./inp_files/545040.got.cif
#   From: 2010.05.17/outbox.cif.g08.bks.cpg/sg2_273_cif.got.tgz:545040.got - 2010.06.03 11:33:40.
