data_PCOD9024916
_publ_section_title
;
Structure prediction by ZEFSAII (Michael W. Deem and Ramdas Pophale) SiO2 
 PCOD9024916
Probable space group: P -1
;
_chemical_formula_sum "Si O2"
_cell_formula_units_Z 14
_cell_length_a 9.063203
_cell_length_b 5.063095
_cell_length_c 14.664926
_cell_angle_alpha 51.711755
_cell_angle_beta 94.237456
_cell_angle_gamma 98.619624
_cell_volume 522.072543
_symmetry_space_group_name_H-M "P -1"
_symmetry_group_IT_number 2
_symmetry_cell_setting 'triclinic'
loop_
_space_group_symop_operation_xyz
x,y,z
-x,-y,-z
loop_
_atom_site_type_symbol
_atom_site_label
_atom_site_fract_x
_atom_site_fract_y
_atom_site_fract_z
Si Si1 0.177005 0.580231 0.773140
Si Si2 0.390227 0.253269 0.406625
Si Si3 0.966871 0.379844 0.420049
Si Si4 0.755380 0.172953 0.659256
Si Si5 0.401082 0.901528 0.160331
Si Si6 0.285833 0.870864 0.896056
Si Si7 0.100804 0.696152 0.077301
O O1 0.270367 0.830535 0.794844
O O2 0.170820 0.642969 0.651275
O O3 0.009542 0.570761 0.811040
O O4 0.239967 0.222797 0.854909
O O5 0.322156 0.481232 0.430918
O O6 0.455769 0.549815 0.275295
O O7 0.500000 0.000000 0.500000
O O8 0.259590 0.031588 0.390476
O O9 0.087573 0.682635 0.319943
O O10 0.000000 0.500000 0.500000
O O11 0.000000 0.000000 0.500000
O O12 0.658722 0.958394 0.777785
O O13 0.255972 0.810177 0.112225
O O14 0.540732 0.130696 0.074852
O O15 0.164699 0.603222 0.000696
O O16 0.000000 0.000000 0.000000
#
# Coordination Sequence:
#
# PCOD9024916 Si02
#       7
#     2   2   2   2   2   2   2
#     4  11  24  47  66 101 142 178 232 286 344 417
#     4  10  22  40  66  95 138 184 225 271 354 408
#     4  12  25  43  68  99 133 186 231 284 338 416
#     4  10  23  43  64  97 136 182 225 282 341 397
#     4  10  24  43  71 101 144 176 234 289 347 411
#     4  11  25  42  71 105 132 181 229 292 343 409
#     4  10  22  49  73 101 137 189 232 287 355 417
#
# _framework density 26.816199000000001
#
# number of rings (size 3 to 8) (size 9 to 14) (size 15 to 20)
#    0.857    0.571    1.429    3.000    2.000    4.571 
#    5.143    3.571    0.000    0.000    0.000    0.000 
#    0.000    0.000    0.000    0.000    0.000    0.000 
#
# Total GULP energy -78150.454378 kJ/mol
# GULP energy per Si atom -5582.175313 kJ/mol
# Density = 2.675516 g / cm^3
# Si number density = 26.816199 Si / 1000 Ang^3
#
#
#
# Elastic Constant Matrix: (Units=GPa)
#
#
# Indices 1 2 3 4 5 6 
#
# 1 102.1679 45.2687 33.6948 0.4129 -5.2329 13.5280
# 2 45.2687 147.9782 20.6646 14.1804 -8.3453 -10.4267
# 3 33.6948 20.6646 84.3534 12.8889 16.3197 -12.0941
# 4 0.4129 14.1804 12.8889 48.7005 -9.3518 5.8452
# 5 -5.2329 -8.3453 16.3197 -9.3518 46.6543 1.9181
# 6 13.5280 -10.4267 -12.0941 5.8452 1.9181 46.8844
#
#
#
# Elastic Compliance Matrix: (Units=1/GPa)
#
#
# Indices 1 2 3 4 5 6 
#
# 1 0.015973 -0.004550 -0.008388 0.005483 0.005368 -0.008688
# 2 -0.004550 0.008614 0.000731 -0.003122 -0.000007 0.003807
# 3 -0.008388 0.000731 0.019436 -0.008216 -0.009626 0.009015
# 4 0.005483 -0.003122 -0.008216 0.026165 0.008504 -0.008006
# 5 0.005368 -0.000007 -0.009626 0.008504 0.027362 -0.006213
# 6 -0.008688 0.003807 0.009015 -0.008006 -0.006213 0.028260
#
#
# Mechanical properties :
#
#
# Convention : Reuss Voigt Hill
#
# Bulk Modulus (GPa) = 50.99029 59.30621 55.14825
# Shear Modulus (GPa) = 31.89574 44.10593 38.00084
#
# Velocity S-wave (km/s) = 3.45254 4.05995 3.76850
# Velocity P-wave (km/s) = 5.91180 6.64390 6.28851
#
# Compressibility (1/GPa) = 0.01961158
#
# Stress axis : x y z
#
# Youngs Moduli (GPa) = 62.60519 116.08392 51.44969
#
# Poissons Ratio (x) = 0.52817 0.43154
# Poissons Ratio (y) = 0.28485 -0.03763
# Poissons Ratio (z) = 0.52511 -0.08490
#
# Static dielectric constant tensor:
#      x y z
#    x 2.378350 0.076710 0.307380 
#    y 0.076710 2.044730 0.158080 
#    z 0.307380 0.158080 3.729890 
# 
# From -- ./inp_files/553185.got.cif
#   From: 2010.05.17/outbox.cif.g08.bks.cpg/sg2_277_cif.got.tgz:553185.got - 2010.06.03 11:33:40.
