data_PCOD9024998
_publ_section_title
;
Structure prediction by ZEFSAII (Michael W. Deem and Ramdas Pophale) SiO2 
 PCOD9024998
Probable space group: P -1
;
_chemical_formula_sum "Si O2"
_cell_formula_units_Z 16
_cell_length_a 10.286568
_cell_length_b 23.606184
_cell_length_c 6.520003
_cell_angle_alpha 51.601571
_cell_angle_beta 57.818894
_cell_angle_gamma 34.373101
_cell_volume 699.815839
_symmetry_space_group_name_H-M "P -1"
_symmetry_group_IT_number 2
_symmetry_cell_setting 'triclinic'
loop_
_space_group_symop_operation_xyz
x,y,z
-x,-y,-z
loop_
_atom_site_type_symbol
_atom_site_label
_atom_site_fract_x
_atom_site_fract_y
_atom_site_fract_z
Si Si1 0.976309 0.688799 0.344411
Si Si2 0.122881 0.895858 0.495207
Si Si3 0.703952 0.845518 0.866344
Si Si4 0.503949 0.286928 0.691845
Si Si5 0.229428 0.031097 0.686222
Si Si6 0.325333 0.494630 0.175114
Si Si7 0.868384 0.213415 0.890289
Si Si8 0.075135 0.354695 0.095563
O O1 0.129045 0.587454 0.292319
O O2 0.132519 0.699871 0.274833
O O3 0.770373 0.799989 0.141817
O O4 0.889273 0.667727 0.644124
O O5 0.369093 0.808152 0.370391
O O6 0.952505 0.952092 0.318531
O O7 0.133679 0.823534 0.802777
O O8 0.000000 0.000000 0.500000
O O9 0.712426 0.926937 0.623099
O O10 0.455757 0.911391 0.839138
O O11 0.891995 0.737881 0.814230
O O12 0.448174 0.380595 0.410107
O O13 0.671135 0.250325 0.823760
O O14 0.270501 0.333836 0.869828
O O15 0.106593 0.109848 0.807650
O O16 0.181386 0.530881 0.006373
O O17 0.500000 0.500000 0.000000
#
# Coordination Sequence:
#
# PCOD9024998 Si02
#       8
#     2   2   2   2   2   2   2   2
#     4  11  23  43  71 105 131 185 236 277 347 416
#     4  11  26  44  71 100 140 187 236 277 349 418
#     4  10  22  40  66  99 141 178 228 294 336 400
#     4  11  27  46  68 102 146 182 223 296 345 403
#     4  10  22  41  66  99 137 181 233 290 338 394
#     4  11  25  46  76 101 137 180 230 293 343 411
#     4  11  23  41  69 100 139 179 238 280 334 421
#     4  11  25  44  69 102 145 176 234 282 351 411
#
# _framework density 22.863156
#
# number of rings (size 3 to 8) (size 9 to 14) (size 15 to 20)
#    0.000    1.250    2.500    1.875    7.000    8.000 
#    0.000    0.000    0.000    0.000    0.000    0.000 
#    0.000    0.000    0.000    0.000    0.000    0.000 
#
# Total GULP energy -89428.016534 kJ/mol
# GULP energy per Si atom -5589.251033 kJ/mol
# Density = 2.281112 g / cm^3
# Si number density = 22.863156 Si / 1000 Ang^3
#
#
#
# Elastic Constant Matrix: (Units=GPa)
#
#
# Indices 1 2 3 4 5 6 
#
# 1 51.8164 23.2728 37.8626 -8.1403 7.6156 -14.0724
# 2 23.2728 72.8568 46.7396 -8.7513 3.0725 -9.9270
# 3 37.8626 46.7396 175.5298 -2.4385 -3.6881 -22.1505
# 4 -8.1403 -8.7513 -2.4385 23.5299 2.2060 4.2353
# 5 7.6156 3.0725 -3.6881 2.2060 38.2891 -3.8675
# 6 -14.0724 -9.9270 -22.1505 4.2353 -3.8675 41.2801
#
#
#
# Elastic Compliance Matrix: (Units=1/GPa)
#
#
# Indices 1 2 3 4 5 6 
#
# 1 0.027557 -0.004374 -0.004182 0.007110 -0.005452 0.004858
# 2 -0.004374 0.018270 -0.003852 0.004960 -0.001232 0.000211
# 3 -0.004182 -0.003852 0.007939 -0.002705 0.002304 0.002401
# 4 0.007110 0.004960 -0.002705 0.047581 -0.005137 -0.003198
# 5 -0.005452 -0.001232 0.002304 -0.005137 0.028044 0.002236
# 6 0.004858 0.000211 0.002401 -0.003198 0.002236 0.027758
#
#
# Mechanical properties :
#
#
# Convention : Reuss Voigt Hill
#
# Bulk Modulus (GPa) = 34.54192 57.32810 45.93501
# Shear Modulus (GPa) = 26.09414 33.44169 29.76792
#
# Velocity S-wave (km/s) = 3.38201 3.82866 3.61224
# Velocity P-wave (km/s) = 5.51285 6.68384 6.12639
#
# Compressibility (1/GPa) = 0.02895033
#
# Stress axis : x y z
#
# Youngs Moduli (GPa) = 36.28850 54.73380 125.96571
#
# Poissons Ratio (x) = 0.23939 0.52683
# Poissons Ratio (y) = 0.15871 0.48520
# Poissons Ratio (z) = 0.15177 0.21082
#
# Static dielectric constant tensor:
#      x y z
#    x 1.892070 -0.005710 -0.007440 
#    y -0.005710 1.869470 0.006790 
#    z -0.007440 0.006790 1.852480 
# 
# From -- ./inp_files/47955.got.cif
#   From: 2010.05.17/outbox.cif.g08.bks.cpg/sg2_24_cif.got.tgz:47955.got - 2010.06.03 11:33:40.
