data_PCOD9024753
_publ_section_title
;
Structure prediction by ZEFSAII (Michael W. Deem and Ramdas Pophale) SiO2 
 PCOD9024753
Probable space group: P -1
;
_chemical_formula_sum "Si O2"
_cell_formula_units_Z 13
_cell_length_a 15.049431
_cell_length_b 12.139658
_cell_length_c 9.432007
_cell_angle_alpha 120.602601
_cell_angle_beta 49.732983
_cell_angle_gamma 150.186717
_cell_volume 647.608724
_symmetry_space_group_name_H-M "P -1"
_symmetry_group_IT_number 2
_symmetry_cell_setting 'triclinic'
loop_
_space_group_symop_operation_xyz
x,y,z
-x,-y,-z
loop_
_atom_site_type_symbol
_atom_site_label
_atom_site_fract_x
_atom_site_fract_y
_atom_site_fract_z
Si Si1 0.133363 0.302536 0.361209
Si Si2 0.982346 0.350224 0.003207
Si Si3 0.439631 0.168099 0.966251
Si Si4 0.683914 0.506955 0.416631
Si Si5 0.500000 0.500000 0.000000
Si Si6 0.886224 0.500559 0.712722
Si Si7 0.691094 0.822425 0.598435
O O1 0.258136 0.483727 0.478567
O O2 0.267931 0.304308 0.174373
O O3 0.083846 0.341309 0.300539
O O4 0.920264 0.071562 0.499656
O O5 0.026003 0.412846 0.163978
O O6 0.760914 0.088977 0.038476
O O7 0.000000 0.500000 0.000000
O O8 0.152271 0.406930 0.801730
O O9 0.642058 0.263406 0.820479
O O10 0.490080 0.334483 0.922804
O O11 0.402473 0.195769 0.178027
O O12 0.693255 0.670458 0.513518
O O13 0.457447 0.274627 0.442208
O O14 0.000000 0.500000 0.500000
#
# Coordination Sequence:
#
# PCOD9024753 Si02
#       7
#     2   2   2   2   1   2   2
#     4  11  22  40  67  93 140 172 216 279 332 390
#     4  12  26  44  72  99 131 183 232 272 331 405
#     4  11  23  45  71  99 137 175 223 280 337 400
#     4  11  22  40  67 103 132 171 230 269 330 401
#     4  10  22  40  66 102 142 172 206 278 352 386
#     4  11  27  46  63  99 137 176 225 281 340 395
#     4  11  22  39  71 102 130 178 222 279 331 399
#
# _framework density 20.07385
#
# number of rings (size 3 to 8) (size 9 to 14) (size 15 to 20)
#    0.000    0.923    4.615    2.308    0.000    4.923 
#    0.000    3.077    0.000    0.000    0.000    0.000 
#    0.000    0.000    0.000    0.000    0.000    0.000 
#
# Total GULP energy -72367.392268 kJ/mol
# GULP energy per Si atom -5566.722482 kJ/mol
# Density = 2.002816 g / cm^3
# Si number density = 20.073850 Si / 1000 Ang^3
#
#
#
# Elastic Constant Matrix: (Units=GPa)
#
#
# Indices 1 2 3 4 5 6 
#
# 1 103.8368 51.0412 63.3291 15.0829 12.2672 17.8614
# 2 51.0412 95.0547 36.3638 -4.8667 -3.3065 21.9671
# 3 63.3291 36.3638 177.0433 -2.5170 -19.9918 23.8179
# 4 15.0829 -4.8667 -2.5170 29.4868 8.5109 1.0870
# 5 12.2672 -3.3065 -19.9918 8.5109 49.6395 -4.5885
# 6 17.8614 21.9671 23.8179 1.0870 -4.5885 29.7138
#
#
#
# Elastic Compliance Matrix: (Units=1/GPa)
#
#
# Indices 1 2 3 4 5 6 
#
# 1 0.020286 -0.009034 -0.006107 -0.010500 -0.006387 -0.001223
# 2 -0.009034 0.017291 0.001094 0.007350 0.001805 -0.008220
# 3 -0.006107 0.001094 0.008595 0.002950 0.004216 -0.003484
# 4 -0.010500 0.007350 0.002950 0.041808 -0.003221 -0.003513
# 5 -0.006387 0.001805 0.004216 -0.003221 0.024372 0.003007
# 6 -0.001223 -0.008220 -0.003484 -0.003513 0.003007 0.043852
#
#
# Mechanical properties :
#
#
# Convention : Reuss Voigt Hill
#
# Bulk Modulus (GPa) = 55.31385 75.26698 65.29041
# Shear Modulus (GPa) = 26.27111 36.78137 31.52624
#
# Velocity S-wave (km/s) = 3.62155 4.28518 3.96727
# Velocity P-wave (km/s) = 6.71584 7.87783 7.31993
#
# Compressibility (1/GPa) = 0.01807866
#
# Stress axis : x y z
#
# Youngs Moduli (GPa) = 49.29620 57.83261 116.35005
#
# Poissons Ratio (x) = 0.52244 0.71052
# Poissons Ratio (y) = 0.44533 -0.12729
# Poissons Ratio (z) = 0.30104 -0.06327
#
# Static dielectric constant tensor:
#      x y z
#    x 1.723420 0.007450 -0.029040 
#    y 0.007450 1.689640 -0.027470 
#    z -0.029040 -0.027470 1.819000 
# 
# From -- ./inp_files/168177.got.cif
#   From: 2010.05.17/outbox.cif.g08.bks.cpg/sg2_85_cif.got.tgz:168177.got - 2010.06.03 11:33:40.
