data_PCOD9024690
_publ_section_title
;
Structure prediction by ZEFSAII (Michael W. Deem and Ramdas Pophale) SiO2 
 PCOD9024690
Probable space group: P -1
;
_chemical_formula_sum "Si O2"
_cell_formula_units_Z 14
_cell_length_a 19.913913
_cell_length_b 6.480446
_cell_length_c 6.176403
_cell_angle_alpha 72.442927
_cell_angle_beta 56.601722
_cell_angle_gamma 61.212539
_cell_volume 582.476080
_symmetry_space_group_name_H-M "P -1"
_symmetry_group_IT_number 2
_symmetry_cell_setting 'triclinic'
loop_
_space_group_symop_operation_xyz
x,y,z
-x,-y,-z
loop_
_atom_site_type_symbol
_atom_site_label
_atom_site_fract_x
_atom_site_fract_y
_atom_site_fract_z
Si Si1 0.637991 0.765168 0.355300
Si Si2 0.495677 0.829281 0.252468
Si Si3 0.763740 0.908132 0.822390
Si Si4 0.102009 0.373458 0.675261
Si Si5 0.186752 0.892099 0.950618
Si Si6 0.060300 0.724178 0.004338
Si Si7 0.351785 0.695501 0.414127
O O1 0.586634 0.721742 0.252503
O O2 0.652793 0.551558 0.560509
O O3 0.575055 0.004680 0.503225
O O4 0.722946 0.794290 0.109451
O O5 0.451326 0.657934 0.299268
O O6 0.500000 0.000000 0.000000
O O7 0.830416 0.713196 0.612063
O O8 0.686256 0.097169 0.758880
O O9 0.809396 0.056697 0.820703
O O10 0.004731 0.399677 0.770011
O O11 0.136845 0.147581 0.846687
O O12 0.097225 0.598168 0.749806
O O13 0.283572 0.783414 0.707945
O O14 0.136027 0.729643 0.024536
O O15 0.000000 0.000000 0.000000
#
# Coordination Sequence:
#
# PCOD9024690 Si02
#       7
#     2   2   2   2   2   2   2
#     4  11  25  43  68  95 138 179 225 284 336 401
#     4  11  23  45  67  96 135 178 231 280 334 406
#     4  11  23  44  67 105 135 179 230 279 340 406
#     4   9  21  42  68  95 138 175 227 282 331 398
#     4  10  22  40  65  98 139 171 226 281 335 405
#     4   9  19  42  67  97 136 179 221 282 332 401
#     4  11  24  43  66  99 135 179 224 280 341 401
#
# _framework density 24.035322000000001
#
# number of rings (size 3 to 8) (size 9 to 14) (size 15 to 20)
#    0.000    1.714    2.857    0.429    2.000    2.286 
#    7.714    6.429    0.000    0.000    0.000    0.000 
#    0.000    0.000    0.000    0.000    0.000    0.000 
#
# Total GULP energy -78326.696650 kJ/mol
# GULP energy per Si atom -5594.764046 kJ/mol
# Density = 2.398062 g / cm^3
# Si number density = 24.035322 Si / 1000 Ang^3
#
#
#
# Elastic Constant Matrix: (Units=GPa)
#
#
# Indices 1 2 3 4 5 6 
#
# 1 123.3185 26.8962 32.5232 5.7082 -10.4021 33.1062
# 2 26.8962 94.6773 11.0969 4.1966 0.5894 21.0850
# 3 32.5232 11.0969 43.8725 1.3340 -2.5534 12.0874
# 4 5.7082 4.1966 1.3340 37.8540 2.8475 6.0338
# 5 -10.4021 0.5894 -2.5534 2.8475 23.3730 0.0510
# 6 33.1062 21.0850 12.0874 6.0338 0.0510 32.4636
#
#
#
# Elastic Compliance Matrix: (Units=1/GPa)
#
#
# Indices 1 2 3 4 5 6 
#
# 1 0.013269 -0.000662 -0.006415 -0.000403 0.005293 -0.010646
# 2 -0.000662 0.012426 -0.000730 -0.000069 -0.000664 -0.007111
# 3 -0.006415 -0.000730 0.028780 0.000624 0.000240 -0.003816
# 4 -0.000403 -0.000069 0.000624 0.027501 -0.003449 -0.004883
# 5 0.005293 -0.000664 0.000240 -0.003449 0.045613 -0.004487
# 6 -0.010646 -0.007111 -0.003816 -0.004883 -0.004487 0.048615
#
#
# Mechanical properties :
#
#
# Convention : Reuss Voigt Hill
#
# Bulk Modulus (GPa) = 25.73269 44.76675 35.24972
# Shear Modulus (GPa) = 24.41742 31.49491 27.95616
#
# Velocity S-wave (km/s) = 3.19077 3.62382 3.41417
# Velocity P-wave (km/s) = 4.92992 6.01458 5.49906
#
# Compressibility (1/GPa) = 0.03886107
#
# Stress axis : x y z
#
# Youngs Moduli (GPa) = 75.36617 80.47350 34.74634
#
# Poissons Ratio (x) = 0.05324 0.22291
# Poissons Ratio (y) = 0.04986 0.02537
# Poissons Ratio (z) = 0.48349 0.05876
#
# Static dielectric constant tensor:
#      x y z
#    x 1.952320 0.014120 0.008300 
#    y 0.014120 1.933630 -0.014920 
#    z 0.008300 -0.014920 1.880360 
# 
# From -- ./inp_files/10644.got.cif
#   From: 2010.05.17/outbox.cif.g08.bks.cpg/sg2_6_cif.got.tgz:10644.got - 2010.06.03 11:33:40.
