data_PCOD9024984
_publ_section_title
;
Structure prediction by ZEFSAII (Michael W. Deem and Ramdas Pophale) SiO2 
 PCOD9024984
Probable space group: P -1
;
_chemical_formula_sum "Si O2"
_cell_formula_units_Z 16
_cell_length_a 9.944641
_cell_length_b 11.347053
_cell_length_c 12.345357
_cell_angle_alpha 125.138674
_cell_angle_beta 144.191112
_cell_angle_gamma 55.848196
_cell_volume 653.365571
_symmetry_space_group_name_H-M "P -1"
_symmetry_group_IT_number 2
_symmetry_cell_setting 'triclinic'
loop_
_space_group_symop_operation_xyz
x,y,z
-x,-y,-z
loop_
_atom_site_type_symbol
_atom_site_label
_atom_site_fract_x
_atom_site_fract_y
_atom_site_fract_z
Si Si1 0.736552 0.821873 0.001413
Si Si2 0.632587 0.342392 0.047599
Si Si3 0.453116 0.059254 0.797649
Si Si4 0.136307 0.833004 0.446070
Si Si5 0.310517 0.658988 0.668387
Si Si6 0.878518 0.219820 0.929300
Si Si7 0.475236 0.327861 0.552326
Si Si8 0.712610 0.941655 0.688207
O O1 0.894606 0.747122 0.964241
O O2 0.915871 0.834296 0.222953
O O3 0.548360 0.723751 0.853050
O O4 0.596986 0.979536 0.951348
O O5 0.745289 0.347516 0.243447
O O6 0.500000 0.500000 0.000000
O O7 0.449098 0.231768 0.881602
O O8 0.816264 0.270435 0.037101
O O9 0.223317 0.988142 0.596077
O O10 0.613954 0.997207 0.768938
O O11 0.134367 0.759915 0.524372
O O12 0.360403 0.732930 0.474942
O O13 0.361655 0.496977 0.566363
O O14 0.655540 0.297602 0.754949
O O15 0.899132 0.042158 0.835685
O O16 0.279628 0.230633 0.395295
O O17 0.500000 0.000000 0.500000
#
# Coordination Sequence:
#
# PCOD9024984 Si02
#       8
#     2   2   2   2   2   2   2   2
#     4  10  22  40  66  99 122 155 218 277 304 353
#     4  11  22  40  62  93 131 172 206 244 320 400
#     4   9  20  39  65  92 121 168 212 254 316 371
#     4   9  20  38  63  95 120 161 215 269 308 355
#     4  11  22  38  64  95 127 171 203 250 328 380
#     4   9  18  35  61  94 123 163 208 258 313 367
#     4   9  16  33  58  91 123 155 207 257 306 365
#     4   8  15  29  56  88 118 154 206 251 296 356
#
# _framework density 24.488586000000002
#
# number of rings (size 3 to 8) (size 9 to 14) (size 15 to 20)
#    0.000    2.500    1.250    1.125    0.000    6.000 
#    0.000    2.500    2.750   10.500    0.000    0.000 
#    0.000    0.000    0.000    0.000    0.000    0.000 
#
# Total GULP energy -89470.141274 kJ/mol
# GULP energy per Si atom -5591.883830 kJ/mol
# Density = 2.443285 g / cm^3
# Si number density = 24.488586 Si / 1000 Ang^3
#
#
#
# Elastic Constant Matrix: (Units=GPa)
#
#
# Indices 1 2 3 4 5 6 
#
# 1 107.4858 31.1517 49.0729 -12.7734 -17.3890 12.4472
# 2 31.1517 181.4948 93.1100 5.7975 7.1621 21.6913
# 3 49.0729 93.1100 112.1648 -14.4744 -13.6216 -0.3635
# 4 -12.7734 5.7975 -14.4744 61.6775 6.5470 -3.2398
# 5 -17.3890 7.1621 -13.6216 6.5470 46.9320 -11.5335
# 6 12.4472 21.6913 -0.3635 -3.2398 -11.5335 26.6431
#
#
#
# Elastic Compliance Matrix: (Units=1/GPa)
#
#
# Indices 1 2 3 4 5 6 
#
# 1 0.013263 0.003155 -0.008478 0.000014 -0.000237 -0.008982
# 2 0.003155 0.017161 -0.017689 -0.005044 -0.011063 -0.021090
# 3 -0.008478 -0.017689 0.029918 0.006828 0.013547 0.025465
# 4 0.000014 -0.005044 0.006828 0.018466 0.001973 0.007293
# 5 -0.000237 -0.011063 0.013547 0.001973 0.032351 0.023547
# 6 -0.008982 -0.021090 0.025465 0.007293 0.023547 0.070327
#
#
# Mechanical properties :
#
#
# Convention : Reuss Voigt Hill
#
# Bulk Modulus (GPa) = 69.84187 83.09051 76.46619
# Shear Modulus (GPa) = 21.52547 42.23790 31.88169
#
# Velocity S-wave (km/s) = 2.96801 4.15758 3.61210
# Velocity P-wave (km/s) = 6.35040 7.55323 6.97778
#
# Compressibility (1/GPa) = 0.01431806
#
# Stress axis : x y z
#
# Youngs Moduli (GPa) = 75.39661 58.27069 33.42519
#
# Poissons Ratio (x) = -0.18386 0.28338
# Poissons Ratio (y) = -0.23790 0.59126
# Poissons Ratio (z) = 0.63922 1.03076
#
# Static dielectric constant tensor:
#      x y z
#    x 1.955640 -0.030390 -0.001620 
#    y -0.030390 1.939730 -0.004960 
#    z -0.001620 -0.004960 1.930630 
# 
# From -- ./inp_files/391091.got.cif
#   From: 2010.05.17/outbox.cif.g08.bks.cpg/sg2_196_cif.got.tgz:391091.got - 2010.06.03 11:33:40.
