data_PCOD9024111
_publ_section_title
;
Structure prediction by ZEFSAII (Michael W. Deem and Ramdas Pophale) SiO2 
 PCOD9024111
Probable space group: P -1
;
_chemical_formula_sum "Si O2"
_cell_formula_units_Z 14
_cell_length_a 13.367948
_cell_length_b 9.803917
_cell_length_c 10.105701
_cell_angle_alpha 50.856406
_cell_angle_beta 36.043397
_cell_angle_gamma 47.314726
_cell_volume 562.184477
_symmetry_space_group_name_H-M "P -1"
_symmetry_group_IT_number 2
_symmetry_cell_setting 'triclinic'
loop_
_space_group_symop_operation_xyz
x,y,z
-x,-y,-z
loop_
_atom_site_type_symbol
_atom_site_label
_atom_site_fract_x
_atom_site_fract_y
_atom_site_fract_z
Si Si1 0.131745 0.281440 0.976890
Si Si2 0.491450 0.349218 0.490201
Si Si3 0.291351 0.335970 0.173071
Si Si4 0.776046 0.969676 0.715604
Si Si5 0.001786 0.793457 0.346660
Si Si6 0.121010 0.744681 0.965754
Si Si7 0.351115 0.640513 0.234275
O O1 0.344146 0.259410 0.746716
O O2 0.043739 0.220558 0.981335
O O3 0.000000 0.500000 0.000000
O O4 0.125418 0.166871 0.185155
O O5 0.500000 0.500000 0.500000
O O6 0.406762 0.460276 0.378477
O O7 0.701971 0.225572 0.304801
O O8 0.201238 0.518859 0.062641
O O9 0.143192 0.309832 0.445331
O O10 0.345657 0.142938 0.146671
O O11 0.471099 0.349813 0.034482
O O12 0.702463 0.180304 0.718163
O O13 0.910063 0.949407 0.460674
O O14 0.052667 0.842643 0.119391
O O15 0.187530 0.663814 0.297608
#
# Coordination Sequence:
#
# PCOD9024111 Si02
#       7
#     2   2   2   2   2   2   2
#     4  12  20  40  63  89 124 158 202 256 297 355
#     4  11  23  37  66  95 117 159 205 253 304 352
#     4   9  20  34  61  90 117 154 204 251 300 342
#     4  10  22  40  63  93 119 162 205 247 304 359
#     4  10  23  37  59  93 122 161 201 249 303 358
#     4  11  22  39  60  92 125 156 206 250 303 359
#     4  11  21  40  62  91 124 158 206 249 296 369
#
# _framework density 24.902856
#
# number of rings (size 3 to 8) (size 9 to 14) (size 15 to 20)
#    0.857    0.571    2.857    3.857    0.000    3.429 
#    0.000    0.714    0.000    1.714    0.000    0.000 
#    0.000    0.000    0.000    0.000    0.000    0.000 
#
# Total GULP energy -78310.031317 kJ/mol
# GULP energy per Si atom -5593.573665 kJ/mol
# Density = 2.484618 g / cm^3
# Si number density = 24.902856 Si / 1000 Ang^3
#
#
#
# Elastic Constant Matrix: (Units=GPa)
#
#
# Indices 1 2 3 4 5 6 
#
# 1 156.5467 16.3424 81.4449 8.0195 -1.7877 -2.2639
# 2 16.3424 64.7100 51.5320 3.8075 5.7584 10.0631
# 3 81.4449 51.5320 172.6444 26.6441 -5.3882 7.1721
# 4 8.0195 3.8075 26.6441 37.3154 5.4204 7.7350
# 5 -1.7877 5.7584 -5.3882 5.4204 45.6093 -6.6462
# 6 -2.2639 10.0631 7.1721 7.7350 -6.6462 43.4136
#
#
#
# Elastic Compliance Matrix: (Units=1/GPa)
#
#
# Indices 1 2 3 4 5 6 
#
# 1 0.008649 0.001490 -0.004772 0.001348 -0.000489 0.000579
# 2 0.001490 0.022598 -0.008168 0.005099 -0.005169 -0.005511
# 3 -0.004772 -0.008168 0.011640 -0.007246 0.003302 0.001518
# 4 0.001348 0.005099 -0.007246 0.033522 -0.006432 -0.006872
# 5 -0.000489 -0.005169 0.003302 -0.006432 0.024519 0.005527
# 6 0.000579 -0.005511 0.001518 -0.006872 0.005527 0.026162
#
#
# Mechanical properties :
#
#
# Convention : Reuss Voigt Hill
#
# Bulk Modulus (GPa) = 50.03027 76.94884 63.48956
# Shear Modulus (GPa) = 31.91820 41.57311 36.74566
#
# Velocity S-wave (km/s) = 3.58398 4.09028 3.84547
# Velocity P-wave (km/s) = 6.10412 7.29889 6.72808
#
# Compressibility (1/GPa) = 0.01998790
#
# Stress axis : x y z
#
# Youngs Moduli (GPa) = 115.62261 44.25080 85.91243
#
# Poissons Ratio (x) = -0.06594 0.40999
# Poissons Ratio (y) = -0.17231 0.70170
# Poissons Ratio (z) = 0.55177 0.36142
#
# Static dielectric constant tensor:
#      x y z
#    x 1.904460 0.016290 -0.008280 
#    y 0.016290 2.040470 0.032190 
#    z -0.008280 0.032190 2.005550 
# 
# From -- ./inp_files/449703.got.cif
#   From: 2010.05.17/outbox.cif.g08.bks.cpg/sg2_225_cif.got.tgz:449703.got - 2010.06.03 11:33:40.
