data_PCOD9024547
_publ_section_title
;
Structure prediction by ZEFSAII (Michael W. Deem and Ramdas Pophale) SiO2 
 PCOD9024547
Probable space group: P -1
;
_chemical_formula_sum "Si O2"
_cell_formula_units_Z 16
_cell_length_a 12.147368
_cell_length_b 18.365903
_cell_length_c 21.077415
_cell_angle_alpha 19.540315
_cell_angle_beta 141.009494
_cell_angle_gamma 149.833077
_cell_volume 770.411382
_symmetry_space_group_name_H-M "P -1"
_symmetry_group_IT_number 2
_symmetry_cell_setting 'triclinic'
loop_
_space_group_symop_operation_xyz
x,y,z
-x,-y,-z
loop_
_atom_site_type_symbol
_atom_site_label
_atom_site_fract_x
_atom_site_fract_y
_atom_site_fract_z
Si Si1 0.052427 0.853469 0.193595
Si Si2 0.745551 0.137859 0.315856
Si Si3 0.298519 0.615251 0.484757
Si Si4 0.472537 0.363746 0.032033
Si Si5 0.232371 0.041099 0.739606
Si Si6 0.747107 0.766611 0.720094
Si Si7 0.486397 0.400250 0.671996
Si Si8 0.228216 0.548939 0.126051
O O1 0.178015 0.746216 0.305871
O O2 0.831603 0.585856 0.348075
O O3 0.225250 0.077537 0.140485
O O4 0.000000 0.000000 0.000000
O O5 0.644082 0.294339 0.158227
O O6 0.981062 0.326878 0.228920
O O7 0.554143 0.868126 0.410355
O O8 0.767649 0.011915 0.492604
O O9 0.301779 0.434477 0.581466
O O10 0.500000 0.500000 0.000000
O O11 0.539229 0.578893 0.828203
O O12 0.374309 0.148222 0.779750
O O13 0.327865 0.311543 0.517988
O O14 0.972942 0.890990 0.757743
O O15 0.252982 0.821987 0.896391
O O16 0.738849 0.578463 0.815194
O O17 0.592926 0.377287 0.800628
#
# Coordination Sequence:
#
# PCOD9024547 Si02
#       8
#     2   2   2   2   2   2   2   2
#     4  10  23  43  65  92 120 165 224 262 315 380
#     4  11  22  42  70  97 131 168 215 271 325 385
#     4  10  22  40  65  91 126 167 208 268 314 372
#     4  11  27  45  65  96 131 170 224 276 320 381
#     4  11  25  39  61  99 134 171 206 257 331 388
#     4  12  23  40  69  95 130 173 218 264 324 385
#     4  11  24  42  62  96 141 166 206 263 328 396
#     4  12  23  40  71 100 130 172 217 261 324 403
#
# _framework density 20.768125000000001
#
# number of rings (size 3 to 8) (size 9 to 14) (size 15 to 20)
#    0.000    1.000    3.750    2.625    5.250    0.500 
#    2.250    0.000    0.000    0.000    0.000    0.000 
#    0.000    0.000    0.000    0.000    0.000    0.000 
#
# Total GULP energy -89496.029243 kJ/mol
# GULP energy per Si atom -5593.501828 kJ/mol
# Density = 2.072086 g / cm^3
# Si number density = 20.768125 Si / 1000 Ang^3
#
#
#
# Elastic Constant Matrix: (Units=GPa)
#
#
# Indices 1 2 3 4 5 6 
#
# 1 73.4567 23.0725 13.6272 -4.1148 0.7940 -11.5718
# 2 23.0725 81.8840 33.6153 1.4427 -7.6555 -4.5465
# 3 13.6272 33.6153 86.9646 9.6176 -0.2925 -7.2576
# 4 -4.1148 1.4427 9.6176 25.3974 3.1892 -0.5144
# 5 0.7940 -7.6555 -0.2925 3.1892 22.9873 2.2552
# 6 -11.5718 -4.5465 -7.2576 -0.5144 2.2552 18.6195
#
#
#
# Elastic Compliance Matrix: (Units=1/GPa)
#
#
# Indices 1 2 3 4 5 6 
#
# 1 0.016882 -0.004378 -0.000578 0.003844 -0.003536 0.009732
# 2 -0.004378 0.016219 -0.005678 -0.000227 0.005675 -0.001667
# 3 -0.000578 -0.005678 0.014675 -0.005075 -0.001373 0.004000
# 4 0.003844 -0.000227 -0.005075 0.042787 -0.006436 0.002317
# 5 -0.003536 0.005675 -0.001373 -0.006436 0.047099 -0.007230
# 6 0.009732 -0.001667 0.004000 0.002317 -0.007230 0.061848
#
#
# Mechanical properties :
#
#
# Convention : Reuss Voigt Hill
#
# Bulk Modulus (GPa) = 37.72414 42.54837 40.13626
# Shear Modulus (GPa) = 21.77568 24.86687 23.32127
#
# Velocity S-wave (km/s) = 3.24159 3.46404 3.35466
# Velocity P-wave (km/s) = 5.67577 6.04411 5.86283
#
# Compressibility (1/GPa) = 0.02650822
#
# Stress axis : x y z
#
# Youngs Moduli (GPa) = 59.23315 61.65619 68.14367
#
# Poissons Ratio (x) = 0.26991 0.03939
# Poissons Ratio (y) = 0.25930 0.38694
# Poissons Ratio (z) = 0.03424 0.35010
#
# Static dielectric constant tensor:
#      x y z
#    x 1.720750 0.015890 -0.014480 
#    y 0.015890 1.736280 -0.005820 
#    z -0.014480 -0.005820 1.755320 
# 
# From -- ./inp_files/398248.got.cif
#   From: 2010.05.17/outbox.cif.g08.bks.cpg/sg2_200_cif.got.tgz:398248.got - 2010.06.03 11:33:40.
