data_PCOD9024256
_publ_section_title
;
Structure prediction by ZEFSAII (Michael W. Deem and Ramdas Pophale) SiO2 
 PCOD9024256
Probable space group: P -1
;
_chemical_formula_sum "Si O2"
_cell_formula_units_Z 16
_cell_length_a 9.159623
_cell_length_b 6.519635
_cell_length_c 17.575717
_cell_angle_alpha 101.275634
_cell_angle_beta 61.909574
_cell_angle_gamma 123.338876
_cell_volume 770.709824
_symmetry_space_group_name_H-M "P -1"
_symmetry_group_IT_number 2
_symmetry_cell_setting 'triclinic'
loop_
_space_group_symop_operation_xyz
x,y,z
-x,-y,-z
loop_
_atom_site_type_symbol
_atom_site_label
_atom_site_fract_x
_atom_site_fract_y
_atom_site_fract_z
Si Si1 0.546047 0.910238 0.860611
Si Si2 0.925382 0.263237 0.554512
Si Si3 0.200862 0.262395 0.125850
Si Si4 0.666646 0.703773 0.532705
Si Si5 0.737673 0.381085 0.747829
Si Si6 0.534898 0.490525 0.269121
Si Si7 0.922166 0.731492 0.119999
Si Si8 0.226916 0.584049 0.016035
O O1 0.670371 0.831347 0.874212
O O2 0.490645 0.742583 0.787216
O O3 0.651909 0.178275 0.819970
O O4 0.367447 0.838111 0.955160
O O5 0.843550 0.310446 0.654938
O O6 0.000000 0.500000 0.500000
O O7 0.125171 0.273269 0.525377
O O8 0.753898 0.003026 0.539353
O O9 0.133717 0.361053 0.220504
O O10 0.300535 0.481528 0.056430
O O11 0.035430 0.023516 0.106570
O O12 0.500000 0.500000 0.500000
O O13 0.569609 0.592697 0.630572
O O14 0.568760 0.397852 0.746976
O O15 0.767199 0.668424 0.220626
O O16 0.055294 0.615207 0.093163
O O17 0.828695 0.608111 0.053306
#
# Coordination Sequence:
#
# PCOD9024256 Si02
#       8
#     2   2   2   2   2   2   2   2
#     4  10  22  40  64  87 127 173 218 269 323 400
#     4  11  24  47  73 101 142 177 226 285 348 416
#     4  11  23  37  62  95 126 168 224 272 326 400
#     4  11  25  44  74 106 138 178 227 287 346 418
#     4  11  23  42  66  92 129 177 216 269 344 398
#     4  10  22  43  63  93 129 172 216 272 333 401
#     4  10  23  39  61  89 133 166 220 274 328 389
#     4  10  22  41  61  89 127 177 217 270 335 382
#
# _framework density 20.760083000000002
#
# number of rings (size 3 to 8) (size 9 to 14) (size 15 to 20)
#    0.000    1.500    2.500    1.500    0.000   11.500 
#    2.250    0.000    0.000    0.000    0.000    0.000 
#    0.000    0.000    0.000    0.000    0.000    0.000 
#
# Total GULP energy -89133.521185 kJ/mol
# GULP energy per Si atom -5570.845074 kJ/mol
# Density = 2.071283 g / cm^3
# Si number density = 20.760083 Si / 1000 Ang^3
#
#
#
# Elastic Constant Matrix: (Units=GPa)
#
#
# Indices 1 2 3 4 5 6 
#
# 1 49.4504 33.2956 52.5956 -1.6190 5.9117 -2.1587
# 2 33.2956 119.2478 69.9959 1.4818 10.6733 2.8956
# 3 52.5956 69.9959 117.1367 -8.9660 -9.1020 4.4822
# 4 -1.6190 1.4818 -8.9660 39.8860 -4.0551 10.9425
# 5 5.9117 10.6733 -9.1020 -4.0551 37.7763 0.1388
# 6 -2.1587 2.8956 4.4822 10.9425 0.1388 27.5442
#
#
#
# Elastic Compliance Matrix: (Units=1/GPa)
#
#
# Indices 1 2 3 4 5 6 
#
# 1 0.046834 0.002694 -0.024851 -0.008272 -0.015006 0.010793
# 2 0.002694 0.014844 -0.011100 -0.004335 -0.007763 0.002218
# 3 -0.024851 -0.011100 0.028621 0.009963 0.015025 -0.009472
# 4 -0.008272 -0.004335 0.009963 0.031987 0.008407 -0.014564
# 5 -0.015006 -0.007763 0.015025 0.008407 0.035559 -0.006324
# 6 0.010793 0.002218 -0.009472 -0.014564 -0.006324 0.044277
#
#
# Mechanical properties :
#
#
# Convention : Reuss Voigt Hill
#
# Bulk Modulus (GPa) = 42.04243 66.40100 54.22172
# Shear Modulus (GPa) = 18.07904 29.70449 23.89177
#
# Velocity S-wave (km/s) = 2.95423 3.78676 3.39610
# Velocity P-wave (km/s) = 5.65085 7.15358 6.44616
#
# Compressibility (1/GPa) = 0.02378549
#
# Stress axis : x y z
#
# Youngs Moduli (GPa) = 21.35189 67.36822 34.93971
#
# Poissons Ratio (x) = -0.18150 0.86829
# Poissons Ratio (y) = -0.05752 0.38782
# Poissons Ratio (z) = 0.53062 0.74776
#
# Static dielectric constant tensor:
#      x y z
#    x 1.797020 0.068870 -0.019670 
#    y 0.068870 1.824500 -0.002180 
#    z -0.019670 -0.002180 1.721940 
# 
# From -- ./inp_files/55493.got.cif
#   From: 2010.05.17/outbox.cif.g08.bks.cpg/sg2_28_cif.got.tgz:55493.got - 2010.06.03 11:33:40.
