data_PCOD9024035
_publ_section_title
;
Structure prediction by ZEFSAII (Michael W. Deem and Ramdas Pophale) SiO2 
 PCOD9024035
Probable space group: P -1
;
_chemical_formula_sum "Si O2"
_cell_formula_units_Z 16
_cell_length_a 8.577687
_cell_length_b 11.647365
_cell_length_c 20.337803
_cell_angle_alpha 155.727329
_cell_angle_beta 56.281771
_cell_angle_gamma 128.695777
_cell_volume 651.215173
_symmetry_space_group_name_H-M "P -1"
_symmetry_group_IT_number 2
_symmetry_cell_setting 'triclinic'
loop_
_space_group_symop_operation_xyz
x,y,z
-x,-y,-z
loop_
_atom_site_type_symbol
_atom_site_label
_atom_site_fract_x
_atom_site_fract_y
_atom_site_fract_z
Si Si1 0.703599 0.843000 0.329541
Si Si2 0.436344 0.820990 0.854643
Si Si3 0.162593 0.299464 0.318012
Si Si4 0.274582 0.599788 0.312002
Si Si5 0.748443 0.826914 0.168060
Si Si6 0.937049 0.652147 0.350057
Si Si7 0.533005 0.126275 0.857761
Si Si8 0.147072 0.185004 0.404564
O O1 0.492101 0.573252 0.242669
O O2 0.687698 0.952970 0.315892
O O3 0.688497 0.052149 0.502002
O O4 0.939670 0.893584 0.302019
O O5 0.615355 0.706431 0.736114
O O6 0.227226 0.551580 0.767077
O O7 0.428137 0.013741 0.893144
O O8 0.500000 0.000000 0.000000
O O9 0.165297 0.459589 0.331670
O O10 0.136035 0.373407 0.439717
O O11 0.985419 0.981007 0.185274
O O12 0.122801 0.532430 0.251538
O O13 0.629090 0.891205 0.168890
O O14 0.677121 0.471661 0.009190
O O15 0.843421 0.636893 0.437401
O O16 0.000000 0.000000 0.500000
O O17 0.669338 0.932401 0.704979
#
# Coordination Sequence:
#
# PCOD9024035 Si02
#       8
#     2   2   2   2   2   2   2   2
#     4   9  21  37  65  96 133 174 214 276 336 389
#     4  11  27  44  65  99 138 181 219 280 332 402
#     4  10  23  41  66  95 132 175 224 272 336 393
#     4  10  22  40  63 101 131 173 220 279 327 400
#     4  10  22  41  66  96 127 181 222 272 334 399
#     4  11  26  43  68 102 138 175 225 274 340 389
#     4  10  23  43  68  96 132 173 231 273 331 397
#     4   9  22  42  66  97 128 175 214 283 323 396
#
# _framework density 24.569452999999999
#
# number of rings (size 3 to 8) (size 9 to 14) (size 15 to 20)
#    0.000    2.000    0.000    0.750    8.750   14.000 
#    2.250    1.250    0.000    0.000    0.000    0.000 
#    0.000    0.000    0.000    0.000    0.000    0.000 
#
# Total GULP energy -89297.160009 kJ/mol
# GULP energy per Si atom -5581.072501 kJ/mol
# Density = 2.451353 g / cm^3
# Si number density = 24.569453 Si / 1000 Ang^3
#
#
#
# Elastic Constant Matrix: (Units=GPa)
#
#
# Indices 1 2 3 4 5 6 
#
# 1 86.0407 18.5128 20.7628 16.6894 27.0136 -4.6595
# 2 18.5128 98.0610 11.5525 9.1973 13.3108 -6.6843
# 3 20.7628 11.5525 49.2316 9.7612 27.5934 -0.8219
# 4 16.6894 9.1973 9.7612 31.2916 0.8118 6.5452
# 5 27.0136 13.3108 27.5934 0.8118 38.3156 3.1476
# 6 -4.6595 -6.6843 -0.8219 6.5452 3.1476 42.6231
#
#
#
# Elastic Compliance Matrix: (Units=1/GPa)
#
#
# Indices 1 2 3 4 5 6 
#
# 1 0.018092 -0.000370 0.003211 -0.011157 -0.015098 0.004810
# 2 -0.000370 0.011306 0.000723 -0.003793 -0.004325 0.002648
# 3 0.003211 0.000723 0.038997 -0.014487 -0.030762 0.005713
# 4 -0.011157 -0.003793 -0.014487 0.045228 0.019519 -0.010480
# 5 -0.015098 -0.004325 -0.030762 0.019519 0.060842 -0.010412
# 6 0.004810 0.002648 0.005713 -0.010480 -0.010412 0.026891
#
#
# Mechanical properties :
#
#
# Convention : Reuss Voigt Hill
#
# Bulk Modulus (GPa) = 13.24076 37.22103 25.23090
# Shear Modulus (GPa) = 22.78932 34.61308 28.70120
#
# Velocity S-wave (km/s) = 3.04887 3.75745 3.42155
# Velocity P-wave (km/s) = 4.21841 5.83153 5.08929
#
# Compressibility (1/GPa) = 0.07552436
#
# Stress axis : x y z
#
# Youngs Moduli (GPa) = 55.27318 88.45088 25.64269
#
# Poissons Ratio (x) = 0.03274 -0.08235
# Poissons Ratio (y) = 0.02046 -0.01855
# Poissons Ratio (z) = -0.17751 -0.06398
#
# Static dielectric constant tensor:
#      x y z
#    x 1.982860 -0.009010 -0.006770 
#    y -0.009010 2.003540 0.042770 
#    z -0.006770 0.042770 1.998800 
# 
# From -- ./inp_files/589712.got.cif
#   From: 2010.05.17/outbox.cif.g08.bks.cpg/sg2_295_cif.got.tgz:589712.got - 2010.06.03 11:33:40.
