data_PCOD9024426
_publ_section_title
;
Structure prediction by ZEFSAII (Michael W. Deem and Ramdas Pophale) SiO2 
 PCOD9024426
Probable space group: P -1
;
_chemical_formula_sum "Si O2"
_cell_formula_units_Z 13
_cell_length_a 21.293812
_cell_length_b 5.052359
_cell_length_c 20.548026
_cell_angle_alpha 69.420252
_cell_angle_beta 13.148225
_cell_angle_gamma 70.517648
_cell_volume 470.365582
_symmetry_space_group_name_H-M "P -1"
_symmetry_group_IT_number 2
_symmetry_cell_setting 'triclinic'
loop_
_space_group_symop_operation_xyz
x,y,z
-x,-y,-z
loop_
_atom_site_type_symbol
_atom_site_label
_atom_site_fract_x
_atom_site_fract_y
_atom_site_fract_z
Si Si1 0.683324 0.227580 0.734174
Si Si2 0.265755 0.112965 0.640925
Si Si3 0.827816 0.164886 0.729098
Si Si4 0.202424 0.513773 0.909529
Si Si5 0.481325 0.739787 0.833293
Si Si6 0.987153 0.974065 0.238418
Si Si7 0.000000 0.500000 0.000000
O O1 0.803992 0.348963 0.671063
O O2 0.655449 0.458707 0.686633
O O3 0.883949 0.976323 0.536790
O O4 0.372990 0.104194 0.066316
O O5 0.569681 0.254779 0.321615
O O6 0.144319 0.119642 0.689651
O O7 0.198017 0.808638 0.763686
O O8 0.084405 0.351556 0.840335
O O9 0.676758 0.258653 0.938123
O O10 0.247534 0.358906 0.809924
O O11 0.127357 0.285076 0.059564
O O12 0.723932 0.971460 0.552231
O O13 0.231750 0.778871 0.031973
#
# Coordination Sequence:
#
# PCOD9024426 Si02
#       7
#     2   2   2   2   2   2   1
#     4  10  22  40  64  96 131 171 225 287 352 416
#     4  11  24  44  68  97 138 179 220 281 340 395
#     4  10  22  40  64  96 131 171 225 287 352 416
#     4  11  24  44  68  97 138 179 220 281 340 395
#     4  12  23  42  66  93 134 182 228 288 342 405
#     4  11  26  41  63  98 133 180 238 274 333 422
#     4  10  24  42  72 108 130 170 234 274 332 412
#
# _framework density 27.638076999999999
#
# number of rings (size 3 to 8) (size 9 to 14) (size 15 to 20)
#    0.000    1.231    0.000    5.077    0.000    9.846 
#    0.000    6.154    0.000    0.000    0.000    0.000 
#    0.000    0.000    0.000    0.000    0.000    0.000 
#
# Total GULP energy -72627.676574 kJ/mol
# GULP energy per Si atom -5586.744352 kJ/mol
# Density = 2.757517 g / cm^3
# Si number density = 27.638077 Si / 1000 Ang^3
#
#
#
# Elastic Constant Matrix: (Units=GPa)
#
#
# Indices 1 2 3 4 5 6 
#
# 1 128.6929 54.1181 41.9861 1.8598 -6.8959 -16.0667
# 2 54.1181 152.2587 82.8545 -6.3154 1.9534 -17.3002
# 3 41.9861 82.8545 171.5825 0.0916 2.6645 -13.3666
# 4 1.8598 -6.3154 0.0916 36.4394 6.6597 -1.1338
# 5 -6.8959 1.9534 2.6645 6.6597 42.2681 1.0806
# 6 -16.0667 -17.3002 -13.3666 -1.1338 1.0806 45.5618
#
#
#
# Elastic Compliance Matrix: (Units=1/GPa)
#
#
# Indices 1 2 3 4 5 6 
#
# 1 0.009596 -0.002783 -0.000878 -0.001254 0.001896 0.001993
# 2 -0.002783 0.010042 -0.004018 0.002138 -0.001046 0.001731
# 3 -0.000878 -0.004018 0.008030 -0.000586 -0.000385 0.000515
# 4 -0.001254 0.002138 -0.000586 0.028793 -0.004829 0.001029
# 5 0.001896 -0.001046 -0.000385 -0.004829 0.024815 -0.000550
# 6 0.001993 0.001731 0.000515 0.001029 -0.000550 0.023498
#
#
# Mechanical properties :
#
#
# Convention : Reuss Voigt Hill
#
# Bulk Modulus (GPa) = 81.23652 90.05015 85.64334
# Shear Modulus (GPa) = 40.24605 43.09222 41.66913
#
# Velocity S-wave (km/s) = 3.82013 3.95291 3.88709
# Velocity P-wave (km/s) = 6.99390 7.31345 7.15546
#
# Compressibility (1/GPa) = 0.01230973
#
# Stress axis : x y z
#
# Youngs Moduli (GPa) = 104.21397 99.57854 124.53780
#
# Poissons Ratio (x) = 0.27711 0.10931
# Poissons Ratio (y) = 0.29001 0.50044
# Poissons Ratio (z) = 0.09147 0.40014
#
# Static dielectric constant tensor:
#      x y z
#    x 2.610700 0.147740 0.225990 
#    y 0.147740 2.199510 0.093120 
#    z 0.225990 0.093120 2.199320 
# 
# From -- ./inp_files/613909.got.cif
#   From: 2010.05.17/outbox.cif.g08.bks.cpg/sg2_307_cif.got.tgz:613909.got - 2010.06.03 11:33:40.
