data_PCOD9024110
_publ_section_title
;
Structure prediction by ZEFSAII (Michael W. Deem and Ramdas Pophale) SiO2 
 PCOD9024110
Probable space group: P -1
;
_chemical_formula_sum "Si O2"
_cell_formula_units_Z 16
_cell_length_a 10.939794
_cell_length_b 7.736195
_cell_length_c 13.121956
_cell_angle_alpha 71.294315
_cell_angle_beta 142.936085
_cell_angle_gamma 104.313995
_cell_volume 633.901766
_symmetry_space_group_name_H-M "P -1"
_symmetry_group_IT_number 2
_symmetry_cell_setting 'triclinic'
loop_
_space_group_symop_operation_xyz
x,y,z
-x,-y,-z
loop_
_atom_site_type_symbol
_atom_site_label
_atom_site_fract_x
_atom_site_fract_y
_atom_site_fract_z
Si Si1 0.067673 0.289323 0.173483
Si Si2 0.586307 0.381056 0.173173
Si Si3 0.582098 0.968030 0.235520
Si Si4 0.850529 0.328746 0.813819
Si Si5 0.224536 0.183828 0.994004
Si Si6 0.791155 0.725023 0.271952
Si Si7 0.855631 0.046426 0.572604
Si Si8 0.532346 0.214093 0.467438
O O1 0.067976 0.473274 0.205931
O O2 0.047737 0.099574 0.256677
O O3 0.302429 0.288724 0.287540
O O4 0.900405 0.320746 0.968440
O O5 0.644526 0.177947 0.210937
O O6 0.755428 0.511873 0.307200
O O7 0.014594 0.158586 0.590163
O O8 0.500000 0.500000 0.000000
O O9 0.607979 0.830885 0.186697
O O10 0.722027 0.921965 0.432956
O O11 0.354936 0.998413 0.118850
O O12 0.638142 0.296086 0.623243
O O13 0.011033 0.181872 0.904450
O O14 0.199322 0.238390 0.849276
O O15 0.386795 0.331514 0.115979
O O16 0.706510 0.198284 0.498376
O O17 0.500000 0.000000 0.500000
#
# Coordination Sequence:
#
# PCOD9024110 Si02
#       8
#     2   2   2   2   2   2   2   2
#     4  10  25  43  69 100 131 171 229 278 341 402
#     4   8  20  37  60  93 128 171 217 272 315 389
#     4  10  22  40  63  92 141 169 219 274 320 395
#     4  11  21  46  71  95 133 176 219 283 336 406
#     4   9  20  40  65  95 125 170 225 260 333 392
#     4  11  20  41  63  94 132 179 214 266 331 388
#     4  11  23  41  60  99 128 174 216 271 330 402
#     4  10  22  43  66  94 133 167 220 277 337 396
#
# _framework density 25.240503
#
# number of rings (size 3 to 8) (size 9 to 14) (size 15 to 20)
#    0.750    1.250    1.250    1.875    0.000    4.500 
#    6.750    2.500    0.000    0.000    0.000    0.000 
#    0.000    0.000    0.000    0.000    0.000    0.000 
#
# Total GULP energy -89211.909026 kJ/mol
# GULP energy per Si atom -5575.744314 kJ/mol
# Density = 2.518305 g / cm^3
# Si number density = 25.240503 Si / 1000 Ang^3
#
#
#
# Elastic Constant Matrix: (Units=GPa)
#
#
# Indices 1 2 3 4 5 6 
#
# 1 46.7853 22.7967 5.7818 1.6205 10.1027 8.2310
# 2 22.7967 124.1902 20.6939 1.2771 -6.3300 18.1819
# 3 5.7818 20.6939 75.9006 5.1092 -2.4365 19.1482
# 4 1.6205 1.2771 5.1092 40.1538 2.3236 5.9781
# 5 10.1027 -6.3300 -2.4365 2.3236 33.9523 4.2447
# 6 8.2310 18.1819 19.1482 5.9781 4.2447 34.8204
#
#
#
# Elastic Compliance Matrix: (Units=1/GPa)
#
#
# Indices 1 2 3 4 5 6 
#
# 1 0.025975 -0.004780 -0.000325 -0.000008 -0.008337 -0.002448
# 2 -0.004780 0.009885 -0.001272 0.000403 0.003627 -0.003843
# 3 -0.000325 -0.001272 0.015685 -0.000872 0.002043 -0.007984
# 4 -0.000008 0.000403 -0.000872 0.025668 -0.001244 -0.003984
# 5 -0.008337 0.003627 0.002043 -0.001244 0.033456 -0.004911
# 6 -0.002448 -0.003843 -0.007984 -0.003984 -0.004911 0.036977
#
#
# Mechanical properties :
#
#
# Convention : Reuss Voigt Hill
#
# Bulk Modulus (GPa) = 25.77965 38.38009 32.07987
# Shear Modulus (GPa) = 28.84660 34.95888 31.90274
#
# Velocity S-wave (km/s) = 3.38430 3.72564 3.55906
# Velocity P-wave (km/s) = 5.05046 5.80913 5.44303
#
# Compressibility (1/GPa) = 0.03879029
#
# Stress axis : x y z
#
# Youngs Moduli (GPa) = 38.49886 101.16308 63.75471
#
# Poissons Ratio (x) = 0.48360 0.02072
# Poissons Ratio (y) = 0.18404 0.08110
# Poissons Ratio (z) = 0.01251 0.12868
#
# Static dielectric constant tensor:
#      x y z
#    x 2.081100 -0.041160 0.054430 
#    y -0.041160 2.062260 0.055150 
#    z 0.054430 0.055150 2.127180 
# 
# From -- ./inp_files/528666.got.cif
#   From: 2010.05.17/outbox.cif.g08.bks.cpg/sg2_265_cif.got.tgz:528666.got - 2010.06.03 11:33:40.
