data_PCOD9024403
_publ_section_title
;
Structure prediction by ZEFSAII (Michael W. Deem and Ramdas Pophale) SiO2 
 PCOD9024403
Probable space group: P -1
;
_chemical_formula_sum "Si O2"
_cell_formula_units_Z 12
_cell_length_a 19.482927
_cell_length_b 9.026571
_cell_length_c 11.512168
_cell_angle_alpha 39.015105
_cell_angle_beta 152.502108
_cell_angle_gamma 148.800913
_cell_volume 482.817827
_symmetry_space_group_name_H-M "P -1"
_symmetry_group_IT_number 2
_symmetry_cell_setting 'triclinic'
loop_
_space_group_symop_operation_xyz
x,y,z
-x,-y,-z
loop_
_atom_site_type_symbol
_atom_site_label
_atom_site_fract_x
_atom_site_fract_y
_atom_site_fract_z
Si Si1 0.450152 0.713914 0.445716
Si Si2 0.898970 0.831475 0.709583
Si Si3 0.054446 0.322837 0.364814
Si Si4 0.190737 0.213937 0.085312
Si Si5 0.463923 0.701284 0.752584
Si Si6 0.137183 0.675621 0.706626
O O1 0.266614 0.420114 0.310227
O O2 0.475213 0.685374 0.639782
O O3 0.424410 0.970436 0.240943
O O4 0.637180 0.791296 0.624346
O O5 0.933869 0.671712 0.759240
O O6 0.814676 0.007640 0.435632
O O7 0.099738 0.059706 0.919411
O O8 0.257568 0.568280 0.555044
O O9 0.942911 0.382005 0.248343
O O10 0.000000 0.000000 0.500000
O O11 0.253987 0.543055 0.965692
O O12 0.000000 0.000000 0.000000
O O13 0.500000 0.500000 0.000000
O O14 0.000000 0.500000 0.500000
#
# Coordination Sequence:
#
# PCOD9024403 Si02
#       6
#     2   2   2   2   2   2
#     4  10  23  44  61  96 135 163 225 269 318 401
#     4   9  21  42  64  92 130 169 219 270 315 380
#     4   9  18  37  64  94 123 162 226 262 312 392
#     4  11  23  41  65  94 132 176 208 266 338 382
#     4  10  22  40  64  95 131 168 211 278 330 371
#     4   9  19  36  64  92 129 171 211 259 323 390
#
# _framework density 24.854095999999998
#
# number of rings (size 3 to 8) (size 9 to 14) (size 15 to 20)
#    0.000    2.333    0.000    1.000    7.000    1.333 
#   12.000    5.000    0.000    0.000    0.000    0.000 
#    0.000    0.000    0.000    0.000    0.000    0.000 
#
# Total GULP energy -66912.908862 kJ/mol
# GULP energy per Si atom -5576.075738 kJ/mol
# Density = 2.479753 g / cm^3
# Si number density = 24.854096 Si / 1000 Ang^3
#
#
#
# Elastic Constant Matrix: (Units=GPa)
#
#
# Indices 1 2 3 4 5 6 
#
# 1 79.6505 28.7974 28.7705 -2.7145 11.8540 -8.4880
# 2 28.7974 131.6637 35.5772 -19.4131 15.0673 -3.4267
# 3 28.7705 35.5772 74.9712 -29.3963 2.1182 -4.2593
# 4 -2.7145 -19.4131 -29.3963 43.6831 6.6717 4.6718
# 5 11.8540 15.0673 2.1182 6.6717 13.9694 -3.5898
# 6 -8.4880 -3.4267 -4.2593 4.6718 -3.5898 35.8628
#
#
#
# Elastic Compliance Matrix: (Units=1/GPa)
#
#
# Indices 1 2 3 4 5 6 
#
# 1 0.017054 -0.001049 -0.006588 -0.002492 -0.010528 0.002424
# 2 -0.001049 0.010709 -0.002301 0.005331 -0.013248 -0.001519
# 3 -0.006588 -0.002301 0.022545 0.014243 -0.002458 -0.001203
# 4 -0.002492 0.005331 0.014243 0.039343 -0.026162 -0.006133
# 5 -0.010528 -0.013248 -0.002458 -0.026162 0.110349 0.010404
# 6 0.002424 -0.001519 -0.001203 -0.006133 0.010404 0.030010
#
#
# Mechanical properties :
#
#
# Convention : Reuss Voigt Hill
#
# Bulk Modulus (GPa) = 32.86142 52.50839 42.68490
# Shear Modulus (GPa) = 19.22851 31.57908 25.40380
#
# Velocity S-wave (km/s) = 2.78448 3.56838 3.20052
# Velocity P-wave (km/s) = 4.85677 6.17660 5.55601
#
# Compressibility (1/GPa) = 0.03043083
#
# Stress axis : x y z
#
# Youngs Moduli (GPa) = 58.63628 93.38020 44.35653
#
# Poissons Ratio (x) = 0.09798 0.29224
# Poissons Ratio (y) = 0.06153 0.10205
# Poissons Ratio (z) = 0.38632 0.21484
#
# Static dielectric constant tensor:
#      x y z
#    x 2.041730 0.044880 -0.151970 
#    y 0.044880 1.890200 0.039000 
#    z -0.151970 0.039000 2.038330 
# 
# From -- ./inp_files/173482.got.cif
#   From: 2010.05.17/outbox.cif.g08.bks.cpg/sg2_87_cif.got.tgz:173482.got - 2010.06.03 11:33:40.
