data_PCOD9024814
_publ_section_title
;
Structure prediction by ZEFSAII (Michael W. Deem and Ramdas Pophale) SiO2 
 PCOD9024814
Probable space group: P -1
;
_chemical_formula_sum "Si O2"
_cell_formula_units_Z 13
_cell_length_a 6.532685
_cell_length_b 12.850808
_cell_length_c 14.621938
_cell_angle_alpha 143.976182
_cell_angle_beta 54.259104
_cell_angle_gamma 123.357279
_cell_volume 578.203987
_symmetry_space_group_name_H-M "P -1"
_symmetry_group_IT_number 2
_symmetry_cell_setting 'triclinic'
loop_
_space_group_symop_operation_xyz
x,y,z
-x,-y,-z
loop_
_atom_site_type_symbol
_atom_site_label
_atom_site_fract_x
_atom_site_fract_y
_atom_site_fract_z
Si Si1 0.485591 0.285757 0.348083
Si Si2 0.424836 0.835656 0.566785
Si Si3 0.000000 0.000000 0.500000
Si Si4 0.808883 0.361691 0.150572
Si Si5 0.956152 0.267811 0.548803
Si Si6 0.678761 0.767516 0.140278
Si Si7 0.308022 0.518547 0.924386
O O1 0.500000 0.500000 0.500000
O O2 0.620321 0.224437 0.359397
O O3 0.623989 0.249703 0.192964
O O4 0.187200 0.210803 0.387241
O O5 0.261429 0.703522 0.445419
O O6 0.727824 0.865862 0.492766
O O7 0.336865 0.025928 0.708518
O O8 0.130412 0.885453 0.463023
O O9 0.650446 0.418909 0.146198
O O10 0.943595 0.546275 0.293877
O O11 0.041595 0.264830 0.988484
O O12 0.635550 0.665719 0.176457
O O13 0.460694 0.669247 0.058251
O O14 0.000000 0.500000 0.000000
#
# Coordination Sequence:
#
# PCOD9024814 Si02
#       7
#     2   2   1   2   2   2   2
#     4   9  22  43  61  90 129 169 211 255 314 374
#     4  11  24  42  63  94 130 163 213 265 312 375
#     4  10  24  38  58  90 130 162 202 258 320 360
#     4  10  22  40  66  92 124 172 208 254 316 373
#     4  10  23  40  65  94 123 168 208 261 313 378
#     4  10  23  39  63  95 124 164 212 261 314 372
#     4   9  21  39  59  90 129 165 203 258 310 378
#
# _framework density 22.483416999999999
#
# number of rings (size 3 to 8) (size 9 to 14) (size 15 to 20)
#    0.000    2.154    0.000    0.462    8.615   11.692 
#    0.000    1.538    0.000    0.000    0.000    0.000 
#    0.000    0.000    0.000    0.000    0.000    0.000 
#
# Total GULP energy -72426.615951 kJ/mol
# GULP energy per Si atom -5571.278150 kJ/mol
# Density = 2.243224 g / cm^3
# Si number density = 22.483417 Si / 1000 Ang^3
#
#
#
# Elastic Constant Matrix: (Units=GPa)
#
#
# Indices 1 2 3 4 5 6 
#
# 1 154.1792 40.0996 34.4007 -11.1678 7.4465 -30.9243
# 2 40.0996 103.9357 15.6637 -20.7479 12.0405 -21.0737
# 3 34.4007 15.6637 55.4188 -6.0461 -1.7182 -2.8840
# 4 -11.1678 -20.7479 -6.0461 41.3654 -3.6520 -2.6103
# 5 7.4465 12.0405 -1.7182 -3.6520 19.7140 -10.3857
# 6 -30.9243 -21.0737 -2.8840 -2.6103 -10.3857 32.0046
#
#
#
# Elastic Compliance Matrix: (Units=1/GPa)
#
#
# Indices 1 2 3 4 5 6 
#
# 1 0.009741 -0.000924 -0.005031 0.002144 0.001610 0.009048
# 2 -0.000924 0.013405 -0.002240 0.006337 -0.003032 0.007265
# 3 -0.005031 -0.002240 0.021845 0.000842 0.003695 -0.003099
# 4 0.002144 0.006337 0.000842 0.029315 0.006529 0.010830
# 5 0.001610 -0.003032 0.003695 0.006529 0.064803 0.021454
# 6 0.009048 0.007265 -0.003099 0.010830 0.021454 0.052338
#
#
# Mechanical properties :
#
#
# Convention : Reuss Voigt Hill
#
# Bulk Modulus (GPa) = 34.96240 54.87350 44.91795
# Shear Modulus (GPa) = 23.00223 33.50811 28.25517
#
# Velocity S-wave (km/s) = 3.20203 3.86469 3.54886
# Velocity P-wave (km/s) = 5.40876 6.66135 6.06747
#
# Compressibility (1/GPa) = 0.02860216
#
# Stress axis : x y z
#
# Youngs Moduli (GPa) = 102.65784 74.60081 45.77611
#
# Poissons Ratio (x) = 0.06893 0.23029
# Poissons Ratio (y) = 0.09486 0.10253
# Poissons Ratio (z) = 0.51645 0.16708
#
# Static dielectric constant tensor:
#      x y z
#    x 3.877010 -4.139240 -18.634190 
#    y -4.139240 10.381110 38.360760 
#    z -18.634190 38.360760 174.234470 
# 
# From -- ./inp_files/34052.got.cif
#   From: 2010.05.17/outbox.cif.g08.bks.cpg/sg2_18_cif.got.tgz:34052.got - 2010.06.03 11:33:40.
