data_PCOD9024980
_publ_section_title
;
Structure prediction by ZEFSAII (Michael W. Deem and Ramdas Pophale) SiO2 
 PCOD9024980
Probable space group: P -1
;
_chemical_formula_sum "Si O2"
_cell_formula_units_Z 15
_cell_length_a 15.953207
_cell_length_b 10.666179
_cell_length_c 12.756688
_cell_angle_alpha 120.611955
_cell_angle_beta 146.203536
_cell_angle_gamma 35.174515
_cell_volume 589.528969
_symmetry_space_group_name_H-M "P -1"
_symmetry_group_IT_number 2
_symmetry_cell_setting 'triclinic'
loop_
_space_group_symop_operation_xyz
x,y,z
-x,-y,-z
loop_
_atom_site_type_symbol
_atom_site_label
_atom_site_fract_x
_atom_site_fract_y
_atom_site_fract_z
Si Si1 0.507375 0.164777 0.599702
Si Si2 0.121798 0.561229 0.179244
Si Si3 0.176690 0.215296 0.547667
Si Si4 0.512932 0.552692 0.917067
Si Si5 0.908933 0.937598 0.776215
Si Si6 0.500000 0.500000 0.500000
Si Si7 0.674703 0.981945 0.032781
Si Si8 0.119204 0.642238 0.514416
O O1 0.312726 0.389611 0.405635
O O2 0.360461 0.333410 0.625037
O O3 0.500000 0.000000 0.500000
O O4 0.794945 0.003032 0.802873
O O5 0.310454 0.504446 0.276838
O O6 0.867913 0.854627 0.080490
O O7 0.000000 0.500000 0.000000
O O8 0.177258 0.145088 0.405264
O O9 0.000000 0.500000 0.500000
O O10 0.018031 0.228951 0.461666
O O11 0.468403 0.020463 0.807887
O O12 0.476026 0.753755 0.975654
O O13 0.265116 0.676046 0.651203
O O14 0.500000 0.500000 0.000000
O O15 0.779403 0.303040 0.025281
O O16 0.743917 0.197768 0.661428
O O17 0.877644 0.781384 0.251018
#
# Coordination Sequence:
#
# PCOD9024980 Si02
#       8
#     2   2   2   2   2   1   2   2
#     4  10  23  42  65  94 140 175 223 286 343 411
#     4  10  22  42  67  98 133 186 232 278 350 416
#     4  12  22  42  71 100 130 177 237 280 337 417
#     4  12  23  42  67  99 134 177 228 283 342 414
#     4  11  23  42  71 103 134 183 234 280 352 416
#     4  10  22  40  66  98 142 170 232 290 334 416
#     4  11  23  41  64  98 137 170 225 289 341 408
#     4  11  25  42  64  99 134 178 218 280 354 403
#
# _framework density 25.444040999999999
#
# number of rings (size 3 to 8) (size 9 to 14) (size 15 to 20)
#    0.000    1.067    2.667    4.000    0.000    2.667 
#    2.400    2.667    0.000    0.000    0.000    0.000 
#    0.000    0.000    0.000    0.000    0.000    0.000 
#
# Total GULP energy -83634.572665 kJ/mol
# GULP energy per Si atom -5575.638178 kJ/mol
# Density = 2.538613 g / cm^3
# Si number density = 25.444041 Si / 1000 Ang^3
#
#
#
# Elastic Constant Matrix: (Units=GPa)
#
#
# Indices 1 2 3 4 5 6 
#
# 1 56.5883 22.3079 29.9313 -16.0445 33.2469 -24.3072
# 2 22.3079 127.2786 23.3302 -3.0401 15.7563 -4.6473
# 3 29.9313 23.3302 174.4250 -4.7234 35.0273 -9.5545
# 4 -16.0445 -3.0401 -4.7234 57.7593 -2.0295 5.6251
# 5 33.2469 15.7563 35.0273 -2.0295 46.0609 -4.0574
# 6 -24.3072 -4.6473 -9.5545 5.6251 -4.0574 37.2864
#
#
#
# Elastic Compliance Matrix: (Units=1/GPa)
#
#
# Indices 1 2 3 4 5 6 
#
# 1 0.057808 -0.004136 0.000122 0.011485 -0.037129 0.031428
# 2 -0.004136 0.008577 -0.000614 -0.000574 0.000346 -0.001660
# 3 0.000122 -0.000614 0.006867 0.000273 -0.004985 0.001179
# 4 0.011485 -0.000574 0.000273 0.019885 -0.007098 0.003713
# 5 -0.037129 0.000346 -0.004985 -0.007098 0.050204 -0.018905
# 6 0.031428 -0.001660 0.001179 0.003713 -0.018905 0.044785
#
#
# Mechanical properties :
#
#
# Convention : Reuss Voigt Hill
#
# Bulk Modulus (GPa) = 15.62568 56.60340 36.11454
# Shear Modulus (GPa) = 22.86095 47.06949 34.96522
#
# Velocity S-wave (km/s) = 3.00072 4.30574 3.71104
# Velocity P-wave (km/s) = 4.26149 6.85665 5.70850
#
# Compressibility (1/GPa) = 0.06399722
#
# Stress axis : x y z
#
# Youngs Moduli (GPa) = 17.29869 116.59182 145.61972
#
# Poissons Ratio (x) = 0.48222 -0.01778
# Poissons Ratio (y) = 0.07155 0.08934
# Poissons Ratio (z) = -0.00211 0.07153
#
# Static dielectric constant tensor:
#      x y z
#    x 2.090720 -0.052690 -0.029620 
#    y -0.052690 1.973090 0.003670 
#    z -0.029620 0.003670 2.004880 
# 
# From -- ./inp_files/538298.got.cif
#   From: 2010.05.17/outbox.cif.g08.bks.cpg/sg2_270_cif.got.tgz:538298.got - 2010.06.03 11:33:40.
