data_PCOD9024738
_publ_section_title
;
Structure prediction by ZEFSAII (Michael W. Deem and Ramdas Pophale) SiO2 
 PCOD9024738
Probable space group: P -1
;
_chemical_formula_sum "Si O2"
_cell_formula_units_Z 16
_cell_length_a 15.135825
_cell_length_b 15.141825
_cell_length_c 9.257477
_cell_angle_alpha 142.369969
_cell_angle_beta 40.465396
_cell_angle_gamma 150.551588
_cell_volume 618.722526
_symmetry_space_group_name_H-M "P -1"
_symmetry_group_IT_number 2
_symmetry_cell_setting 'triclinic'
loop_
_space_group_symop_operation_xyz
x,y,z
-x,-y,-z
loop_
_atom_site_type_symbol
_atom_site_label
_atom_site_fract_x
_atom_site_fract_y
_atom_site_fract_z
Si Si1 0.560122 0.736374 0.659689
Si Si2 0.191709 0.083858 0.981857
Si Si3 0.727035 0.119370 0.550824
Si Si4 0.397410 0.666940 0.069781
Si Si5 0.634657 0.305370 0.418143
Si Si6 0.875461 0.805383 0.497407
Si Si7 0.166604 0.796264 0.146380
Si Si8 0.293206 0.402418 0.084357
O O1 0.452705 0.644545 0.524645
O O2 0.676573 0.690376 0.525538
O O3 0.696863 0.970685 0.759829
O O4 0.427752 0.691186 0.893520
O O5 0.401336 0.207776 0.944765
O O6 0.154038 0.898604 0.724535
O O7 0.110800 0.116907 0.258602
O O8 0.182876 0.182254 0.981162
O O9 0.683514 0.234376 0.669013
O O10 0.820598 0.218802 0.717664
O O11 0.534646 0.899806 0.556068
O O12 0.281938 0.450818 0.998567
O O13 0.742749 0.482013 0.624873
O O14 0.758014 0.280543 0.143459
O O15 0.962113 0.709131 0.256651
O O16 0.000000 0.000000 0.500000
O O17 0.500000 0.500000 0.000000
#
# Coordination Sequence:
#
# PCOD9024738 Si02
#       8
#     2   2   2   2   2   2   2   2
#     4   9  17  32  55  83 113 139 184 236 274 323
#     4  10  21  35  53  80 117 150 179 227 285 331
#     4  11  18  31  59  85 113 140 187 242 275 322
#     4  10  17  31  53  86 110 137 184 231 280 320
#     4  11  18  33  58  86 115 142 184 236 285 318
#     4   9  20  36  55  78 114 149 188 225 273 343
#     4  10  19  32  55  86 114 141 187 232 285 320
#     4  10  21  34  52  84 118 147 177 229 287 337
#
# _framework density 25.859735000000001
#
# number of rings (size 3 to 8) (size 9 to 14) (size 15 to 20)
#    0.000    2.000    5.000    1.125    0.000    0.500 
#    0.000    6.250    0.000    0.750    0.000    0.000 
#    0.000    0.000    0.000    0.000    0.000    0.000 
#
# Total GULP energy -89558.206177 kJ/mol
# GULP energy per Si atom -5597.387886 kJ/mol
# Density = 2.580088 g / cm^3
# Si number density = 25.859735 Si / 1000 Ang^3
#
#
#
# Elastic Constant Matrix: (Units=GPa)
#
#
# Indices 1 2 3 4 5 6 
#
# 1 119.0577 33.8759 40.6968 -4.1633 -9.9388 -24.9460
# 2 33.8759 67.2999 2.5123 1.9768 -1.7753 -8.8189
# 3 40.6968 2.5123 146.4788 -9.5957 -14.5196 6.1954
# 4 -4.1633 1.9768 -9.5957 25.9749 -4.5132 1.5958
# 5 -9.9388 -1.7753 -14.5196 -4.5132 45.0770 -2.1353
# 6 -24.9460 -8.8189 6.1954 1.5958 -2.1353 44.0685
#
#
#
# Elastic Compliance Matrix: (Units=1/GPa)
#
#
# Indices 1 2 3 4 5 6 
#
# 1 0.012701 -0.005374 -0.003459 0.001088 0.001899 0.006653
# 2 -0.005374 0.017625 0.001016 -0.001910 -0.000336 0.000395
# 3 -0.003459 0.001016 0.008299 0.002981 0.002110 -0.002927
# 4 0.001088 -0.001910 0.002981 0.040902 0.005153 -0.001417
# 5 0.001899 -0.000336 0.002110 0.005153 0.023865 0.001681
# 6 0.006653 0.000395 -0.002927 -0.001417 0.001681 0.027081
#
#
# Mechanical properties :
#
#
# Convention : Reuss Voigt Hill
#
# Bulk Modulus (GPa) = 43.49560 54.11184 48.80372
# Shear Modulus (GPa) = 32.51586 40.07417 36.29502
#
# Velocity S-wave (km/s) = 3.54982 3.94086 3.75044
# Velocity P-wave (km/s) = 5.80155 6.45583 6.13741
#
# Compressibility (1/GPa) = 0.02299083
#
# Stress axis : x y z
#
# Youngs Moduli (GPa) = 78.73240 56.73723 120.50184
#
# Poissons Ratio (x) = 0.30492 0.41676
# Poissons Ratio (y) = 0.42312 -0.12239
# Poissons Ratio (z) = 0.27230 -0.05763
#
# Static dielectric constant tensor:
#      x y z
#    x 2.047090 0.099000 -0.025150 
#    y 0.099000 2.147790 -0.027250 
#    z -0.025150 -0.027250 2.001480 
# 
# From -- ./inp_files/316034.got.cif
#   From: 2010.05.17/outbox.cif.g08.bks.cpg/sg2_159_cif.got.tgz:316034.got - 2010.06.03 11:33:40.
