data_PCOD9024483
_publ_section_title
;
Structure prediction by ZEFSAII (Michael W. Deem and Ramdas Pophale) SiO2 
 PCOD9024483
Probable space group: P -1
;
_chemical_formula_sum "Si O2"
_cell_formula_units_Z 16
_cell_length_a 5.635976
_cell_length_b 19.602508
_cell_length_c 11.141858
_cell_angle_alpha 46.517116
_cell_angle_beta 60.232870
_cell_angle_gamma 47.600743
_cell_volume 658.345973
_symmetry_space_group_name_H-M "P -1"
_symmetry_group_IT_number 2
_symmetry_cell_setting 'triclinic'
loop_
_space_group_symop_operation_xyz
x,y,z
-x,-y,-z
loop_
_atom_site_type_symbol
_atom_site_label
_atom_site_fract_x
_atom_site_fract_y
_atom_site_fract_z
Si Si1 0.898442 0.911464 0.112007
Si Si2 0.764240 0.709064 0.262921
Si Si3 0.121596 0.219857 0.078281
Si Si4 0.856949 0.181414 0.586054
Si Si5 0.135476 0.032750 0.199990
Si Si6 0.043710 0.325514 0.208419
Si Si7 0.506560 0.406800 0.690816
Si Si8 0.429293 0.432479 0.954777
O O1 0.044644 0.829658 0.285734
O O2 0.517855 0.962017 0.161405
O O3 0.011703 0.885729 0.976898
O O4 0.000000 0.000000 0.000000
O O5 0.527784 0.749652 0.386807
O O6 0.694641 0.628359 0.299876
O O7 0.113872 0.669646 0.275837
O O8 0.671463 0.799790 0.069919
O O9 0.226063 0.245802 0.145422
O O10 0.073160 0.116250 0.223092
O O11 0.800163 0.338219 0.989308
O O12 0.980303 0.249784 0.402927
O O13 0.966530 0.058239 0.659164
O O14 0.704404 0.441083 0.126959
O O15 0.252820 0.377546 0.131261
O O16 0.500000 0.500000 0.500000
O O17 0.351354 0.440488 0.821473
#
# Coordination Sequence:
#
# PCOD9024483 Si02
#       8
#     2   2   2   2   2   2   2   2
#     4   9  19  38  64  97 137 173 222 283 354 418
#     4  11  24  41  70 105 141 182 238 296 360 424
#     4  11  23  43  70  94 135 184 237 285 354 426
#     4  11  25  41  67 105 139 179 232 291 362 422
#     4  10  22  40  65 100 133 181 227 293 352 428
#     4  11  24  46  65  96 135 184 237 287 358 433
#     4  11  23  43  70 105 140 183 242 303 355 419
#     4  10  24  45  67  94 135 186 234 287 360 414
#
# _framework density 24.303332000000001
#
# number of rings (size 3 to 8) (size 9 to 14) (size 15 to 20)
#    0.000    1.500    1.250    3.750    5.250    4.500 
#    4.500    1.250    0.000    0.000    0.000    0.000 
#    0.000    0.000    0.000    0.000    0.000    0.000 
#
# Total GULP energy -89201.862817 kJ/mol
# GULP energy per Si atom -5575.116426 kJ/mol
# Density = 2.424802 g / cm^3
# Si number density = 24.303332 Si / 1000 Ang^3
#
#
#
# Elastic Constant Matrix: (Units=GPa)
#
#
# Indices 1 2 3 4 5 6 
#
# 1 84.6382 21.1997 39.5623 -11.9509 -20.8858 14.7432
# 2 21.1997 76.1016 33.4952 -9.0657 -14.1271 23.2473
# 3 39.5623 33.4952 172.1026 -8.9626 -39.9967 3.2027
# 4 -11.9509 -9.0657 -8.9626 25.9786 4.1553 -9.7243
# 5 -20.8858 -14.1271 -39.9967 4.1553 27.9079 -15.1530
# 6 14.7432 23.2473 3.2027 -9.7243 -15.1530 51.2523
#
#
#
# Elastic Compliance Matrix: (Units=1/GPa)
#
#
# Indices 1 2 3 4 5 6 
#
# 1 0.015511 -0.001659 -0.001024 0.004760 0.008462 -0.000241
# 2 -0.001659 0.017075 -0.002918 0.001699 -0.000840 -0.007012
# 3 -0.001024 -0.002918 0.010115 0.001748 0.015139 0.005794
# 4 0.004760 0.001699 0.001748 0.043941 0.004395 0.007388
# 5 0.008462 -0.000840 0.015139 0.004395 0.073387 0.019532
# 6 -0.000241 -0.007012 0.005794 0.007388 0.019532 0.029575
#
#
# Mechanical properties :
#
#
# Convention : Reuss Voigt Hill
#
# Bulk Modulus (GPa) = 31.74656 57.92852 44.83754
# Shear Modulus (GPa) = 23.66225 36.93344 30.29784
#
# Velocity S-wave (km/s) = 3.12368 3.90254 3.53463
# Velocity P-wave (km/s) = 5.10889 6.64785 5.92852
#
# Compressibility (1/GPa) = 0.03149947
#
# Stress axis : x y z
#
# Youngs Moduli (GPa) = 64.46945 58.56467 98.86001
#
# Poissons Ratio (x) = 0.09716 0.10122
# Poissons Ratio (y) = 0.10695 0.28849
# Poissons Ratio (z) = 0.06601 0.17090
#
# Static dielectric constant tensor:
#      x y z
#    x 2.102500 -0.012520 -0.020580 
#    y -0.012520 2.081850 -0.030800 
#    z -0.020580 -0.030800 1.917670 
# 
# From -- ./inp_files/370326.got.cif
#   From: 2010.05.17/outbox.cif.g08.bks.cpg/sg2_186_cif.got.tgz:370326.got - 2010.06.03 11:33:40.
