data_PCOD9024007
_publ_section_title
;
Structure prediction by ZEFSAII (Michael W. Deem and Ramdas Pophale) SiO2 
 PCOD9024007
Probable space group: P -1
;
_chemical_formula_sum "Si O2"
_cell_formula_units_Z 14
_cell_length_a 21.075425
_cell_length_b 6.271607
_cell_length_c 9.467520
_cell_angle_alpha 73.578424
_cell_angle_beta 35.639925
_cell_angle_gamma 90.676202
_cell_volume 630.733437
_symmetry_space_group_name_H-M "P -1"
_symmetry_group_IT_number 2
_symmetry_cell_setting 'triclinic'
loop_
_space_group_symop_operation_xyz
x,y,z
-x,-y,-z
loop_
_atom_site_type_symbol
_atom_site_label
_atom_site_fract_x
_atom_site_fract_y
_atom_site_fract_z
Si Si1 0.304495 0.939693 0.040621
Si Si2 0.540290 0.164531 0.755724
Si Si3 0.740504 0.647355 0.397006
Si Si4 0.857238 0.602586 0.449312
Si Si5 0.929152 0.499893 0.949002
Si Si6 0.913559 0.958499 0.532905
Si Si7 0.733054 0.120166 0.202526
O O1 0.234238 0.679374 0.297685
O O2 0.216732 0.073999 0.176446
O O3 0.425987 0.100685 0.873834
O O4 0.316547 0.889308 0.863212
O O5 0.607122 0.445753 0.637755
O O6 0.634194 0.107613 0.499776
O O7 0.500000 0.000000 0.000000
O O8 0.781811 0.712873 0.471873
O O9 0.764680 0.890548 0.220042
O O10 0.823484 0.506553 0.235092
O O11 0.984186 0.629837 0.146560
O O12 0.897743 0.741554 0.497802
O O13 0.021780 0.782185 0.712351
O O14 0.854850 0.367369 0.966904
O O15 0.000000 0.000000 0.500000
#
# Coordination Sequence:
#
# PCOD9024007 Si02
#       7
#     2   2   2   2   2   2   2
#     4  11  24  44  66  97 132 174 213 266 324 381
#     4  11  25  46  68  93 132 168 221 273 318 381
#     4  11  24  41  66  97 128 172 218 270 320 385
#     4  11  23  39  67  95 132 176 214 260 328 382
#     4  10  22  40  62  95 137 167 213 266 322 382
#     4  11  23  39  66  97 133 170 216 262 320 390
#     4  11  25  42  69  94 132 168 217 268 326 379
#
# _framework density 22.196380000000001
#
# number of rings (size 3 to 8) (size 9 to 14) (size 15 to 20)
#    0.000    1.143    1.429    4.286    2.000    9.143 
#    0.000    0.000    0.000    0.000    0.000    0.000 
#    0.000    0.000    0.000    0.000    0.000    0.000 
#
# Total GULP energy -78198.564716 kJ/mol
# GULP energy per Si atom -5585.611765 kJ/mol
# Density = 2.214586 g / cm^3
# Si number density = 22.196380 Si / 1000 Ang^3
#
#
#
# Elastic Constant Matrix: (Units=GPa)
#
#
# Indices 1 2 3 4 5 6 
#
# 1 143.5079 4.8155 21.8086 9.2304 -25.5935 15.2351
# 2 4.8155 38.6975 7.7709 0.6587 -22.3337 6.6462
# 3 21.8086 7.7709 71.3961 12.1786 -13.6929 3.8094
# 4 9.2304 0.6587 12.1786 24.3412 4.7723 -0.6815
# 5 -25.5935 -22.3337 -13.6929 4.7723 43.5954 -9.4324
# 6 15.2351 6.6462 3.8094 -0.6815 -9.4324 26.3831
#
#
#
# Elastic Compliance Matrix: (Units=1/GPa)
#
#
# Indices 1 2 3 4 5 6 
#
# 1 0.008782 0.003432 -0.000918 -0.004303 0.006305 -0.003661
# 2 0.003432 0.038789 0.000320 -0.006910 0.021841 -0.004169
# 3 -0.000918 0.000320 0.016993 -0.009334 0.005959 -0.000115
# 4 -0.004303 -0.006910 -0.009334 0.050391 -0.014118 0.001827
# 5 0.006305 0.021841 0.005959 -0.014118 0.042273 0.004745
# 6 -0.003661 -0.004169 -0.000115 0.001827 0.004745 0.042828
#
#
# Mechanical properties :
#
#
# Convention : Reuss Voigt Hill
#
# Bulk Modulus (GPa) = 14.23838 35.82127 25.02983
# Shear Modulus (GPa) = 22.95704 33.47771 28.21737
#
# Velocity S-wave (km/s) = 3.21949 3.88783 3.56934
# Velocity P-wave (km/s) = 4.49987 6.02719 5.31864
#
# Compressibility (1/GPa) = 0.07023269
#
# Stress axis : x y z
#
# Youngs Moduli (GPa) = 113.86501 25.78043 58.84708
#
# Poissons Ratio (x) = -0.08848 0.05401
# Poissons Ratio (y) = -0.39079 -0.01882
# Poissons Ratio (z) = 0.10450 -0.00824
#
# Static dielectric constant tensor:
#      x y z
#    x 1.846860 0.021140 0.029100 
#    y 0.021140 1.856380 0.058010 
#    z 0.029100 0.058010 1.838940 
# 
# From -- ./inp_files/27251.got.cif
#   From: 2010.05.17/outbox.cif.g08.bks.cpg/sg2_14_cif.got.tgz:27251.got - 2010.06.03 11:33:40.
