data_PCOD9024243
_publ_section_title
;
Structure prediction by ZEFSAII (Michael W. Deem and Ramdas Pophale) SiO2 
 PCOD9024243
Probable space group: P -1
;
_chemical_formula_sum "Si O2"
_cell_formula_units_Z 11
_cell_length_a 14.718301
_cell_length_b 10.500049
_cell_length_c 5.108551
_cell_angle_alpha 101.166240
_cell_angle_beta 79.796402
_cell_angle_gamma 37.201129
_cell_volume 388.398228
_symmetry_space_group_name_H-M "P -1"
_symmetry_group_IT_number 2
_symmetry_cell_setting 'triclinic'
loop_
_space_group_symop_operation_xyz
x,y,z
-x,-y,-z
loop_
_atom_site_type_symbol
_atom_site_label
_atom_site_fract_x
_atom_site_fract_y
_atom_site_fract_z
Si Si1 0.559342 0.574041 0.560936
Si Si2 0.000000 0.500000 0.000000
Si Si3 0.280119 0.242405 0.219546
Si Si4 0.374921 0.891782 0.311058
Si Si5 0.907734 0.249251 0.473689
Si Si6 0.928342 0.887765 0.163118
O O1 0.500000 0.500000 0.500000
O O2 0.530058 0.704385 0.378004
O O3 0.551518 0.235256 0.059849
O O4 0.764671 0.325473 0.451855
O O5 0.987314 0.358532 0.990118
O O6 0.752312 0.064556 0.490519
O O7 0.195977 0.486280 0.381266
O O8 0.166468 0.309030 0.077069
O O9 0.258804 0.165383 0.444256
O O10 0.500000 0.000000 0.000000
O O11 0.950730 0.175168 0.724186
O O12 0.073163 0.064107 0.114287
#
# Coordination Sequence:
#
# PCOD9024243 Si02
#       6
#     2   1   2   2   2   2
#     4  12  27  48  71 100 141 188 247 307 357 420
#     4  10  22  40  64 108 160 186 220 300 364 434
#     4  11  23  42  73 114 149 192 243 291 373 453
#     4  12  25  46  72 105 140 190 239 297 363 441
#     4  11  24  43  69 104 141 185 230 296 358 432
#     4  11  23  42  68 101 144 183 233 283 367 430
#
# _framework density 28.321446000000002
#
# number of rings (size 3 to 8) (size 9 to 14) (size 15 to 20)
#    0.000    0.727    1.818    6.000    2.545    5.091 
#    0.000    5.455    0.000    0.000    0.000    0.000 
#    0.000    0.000    0.000    0.000    0.000    0.000 
#
# Total GULP energy -61489.575371 kJ/mol
# GULP energy per Si atom -5589.961397 kJ/mol
# Density = 2.825699 g / cm^3
# Si number density = 28.321446 Si / 1000 Ang^3
#
#
#
# Elastic Constant Matrix: (Units=GPa)
#
#
# Indices 1 2 3 4 5 6 
#
# 1 165.3666 38.9231 38.5864 -19.9129 19.3873 -25.1864
# 2 38.9231 181.7668 48.0877 -34.3291 15.6148 -16.0192
# 3 38.5864 48.0877 133.4239 -12.2154 21.2207 -4.3070
# 4 -19.9129 -34.3291 -12.2154 52.7893 5.8140 0.9561
# 5 19.3873 15.6148 21.2207 5.8140 48.7981 -1.2314
# 6 -25.1864 -16.0192 -4.3070 0.9561 -1.2314 56.7637
#
#
#
# Elastic Compliance Matrix: (Units=1/GPa)
#
#
# Indices 1 2 3 4 5 6 
#
# 1 0.007493 -0.000283 -0.001329 0.002559 -0.002537 0.003046
# 2 -0.000283 0.007146 -0.001745 0.004314 -0.001888 0.001645
# 3 -0.001329 -0.001745 0.009034 0.000787 -0.002948 -0.000474
# 4 0.002559 0.004314 0.000787 0.023466 -0.005488 0.001898
# 5 -0.002537 -0.001888 -0.002948 -0.005488 0.024008 -0.001269
# 6 0.003046 0.001645 -0.000474 0.001898 -0.001269 0.019337
#
#
# Mechanical properties :
#
#
# Convention : Reuss Voigt Hill
#
# Bulk Modulus (GPa) = 58.96878 81.30574 70.13726
# Shear Modulus (GPa) = 48.61327 55.33424 51.97375
#
# Velocity S-wave (km/s) = 4.14754 4.42497 4.28850
# Velocity P-wave (km/s) = 6.61835 7.40794 7.02425
#
# Compressibility (1/GPa) = 0.01695813
#
# Stress axis : x y z
#
# Youngs Moduli (GPa) = 133.45072 139.94062 110.69434
#
# Poissons Ratio (x) = 0.03966 0.14710
# Poissons Ratio (y) = 0.03782 0.19318
# Poissons Ratio (z) = 0.17735 0.24422
#
# Static dielectric constant tensor:
#      x y z
#    x 2.204640 -0.044250 0.051440 
#    y -0.044250 2.284610 0.048050 
#    z 0.051440 0.048050 2.023770 
# 
# From -- ./inp_files/103895.got.cif
#   From: 2010.05.17/outbox.cif.g08.bks.cpg/sg2_52_cif.got.tgz:103895.got - 2010.06.03 11:33:40.
