data_PCOD9024042
_publ_section_title
;
Structure prediction by ZEFSAII (Michael W. Deem and Ramdas Pophale) SiO2 
 PCOD9024042
Probable space group: P -1
;
_chemical_formula_sum "Si O2"
_cell_formula_units_Z 12
_cell_length_a 11.524539
_cell_length_b 9.197527
_cell_length_c 12.495784
_cell_angle_alpha 93.875561
_cell_angle_beta 118.107668
_cell_angle_gamma 37.666849
_cell_volume 588.311493
_symmetry_space_group_name_H-M "P -1"
_symmetry_group_IT_number 2
_symmetry_cell_setting 'triclinic'
loop_
_space_group_symop_operation_xyz
x,y,z
-x,-y,-z
loop_
_atom_site_type_symbol
_atom_site_label
_atom_site_fract_x
_atom_site_fract_y
_atom_site_fract_z
Si Si1 0.402416 0.214031 0.119258
Si Si2 0.448139 0.222259 0.364186
Si Si3 0.767762 0.205649 0.493084
Si Si4 0.944028 0.883918 0.969636
Si Si5 0.667784 0.139092 0.641553
Si Si6 0.838363 0.821480 0.119998
O O1 0.478912 0.092128 0.266901
O O2 0.655658 0.013014 0.151970
O O3 0.249336 0.238764 0.986262
O O4 0.203055 0.537880 0.062268
O O5 0.568036 0.265071 0.379855
O O6 0.605374 0.059349 0.535730
O O7 0.141090 0.524347 0.267552
O O8 0.845425 0.076005 0.640123
O O9 0.598760 0.513715 0.443408
O O10 0.000000 0.000000 0.500000
O O11 0.786729 0.995393 0.800053
O O12 0.802408 0.980359 0.023548
O O13 0.000000 0.000000 0.000000
#
# Coordination Sequence:
#
# PCOD9024042 Si02
#       6
#     2   2   2   2   2   2
#     4  10  22  40  63  81 114 165 198 232 284 354
#     4   9  18  33  58  80 110 149 193 240 277 339
#     4   9  19  32  53  80 117 154 186 228 290 351
#     4  11  22  37  59  90 123 146 188 248 300 338
#     4   9  20  33  51  87 115 146 188 240 289 340
#     4  10  22  41  60  84 116 158 204 230 284 355
#
# _framework density 20.397357
#
# number of rings (size 3 to 8) (size 9 to 14) (size 15 to 20)
#    1.000    1.333    0.000    4.000    2.333    2.000 
#    0.000    3.333    0.000    4.000    0.000    0.000 
#    0.000    0.000    0.000    0.000    0.000    0.000 
#
# Total GULP energy -66856.077625 kJ/mol
# GULP energy per Si atom -5571.339802 kJ/mol
# Density = 2.035093 g / cm^3
# Si number density = 20.397357 Si / 1000 Ang^3
#
#
#
# Elastic Constant Matrix: (Units=GPa)
#
#
# Indices 1 2 3 4 5 6 
#
# 1 89.5741 22.2257 7.0631 -2.4694 10.7660 -24.7153
# 2 22.2257 45.1874 -6.9726 13.3325 6.9116 -12.4434
# 3 7.0631 -6.9726 125.8125 16.1992 -3.6911 -14.0703
# 4 -2.4694 13.3325 16.1992 17.0952 -0.7984 -0.6605
# 5 10.7660 6.9116 -3.6911 -0.7984 23.6617 0.1328
# 6 -24.7153 -12.4434 -14.0703 -0.6605 0.1328 37.3987
#
#
#
# Elastic Compliance Matrix: (Units=1/GPa)
#
#
# Indices 1 2 3 4 5 6 
#
# 1 0.016539 -0.009265 -0.002303 0.011851 -0.004819 0.007207
# 2 -0.009265 0.047658 0.010556 -0.048468 -0.009767 0.012884
# 3 -0.002303 0.010556 0.011842 -0.019592 -0.000884 0.006103
# 4 0.011851 -0.048468 -0.019592 0.116500 0.009717 -0.013643
# 5 -0.004819 -0.009767 -0.000884 0.009717 0.047536 -0.006764
# 6 0.007207 0.012884 0.006103 -0.013643 -0.006764 0.037868
#
#
# Mechanical properties :
#
#
# Convention : Reuss Voigt Hill
#
# Bulk Modulus (GPa) = 13.51062 33.91181 23.71121
# Shear Modulus (GPa) = 16.41291 31.51498 23.96395
#
# Velocity S-wave (km/s) = 2.83973 3.93498 3.43134
# Velocity P-wave (km/s) = 4.17015 6.10795 5.22959
#
# Compressibility (1/GPa) = 0.07401585
#
# Stress axis : x y z
#
# Youngs Moduli (GPa) = 60.46364 20.98263 84.44607
#
# Poissons Ratio (x) = 0.19440 0.19449
# Poissons Ratio (y) = 0.56019 -0.89145
# Poissons Ratio (z) = 0.13926 -0.22150
#
# Static dielectric constant tensor:
#      x y z
#    x 1.770990 0.030670 -0.021490 
#    y 0.030670 1.707950 0.050260 
#    z -0.021490 0.050260 1.824280 
# 
# From -- ./inp_files/415256.got.cif
#   From: 2010.05.17/outbox.cif.g08.bks.cpg/sg2_208_cif.got.tgz:415256.got - 2010.06.03 11:33:40.
