data_PCOD9024471
_publ_section_title
;
Structure prediction by ZEFSAII (Michael W. Deem and Ramdas Pophale) SiO2 
 PCOD9024471
Probable space group: P -1
;
_chemical_formula_sum "Si O2"
_cell_formula_units_Z 14
_cell_length_a 18.181649
_cell_length_b 11.655158
_cell_length_c 17.602385
_cell_angle_alpha 28.943795
_cell_angle_beta 21.748440
_cell_angle_gamma 29.792091
_cell_volume 636.609877
_symmetry_space_group_name_H-M "P -1"
_symmetry_group_IT_number 2
_symmetry_cell_setting 'triclinic'
loop_
_space_group_symop_operation_xyz
x,y,z
-x,-y,-z
loop_
_atom_site_type_symbol
_atom_site_label
_atom_site_fract_x
_atom_site_fract_y
_atom_site_fract_z
Si Si1 0.096690 0.283791 0.149687
Si Si2 0.744456 0.418941 0.301056
Si Si3 0.965113 0.444298 0.685414
Si Si4 0.470227 0.253568 0.135605
Si Si5 0.239395 0.990730 0.595280
Si Si6 0.264664 0.590665 0.930077
Si Si7 0.711627 0.264337 0.752697
O O1 0.857849 0.377963 0.297109
O O2 0.175819 0.987471 0.254232
O O3 0.202705 0.377119 0.921276
O O4 0.156667 0.418079 0.086384
O O5 0.500000 0.500000 0.500000
O O6 0.816697 0.162895 0.331446
O O7 0.139509 0.567166 0.472848
O O8 0.760266 0.660409 0.729956
O O9 0.062057 0.242044 0.644663
O O10 0.876618 0.321253 0.911120
O O11 0.448222 0.057464 0.332640
O O12 0.500000 0.500000 0.000000
O O13 0.642050 0.174195 0.952093
O O14 0.275767 0.811181 0.736848
O O15 0.496848 0.428147 0.825596
#
# Coordination Sequence:
#
# PCOD9024471 Si02
#       7
#     2   2   2   2   2   2   2
#     4  10  22  41  65  92 130 168 214 263 312 377
#     4  10  22  40  64  99 124 164 213 267 323 369
#     4  11  24  42  63  96 131 169 214 258 326 380
#     4  11  23  40  64  98 125 166 214 265 319 377
#     4  11  22  43  67  92 133 164 211 270 319 377
#     4  10  25  43  62  97 131 175 214 256 316 384
#     4  11  23  42  66  95 133 168 216 259 319 382
#
# _framework density 21.991491
#
# number of rings (size 3 to 8) (size 9 to 14) (size 15 to 20)
#    0.000    1.429    1.429    3.000    2.000    4.571 
#    5.143    0.000    0.000    0.000    0.000    0.000 
#    0.000    0.000    0.000    0.000    0.000    0.000 
#
# Total GULP energy -78302.445563 kJ/mol
# GULP energy per Si atom -5593.031826 kJ/mol
# Density = 2.194144 g / cm^3
# Si number density = 21.991491 Si / 1000 Ang^3
#
#
#
# Elastic Constant Matrix: (Units=GPa)
#
#
# Indices 1 2 3 4 5 6 
#
# 1 61.8890 4.2523 39.9686 4.1944 -8.7929 -0.7880
# 2 4.2523 65.2185 26.6674 -8.5379 -10.3755 0.6434
# 3 39.9686 26.6674 107.7074 -0.4624 -10.4726 -20.9261
# 4 4.1944 -8.5379 -0.4624 38.1855 -5.7397 -8.8667
# 5 -8.7929 -10.3755 -10.4726 -5.7397 42.5794 -0.2230
# 6 -0.7880 0.6434 -20.9261 -8.8667 -0.2230 15.3325
#
#
#
# Elastic Compliance Matrix: (Units=1/GPa)
#
#
# Indices 1 2 3 4 5 6 
#
# 1 0.026126 0.004014 -0.015220 -0.007482 0.001496 -0.023902
# 2 0.004014 0.019241 -0.007833 0.001998 0.003807 -0.010082
# 3 -0.015220 -0.007833 0.024712 0.009627 0.002528 0.038878
# 4 -0.007482 0.001998 0.009627 0.036383 0.006391 0.033804
# 5 0.001496 0.003807 0.002528 0.006391 0.026244 0.007444
# 6 -0.023902 -0.010082 0.038878 0.033804 0.007444 0.137134
#
#
# Mechanical properties :
#
#
# Convention : Reuss Voigt Hill
#
# Bulk Modulus (GPa) = 31.24812 41.84350 36.54581
# Shear Modulus (GPa) = 15.69435 30.14792 22.92114
#
# Velocity S-wave (km/s) = 2.67433 3.70657 3.23193
# Velocity P-wave (km/s) = 4.87607 6.11446 5.53004
#
# Compressibility (1/GPa) = 0.03200192
#
# Stress axis : x y z
#
# Youngs Moduli (GPa) = 38.27544 51.97225 40.46578
#
# Poissons Ratio (x) = -0.20862 0.61587
# Poissons Ratio (y) = -0.15364 0.31699
# Poissons Ratio (z) = 0.58253 0.40712
#
# Static dielectric constant tensor:
#      x y z
#    x 1.819420 -0.008740 0.025650 
#    y -0.008740 1.791860 -0.016020 
#    z 0.025650 -0.016020 1.809940 
# 
# From -- ./inp_files/69512.got.cif
#   From: 2010.05.17/outbox.cif.g08.bks.cpg/sg2_35_cif.got.tgz:69512.got - 2010.06.03 11:33:40.
