data_PCOD9024685
_publ_section_title
;
Structure prediction by ZEFSAII (Michael W. Deem and Ramdas Pophale) SiO2 
 PCOD9024685
Probable space group: P -1
;
_chemical_formula_sum "Si O2"
_cell_formula_units_Z 14
_cell_length_a 16.716748
_cell_length_b 16.493849
_cell_length_c 19.337708
_cell_angle_alpha 159.949997
_cell_angle_beta 19.659469
_cell_angle_gamma 156.432442
_cell_volume 590.913306
_symmetry_space_group_name_H-M "P -1"
_symmetry_group_IT_number 2
_symmetry_cell_setting 'triclinic'
loop_
_space_group_symop_operation_xyz
x,y,z
-x,-y,-z
loop_
_atom_site_type_symbol
_atom_site_label
_atom_site_fract_x
_atom_site_fract_y
_atom_site_fract_z
Si Si1 0.872730 0.036592 0.767642
Si Si2 0.181689 0.949206 0.951497
Si Si3 0.125973 0.361233 0.928466
Si Si4 0.720183 0.141654 0.720987
Si Si5 0.410266 0.201115 0.327170
Si Si6 0.476348 0.896361 0.548900
Si Si7 0.791827 0.256089 0.494099
O O1 0.034079 0.305345 0.880328
O O2 0.789136 0.909741 0.659682
O O3 0.617333 0.058784 0.026832
O O4 0.035731 0.860182 0.523905
O O5 0.234092 0.845128 0.751985
O O6 0.458068 0.121461 0.882419
O O7 0.092031 0.764342 0.940118
O O8 0.960516 0.069179 0.215373
O O9 0.344588 0.236635 0.665438
O O10 0.218775 0.639241 0.098805
O O11 0.688953 0.896408 0.595203
O O12 0.500000 0.500000 0.500000
O O13 0.395129 0.784200 0.450243
O O14 0.618287 0.183090 0.645183
O O15 0.000000 0.500000 0.500000
#
# Coordination Sequence:
#
# PCOD9024685 Si02
#       7
#     2   2   2   2   2   2   2
#     4  11  24  44  69  96 131 175 218 276 334 389
#     4  11  23  42  64  97 135 175 220 270 329 389
#     4  11  24  43  65 100 135 172 229 269 325 400
#     4  12  25  42  69  98 132 176 221 274 334 392
#     4  11  26  46  68  99 132 171 226 275 333 401
#     4  10  22  42  65  95 136 175 214 275 324 379
#     4  10  22  40  65  98 132 172 224 264 322 393
#
# _framework density 23.692139999999998
#
# number of rings (size 3 to 8) (size 9 to 14) (size 15 to 20)
#    0.000    1.143    2.857    2.571    0.000    6.286 
#    0.000    0.000    0.000    0.000    0.000    0.000 
#    0.000    0.000    0.000    0.000    0.000    0.000 
#
# Total GULP energy -77945.540569 kJ/mol
# GULP energy per Si atom -5567.538612 kJ/mol
# Density = 2.363822 g / cm^3
# Si number density = 23.692140 Si / 1000 Ang^3
#
#
#
# Elastic Constant Matrix: (Units=GPa)
#
#
# Indices 1 2 3 4 5 6 
#
# 1 96.3195 25.8804 16.4459 -1.2112 -5.8351 12.7233
# 2 25.8804 81.1975 14.9331 5.9016 -5.7212 0.1637
# 3 16.4459 14.9331 57.7865 -14.4800 3.8654 -3.5106
# 4 -1.2112 5.9016 -14.4800 36.3711 7.6077 -2.0822
# 5 -5.8351 -5.7212 3.8654 7.6077 33.9119 -14.4665
# 6 12.7233 0.1637 -3.5106 -2.0822 -14.4665 47.9989
#
#
#
# Elastic Compliance Matrix: (Units=1/GPa)
#
#
# Indices 1 2 3 4 5 6 
#
# 1 0.012239 -0.003248 -0.003035 -0.000595 0.000634 -0.003290
# 2 -0.003248 0.014813 -0.004356 -0.005042 0.004228 0.001547
# 3 -0.003035 -0.004356 0.022461 0.010815 -0.005730 0.001204
# 4 -0.000595 -0.005042 0.010815 0.034704 -0.010232 -0.000613
# 5 0.000634 0.004228 -0.005730 -0.010232 0.037654 0.010303
# 6 -0.003290 0.001547 0.001204 -0.000613 0.010303 0.024867
#
#
# Mechanical properties :
#
#
# Convention : Reuss Voigt Hill
#
# Bulk Modulus (GPa) = 35.41694 38.86915 37.14304
# Shear Modulus (GPa) = 28.18060 35.52600 31.85330
#
# Velocity S-wave (km/s) = 3.45258 3.87652 3.67068
# Velocity P-wave (km/s) = 5.55653 6.03971 5.80315
#
# Compressibility (1/GPa) = 0.02823508
#
# Stress axis : x y z
#
# Youngs Moduli (GPa) = 81.70903 67.50733 44.52195
#
# Poissons Ratio (x) = 0.21928 0.13512
# Poissons Ratio (y) = 0.26541 0.19392
# Poissons Ratio (z) = 0.24798 0.29404
#
# Static dielectric constant tensor:
#      x y z
#    x 1.942110 -0.011620 0.036390 
#    y -0.011620 1.979840 -0.020720 
#    z 0.036390 -0.020720 1.926390 
# 
# From -- ./inp_files/6690.got.cif
#   From: 2010.05.17/outbox.cif.g08.bks.cpg/sg2_4_cif.got.tgz:6690.got - 2010.06.03 11:33:40.
