data_PCOD9024180
_publ_section_title
;
Structure prediction by ZEFSAII (Michael W. Deem and Ramdas Pophale) SiO2 
 PCOD9024180
Probable space group: P -1
;
_chemical_formula_sum "Si O2"
_cell_formula_units_Z 16
_cell_length_a 18.875075
_cell_length_b 14.586071
_cell_length_c 10.780951
_cell_angle_alpha 130.272689
_cell_angle_beta 129.239889
_cell_angle_gamma 19.213410
_cell_volume 742.353166
_symmetry_space_group_name_H-M "P -1"
_symmetry_group_IT_number 2
_symmetry_cell_setting 'triclinic'
loop_
_space_group_symop_operation_xyz
x,y,z
-x,-y,-z
loop_
_atom_site_type_symbol
_atom_site_label
_atom_site_fract_x
_atom_site_fract_y
_atom_site_fract_z
Si Si1 0.030237 0.978163 0.868011
Si Si2 0.167314 0.620228 0.387154
Si Si3 0.933912 0.571850 0.798061
Si Si4 0.371024 0.367183 0.648882
Si Si5 0.747073 0.247326 0.564251
Si Si6 0.068304 0.547312 0.557545
Si Si7 0.829293 0.928505 0.845776
Si Si8 0.706300 0.769217 0.937989
O O1 0.196451 0.678300 0.750873
O O2 0.823062 0.203510 0.746731
O O3 0.135217 0.985653 0.976575
O O4 0.000000 0.000000 0.000000
O O5 0.341594 0.384578 0.483565
O O6 0.228669 0.669779 0.429711
O O7 0.186097 0.488457 0.196248
O O8 0.925896 0.934513 0.447330
O O9 0.937002 0.697305 0.846027
O O10 0.714756 0.814222 0.847015
O O11 0.974332 0.424394 0.609247
O O12 0.136263 0.329912 0.900612
O O13 0.306192 0.323752 0.615044
O O14 0.592313 0.159828 0.759072
O O15 0.500000 0.500000 0.500000
O O16 0.937920 0.796187 0.713961
O O17 0.000000 0.500000 0.500000
O O18 0.500000 0.000000 0.000000
#
# Coordination Sequence:
#
# PCOD9024180 Si02
#       8
#     2   2   2   2   2   2   2   2
#     4  11  23  44  66 104 137 169 233 280 344 417
#     4  10  23  44  64 100 135 170 248 273 330 430
#     4  10  24  42  62  98 130 172 231 274 333 410
#     4  11  23  41  70  95 136 183 218 284 347 411
#     4  10  24  44  73  97 135 184 221 291 353 402
#     4  10  22  40  63  96 134 170 221 274 328 410
#     4  11  24  42  69  96 138 177 218 288 345 404
#     4  11  24  43  66  92 134 183 223 285 337 401
#
# _framework density 21.553084999999999
#
# number of rings (size 3 to 8) (size 9 to 14) (size 15 to 20)
#    0.000    1.500    2.500    1.125    3.500    6.000 
#    6.750    0.000    0.000    0.000    0.000    0.000 
#    0.000    0.000    0.000    0.000    0.000    0.000 
#
# Total GULP energy -89148.095297 kJ/mol
# GULP energy per Si atom -5571.755956 kJ/mol
# Density = 2.150403 g / cm^3
# Si number density = 21.553085 Si / 1000 Ang^3
#
#
#
# Elastic Constant Matrix: (Units=GPa)
#
#
# Indices 1 2 3 4 5 6 
#
# 1 111.9674 28.4978 41.3523 -6.0599 5.8665 -19.7335
# 2 28.4978 68.0237 43.6848 -21.2673 -1.3454 -26.1067
# 3 41.3523 43.6848 136.4020 -7.5176 -2.8841 -18.5288
# 4 -6.0599 -21.2673 -7.5176 37.7168 1.5245 2.4637
# 5 5.8665 -1.3454 -2.8841 1.5245 42.8726 3.6529
# 6 -19.7335 -26.1067 -18.5288 2.4637 3.6529 31.7448
#
#
#
# Elastic Compliance Matrix: (Units=1/GPa)
#
#
# Indices 1 2 3 4 5 6 
#
# 1 0.011076 -0.001253 -0.002341 0.000385 -0.002127 0.004703
# 2 -0.001253 0.031987 -0.006217 0.015295 -0.001567 0.020891
# 3 -0.002341 -0.006217 0.009840 -0.001906 0.000922 -0.000783
# 4 0.000385 0.015295 -0.001906 0.034285 -0.001707 0.009240
# 5 -0.002127 -0.001567 0.000922 -0.001707 0.024091 -0.004712
# 6 0.004703 0.020891 -0.000783 0.009240 -0.004712 0.050974
#
#
# Mechanical properties :
#
#
# Convention : Reuss Voigt Hill
#
# Bulk Modulus (GPa) = 30.04790 60.38475 45.21633
# Shear Modulus (GPa) = 25.91091 35.99073 30.95082
#
# Velocity S-wave (km/s) = 3.47102 4.09083 3.79361
# Velocity P-wave (km/s) = 5.48048 7.09865 6.34139
#
# Compressibility (1/GPa) = 0.03328019
#
# Stress axis : x y z
#
# Youngs Moduli (GPa) = 90.28542 31.26280 101.62438
#
# Poissons Ratio (x) = 0.03919 0.23794
# Poissons Ratio (y) = 0.11317 0.63175
# Poissons Ratio (z) = 0.21139 0.19435
#
# Static dielectric constant tensor:
#      x y z
#    x 1.845330 0.021480 -0.048830 
#    y 0.021480 1.758610 0.008680 
#    z -0.048830 0.008680 1.814730 
# 
# From -- ./inp_files/466117.got.cif
#   From: 2010.05.17/outbox.cif.g08.bks.cpg/sg2_234_cif.got.tgz:466117.got - 2010.06.03 11:33:40.
