data_PCOD9024771
_publ_section_title
;
Structure prediction by ZEFSAII (Michael W. Deem and Ramdas Pophale) SiO2 
 PCOD9024771
Probable space group: P -1
;
_chemical_formula_sum "Si O2"
_cell_formula_units_Z 16
_cell_length_a 18.901525
_cell_length_b 5.302131
_cell_length_c 9.121015
_cell_angle_alpha 73.757239
_cell_angle_beta 47.746065
_cell_angle_gamma 71.212510
_cell_volume 637.931008
_symmetry_space_group_name_H-M "P -1"
_symmetry_group_IT_number 2
_symmetry_cell_setting 'triclinic'
loop_
_space_group_symop_operation_xyz
x,y,z
-x,-y,-z
loop_
_atom_site_type_symbol
_atom_site_label
_atom_site_fract_x
_atom_site_fract_y
_atom_site_fract_z
Si Si1 0.700879 0.258752 0.956146
Si Si2 0.127816 0.340509 0.703872
Si Si3 0.856398 0.384005 0.929299
Si Si4 0.965299 0.810944 0.847388
Si Si5 0.426455 0.245051 0.991503
Si Si6 0.589040 0.847018 0.308795
Si Si7 0.723212 0.436517 0.372915
Si Si8 0.754794 0.993795 0.630752
O O1 0.767511 0.418102 0.933796
O O2 0.763387 0.131654 0.751882
O O3 0.597898 0.431115 0.010138
O O4 0.670802 0.029978 0.138634
O O5 0.231372 0.346476 0.633427
O O6 0.074021 0.645799 0.701220
O O7 0.150607 0.173271 0.552153
O O8 0.062462 0.233534 0.935755
O O9 0.901768 0.642923 0.862317
O O10 0.934511 0.125701 0.813050
O O11 0.808232 0.315504 0.160655
O O12 0.441277 0.214946 0.801912
O O13 0.500000 0.000000 0.000000
O O14 0.322837 0.191651 0.200321
O O15 0.500000 0.000000 0.500000
O O16 0.634533 0.582014 0.377076
O O17 0.705764 0.217961 0.547135
#
# Coordination Sequence:
#
# PCOD9024771 Si02
#       8
#     2   2   2   2   2   2   2   2
#     4  11  25  47  68  97 146 193 231 294 369 435
#     4  10  22  40  66 106 141 184 236 298 361 419
#     4  11  22  44  72 102 142 192 241 303 357 429
#     4  10  23  39  73 106 145 181 251 302 360 421
#     4  11  27  46  68 100 141 186 235 295 365 432
#     4  11  27  43  72 105 137 184 243 299 357 426
#     4  11  23  42  72 103 141 186 242 293 354 432
#     4  11  25  42  71  98 145 186 240 286 369 430
#
# _framework density 25.081078999999999
#
# number of rings (size 3 to 8) (size 9 to 14) (size 15 to 20)
#    0.000    1.250    2.500    2.250    8.750    3.000 
#    0.000    1.250    0.000    0.000    0.000    0.000 
#    0.000    0.000    0.000    0.000    0.000    0.000 
#
# Total GULP energy -89535.275675 kJ/mol
# GULP energy per Si atom -5595.954730 kJ/mol
# Density = 2.502399 g / cm^3
# Si number density = 25.081079 Si / 1000 Ang^3
#
#
#
# Elastic Constant Matrix: (Units=GPa)
#
#
# Indices 1 2 3 4 5 6 
#
# 1 71.8687 35.4065 41.4057 12.5711 14.3604 -16.2460
# 2 35.4065 113.1204 55.7661 19.0406 7.7905 -13.6257
# 3 41.4057 55.7661 132.8345 23.7432 15.6933 -8.6680
# 4 12.5711 19.0406 23.7432 53.6511 -1.9170 6.6704
# 5 14.3604 7.7905 15.6933 -1.9170 18.9350 1.9318
# 6 -16.2460 -13.6257 -8.6680 6.6704 1.9318 41.3255
#
#
#
# Elastic Compliance Matrix: (Units=1/GPa)
#
#
# Indices 1 2 3 4 5 6 
#
# 1 0.022773 -0.002890 -0.002637 -0.004801 -0.015294 0.008937
# 2 -0.002890 0.012261 -0.003605 -0.002410 -0.000369 0.002557
# 3 -0.002637 -0.003605 0.011293 -0.003450 -0.006327 0.000996
# 4 -0.004801 -0.002410 -0.003450 0.023483 0.010654 -0.007694
# 5 -0.015294 -0.000369 -0.006327 0.010654 0.072167 -0.012555
# 6 0.008937 0.002557 0.000996 -0.007694 -0.012555 0.030592
#
#
# Mechanical properties :
#
#
# Convention : Reuss Voigt Hill
#
# Bulk Modulus (GPa) = 35.63521 64.77559 50.20540
# Shear Modulus (GPa) = 24.97642 35.13201 30.05421
#
# Velocity S-wave (km/s) = 3.15910 3.74670 3.46538
# Velocity P-wave (km/s) = 5.24837 6.67829 6.00604
#
# Compressibility (1/GPa) = 0.02806213
#
# Stress axis : x y z
#
# Youngs Moduli (GPa) = 43.91096 81.55870 88.55099
#
# Poissons Ratio (x) = 0.23572 0.23352
# Poissons Ratio (y) = 0.12691 0.31926
# Poissons Ratio (z) = 0.11580 0.29405
#
# Static dielectric constant tensor:
#      x y z
#    x 2.037620 0.006700 -0.025110 
#    y 0.006700 2.064250 0.024350 
#    z -0.025110 0.024350 1.920190 
# 
# From -- ./inp_files/350527.got.cif
#   From: 2010.05.17/outbox.cif.g08.bks.cpg/sg2_176_cif.got.tgz:350527.got - 2010.06.03 11:33:40.
