data_PCOD9024963
_publ_section_title
;
Structure prediction by ZEFSAII (Michael W. Deem and Ramdas Pophale) SiO2 
 PCOD9024963
Probable space group: P -1
;
_chemical_formula_sum "Si O2"
_cell_formula_units_Z 13
_cell_length_a 16.189922
_cell_length_b 11.507765
_cell_length_c 10.453027
_cell_angle_alpha 126.187506
_cell_angle_beta 145.203004
_cell_angle_gamma 30.208851
_cell_volume 508.705907
_symmetry_space_group_name_H-M "P -1"
_symmetry_group_IT_number 2
_symmetry_cell_setting 'triclinic'
loop_
_space_group_symop_operation_xyz
x,y,z
-x,-y,-z
loop_
_atom_site_type_symbol
_atom_site_label
_atom_site_fract_x
_atom_site_fract_y
_atom_site_fract_z
Si Si1 0.500000 0.000000 0.000000
Si Si2 0.851323 0.440879 0.851932
Si Si3 0.457297 0.581772 0.822623
Si Si4 0.732999 0.640520 0.281218
Si Si5 0.254930 0.306859 0.382429
Si Si6 0.667904 0.171637 0.423148
Si Si7 0.154350 0.909105 0.901604
O O1 0.529233 0.910380 0.126775
O O2 0.654073 0.021335 0.254598
O O3 0.773083 0.580211 0.710409
O O4 0.597477 0.588179 0.687673
O O5 0.066755 0.142901 0.919687
O O6 0.981087 0.446711 0.120851
O O7 0.313191 0.733142 0.608805
O O8 0.267688 0.751674 0.811565
O O9 0.665851 0.539674 0.073414
O O10 0.614311 0.305919 0.846251
O O11 0.727048 0.628896 0.418030
O O12 0.000000 0.500000 0.500000
O O13 0.500000 0.000000 0.500000
O O14 0.915387 0.011339 0.712616
#
# Coordination Sequence:
#
# PCOD9024963 Si02
#       7
#     1   2   2   2   2   2   2
#     4  10  22  40  66  98 124 158 220 274 322 394
#     4  11  26  43  65 101 137 176 227 271 329 411
#     4  10  24  42  65  98 129 173 230 276 331 402
#     4  11  22  40  68  95 125 166 216 275 329 381
#     4  11  24  43  67  97 135 176 216 273 339 395
#     4  11  23  42  68  96 131 175 221 279 338 394
#     4  11  24  43  64  94 137 178 221 278 335 395
#
# _framework density 25.555042
#
# number of rings (size 3 to 8) (size 9 to 14) (size 15 to 20)
#    0.000    1.231    0.000    5.538    0.000   14.154 
#    0.000    0.000    0.000    0.000    0.000    0.000 
#    0.000    0.000    0.000    0.000    0.000    0.000 
#
# Total GULP energy -72536.690488 kJ/mol
# GULP energy per Si atom -5579.745422 kJ/mol
# Density = 2.549688 g / cm^3
# Si number density = 25.555042 Si / 1000 Ang^3
#
#
#
# Elastic Constant Matrix: (Units=GPa)
#
#
# Indices 1 2 3 4 5 6 
#
# 1 73.0822 13.1926 14.7666 -13.3514 -0.8156 21.8889
# 2 13.1926 85.8909 19.4106 -25.6197 -12.6054 30.5088
# 3 14.7666 19.4106 116.2850 2.8212 3.4728 8.2482
# 4 -13.3514 -25.6197 2.8212 40.0372 -2.8223 -3.0825
# 5 -0.8156 -12.6054 3.4728 -2.8223 55.6565 -11.2158
# 6 21.8889 30.5088 8.2482 -3.0825 -11.2158 37.8876
#
#
#
# Elastic Compliance Matrix: (Units=1/GPa)
#
#
# Indices 1 2 3 4 5 6 
#
# 1 0.019060 0.005106 -0.002456 0.008651 -0.000819 -0.014127
# 2 0.005106 0.023532 -0.003684 0.015736 0.002594 -0.019048
# 3 -0.002456 -0.003684 0.009546 -0.003820 -0.001337 0.001601
# 4 0.008651 0.015736 -0.003820 0.037441 0.003242 -0.012832
# 5 -0.000819 0.002594 -0.001337 0.003242 0.019755 0.004788
# 6 -0.014127 -0.019048 0.001601 -0.012832 0.004788 0.049919
#
#
# Mechanical properties :
#
#
# Convention : Reuss Voigt Hill
#
# Bulk Modulus (GPa) = 19.97303 41.11085 30.54194
# Shear Modulus (GPa) = 28.08811 41.90881 34.99846
#
# Velocity S-wave (km/s) = 3.31890 4.05401 3.70473
# Velocity P-wave (km/s) = 4.74546 6.16729 5.50250
#
# Compressibility (1/GPa) = 0.05006752
#
# Stress axis : x y z
#
# Youngs Moduli (GPa) = 52.46512 42.49611 104.76132
#
# Poissons Ratio (x) = -0.21696 0.25729
# Poissons Ratio (y) = -0.26786 0.38599
# Poissons Ratio (z) = 0.12885 0.15657
#
# Static dielectric constant tensor:
#      x y z
#    x 1.985580 0.016350 0.025820 
#    y 0.016350 2.122050 -0.004530 
#    z 0.025820 -0.004530 1.966370 
# 
# From -- ./inp_files/385926.got.cif
#   From: 2010.05.17/outbox.cif.g08.bks.cpg/sg2_193_cif.got.tgz:385926.got - 2010.06.03 11:33:40.
