data_PCOD9024803
_publ_section_title
;
Structure prediction by ZEFSAII (Michael W. Deem and Ramdas Pophale) SiO2 
 PCOD9024803
Probable space group: P -1
;
_chemical_formula_sum "Si O2"
_cell_formula_units_Z 16
_cell_length_a 16.273027
_cell_length_b 9.504150
_cell_length_c 8.491719
_cell_angle_alpha 88.950961
_cell_angle_beta 103.041682
_cell_angle_gamma 143.201430
_cell_volume 736.131830
_symmetry_space_group_name_H-M "P -1"
_symmetry_group_IT_number 2
_symmetry_cell_setting 'triclinic'
loop_
_space_group_symop_operation_xyz
x,y,z
-x,-y,-z
loop_
_atom_site_type_symbol
_atom_site_label
_atom_site_fract_x
_atom_site_fract_y
_atom_site_fract_z
Si Si1 0.347896 0.515319 0.774798
Si Si2 0.552298 0.621816 0.350922
Si Si3 0.891379 0.647636 0.901596
Si Si4 0.017249 0.067601 0.754210
Si Si5 0.628396 0.181310 0.422698
Si Si6 0.564921 0.268270 0.858896
Si Si7 0.066514 0.514294 0.310758
Si Si8 0.886336 0.142010 0.520895
O O1 0.427170 0.483177 0.752035
O O2 0.182712 0.258596 0.768117
O O3 0.343685 0.623372 0.630937
O O4 0.430937 0.698257 0.954583
O O5 0.500000 0.500000 0.500000
O O6 0.448479 0.598519 0.233751
O O7 0.712631 0.905134 0.440544
O O8 0.718881 0.410591 0.869848
O O9 0.943898 0.568759 0.863223
O O10 0.968926 0.816975 0.085220
O O11 0.927867 0.808463 0.773846
O O12 0.941477 0.062192 0.591650
O O13 0.775507 0.317755 0.555375
O O14 0.500000 0.000000 0.500000
O O15 0.568598 0.008177 0.254128
O O16 0.058256 0.669789 0.329087
O O17 0.949348 0.283307 0.380887
#
# Coordination Sequence:
#
# PCOD9024803 Si02
#       8
#     2   2   2   2   2   2   2   2
#     4  11  25  41  65  92 122 169 204 257 317 366
#     4  12  25  40  64  96 126 163 207 257 311 366
#     4  10  22  40  66  91 122 164 199 257 307 371
#     4  10  22  42  63  92 125 158 208 248 313 373
#     4  12  22  41  66  93 121 164 213 258 306 370
#     4  11  23  43  62  92 131 160 207 256 310 373
#     4  11  23  40  63  90 123 163 208 252 308 360
#     4  11  24  40  62  90 124 162 205 258 300 369
#
# _framework density 21.735237999999999
#
# number of rings (size 3 to 8) (size 9 to 14) (size 15 to 20)
#    0.000    1.000    3.750    3.000    1.750    1.500 
#    0.000    1.250    0.000    0.000    0.000    0.000 
#    0.000    0.000    0.000    0.000    0.000    0.000 
#
# Total GULP energy -89562.166819 kJ/mol
# GULP energy per Si atom -5597.635426 kJ/mol
# Density = 2.168577 g / cm^3
# Si number density = 21.735238 Si / 1000 Ang^3
#
#
#
# Elastic Constant Matrix: (Units=GPa)
#
#
# Indices 1 2 3 4 5 6 
#
# 1 69.0592 0.7620 11.3957 -12.3989 -28.0435 -9.1367
# 2 0.7620 75.3675 8.8938 -7.7781 -12.7028 10.9897
# 3 11.3957 8.8938 60.5443 0.7511 -19.2655 -0.8084
# 4 -12.3989 -7.7781 0.7511 31.5445 -8.7071 -3.0124
# 5 -28.0435 -12.7028 -19.2655 -8.7071 45.6205 -1.3035
# 6 -9.1367 10.9897 -0.8084 -3.0124 -1.3035 36.7722
#
#
#
# Elastic Compliance Matrix: (Units=1/GPa)
#
#
# Indices 1 2 3 4 5 6 
#
# 1 0.027949 0.004189 0.001229 0.019035 0.022730 0.008084
# 2 0.004189 0.015851 -0.000684 0.007527 0.008056 -0.002809
# 3 0.001229 -0.000684 0.019318 0.002548 0.009251 0.001471
# 4 0.019035 0.007527 0.002548 0.048395 0.024320 0.007363
# 5 0.022730 0.008056 0.009251 0.024320 0.046886 0.007098
# 6 0.008084 -0.002809 0.001471 0.007363 0.007098 0.030930
#
#
# Mechanical properties :
#
#
# Convention : Reuss Voigt Hill
#
# Bulk Modulus (GPa) = 13.77716 27.45267 20.61492
# Shear Modulus (GPa) = 24.50304 35.04872 29.77588
#
# Velocity S-wave (km/s) = 3.36123 4.01999 3.70528
# Velocity P-wave (km/s) = 4.62777 5.84850 5.27358
#
# Compressibility (1/GPa) = 0.07258389
#
# Stress axis : x y z
#
# Youngs Moduli (GPa) = 35.78003 63.08785 51.76563
#
# Poissons Ratio (x) = -0.26428 -0.06360
# Poissons Ratio (y) = -0.14988 0.03543
# Poissons Ratio (z) = -0.04396 0.04317
#
# Static dielectric constant tensor:
#      x y z
#    x 1.777010 -0.029740 -0.035200 
#    y -0.029740 1.755610 0.009560 
#    z -0.035200 0.009560 1.812870 
# 
# From -- ./inp_files/180300.got.cif
#   From: 2010.05.17/outbox.cif.g08.bks.cpg/sg2_91_cif.got.tgz:180300.got - 2010.06.03 11:33:40.
