data_PCOD9024597
_publ_section_title
;
Structure prediction by ZEFSAII (Michael W. Deem and Ramdas Pophale) SiO2 
 PCOD9024597
Probable space group: P -1
;
_chemical_formula_sum "Si O2"
_cell_formula_units_Z 14
_cell_length_a 11.268932
_cell_length_b 11.953135
_cell_length_c 6.100493
_cell_angle_alpha 51.292695
_cell_angle_beta 83.340799
_cell_angle_gamma 68.873567
_cell_volume 591.341306
_symmetry_space_group_name_H-M "P -1"
_symmetry_group_IT_number 2
_symmetry_cell_setting 'triclinic'
loop_
_space_group_symop_operation_xyz
x,y,z
-x,-y,-z
loop_
_atom_site_type_symbol
_atom_site_label
_atom_site_fract_x
_atom_site_fract_y
_atom_site_fract_z
Si Si1 0.906099 0.449365 0.733368
Si Si2 0.360514 0.725484 0.931432
Si Si3 0.630419 0.552545 0.446907
Si Si4 0.487108 0.843207 0.392025
Si Si5 0.007049 0.167432 0.792342
Si Si6 0.197356 0.610753 0.773381
Si Si7 0.299625 0.022124 0.870577
O O1 0.765175 0.530916 0.563917
O O2 0.000000 0.500000 0.500000
O O3 0.960118 0.264630 0.905422
O O4 0.879010 0.473862 0.966189
O O5 0.463139 0.756173 0.714078
O O6 0.261132 0.695092 0.823360
O O7 0.299238 0.875729 0.911037
O O8 0.410464 0.576997 0.263068
O O9 0.539000 0.722548 0.327989
O O10 0.683822 0.502913 0.253486
O O11 0.593178 0.917357 0.321035
O O12 0.353761 0.966446 0.173040
O O13 0.155118 0.144793 0.748800
O O14 0.905196 0.270071 0.510617
O O15 0.000000 0.000000 0.000000
#
# Coordination Sequence:
#
# PCOD9024597 Si02
#       7
#     2   2   2   2   2   2   2
#     4  10  22  41  64  94 127 164 211 262 319 379
#     4  11  22  41  65  93 126 166 215 263 314 376
#     4  10  22  40  65  94 124 165 216 261 314 377
#     4  11  24  43  63  91 131 170 211 264 315 370
#     4  11  22  40  64  95 130 167 212 258 314 384
#     4  10  23  41  68  97 128 164 209 269 320 370
#     4  11  25  41  62  94 130 169 213 257 316 383
#
# _framework density 23.674987999999999
#
# number of rings (size 3 to 8) (size 9 to 14) (size 15 to 20)
#    0.000    1.429    0.000    6.000    0.000   10.286 
#    0.000    4.286    0.000    0.000    0.000    0.000 
#    0.000    0.000    0.000    0.000    0.000    0.000 
#
# Total GULP energy -78311.232675 kJ/mol
# GULP energy per Si atom -5593.659477 kJ/mol
# Density = 2.362110 g / cm^3
# Si number density = 23.674988 Si / 1000 Ang^3
#
#
#
# Elastic Constant Matrix: (Units=GPa)
#
#
# Indices 1 2 3 4 5 6 
#
# 1 93.6106 14.8326 35.4709 3.9460 -1.7210 -10.9436
# 2 14.8326 70.2133 18.2327 4.9970 0.1644 -12.5573
# 3 35.4709 18.2327 120.2120 17.2983 -28.5919 -19.2375
# 4 3.9460 4.9970 17.2983 30.5612 -5.7891 -5.8178
# 5 -1.7210 0.1644 -28.5919 -5.7891 46.5358 -5.4851
# 6 -10.9436 -12.5573 -19.2375 -5.8178 -5.4851 38.5772
#
#
#
# Elastic Compliance Matrix: (Units=1/GPa)
#
#
# Indices 1 2 3 4 5 6 
#
# 1 0.012405 -0.001506 -0.003752 0.000652 -0.001639 0.001023
# 2 -0.001506 0.015652 -0.001325 -0.001012 -0.000607 0.003768
# 3 -0.003752 -0.001325 0.012997 -0.004094 0.007991 0.005505
# 4 0.000652 -0.001012 -0.004094 0.036276 0.002453 0.003634
# 5 -0.001639 -0.000607 0.007991 0.002453 0.027542 0.007608
# 6 0.001023 0.003768 0.005505 0.003634 0.007608 0.031813
#
#
# Mechanical properties :
#
#
# Convention : Reuss Voigt Hill
#
# Bulk Modulus (GPa) = 35.85809 46.78981 41.32395
# Shear Modulus (GPa) = 31.41722 37.50147 34.45935
#
# Velocity S-wave (km/s) = 3.64678 3.98428 3.81926
# Velocity P-wave (km/s) = 5.73680 6.40096 6.07796
#
# Compressibility (1/GPa) = 0.02788771
#
# Stress axis : x y z
#
# Youngs Moduli (GPa) = 80.61388 63.89002 76.93834
#
# Poissons Ratio (x) = 0.09621 0.28867
# Poissons Ratio (y) = 0.12139 0.10197
# Poissons Ratio (z) = 0.30246 0.08468
#
# Static dielectric constant tensor:
#      x y z
#    x 1.960350 0.055220 -0.034720 
#    y 0.055220 1.896160 0.014240 
#    z -0.034720 0.014240 1.931820 
# 
# From -- ./inp_files/67452.got.cif
#   From: 2010.05.17/outbox.cif.g08.bks.cpg/sg2_34_cif.got.tgz:67452.got - 2010.06.03 11:33:40.
