data_PCOD9024971
_publ_section_title
;
Structure prediction by ZEFSAII (Michael W. Deem and Ramdas Pophale) SiO2 
 PCOD9024971
Probable space group: P -1
;
_chemical_formula_sum "Si O2"
_cell_formula_units_Z 12
_cell_length_a 9.664871
_cell_length_b 8.105332
_cell_length_c 9.341875
_cell_angle_alpha 134.434725
_cell_angle_beta 66.495050
_cell_angle_gamma 95.564508
_cell_volume 460.257319
_symmetry_space_group_name_H-M "P -1"
_symmetry_group_IT_number 2
_symmetry_cell_setting 'triclinic'
loop_
_space_group_symop_operation_xyz
x,y,z
-x,-y,-z
loop_
_atom_site_type_symbol
_atom_site_label
_atom_site_fract_x
_atom_site_fract_y
_atom_site_fract_z
Si Si1 0.346567 0.706337 0.228624
Si Si2 0.950890 0.062590 0.897360
Si Si3 0.525027 0.953089 0.794062
Si Si4 0.732664 0.551995 0.303604
Si Si5 0.283975 0.103147 0.731557
Si Si6 0.991981 0.251337 0.574975
O O1 0.349499 0.911650 0.235634
O O2 0.191606 0.614466 0.245991
O O3 0.343313 0.851722 0.466345
O O4 0.500000 0.500000 0.000000
O O5 0.786501 0.267473 0.086098
O O6 0.096567 0.156502 0.840909
O O7 0.000000 0.000000 0.000000
O O8 0.961291 0.828569 0.655526
O O9 0.372356 0.058633 0.819830
O O10 0.603036 0.675845 0.549587
O O11 0.500000 0.000000 0.000000
O O12 0.683056 0.693638 0.261698
O O13 0.891512 0.611714 0.327216
O O14 0.000000 0.000000 0.500000
#
# Coordination Sequence:
#
# PCOD9024971 Si02
#       6
#     2   2   2   2   2   2
#     4  10  22  40  66  98 131 178 223 272 325 410
#     4  11  26  42  68 104 136 172 224 286 340 394
#     4  11  25  43  65 101 137 173 222 281 347 393
#     4  11  23  47  70  96 137 185 221 281 331 404
#     4  10  23  45  64  97 135 177 229 269 336 411
#     4  11  22  41  69 100 130 174 238 262 330 411
#
# _framework density 26.072371
#
# number of rings (size 3 to 8) (size 9 to 14) (size 15 to 20)
#    0.000    1.333    5.000    2.500    4.667    4.667 
#    0.000    1.667    0.000    0.000    0.000    0.000 
#    0.000    0.000    0.000    0.000    0.000    0.000 
#
# Total GULP energy -67236.154594 kJ/mol
# GULP energy per Si atom -5603.012883 kJ/mol
# Density = 2.601303 g / cm^3
# Si number density = 26.072371 Si / 1000 Ang^3
#
#
#
# Elastic Constant Matrix: (Units=GPa)
#
#
# Indices 1 2 3 4 5 6 
#
# 1 129.1378 25.4650 53.2007 0.7778 19.7242 -21.7920
# 2 25.4650 37.3722 44.9135 -8.6821 8.4622 -5.1662
# 3 53.2007 44.9135 213.0023 0.5998 -5.5712 -32.7969
# 4 0.7778 -8.6821 0.5998 49.9279 -24.5090 4.1988
# 5 19.7242 8.4622 -5.5712 -24.5090 52.5853 -0.3147
# 6 -21.7920 -5.1662 -32.7969 4.1988 -0.3147 34.6354
#
#
#
# Elastic Compliance Matrix: (Units=1/GPa)
#
#
# Indices 1 2 3 4 5 6 
#
# 1 0.010953 -0.005463 -0.000823 -0.004157 -0.005219 0.005754
# 2 -0.005463 0.042011 -0.008514 0.006782 -0.002489 -0.006078
# 3 -0.000823 -0.008514 0.007608 -0.001025 0.002040 0.005559
# 4 -0.004157 0.006782 -0.001025 0.028450 0.013584 -0.005900
# 5 -0.005219 -0.002489 0.002040 0.013584 0.027903 -0.003116
# 6 0.005754 -0.006078 0.005559 -0.005900 -0.003116 0.037537
#
#
# Mechanical properties :
#
#
# Convention : Reuss Voigt Hill
#
# Bulk Modulus (GPa) = 32.28648 69.63007 50.95828
# Shear Modulus (GPa) = 25.72200 44.49193 35.10697
#
# Velocity S-wave (km/s) = 3.14437 4.13544 3.67348
# Velocity P-wave (km/s) = 5.05895 7.04037 6.13025
#
# Compressibility (1/GPa) = 0.03097272
#
# Stress axis : x y z
#
# Youngs Moduli (GPa) = 91.29854 23.80305 131.44541
#
# Poissons Ratio (x) = 0.13004 0.10812
# Poissons Ratio (y) = 0.49878 1.11913
# Poissons Ratio (z) = 0.07510 0.20266
#
# Static dielectric constant tensor:
#      x y z
#    x 2.099570 0.023410 -0.033680 
#    y 0.023410 2.082970 0.023950 
#    z -0.033680 0.023950 2.122030 
# 
# From -- ./inp_files/241217.got.cif
#   From: 2010.05.17/outbox.cif.g08.bks.cpg/sg2_121_cif.got.tgz:241217.got - 2010.06.03 11:33:40.
