data_PCOD9024920
_publ_section_title
;
Structure prediction by ZEFSAII (Michael W. Deem and Ramdas Pophale) SiO2 
 PCOD9024920
Probable space group: P -1
;
_chemical_formula_sum "Si O2"
_cell_formula_units_Z 16
_cell_length_a 26.665889
_cell_length_b 15.468876
_cell_length_c 8.526734
_cell_angle_alpha 51.656471
_cell_angle_beta 139.853359
_cell_angle_gamma 159.209142
_cell_volume 733.516366
_symmetry_space_group_name_H-M "P -1"
_symmetry_group_IT_number 2
_symmetry_cell_setting 'triclinic'
loop_
_space_group_symop_operation_xyz
x,y,z
-x,-y,-z
loop_
_atom_site_type_symbol
_atom_site_label
_atom_site_fract_x
_atom_site_fract_y
_atom_site_fract_z
Si Si1 0.066960 0.599933 0.719581
Si Si2 0.188216 0.534954 0.239613
Si Si3 0.440075 0.226047 0.927591
Si Si4 0.254141 0.226994 0.480571
Si Si5 0.194489 0.705734 0.312739
Si Si6 0.098233 0.010137 0.704276
Si Si7 0.676612 0.659260 0.813601
Si Si8 0.450367 0.693174 0.553731
O O1 0.000000 0.500000 0.500000
O O2 0.900528 0.452680 0.574916
O O3 0.269471 0.920158 0.852304
O O4 0.088184 0.502972 0.942187
O O5 0.287291 0.732133 0.395416
O O6 0.308753 0.613316 0.325128
O O7 0.041285 0.269344 0.278661
O O8 0.352194 0.234213 0.707360
O O9 0.593918 0.432870 0.923088
O O10 0.533146 0.327403 0.204341
O O11 0.181952 0.151887 0.211115
O O12 0.379352 0.498809 0.501627
O O13 0.149953 0.080439 0.564679
O O14 0.347216 0.999302 0.362082
O O15 0.000000 0.500000 0.000000
O O16 0.000000 0.000000 0.500000
O O17 0.244089 0.192874 0.996474
O O18 0.500000 0.500000 0.500000
#
# Coordination Sequence:
#
# PCOD9024920 Si02
#       8
#     2   2   2   2   2   2   2   2
#     4  11  26  43  66 100 135 182 228 284 339 413
#     4  11  24  43  69  97 137 174 228 285 340 415
#     4  11  22  42  67  97 136 177 233 276 350 409
#     4  11  25  41  69 101 138 183 228 292 340 418
#     4  10  22  40  66  96 124 178 226 271 328 412
#     4  12  24  45  67 100 139 184 230 280 359 409
#     4  10  25  40  66 103 133 177 230 294 337 411
#     4  12  22  43  68 100 132 180 228 284 352 403
#
# _framework density 21.812736999999998
#
# number of rings (size 3 to 8) (size 9 to 14) (size 15 to 20)
#    0.000    1.000    5.000    1.500    8.750    0.500 
#    0.000    1.875    0.000    0.000    0.000    0.000 
#    0.000    0.000    0.000    0.000    0.000    0.000 
#
# Total GULP energy -89087.533144 kJ/mol
# GULP energy per Si atom -5567.970821 kJ/mol
# Density = 2.176309 g / cm^3
# Si number density = 21.812737 Si / 1000 Ang^3
#
#
#
# Elastic Constant Matrix: (Units=GPa)
#
#
# Indices 1 2 3 4 5 6 
#
# 1 79.7026 6.1623 8.4408 -19.9076 -8.3802 19.9193
# 2 6.1623 109.4855 -10.9461 -17.0838 5.2500 5.8468
# 3 8.4408 -10.9461 -27.4555 -46.2937 -10.4493 36.8497
# 4 -19.9076 -17.0838 -46.2937 13.7649 -1.2119 12.8048
# 5 -8.3802 5.2500 -10.4493 -1.2119 34.3722 -9.8844
# 6 19.9193 5.8468 36.8497 12.8048 -9.8844 27.6740
#
#
#
# Elastic Compliance Matrix: (Units=1/GPa)
#
#
# Indices 1 2 3 4 5 6 
#
# 1 0.015168 -0.000783 -0.006245 0.003488 0.000978 -0.003701
# 2 -0.000783 0.009045 -0.002511 0.000496 -0.002017 0.001046
# 3 -0.006245 -0.002511 0.001847 -0.015413 0.001859 0.010362
# 4 0.003488 0.000496 -0.015413 0.017455 -0.000522 0.009645
# 5 0.000978 -0.002017 0.001859 -0.000522 0.032837 0.009217
# 6 -0.003701 0.001046 0.010362 0.009645 0.009217 0.023609
#
#
# Mechanical properties :
#
#
# Convention : Reuss Voigt Hill
#
# Bulk Modulus (GPa) = 143.26837 18.78295 81.02566
# Shear Modulus (GPa) = 41.19728 25.70058 33.44893
#
# Velocity S-wave (km/s) = 4.35061 3.43627 3.92019
# Velocity P-wave (km/s) = 9.54257 4.93697 7.59718
#
# Compressibility (1/GPa) = 0.00697991
#
# Stress axis : x y z
#
# Youngs Moduli (GPa) = 65.93019 110.55920 541.40256
#
# Poissons Ratio (x) = 0.08657 3.38130
# Poissons Ratio (y) = 0.05163 1.35963
# Poissons Ratio (z) = 0.41176 0.27765
#
# Static dielectric constant tensor:
#      x y z
#    x 1.934590 0.065000 -0.018770 
#    y 0.065000 1.758820 -0.020870 
#    z -0.018770 -0.020870 1.789740 
# 
# From -- ./inp_files/357399.got.cif
#   From: 2010.05.17/outbox.cif.g08.bks.cpg/sg2_179_cif.got.tgz:357399.got - 2010.06.03 11:33:40.
