data_PCOD9024556
_publ_section_title
;
Structure prediction by ZEFSAII (Michael W. Deem and Ramdas Pophale) SiO2 
 PCOD9024556
Probable space group: P -1
;
_chemical_formula_sum "Si O2"
_cell_formula_units_Z 16
_cell_length_a 8.712852
_cell_length_b 15.560991
_cell_length_c 9.545892
_cell_angle_alpha 133.637684
_cell_angle_beta 69.259386
_cell_angle_gamma 93.853393
_cell_volume 845.411479
_symmetry_space_group_name_H-M "P -1"
_symmetry_group_IT_number 2
_symmetry_cell_setting 'triclinic'
loop_
_space_group_symop_operation_xyz
x,y,z
-x,-y,-z
loop_
_atom_site_type_symbol
_atom_site_label
_atom_site_fract_x
_atom_site_fract_y
_atom_site_fract_z
Si Si1 0.781357 0.108401 0.312980
Si Si2 0.832048 0.484609 0.112276
Si Si3 0.423032 0.089682 0.495107
Si Si4 0.288936 0.725703 0.222021
Si Si5 0.012318 0.425345 0.266862
Si Si6 0.815061 0.056365 0.693444
Si Si7 0.663611 0.639672 0.100098
Si Si8 0.040424 0.846756 0.976182
O O1 0.583037 0.112577 0.384995
O O2 0.804973 0.204128 0.532672
O O3 0.854455 0.149416 0.194565
O O4 0.878973 0.966760 0.155612
O O5 0.688114 0.583992 0.186427
O O6 0.863536 0.484756 0.268292
O O7 0.809389 0.354231 0.922573
O O8 0.000000 0.500000 0.000000
O O9 0.324720 0.220494 0.737000
O O10 0.500000 0.000000 0.500000
O O11 0.293122 0.043224 0.386363
O O12 0.299681 0.837352 0.245809
O O13 0.475521 0.646001 0.113804
O O14 0.000000 0.500000 0.500000
O O15 0.002678 0.284256 0.137656
O O16 0.187577 0.425908 0.128972
O O17 0.849642 0.119088 0.894947
O O18 0.000000 0.000000 0.500000
#
# Coordination Sequence:
#
# PCOD9024556 Si02
#       8
#     2   2   2   2   2   2   2   2
#     4  10  23  39  63  94 124 161 195 263 317 366
#     4  10  23  39  63  91 118 160 216 252 293 369
#     4  11  20  39  67  93 121 154 206 255 314 367
#     4  11  21  40  67  90 123 160 208 259 309 364
#     4  11  24  43  62  87 127 170 203 256 310 366
#     4  12  21  36  67  95 121 164 206 253 308 380
#     4  10  22  40  65  92 120 160 213 257 300 368
#     4  11  23  40  60  91 129 160 207 251 314 377
#
# _framework density 18.925694
#
# number of rings (size 3 to 8) (size 9 to 14) (size 15 to 20)
#    0.000    1.250    5.000    1.875    5.250    0.500 
#    2.250    3.125    0.000    0.000    0.000    0.000 
#    0.000    0.000    0.000    0.000    0.000    0.000 
#
# Total GULP energy -89211.190942 kJ/mol
# GULP energy per Si atom -5575.699434 kJ/mol
# Density = 1.888262 g / cm^3
# Si number density = 18.925694 Si / 1000 Ang^3
#
#
#
# Elastic Constant Matrix: (Units=GPa)
#
#
# Indices 1 2 3 4 5 6 
#
# 1 89.3392 20.0918 44.8740 -9.2704 18.8644 -5.0650
# 2 20.0918 76.2325 35.1470 -4.7338 8.3870 -17.6794
# 3 44.8740 35.1470 118.9411 -15.0863 26.0119 -9.8087
# 4 -9.2704 -4.7338 -15.0863 27.8563 -0.6630 6.8355
# 5 18.8644 8.3870 26.0119 -0.6630 40.7091 3.1234
# 6 -5.0650 -17.6794 -9.8087 6.8355 3.1234 31.1392
#
#
#
# Elastic Compliance Matrix: (Units=1/GPa)
#
#
# Indices 1 2 3 4 5 6 
#
# 1 0.014556 -0.001409 -0.003897 0.002346 -0.003944 0.000221
# 2 -0.001409 0.017342 -0.003827 -0.001814 -0.001190 0.008929
# 3 -0.003897 -0.003827 0.012904 0.004713 -0.005635 0.000789
# 4 0.002346 -0.001814 0.004713 0.040797 -0.002457 -0.007872
# 5 -0.003944 -0.001190 -0.005635 -0.002457 0.030629 -0.005625
# 6 0.000221 0.008929 0.000789 -0.007872 -0.005625 0.039760
#
#
# Mechanical properties :
#
#
# Convention : Reuss Voigt Hill
#
# Bulk Modulus (GPa) = 37.68321 53.85980 45.77151
# Shear Modulus (GPa) = 27.30750 32.23424 29.77087
#
# Velocity S-wave (km/s) = 3.80265 4.13146 3.97046
# Velocity P-wave (km/s) = 6.26375 7.16093 6.72731
#
# Compressibility (1/GPa) = 0.02653701
#
# Stress axis : x y z
#
# Youngs Moduli (GPa) = 68.69843 57.66210 77.49672
#
# Poissons Ratio (x) = 0.08124 0.30202
# Poissons Ratio (y) = 0.09679 0.29655
# Poissons Ratio (z) = 0.26774 0.22065
#
# Static dielectric constant tensor:
#      x y z
#    x 1.150140 -0.059950 -0.498250 
#    y -0.059950 1.719390 -0.012660 
#    z -0.498250 -0.012660 1.193240 
# 
# From -- ./inp_files/181870.got.cif
#   From: 2010.05.17/outbox.cif.g08.bks.cpg/sg2_91_cif.got.tgz:181870.got - 2010.06.03 11:33:40.
