data_PCOD9024206
_publ_section_title
;
Structure prediction by ZEFSAII (Michael W. Deem and Ramdas Pophale) SiO2 
 PCOD9024206
Probable space group: P -1
;
_chemical_formula_sum "Si O2"
_cell_formula_units_Z 14
_cell_length_a 19.826494
_cell_length_b 11.752996
_cell_length_c 16.740544
_cell_angle_alpha 143.312247
_cell_angle_beta 159.748452
_cell_angle_gamma 27.360617
_cell_volume 608.417212
_symmetry_space_group_name_H-M "P -1"
_symmetry_group_IT_number 2
_symmetry_cell_setting 'triclinic'
loop_
_space_group_symop_operation_xyz
x,y,z
-x,-y,-z
loop_
_atom_site_type_symbol
_atom_site_label
_atom_site_fract_x
_atom_site_fract_y
_atom_site_fract_z
Si Si1 0.116960 0.071363 0.606465
Si Si2 0.132626 0.194039 0.219752
Si Si3 0.124111 0.994972 0.929683
Si Si4 0.691477 0.604331 0.363277
Si Si5 0.718857 0.993098 0.558632
Si Si6 0.342698 0.299801 0.066751
Si Si7 0.284328 0.482837 0.276280
O O1 0.895933 0.305836 0.436521
O O2 0.357374 0.844576 0.693093
O O3 0.256177 0.149310 0.855602
O O4 0.000000 0.000000 0.500000
O O5 0.161278 0.096003 0.108661
O O6 0.289268 0.287995 0.469692
O O7 0.208065 0.005453 0.268395
O O8 0.832470 0.444095 0.034897
O O9 0.409150 0.726785 0.088104
O O10 0.980541 0.231533 0.842092
O O11 0.915376 0.968686 0.704089
O O12 0.755700 0.741781 0.453970
O O13 0.429292 0.254815 0.371165
O O14 0.257191 0.377208 0.106382
O O15 0.500000 0.500000 0.500000
#
# Coordination Sequence:
#
# PCOD9024206 Si02
#       7
#     2   2   2   2   2   2   2
#     4  10  21  37  59  83 104 141 194 234 269 312
#     4   8  17  32  49  81 103 139 179 221 268 317
#     4  10  17  31  53  76 112 141 176 220 269 318
#     4   9  20  31  50  80 105 135 180 230 265 315
#     4   9  19  32  50  77 111 141 176 214 269 327
#     4   9  19  38  59  79 112 141 183 232 269 315
#     4   9  19  37  56  84 113 150 177 210 278 341
#
# _framework density 23.010525999999999
#
# number of rings (size 3 to 8) (size 9 to 14) (size 15 to 20)
#    0.857    2.000    0.000    0.857    2.000    0.571 
#    0.000    3.571    0.000    4.286    0.000    0.000 
#    0.000    0.000    0.000    0.000    0.000    0.000 
#
# Total GULP energy -77993.989549 kJ/mol
# GULP energy per Si atom -5570.999253 kJ/mol
# Density = 2.295815 g / cm^3
# Si number density = 23.010526 Si / 1000 Ang^3
#
#
#
# Elastic Constant Matrix: (Units=GPa)
#
#
# Indices 1 2 3 4 5 6 
#
# 1 46.9850 42.6061 29.0371 -13.9812 -0.8625 26.5299
# 2 42.6061 120.7760 63.4516 -53.3472 7.8501 36.4750
# 3 29.0371 63.4516 110.3704 -46.0505 15.9126 24.7401
# 4 -13.9812 -53.3472 -46.0505 44.7650 1.0540 -15.5277
# 5 -0.8625 7.8501 15.9126 1.0540 35.9804 -1.3765
# 6 26.5299 36.4750 24.7401 -15.5277 -1.3765 31.3278
#
#
#
# Elastic Compliance Matrix: (Units=1/GPa)
#
#
# Indices 1 2 3 4 5 6 
#
# 1 0.048692 -0.012935 -0.007324 -0.017956 0.006645 -0.028999
# 2 -0.012935 0.027258 0.002976 0.028444 -0.008767 -0.009419
# 3 -0.007324 0.002976 0.020502 0.021461 -0.010646 -0.003284
# 4 -0.017956 0.028444 0.021461 0.073381 -0.018250 0.000711
# 5 0.006645 -0.008767 -0.010646 -0.018250 0.035318 0.005493
# 6 -0.028999 -0.009419 -0.003284 0.000711 0.005493 0.070632
#
#
# Mechanical properties :
#
#
# Convention : Reuss Voigt Hill
#
# Bulk Modulus (GPa) = 16.15893 60.92456 38.54175
# Shear Modulus (GPa) = 15.10682 31.95041 23.52861
#
# Velocity S-wave (km/s) = 2.56504 3.73032 3.20115
# Velocity P-wave (km/s) = 3.97621 6.71476 5.51807
#
# Compressibility (1/GPa) = 0.06188529
#
# Stress axis : x y z
#
# Youngs Moduli (GPa) = 20.53736 36.68689 48.77652
#
# Poissons Ratio (x) = 0.47454 0.35724
# Poissons Ratio (y) = 0.26565 -0.14515
# Poissons Ratio (z) = 0.15041 -0.10917
#
# Static dielectric constant tensor:
#      x y z
#    x 1.871030 -0.034260 0.004320 
#    y -0.034260 1.939510 -0.013200 
#    z 0.004320 -0.013200 1.921170 
# 
# From -- ./inp_files/577994.got.cif
#   From: 2010.05.17/outbox.cif.g08.bks.cpg/sg2_289_cif.got.tgz:577994.got - 2010.06.03 11:33:40.
