data_PCOD9024728
_publ_section_title
;
Structure prediction by ZEFSAII (Michael W. Deem and Ramdas Pophale) SiO2 
 PCOD9024728
Probable space group: P -1
;
_chemical_formula_sum "Si O2"
_cell_formula_units_Z 14
_cell_length_a 9.090250
_cell_length_b 9.085940
_cell_length_c 14.131523
_cell_angle_alpha 94.701645
_cell_angle_beta 86.689209
_cell_angle_gamma 32.800452
_cell_volume 612.562681
_symmetry_space_group_name_H-M "P -1"
_symmetry_group_IT_number 2
_symmetry_cell_setting 'triclinic'
loop_
_space_group_symop_operation_xyz
x,y,z
-x,-y,-z
loop_
_atom_site_type_symbol
_atom_site_label
_atom_site_fract_x
_atom_site_fract_y
_atom_site_fract_z
Si Si1 0.168638 0.681703 0.461884
Si Si2 0.181387 0.096747 0.770508
Si Si3 0.350507 0.977207 0.977620
Si Si4 0.081353 0.807434 0.866680
Si Si5 0.304212 0.665756 0.663039
Si Si6 0.587545 0.053257 0.428893
Si Si7 0.671367 0.433167 0.888291
O O1 0.174791 0.745294 0.569726
O O2 0.362551 0.621264 0.384632
O O3 0.863334 0.901020 0.449522
O O4 0.339087 0.382900 0.447743
O O5 0.322533 0.079348 0.686100
O O6 0.844802 0.374272 0.798401
O O7 0.269801 0.048536 0.872867
O O8 0.263230 0.864018 0.718340
O O9 0.562700 0.659452 0.968468
O O10 0.500000 0.000000 0.000000
O O11 0.081798 0.171331 0.062792
O O12 0.145717 0.705266 0.750738
O O13 0.887805 0.121417 0.895786
O O14 0.389008 0.591587 0.878216
O O15 0.500000 0.000000 0.500000
#
# Coordination Sequence:
#
# PCOD9024728 Si02
#       7
#     2   2   2   2   2   2   2
#     4  10  22  40  66 101 128 165 222 280 320 378
#     4  10  24  43  70  94 131 179 218 273 342 387
#     4  12  27  45  66 103 142 175 224 281 341 403
#     4  11  24  42  72  99 130 182 229 270 331 403
#     4   9  20  40  68  99 127 165 224 278 321 379
#     4  11  24  43  66  94 135 178 211 262 337 413
#     4  11  22  45  70  95 128 180 231 271 326 400
#
# _framework density 22.854801999999999
#
# number of rings (size 3 to 8) (size 9 to 14) (size 15 to 20)
#    0.000    1.429    2.857    2.143    4.000    9.143 
#    2.571    0.000    0.000    0.000    0.000    0.000 
#    0.000    0.000    0.000    0.000    0.000    0.000 
#
# Total GULP energy -78173.585298 kJ/mol
# GULP energy per Si atom -5583.827521 kJ/mol
# Density = 2.280278 g / cm^3
# Si number density = 22.854802 Si / 1000 Ang^3
#
#
#
# Elastic Constant Matrix: (Units=GPa)
#
#
# Indices 1 2 3 4 5 6 
#
# 1 115.6191 36.7382 88.1602 -1.1369 -14.3334 -21.0575
# 2 36.7382 103.5586 27.7163 2.5731 -12.3103 -26.7977
# 3 88.1602 27.7163 224.2740 6.2071 -31.6737 -7.6463
# 4 -1.1369 2.5731 6.2071 28.4358 -3.7410 -1.7160
# 5 -14.3334 -12.3103 -31.6737 -3.7410 50.9310 -5.1170
# 6 -21.0575 -26.7977 -7.6463 -1.7160 -5.1170 23.9303
#
#
#
# Elastic Compliance Matrix: (Units=1/GPa)
#
#
# Indices 1 2 3 4 5 6 
#
# 1 0.015374 -0.000856 -0.005314 0.002836 0.002183 0.011542
# 2 -0.000856 0.015032 -0.000244 0.000346 0.004983 0.017092
# 3 -0.005314 -0.000244 0.006875 -0.001521 0.002373 -0.002355
# 4 0.002836 0.000346 -0.001521 0.036342 0.003176 0.005682
# 5 0.002183 0.004983 0.002373 0.003176 0.024542 0.013735
# 6 0.011542 0.017092 -0.002355 0.005682 0.013735 0.073677
#
#
# Mechanical properties :
#
#
# Convention : Reuss Voigt Hill
#
# Bulk Modulus (GPa) = 40.89694 83.18677 62.04186
# Shear Modulus (GPa) = 25.93084 40.04855 32.98970
#
# Velocity S-wave (km/s) = 3.37202 4.19059 3.80339
# Velocity P-wave (km/s) = 5.75272 7.73897 6.81856
#
# Compressibility (1/GPa) = 0.02445170
#
# Stress axis : x y z
#
# Youngs Moduli (GPa) = 65.04590 66.52384 145.45721
#
# Poissons Ratio (x) = 0.05695 0.77299
# Poissons Ratio (y) = 0.05568 0.03553
# Poissons Ratio (z) = 0.34567 0.01625
#
# Static dielectric constant tensor:
#      x y z
#    x 1.830380 0.008230 -0.056870 
#    y 0.008230 1.925820 -0.065520 
#    z -0.056870 -0.065520 2.003900 
# 
# From -- ./inp_files/140935.got.cif
#   From: 2010.05.17/outbox.cif.g08.bks.cpg/sg2_71_cif.got.tgz:140935.got - 2010.06.03 11:33:40.
