data_PCOD9024259
_publ_section_title
;
Structure prediction by ZEFSAII (Michael W. Deem and Ramdas Pophale) SiO2 
 PCOD9024259
Probable space group: P -1
;
_chemical_formula_sum "Si O2"
_cell_formula_units_Z 15
_cell_length_a 6.788747
_cell_length_b 8.439629
_cell_length_c 14.259340
_cell_angle_alpha 102.511686
_cell_angle_beta 106.081318
_cell_angle_gamma 85.301563
_cell_volume 766.161419
_symmetry_space_group_name_H-M "P -1"
_symmetry_group_IT_number 2
_symmetry_cell_setting 'triclinic'
loop_
_space_group_symop_operation_xyz
x,y,z
-x,-y,-z
loop_
_atom_site_type_symbol
_atom_site_label
_atom_site_fract_x
_atom_site_fract_y
_atom_site_fract_z
Si Si1 0.503446 0.681662 0.666609
Si Si2 0.522168 0.985924 0.842135
Si Si3 0.256770 0.168591 0.969352
Si Si4 0.821951 0.401259 0.702154
Si Si5 0.515537 0.806339 0.471978
Si Si6 0.500000 0.500000 0.000000
Si Si7 0.850495 0.573511 0.409178
Si Si8 0.803749 0.273800 0.888372
O O1 0.486181 0.839502 0.748469
O O2 0.711035 0.577193 0.698866
O O3 0.494795 0.731504 0.563384
O O4 0.321335 0.559462 0.648382
O O5 0.316094 0.058346 0.872403
O O6 0.648441 0.128127 0.828556
O O7 0.659587 0.921018 0.938680
O O8 0.016481 0.205620 0.948764
O O9 0.383192 0.331658 0.993033
O O10 0.664738 0.270777 0.623041
O O11 0.856967 0.363623 0.810267
O O12 0.022808 0.395291 0.663859
O O13 0.729462 0.734664 0.449485
O O14 0.500000 0.000000 0.500000
O O15 0.317600 0.608256 0.042234
O O16 0.000000 0.500000 0.500000
#
# Coordination Sequence:
#
# PCOD9024259 Si02
#       8
#     2   2   2   2   2   1   2   2
#     4  11  22  40  65  90 128 168 210 261 323 376
#     4  10  23  41  62  92 129 165 211 265 324 376
#     4  10  22  42  64  91 129 167 207 267 322 378
#     4  11  23  40  63  93 124 168 213 258 314 389
#     4  11  23  40  63  91 130 164 205 271 323 368
#     4  10  22  40  64  88 126 160 212 262 314 370
#     4  11  21  43  65  89 130 170 213 259 319 384
#     4  11  23  40  65  93 126 165 218 260 318 383
#
# _framework density 19.578119999999998
#
# number of rings (size 3 to 8) (size 9 to 14) (size 15 to 20)
#    0.000    1.333    2.667    3.200    0.000    8.000 
#    2.400    1.333    0.000    0.000    0.000    0.000 
#    0.000    0.000    0.000    0.000    0.000    0.000 
#
# Total GULP energy -83596.345646 kJ/mol
# GULP energy per Si atom -5573.089710 kJ/mol
# Density = 1.953356 g / cm^3
# Si number density = 19.578120 Si / 1000 Ang^3
#
#
#
# Elastic Constant Matrix: (Units=GPa)
#
#
# Indices 1 2 3 4 5 6 
#
# 1 150.1682 46.7539 40.8934 3.6886 -39.4891 -17.9279
# 2 46.7539 96.0652 12.9601 18.5323 -18.0921 -17.1723
# 3 40.8934 12.9601 30.5034 -0.8194 -18.4896 -13.0516
# 4 3.6886 18.5323 -0.8194 23.0077 -9.4277 -9.5176
# 5 -39.4891 -18.0921 -18.4896 -9.4277 18.5660 0.5175
# 6 -17.9279 -17.1723 -13.0516 -9.5176 0.5175 26.7844
#
#
#
# Elastic Compliance Matrix: (Units=1/GPa)
#
#
# Indices 1 2 3 4 5 6 
#
# 1 0.009589 -0.004438 -0.028597 -0.012467 -0.018337 -0.014438
# 2 -0.004438 0.014804 -0.002004 -0.012025 -0.003153 0.001332
# 3 -0.028597 -0.002004 -0.023733 -0.064728 -0.117812 -0.052715
# 4 -0.012467 -0.012025 -0.064728 -0.011633 -0.107220 -0.049657
# 5 -0.018337 -0.003153 -0.117812 -0.107220 -0.157009 -0.106769
# 6 -0.014438 0.001332 -0.052715 -0.049657 -0.106769 -0.012744
#
#
# Mechanical properties :
#
#
# Convention : Reuss Voigt Hill
#
# Bulk Modulus (GPa) = -14.40526 53.10574 19.35024
# Shear Modulus (GPa) = -37.37268 25.41358 -5.97955
#
# Velocity S-wave (km/s) = -4.37384 3.60677 -1.74952
# Velocity P-wave (km/s) = 5.73420 6.67300 2.41329
#
# Compressibility (1/GPa) = -0.06941911
#
# Stress axis : x y z
#
# Youngs Moduli (GPa) = 104.28646 67.54892 -42.13460
#
# Poissons Ratio (x) = 0.29978 -1.20492
# Poissons Ratio (y) = 0.46283 -0.08446
# Poissons Ratio (z) = 2.98227 0.13540
#
# Static dielectric constant tensor:
#      x y z
#    x 1.669970 -0.011190 0.012340 
#    y -0.011190 1.678290 -0.007490 
#    z 0.012340 -0.007490 1.678830 
# 
# From -- ./inp_files/48257.got.cif
#   From: 2010.05.17/outbox.cif.g08.bks.cpg/sg2_25_cif.got.tgz:48257.got - 2010.06.03 11:33:40.
