data_PCOD9024123
_publ_section_title
;
Structure prediction by ZEFSAII (Michael W. Deem and Ramdas Pophale) SiO2 
 PCOD9024123
Probable space group: P -1
;
_chemical_formula_sum "Si O2"
_cell_formula_units_Z 14
_cell_length_a 16.852287
_cell_length_b 15.224574
_cell_length_c 6.376559
_cell_angle_alpha 44.321115
_cell_angle_beta 52.926462
_cell_angle_gamma 32.173360
_cell_volume 608.641973
_symmetry_space_group_name_H-M "P -1"
_symmetry_group_IT_number 2
_symmetry_cell_setting 'triclinic'
loop_
_space_group_symop_operation_xyz
x,y,z
-x,-y,-z
loop_
_atom_site_type_symbol
_atom_site_label
_atom_site_fract_x
_atom_site_fract_y
_atom_site_fract_z
Si Si1 0.790295 0.801892 0.357341
Si Si2 0.439379 0.958034 0.343068
Si Si3 0.593067 0.503557 0.501514
Si Si4 0.302865 0.483259 0.303690
Si Si5 0.159354 0.799234 0.663638
Si Si6 0.925391 0.493533 0.317620
Si Si7 0.321849 0.901506 0.289754
O O1 0.830885 0.665291 0.342174
O O2 0.935886 0.685134 0.463478
O O3 0.651340 0.897786 0.564756
O O4 0.753006 0.963440 0.018257
O O5 0.566768 0.738511 0.589077
O O6 0.319946 0.987447 0.352315
O O7 0.500000 0.000000 0.000000
O O8 0.500000 0.500000 0.500000
O O9 0.614847 0.485417 0.747938
O O10 0.757305 0.328715 0.456403
O O11 0.496722 0.720708 0.262254
O O12 0.187837 0.506315 0.580957
O O13 0.197534 0.649238 0.017453
O O14 0.246611 0.838085 0.550675
O O15 0.000000 0.000000 0.500000
O O16 0.000000 0.500000 0.000000
#
# Coordination Sequence:
#
# PCOD9024123 Si02
#       7
#     2   2   2   2   2   2   2
#     4  11  23  41  67  93 133 179 217 272 338 392
#     4  11  24  42  68 101 131 170 226 278 330 395
#     4   9  22  41  62  91 128 168 216 270 328 391
#     4  11  24  42  69  97 132 176 220 279 336 392
#     4  11  24  41  64  97 131 173 225 272 327 398
#     4  11  25  43  64  96 136 176 221 273 334 402
#     4  10  22  40  63  93 130 169 217 274 329 396
#
# _framework density 23.002027999999999
#
# number of rings (size 3 to 8) (size 9 to 14) (size 15 to 20)
#    0.000    1.429    0.000    4.286    0.000   17.143 
#    0.000    0.000    0.000    0.000    0.000    0.000 
#    0.000    0.000    0.000    0.000    0.000    0.000 
#
# Total GULP energy -78037.596050 kJ/mol
# GULP energy per Si atom -5574.114004 kJ/mol
# Density = 2.294967 g / cm^3
# Si number density = 23.002028 Si / 1000 Ang^3
#
#
#
# Elastic Constant Matrix: (Units=GPa)
#
#
# Indices 1 2 3 4 5 6 
#
# 1 101.8257 44.0354 17.6359 6.6518 0.7216 -2.7591
# 2 44.0354 173.3045 71.8433 -1.1873 12.7523 0.3775
# 3 17.6359 71.8433 114.6637 -19.7691 5.1003 -16.5584
# 4 6.6518 -1.1873 -19.7691 36.9929 -17.4976 8.9122
# 5 0.7216 12.7523 5.1003 -17.4976 33.5229 -3.6715
# 6 -2.7591 0.3775 -16.5584 8.9122 -3.6715 29.6212
#
#
#
# Elastic Compliance Matrix: (Units=1/GPa)
#
#
# Indices 1 2 3 4 5 6 
#
# 1 0.011296 -0.002765 -0.000226 -0.002891 -0.000472 0.001772
# 2 -0.002765 0.009560 -0.006574 -0.004365 -0.005226 -0.003389
# 3 -0.000226 -0.006574 0.015115 0.008996 0.005614 0.006501
# 4 -0.002891 -0.004365 0.008996 0.044439 0.022923 -0.005714
# 5 -0.000472 -0.005226 0.005614 0.022923 0.043116 0.001608
# 6 0.001772 -0.003389 0.006501 -0.005714 0.001608 0.039521
#
#
# Mechanical properties :
#
#
# Convention : Reuss Voigt Hill
#
# Bulk Modulus (GPa) = 59.38261 72.98034 66.18148
# Shear Modulus (GPa) = 26.62526 37.11268 31.86897
#
# Velocity S-wave (km/s) = 3.40592 4.02114 3.72625
# Velocity P-wave (km/s) = 6.42957 7.30452 6.88097
#
# Compressibility (1/GPa) = 0.01683995
#
# Stress axis : x y z
#
# Youngs Moduli (GPa) = 88.52666 104.59992 66.15855
#
# Poissons Ratio (x) = 0.28927 0.01496
# Poissons Ratio (y) = 0.24482 0.43494
# Poissons Ratio (z) = 0.02002 0.68765
#
# Static dielectric constant tensor:
#      x y z
#    x 1.911360 -0.016430 -0.008730 
#    y -0.016430 1.869250 0.029730 
#    z -0.008730 0.029730 1.902880 
# 
# From -- ./inp_files/110641.got.cif
#   From: 2010.05.17/outbox.cif.g08.bks.cpg/sg2_56_cif.got.tgz:110641.got - 2010.06.03 11:33:40.
