data_PCOD9024526
_publ_section_title
;
Structure prediction by ZEFSAII (Michael W. Deem and Ramdas Pophale) SiO2 
 PCOD9024526
Probable space group: P -1
;
_chemical_formula_sum "Si O2"
_cell_formula_units_Z 16
_cell_length_a 23.653199
_cell_length_b 4.922077
_cell_length_c 25.110684
_cell_angle_alpha 106.408713
_cell_angle_beta 168.346017
_cell_angle_gamma 71.792418
_cell_volume 556.738463
_symmetry_space_group_name_H-M "P -1"
_symmetry_group_IT_number 2
_symmetry_cell_setting 'triclinic'
loop_
_space_group_symop_operation_xyz
x,y,z
-x,-y,-z
loop_
_atom_site_type_symbol
_atom_site_label
_atom_site_fract_x
_atom_site_fract_y
_atom_site_fract_z
Si Si1 0.143376 0.901063 0.015613
Si Si2 0.329245 0.329408 0.580627
Si Si3 0.731703 0.753430 0.764542
Si Si4 0.781709 0.595447 0.202836
Si Si5 0.250582 0.865231 0.942241
Si Si6 0.761072 0.496015 0.666876
Si Si7 0.311088 0.813349 0.653317
Si Si8 0.260447 0.115847 0.720145
O O1 0.911516 0.700063 0.780263
O O2 0.443002 0.767106 0.259852
O O3 0.013882 0.221189 0.894151
O O4 0.192269 0.952652 0.126572
O O5 0.256472 0.677990 0.538296
O O6 0.052246 0.183107 0.316599
O O7 0.515871 0.248980 0.802830
O O8 0.648718 0.712182 0.624715
O O9 0.501086 0.669140 0.588443
O O10 0.000000 0.500000 0.000000
O O11 0.726330 0.328298 0.101213
O O12 0.746676 0.601494 0.234939
O O13 0.091167 0.654435 0.474386
O O14 0.542322 0.871963 0.978458
O O15 0.351609 0.167494 0.038380
O O16 0.220354 0.114137 0.619358
O O17 0.000000 0.000000 0.500000
#
# Coordination Sequence:
#
# PCOD9024526 Si02
#       8
#     2   2   2   2   2   2   2   2
#     4  11  25  42  67  99 134 181 228 281 341 409
#     4  11  27  44  64  96 133 170 225 276 328 402
#     4   9  21  42  67 102 135 177 222 283 343 407
#     4   9  19  38  60  90 126 158 216 270 331 400
#     4  11  25  44  67  93 126 174 222 273 335 400
#     4  10  23  43  69  99 138 175 226 282 345 406
#     4  10  22  40  65  88 127 171 212 271 338 394
#     4   9  17  35  60  88 124 161 204 276 328 399
#
# _framework density 28.738807000000001
#
# number of rings (size 3 to 8) (size 9 to 14) (size 15 to 20)
#    0.000    2.000    1.250    0.375    5.250    7.000 
#    0.000    5.625    0.000    0.000    0.000    0.000 
#    0.000    0.000    0.000    0.000    0.000    0.000 
#
# Total GULP energy -89279.956480 kJ/mol
# GULP energy per Si atom -5579.997280 kJ/mol
# Density = 2.867340 g / cm^3
# Si number density = 28.738807 Si / 1000 Ang^3
#
#
#
# Elastic Constant Matrix: (Units=GPa)
#
#
# Indices 1 2 3 4 5 6 
#
# 1 68.3220 31.0331 39.0061 -9.3163 15.2549 -9.5498
# 2 31.0331 103.6840 61.1500 19.6760 38.5112 7.2953
# 3 39.0061 61.1500 246.5993 34.1691 34.2207 0.3909
# 4 -9.3163 19.6760 34.1691 55.7045 -3.7452 6.1174
# 5 15.2549 38.5112 34.2207 -3.7452 46.1256 -16.8119
# 6 -9.5498 7.2953 0.3909 6.1174 -16.8119 41.4986
#
#
#
# Elastic Compliance Matrix: (Units=1/GPa)
#
#
# Indices 1 2 3 4 5 6 
#
# 1 0.021351 -0.008995 -0.003186 0.008264 0.006356 0.007881
# 2 -0.008995 0.023527 0.000121 -0.009882 -0.022634 -0.013920
# 3 -0.003186 0.000121 0.005709 -0.004154 -0.004331 -0.001950
# 4 0.008264 -0.009882 -0.004154 0.025669 0.012489 0.004954
# 5 0.006356 -0.022634 -0.004331 0.012489 0.051657 0.024569
# 6 0.007881 -0.013920 -0.001950 0.004954 0.024569 0.037599
#
#
# Mechanical properties :
#
#
# Convention : Reuss Voigt Hill
#
# Bulk Modulus (GPa) = 37.78428 75.66488 56.72458
# Shear Modulus (GPa) = 25.19465 47.82681 36.51073
#
# Velocity S-wave (km/s) = 2.96409 4.08387 3.56818
# Velocity P-wave (km/s) = 4.98903 6.97302 6.06273
#
# Compressibility (1/GPa) = 0.02646604
#
# Stress axis : x y z
#
# Youngs Moduli (GPa) = 46.83697 42.50386 175.16517
#
# Poissons Ratio (x) = 0.38232 0.55814
# Poissons Ratio (y) = 0.42130 -0.02118
# Poissons Ratio (z) = 0.14924 -0.00514
#
# Static dielectric constant tensor:
#      x y z
#    x 2.516280 0.192400 -0.172160 
#    y 0.192400 2.482560 -0.102110 
#    z -0.172160 -0.102110 2.316910 
# 
# From -- ./inp_files/13554.got.cif
#   From: 2010.05.17/outbox.cif.g08.bks.cpg/sg2_7_cif.got.tgz:13554.got - 2010.06.03 11:33:40.
