data_PCOD9024983
_publ_section_title
;
Structure prediction by ZEFSAII (Michael W. Deem and Ramdas Pophale) SiO2 
 PCOD9024983
Probable space group: P -1
;
_chemical_formula_sum "Si O2"
_cell_formula_units_Z 15
_cell_length_a 18.421375
_cell_length_b 4.995964
_cell_length_c 10.057776
_cell_angle_alpha 87.263854
_cell_angle_beta 132.323357
_cell_angle_gamma 111.515622
_cell_volume 609.405131
_symmetry_space_group_name_H-M "P -1"
_symmetry_group_IT_number 2
_symmetry_cell_setting 'triclinic'
loop_
_space_group_symop_operation_xyz
x,y,z
-x,-y,-z
loop_
_atom_site_type_symbol
_atom_site_label
_atom_site_fract_x
_atom_site_fract_y
_atom_site_fract_z
Si Si1 0.102311 0.200138 0.217445
Si Si2 0.826158 0.338194 0.223541
Si Si3 0.957239 0.118778 0.569375
Si Si4 0.644184 0.918962 0.803220
Si Si5 0.646141 0.529476 0.012727
Si Si6 0.544971 0.088671 0.252719
Si Si7 0.250861 0.888798 0.355561
Si Si8 0.500000 0.500000 0.000000
O O1 0.149018 0.555127 0.243180
O O2 0.070851 0.095716 0.333815
O O3 0.201866 0.121402 0.309033
O O4 0.000000 0.000000 0.000000
O O5 0.863144 0.195716 0.393130
O O6 0.937080 0.563971 0.279527
O O7 0.754611 0.504730 0.177449
O O8 0.747150 0.116375 0.020668
O O9 0.000000 0.000000 0.500000
O O10 0.633935 0.594390 0.841987
O O11 0.533685 0.925319 0.719695
O O12 0.681494 0.027098 0.700507
O O13 0.528932 0.230728 0.909323
O O14 0.618827 0.743626 0.068102
O O15 0.658719 0.092746 0.428256
O O16 0.566663 0.385554 0.193373
#
# Coordination Sequence:
#
# PCOD9024983 Si02
#       8
#     2   2   2   2   2   2   2   1
#     4  12  31  51  75 108 148 195 244 313 373 430
#     4  10  23  42  73 103 138 187 243 301 363 439
#     4  11  26  45  74 103 140 188 254 306 363 444
#     4  10  23  44  71 103 142 195 231 298 359 453
#     4  10  22  40  68 100 144 183 236 290 371 433
#     4  10  24  42  68 106 140 189 238 295 364 441
#     4  12  29  47  78 104 151 189 249 300 372 437
#     4  10  22  40  66  98 152 182 234 298 364 438
#
# _framework density 24.614167999999999
#
# number of rings (size 3 to 8) (size 9 to 14) (size 15 to 20)
#    0.000    1.333    0.000    2.800   16.800    3.733 
#    0.000    0.000    0.000    0.000    0.000    0.000 
#    0.000    0.000    0.000    0.000    0.000    0.000 
#
# Total GULP energy -83746.503495 kJ/mol
# GULP energy per Si atom -5583.100233 kJ/mol
# Density = 2.455815 g / cm^3
# Si number density = 24.614168 Si / 1000 Ang^3
#
#
#
# Elastic Constant Matrix: (Units=GPa)
#
#
# Indices 1 2 3 4 5 6 
#
# 1 84.7074 -6.8983 30.3298 -21.3511 -1.4346 6.9858
# 2 -6.8983 76.2877 -0.9210 -12.6722 -12.6527 13.6740
# 3 30.3298 -0.9210 81.8175 -13.2801 24.9752 2.3576
# 4 -21.3511 -12.6722 -13.2801 41.8155 5.5910 0.4831
# 5 -1.4346 -12.6527 24.9752 5.5910 48.7092 -17.5537
# 6 6.9858 13.6740 2.3576 0.4831 -17.5537 36.9423
#
#
#
# Elastic Compliance Matrix: (Units=1/GPa)
#
#
# Indices 1 2 3 4 5 6 
#
# 1 0.016148 0.003533 -0.005320 0.007373 0.002161 -0.003092
# 2 0.003533 0.015775 -0.000436 0.006297 0.001614 -0.005795
# 3 -0.005320 -0.000436 0.019124 0.005023 -0.012905 -0.006251
# 4 0.007373 0.006297 0.005023 0.032248 -0.007281 -0.007927
# 5 0.002161 0.001614 -0.012905 -0.007281 0.034309 0.016215
# 6 -0.003092 -0.005795 -0.006251 -0.007927 0.016215 0.038006
#
#
# Mechanical properties :
#
#
# Convention : Reuss Voigt Hill
#
# Bulk Modulus (GPa) = 21.45830 31.98151 26.71991
# Shear Modulus (GPa) = 28.47554 40.18021 34.32787
#
# Velocity S-wave (km/s) = 3.40498 4.04468 3.73854
# Velocity P-wave (km/s) = 4.91887 5.90203 5.43274
#
# Compressibility (1/GPa) = 0.04660201
#
# Stress axis : x y z
#
# Youngs Moduli (GPa) = 61.92738 63.39170 52.28985
#
# Poissons Ratio (x) = -0.22398 0.27818
# Poissons Ratio (y) = -0.21880 0.02279
# Poissons Ratio (z) = 0.32945 0.02762
#
# Static dielectric constant tensor:
#      x y z
#    x 1.267870 0.194300 0.159770 
#    y 0.194300 2.107630 -0.025350 
#    z 0.159770 -0.025350 1.881430 
# 
# From -- ./inp_files/100885.got.cif
#   From: 2010.05.17/outbox.cif.g08.bks.cpg/sg2_51_cif.got.tgz:100885.got - 2010.06.03 11:33:40.
