data_PCOD9024748
_publ_section_title
;
Structure prediction by ZEFSAII (Michael W. Deem and Ramdas Pophale) SiO2 
 PCOD9024748
Probable space group: P -1
;
_chemical_formula_sum "Si O2"
_cell_formula_units_Z 13
_cell_length_a 9.289877
_cell_length_b 6.691943
_cell_length_c 15.872274
_cell_angle_alpha 81.199307
_cell_angle_beta 36.012886
_cell_angle_gamma 71.037950
_cell_volume 537.873811
_symmetry_space_group_name_H-M "P -1"
_symmetry_group_IT_number 2
_symmetry_cell_setting 'triclinic'
loop_
_space_group_symop_operation_xyz
x,y,z
-x,-y,-z
loop_
_atom_site_type_symbol
_atom_site_label
_atom_site_fract_x
_atom_site_fract_y
_atom_site_fract_z
Si Si1 0.725911 0.465893 0.127903
Si Si2 0.500000 0.500000 0.500000
Si Si3 0.819496 0.182156 0.826627
Si Si4 0.494821 0.756752 0.359422
Si Si5 0.410313 0.349338 0.143117
Si Si6 0.663486 0.130962 0.311060
Si Si7 0.934768 0.901724 0.624534
O O1 0.530830 0.679991 0.252007
O O2 0.619836 0.420979 0.092024
O O3 0.728282 0.264865 0.196478
O O4 0.000000 0.500000 0.000000
O O5 0.687850 0.570562 0.336736
O O6 0.512732 0.291152 0.445287
O O7 0.794320 0.428449 0.807695
O O8 0.838003 0.071453 0.734165
O O9 0.565419 0.203924 0.002079
O O10 0.071552 0.037217 0.766820
O O11 0.225389 0.736828 0.526095
O O12 0.502754 0.988171 0.359052
O O13 0.261943 0.228347 0.278337
O O14 0.000000 0.000000 0.500000
#
# Coordination Sequence:
#
# PCOD9024748 Si02
#       7
#     2   1   2   2   2   2   2
#     4  11  26  47  72 105 143 191 245 302 363 438
#     4  10  22  40  66 102 140 174 236 290 352 420
#     4  11  26  46  74 105 144 199 245 299 366 436
#     4  11  24  41  70 106 141 184 236 296 361 426
#     4  11  27  49  71 104 153 194 245 300 365 442
#     4  11  24  44  75 106 144 188 241 302 365 430
#     4  12  26  44  72 107 147 196 241 298 370 437
#
# _framework density 24.169236000000001
#
# number of rings (size 3 to 8) (size 9 to 14) (size 15 to 20)
#    0.000    0.923    1.538    3.692    2.154   11.077 
#    0.000    0.000    0.000    0.000    0.000    0.000 
#    0.000    0.000    0.000    0.000    0.000    0.000 
#
# Total GULP energy -72535.935149 kJ/mol
# GULP energy per Si atom -5579.687319 kJ/mol
# Density = 2.411423 g / cm^3
# Si number density = 24.169236 Si / 1000 Ang^3
#
#
#
# Elastic Constant Matrix: (Units=GPa)
#
#
# Indices 1 2 3 4 5 6 
#
# 1 103.4565 46.2655 36.7142 4.0803 4.9533 7.1189
# 2 46.2655 140.0363 69.2117 6.6045 -1.0227 18.1751
# 3 36.7142 69.2117 125.0705 5.8473 6.7825 17.0191
# 4 4.0803 6.6045 5.8473 53.7726 3.2336 0.3206
# 5 4.9533 -1.0227 6.7825 3.2336 37.0249 -1.2058
# 6 7.1189 18.1751 17.0191 0.3206 -1.2058 40.1757
#
#
#
# Elastic Compliance Matrix: (Units=1/GPa)
#
#
# Indices 1 2 3 4 5 6 
#
# 1 0.011688 -0.003032 -0.001665 -0.000254 -0.001321 -0.000032
# 2 -0.003032 0.010894 -0.004885 -0.000659 0.001585 -0.002269
# 3 -0.001665 -0.004885 0.011659 -0.000401 -0.002094 -0.002494
# 4 -0.000254 -0.000659 -0.000401 0.018832 -0.001545 0.000316
# 5 -0.001321 0.001585 -0.002094 -0.001545 0.027789 0.001251
# 6 -0.000032 -0.002269 -0.002494 0.000316 0.001251 0.027014
#
#
# Mechanical properties :
#
#
# Convention : Reuss Voigt Hill
#
# Bulk Modulus (GPa) = 66.32689 74.77178 70.54934
# Shear Modulus (GPa) = 37.85964 40.61945 39.23954
#
# Velocity S-wave (km/s) = 3.96212 4.10399 4.03368
# Velocity P-wave (km/s) = 6.95942 7.31170 7.13773
#
# Compressibility (1/GPa) = 0.01507684
#
# Stress axis : x y z
#
# Youngs Moduli (GPa) = 85.55586 91.79136 85.76864
#
# Poissons Ratio (x) = 0.27832 0.14283
# Poissons Ratio (y) = 0.25941 0.41898
# Poissons Ratio (z) = 0.14248 0.44840
#
# Static dielectric constant tensor:
#      x y z
#    x 1.679390 0.171750 0.035230 
#    y 0.171750 1.795330 -0.045880 
#    z 0.035230 -0.045880 1.916840 
# 
# From -- ./inp_files/67515.got.cif
#   From: 2010.05.17/outbox.cif.g08.bks.cpg/sg2_34_cif.got.tgz:67515.got - 2010.06.03 11:33:40.
