data_PCOD9024516
_publ_section_title
;
Structure prediction by ZEFSAII (Michael W. Deem and Ramdas Pophale) SiO2 
 PCOD9024516
Probable space group: P -1
;
_chemical_formula_sum "Si O2"
_cell_formula_units_Z 15
_cell_length_a 15.414200
_cell_length_b 11.988091
_cell_length_c 7.933195
_cell_angle_alpha 60.256111
_cell_angle_beta 116.112440
_cell_angle_gamma 155.702615
_cell_volume 523.430431
_symmetry_space_group_name_H-M "P -1"
_symmetry_group_IT_number 2
_symmetry_cell_setting 'triclinic'
loop_
_space_group_symop_operation_xyz
x,y,z
-x,-y,-z
loop_
_atom_site_type_symbol
_atom_site_label
_atom_site_fract_x
_atom_site_fract_y
_atom_site_fract_z
Si Si1 0.511041 0.200682 0.253514
Si Si2 0.000000 0.500000 0.000000
Si Si3 0.262911 0.280691 0.945078
Si Si4 0.979077 0.396413 0.383295
Si Si5 0.537201 0.971762 0.286788
Si Si6 0.774019 0.989669 0.070966
Si Si7 0.416607 0.572254 0.363061
Si Si8 0.200910 0.095450 0.380045
O O1 0.555679 0.146180 0.191357
O O2 0.474197 0.089790 0.483289
O O3 0.307525 0.043368 0.147676
O O4 0.699985 0.525228 0.186387
O O5 0.141808 0.620496 0.206945
O O6 0.054500 0.715115 0.927516
O O7 0.160987 0.118342 0.154067
O O8 0.160051 0.076496 0.862504
O O9 0.500000 0.500000 0.000000
O O10 0.775607 0.215364 0.240465
O O11 0.000000 0.500000 0.500000
O O12 0.945546 0.204636 0.512799
O O13 0.391245 0.694157 0.277741
O O14 0.569843 0.744634 0.201543
O O15 0.229907 0.249868 0.418082
O O16 0.567429 0.698246 0.548850
#
# Coordination Sequence:
#
# PCOD9024516 Si02
#       8
#     2   1   2   2   2   2   2   2
#     4  10  21  35  57  82 114 151 185 235 296 342
#     4  12  22  36  54  88 114 156 190 230 292 340
#     4  10  17  31  53  81 106 140 188 234 281 331
#     4  11  22  38  59  84 120 151 193 238 283 347
#     4  10  21  37  53  83 118 149 184 233 294 345
#     4  11  20  34  56  84 112 142 192 236 279 335
#     4  10  18  31  53  82 111 134 179 242 284 321
#     4  10  18  31  51  81 109 138 180 239 285 321
#
# _framework density 28.657104
#
# number of rings (size 3 to 8) (size 9 to 14) (size 15 to 20)
#    0.000    1.600    5.333    4.800    1.867    0.533 
#    0.000    0.000    0.000    4.800    0.000    8.400 
#    0.000    0.000    0.000    0.000    0.000    0.000 
#
# Total GULP energy -83663.777368 kJ/mol
# GULP energy per Si atom -5577.585158 kJ/mol
# Density = 2.859188 g / cm^3
# Si number density = 28.657104 Si / 1000 Ang^3
#
#
#
# Elastic Constant Matrix: (Units=GPa)
#
#
# Indices 1 2 3 4 5 6 
#
# 1 147.9807 76.7311 11.9920 -21.4661 20.7418 -58.7555
# 2 76.7311 189.5041 38.7279 -28.5773 19.4859 -78.1372
# 3 11.9920 38.7279 146.7102 4.9630 5.8236 -17.8770
# 4 -21.4661 -28.5773 4.9630 53.1716 -18.2947 10.5246
# 5 20.7418 19.4859 5.8236 -18.2947 32.1683 -7.9142
# 6 -58.7555 -78.1372 -17.8770 10.5246 -7.9142 65.7414
#
#
#
# Elastic Compliance Matrix: (Units=1/GPa)
#
#
# Indices 1 2 3 4 5 6 
#
# 1 0.011262 -0.000248 0.000399 0.001074 -0.004313 0.009189
# 2 -0.000248 0.011343 -0.001537 0.003172 -0.001643 0.012137
# 3 0.000399 -0.001537 0.007408 -0.002067 -0.001677 0.000673
# 4 0.001074 0.003172 -0.002067 0.025091 0.012435 0.001648
# 5 -0.004313 -0.001643 -0.001677 0.012435 0.041435 -0.003266
# 6 0.009189 0.012137 0.000673 0.001648 -0.003266 0.037374
#
#
# Mechanical properties :
#
#
# Convention : Reuss Voigt Hill
#
# Bulk Modulus (GPa) = 36.70811 82.12191 59.41501
# Shear Modulus (GPa) = 34.30183 53.99920 44.15052
#
# Velocity S-wave (km/s) = 3.46349 4.34559 3.92937
# Velocity P-wave (km/s) = 5.36950 7.34151 6.43154
#
# Compressibility (1/GPa) = 0.02724194
#
# Stress axis : x y z
#
# Youngs Moduli (GPa) = 88.79173 88.16071 134.99246
#
# Poissons Ratio (x) = 0.02184 -0.05391
# Poissons Ratio (y) = 0.02199 0.20751
# Poissons Ratio (z) = -0.03546 0.13552
#
# Static dielectric constant tensor:
#      x y z
#    x 2.089460 -0.043340 0.280920 
#    y -0.043340 2.223080 0.209290 
#    z 0.280920 0.209290 2.015520 
# 
# From -- ./inp_files/248483.got.cif
#   From: 2010.05.17/outbox.cif.g08.bks.cpg/sg2_125_cif.got.tgz:248483.got - 2010.06.03 11:33:40.
