data_PCOD9024411
_publ_section_title
;
Structure prediction by ZEFSAII (Michael W. Deem and Ramdas Pophale) SiO2 
 PCOD9024411
Probable space group: P -1
;
_chemical_formula_sum "Si O2"
_cell_formula_units_Z 13
_cell_length_a 5.266574
_cell_length_b 9.221882
_cell_length_c 13.530616
_cell_angle_alpha 103.299936
_cell_angle_beta 92.831399
_cell_angle_gamma 50.187739
_cell_volume 487.018867
_symmetry_space_group_name_H-M "P -1"
_symmetry_group_IT_number 2
_symmetry_cell_setting 'triclinic'
loop_
_space_group_symop_operation_xyz
x,y,z
-x,-y,-z
loop_
_atom_site_type_symbol
_atom_site_label
_atom_site_fract_x
_atom_site_fract_y
_atom_site_fract_z
Si Si1 0.500000 0.000000 0.000000
Si Si2 0.379259 0.336947 0.947429
Si Si3 0.969665 0.782996 0.278578
Si Si4 0.326213 0.917278 0.405693
Si Si5 0.582607 0.162638 0.213119
Si Si6 0.774641 0.722117 0.569398
Si Si7 0.583172 0.426781 0.147086
O O1 0.569097 0.839646 0.893340
O O2 0.489466 0.127443 0.930739
O O3 0.379102 0.415393 0.853462
O O4 0.628798 0.333720 0.025642
O O5 0.000000 0.500000 0.000000
O O6 0.174094 0.816573 0.358460
O O7 0.208849 0.568184 0.204388
O O8 0.654935 0.830474 0.333790
O O9 0.856324 0.939350 0.215551
O O10 0.457940 0.851160 0.509563
O O11 0.101981 0.151699 0.419182
O O12 0.339931 0.264708 0.318513
O O13 0.755748 0.254677 0.202121
O O14 0.000000 0.500000 0.500000
#
# Coordination Sequence:
#
# PCOD9024411 Si02
#       7
#     1   2   2   2   2   2   2
#     4  10  22  42  72 102 142 186 238 298 360 438
#     4  10  22  40  64  95 136 182 235 294 356 425
#     4  11  24  45  73 103 146 190 242 300 365 430
#     4  10  25  44  71 106 140 191 242 299 361 431
#     4  10  23  43  69 106 141 190 243 296 365 432
#     4  10  22  44  73 104 146 187 241 300 361 429
#     4  10  23  40  64  99 136 185 234 296 358 429
#
# _framework density 26.693010000000001
#
# number of rings (size 3 to 8) (size 9 to 14) (size 15 to 20)
#    0.000    1.846    0.000    1.846    6.462    8.000 
#    5.538    9.231    0.000    0.000    0.000    0.000 
#    0.000    0.000    0.000    0.000    0.000    0.000 
#
# Total GULP energy -72444.860586 kJ/mol
# GULP energy per Si atom -5572.681584 kJ/mol
# Density = 2.663226 g / cm^3
# Si number density = 26.693010 Si / 1000 Ang^3
#
#
#
# Elastic Constant Matrix: (Units=GPa)
#
#
# Indices 1 2 3 4 5 6 
#
# 1 90.4406 22.8482 40.5348 -4.8423 -9.8102 29.9760
# 2 22.8482 125.0647 58.3379 -7.2184 -20.8842 29.7498
# 3 40.5348 58.3379 156.1138 -6.7142 -0.9852 17.8599
# 4 -4.8423 -7.2184 -6.7142 62.1234 12.3827 -14.3993
# 5 -9.8102 -20.8842 -0.9852 12.3827 48.5688 -0.3989
# 6 29.9760 29.7498 17.8599 -14.3993 -0.3989 41.1264
#
#
#
# Elastic Compliance Matrix: (Units=1/GPa)
#
#
# Indices 1 2 3 4 5 6 
#
# 1 0.017088 0.002668 -0.003967 -0.002982 0.005166 -0.013656
# 2 0.002668 0.012950 -0.004431 -0.002431 0.006554 -0.010175
# 3 -0.003967 -0.004431 0.008821 0.001322 -0.002843 0.002701
# 4 -0.002982 -0.002431 0.001322 0.019349 -0.006471 0.010070
# 5 0.005166 0.006554 -0.002843 -0.006471 0.025967 -0.009286
# 6 -0.013656 -0.010175 0.002701 0.010070 -0.009286 0.043892
#
#
# Mechanical properties :
#
#
# Convention : Reuss Voigt Hill
#
# Bulk Modulus (GPa) = 36.49860 68.34010 52.41935
# Shear Modulus (GPa) = 33.63378 47.02361 40.32870
#
# Velocity S-wave (km/s) = 3.55353 4.20175 3.89116
# Velocity P-wave (km/s) = 5.52629 7.01409 6.31416
#
# Compressibility (1/GPa) = 0.02739831
#
# Stress axis : x y z
#
# Youngs Moduli (GPa) = 58.52075 77.22060 113.36146
#
# Poissons Ratio (x) = -0.20600 0.44972
# Poissons Ratio (y) = -0.15611 0.50230
# Poissons Ratio (z) = 0.23216 0.34216
#
# Static dielectric constant tensor:
#      x y z
#    x 2.215550 -0.013540 0.018120 
#    y -0.013540 2.067390 0.018400 
#    z 0.018120 0.018400 2.053640 
# 
# From -- ./inp_files/479224.got.cif
#   From: 2010.05.17/outbox.cif.g08.bks.cpg/sg2_240_cif.got.tgz:479224.got - 2010.06.03 11:33:40.
