data_PCOD9024993
_publ_section_title
;
Structure prediction by ZEFSAII (Michael W. Deem and Ramdas Pophale) SiO2 
 PCOD9024993
Probable space group: P -1
;
_chemical_formula_sum "Si O2"
_cell_formula_units_Z 14
_cell_length_a 9.659826
_cell_length_b 24.253683
_cell_length_c 5.239286
_cell_angle_alpha 123.480068
_cell_angle_beta 48.148693
_cell_angle_gamma 143.220262
_cell_volume 547.038524
_symmetry_space_group_name_H-M "P -1"
_symmetry_group_IT_number 2
_symmetry_cell_setting 'triclinic'
loop_
_space_group_symop_operation_xyz
x,y,z
-x,-y,-z
loop_
_atom_site_type_symbol
_atom_site_label
_atom_site_fract_x
_atom_site_fract_y
_atom_site_fract_z
Si Si1 0.830700 0.417358 0.210248
Si Si2 0.064805 0.958669 0.611446
Si Si3 0.317732 0.674744 0.324469
Si Si4 0.178383 0.297585 0.236147
Si Si5 0.435788 0.131584 0.303345
Si Si6 0.359228 0.401552 0.795576
Si Si7 0.265683 0.890164 0.468632
O O1 0.876212 0.401587 0.405022
O O2 0.584837 0.403039 0.510844
O O3 0.770317 0.342091 0.904052
O O4 0.000000 0.500000 0.000000
O O5 0.074317 0.887854 0.528149
O O6 0.837150 0.906671 0.555005
O O7 0.342362 0.048813 0.388231
O O8 0.000000 0.000000 0.000000
O O9 0.415110 0.770455 0.518932
O O10 0.564439 0.685500 0.043796
O O11 0.231638 0.362557 0.571682
O O12 0.928035 0.189137 0.291597
O O13 0.160721 0.330723 0.075919
O O14 0.601383 0.138852 0.900622
O O15 0.500000 0.500000 0.000000
O O16 0.500000 0.000000 0.500000
#
# Coordination Sequence:
#
# PCOD9024993 Si02
#       7
#     2   2   2   2   2   2   2
#     4  10  22  40  66  99 133 177 228 287 349 426
#     4  11  24  45  69  92 143 181 230 299 354 410
#     4  10  23  41  68  94 137 183 229 283 357 416
#     4  10  24  42  67  98 140 186 230 291 352 424
#     4  11  26  42  68 102 130 190 237 288 355 413
#     4  10  22  42  68  99 135 183 228 287 365 418
#     4  12  26  44  69 106 141 187 247 293 347 424
#
# _framework density 25.592344000000001
#
# number of rings (size 3 to 8) (size 9 to 14) (size 15 to 20)
#    0.000    1.429    1.429    2.143   10.000    3.429 
#    0.000    0.000    0.000    0.000    0.000    0.000 
#    0.000    0.000    0.000    0.000    0.000    0.000 
#
# Total GULP energy -78257.579271 kJ/mol
# GULP energy per Si atom -5589.827091 kJ/mol
# Density = 2.553409 g / cm^3
# Si number density = 25.592344 Si / 1000 Ang^3
#
#
#
# Elastic Constant Matrix: (Units=GPa)
#
#
# Indices 1 2 3 4 5 6 
#
# 1 79.8598 24.5929 38.1490 -5.7949 7.3555 -5.2412
# 2 24.5929 145.7195 67.2656 -6.2574 5.5194 -15.1783
# 3 38.1490 67.2656 131.3099 -3.3785 30.7043 -1.1739
# 4 -5.7949 -6.2574 -3.3785 60.8144 -5.6884 9.4895
# 5 7.3555 5.5194 30.7043 -5.6884 30.2552 -4.3776
# 6 -5.2412 -15.1783 -1.1739 9.4895 -4.3776 31.6827
#
#
#
# Elastic Compliance Matrix: (Units=1/GPa)
#
#
# Indices 1 2 3 4 5 6 
#
# 1 0.014806 -0.000223 -0.004490 0.000950 0.001480 0.002096
# 2 -0.000223 0.010209 -0.006399 0.000368 0.005517 0.005269
# 3 -0.004490 -0.006399 0.015482 -0.000789 -0.014321 -0.004977
# 4 0.000950 0.000368 -0.000789 0.017526 0.003145 -0.004511
# 5 0.001480 0.005517 -0.014321 0.003145 0.047975 0.008044
# 6 0.002096 0.005269 -0.004977 -0.004511 0.008044 0.036712
#
#
# Mechanical properties :
#
#
# Convention : Reuss Voigt Hill
#
# Bulk Modulus (GPa) = 54.72375 68.54492 61.63434
# Shear Modulus (GPa) = 29.23558 39.67589 34.45574
#
# Velocity S-wave (km/s) = 3.38354 3.94166 3.67322
# Velocity P-wave (km/s) = 6.05754 6.89617 6.49041
#
# Compressibility (1/GPa) = 0.01827360
#
# Stress axis : x y z
#
# Youngs Moduli (GPa) = 67.54154 97.94818 64.59216
#
# Poissons Ratio (x) = 0.02185 0.29002
# Poissons Ratio (y) = 0.01506 0.41330
# Poissons Ratio (z) = 0.30326 0.62673
#
# Static dielectric constant tensor:
#      x y z
#    x 2.001510 0.081380 0.068280 
#    y 0.081380 2.034900 -0.031310 
#    z 0.068280 -0.031310 2.009430 
# 
# From -- ./inp_files/85114.got.cif
#   From: 2010.05.17/outbox.cif.g08.bks.cpg/sg2_43_cif.got.tgz:85114.got - 2010.06.03 11:33:40.
