data_PCOD9024933
_publ_section_title
;
Structure prediction by ZEFSAII (Michael W. Deem and Ramdas Pophale) SiO2 
 PCOD9024933
Probable space group: P -1
;
_chemical_formula_sum "Si O2"
_cell_formula_units_Z 13
_cell_length_a 4.997095
_cell_length_b 6.064445
_cell_length_c 22.661855
_cell_angle_alpha 132.742283
_cell_angle_beta 110.878595
_cell_angle_gamma 77.867943
_cell_volume 470.743674
_symmetry_space_group_name_H-M "P -1"
_symmetry_group_IT_number 2
_symmetry_cell_setting 'triclinic'
loop_
_space_group_symop_operation_xyz
x,y,z
-x,-y,-z
loop_
_atom_site_type_symbol
_atom_site_label
_atom_site_fract_x
_atom_site_fract_y
_atom_site_fract_z
Si Si1 0.671397 0.807979 0.055211
Si Si2 0.616420 0.067737 0.456742
Si Si3 0.902525 0.764400 0.764157
Si Si4 0.101092 0.335151 0.390875
Si Si5 0.695723 0.667093 0.846565
Si Si6 0.000000 0.000000 0.000000
Si Si7 0.730908 0.798825 0.301562
O O1 0.406715 0.044943 0.070455
O O2 0.500000 0.500000 0.000000
O O3 0.868112 0.972543 0.151107
O O4 0.871827 0.791840 0.010933
O O5 0.354373 0.208947 0.427027
O O6 0.879897 0.313220 0.528276
O O7 0.500000 0.000000 0.500000
O O8 0.687342 0.804897 0.369804
O O9 0.840223 0.731591 0.684902
O O10 0.656935 0.774325 0.795833
O O11 0.029245 0.441011 0.733285
O O12 0.823485 0.133353 0.350454
O O13 0.537771 0.348404 0.781077
O O14 0.012848 0.694156 0.901220
#
# Coordination Sequence:
#
# PCOD9024933 Si02
#       7
#     2   2   2   2   2   1   2
#     4  10  23  43  66 100 133 180 224 285 342 405
#     4  11  25  44  66  96 137 173 223 281 341 404
#     4  10  24  44  65  98 136 175 229 277 338 408
#     4  11  24  41  67 100 128 178 225 273 344 406
#     4  10  22  44  64  94 135 174 221 280 339 401
#     4  10  22  40  66  96 132 176 224 274 340 400
#     4  11  23  42  66  95 134 176 222 282 338 401
#
# _framework density 27.615877000000001
#
# number of rings (size 3 to 8) (size 9 to 14) (size 15 to 20)
#    0.000    1.538    0.000    3.692    2.154    9.846 
#   11.077    0.000    0.000    0.000    0.000    0.000 
#    0.000    0.000    0.000    0.000    0.000    0.000 
#
# Total GULP energy -72639.590065 kJ/mol
# GULP energy per Si atom -5587.660774 kJ/mol
# Density = 2.755302 g / cm^3
# Si number density = 27.615877 Si / 1000 Ang^3
#
#
#
# Elastic Constant Matrix: (Units=GPa)
#
#
# Indices 1 2 3 4 5 6 
#
# 1 75.0340 32.4727 40.5840 8.6777 -2.4081 30.1584
# 2 32.4727 94.8704 96.1722 3.2177 11.0274 34.6988
# 3 40.5840 96.1722 249.8042 3.9945 24.7200 40.0725
# 4 8.6777 3.2177 3.9945 71.9018 21.2489 6.9523
# 5 -2.4081 11.0274 24.7200 21.2489 59.6771 3.3532
# 6 30.1584 34.6988 40.0725 6.9523 3.3532 51.6382
#
#
#
# Elastic Compliance Matrix: (Units=1/GPa)
#
#
# Indices 1 2 3 4 5 6 
#
# 1 0.018648 -0.002688 -0.000916 -0.002121 0.002849 -0.008274
# 2 -0.002688 0.020576 -0.006174 0.000835 -0.001229 -0.007498
# 3 -0.000916 -0.006174 0.006795 0.000625 -0.001902 -0.000551
# 4 -0.002121 0.000835 0.000625 0.016054 -0.006127 -0.001570
# 5 0.002849 -0.001229 -0.001902 -0.006127 0.020059 0.000161
# 6 -0.008274 -0.007498 -0.000551 -0.001570 0.000161 0.029864
#
#
# Mechanical properties :
#
#
# Convention : Reuss Voigt Hill
#
# Bulk Modulus (GPa) = 37.78564 84.24071 61.01317
# Shear Modulus (GPa) = 35.61914 53.34209 44.48061
#
# Velocity S-wave (km/s) = 3.59528 4.39973 4.01769
# Velocity P-wave (km/s) = 5.56301 7.50872 6.60787
#
# Compressibility (1/GPa) = 0.02646508
#
# Stress axis : x y z
#
# Youngs Moduli (GPa) = 53.62523 48.59957 147.15912
#
# Poissons Ratio (x) = 0.13063 0.13473
# Poissons Ratio (y) = 0.14414 0.90855
# Poissons Ratio (z) = 0.04910 0.30005
#
# Static dielectric constant tensor:
#      x y z
#    x 8.200820 -1.899930 3.953100 
#    y -1.899930 2.836740 -1.270190 
#    z 3.953100 -1.270190 4.748970 
# 
# From -- ./inp_files/4431.got.cif
#   From: 2010.05.17/outbox.cif.g08.bks.cpg/sg2_3_cif.got.tgz:4431.got - 2010.06.03 11:33:40.
