data_PCOD9024060
_publ_section_title
;
Structure prediction by ZEFSAII (Michael W. Deem and Ramdas Pophale) SiO2 
 PCOD9024060
Probable space group: P -1
;
_chemical_formula_sum "Si O2"
_cell_formula_units_Z 14
_cell_length_a 6.347324
_cell_length_b 25.298582
_cell_length_c 9.330646
_cell_angle_alpha 140.456652
_cell_angle_beta 124.742741
_cell_angle_gamma 41.349423
_cell_volume 630.055781
_symmetry_space_group_name_H-M "P -1"
_symmetry_group_IT_number 2
_symmetry_cell_setting 'triclinic'
loop_
_space_group_symop_operation_xyz
x,y,z
-x,-y,-z
loop_
_atom_site_type_symbol
_atom_site_label
_atom_site_fract_x
_atom_site_fract_y
_atom_site_fract_z
Si Si1 0.810501 0.186223 0.564361
Si Si2 0.721411 0.789794 0.087632
Si Si3 0.691251 0.600787 0.663653
Si Si4 0.716421 0.007231 0.824997
Si Si5 0.369942 0.909889 0.496512
Si Si6 0.665157 0.353667 0.647605
Si Si7 0.982498 0.459016 0.059226
O O1 0.586496 0.168575 0.528742
O O2 0.723457 0.250313 0.517794
O O3 0.928592 0.238395 0.819029
O O4 0.111411 0.068767 0.403019
O O5 0.538627 0.876214 0.076786
O O6 0.537782 0.844733 0.280545
O O7 0.724639 0.693000 0.855216
O O8 0.391267 0.633464 0.518186
O O9 0.000000 0.500000 0.500000
O O10 0.723831 0.577751 0.797549
O O11 0.533163 0.963438 0.727825
O O12 0.000000 0.000000 0.000000
O O13 0.000000 0.000000 0.500000
O O14 0.336898 0.446616 0.789077
O O15 0.926488 0.371315 0.831544
O O16 0.000000 0.500000 0.000000
#
# Coordination Sequence:
#
# PCOD9024060 Si02
#       7
#     2   2   2   2   2   2   2
#     4  11  21  39  64  91 128 171 214 265 326 396
#     4  11  21  40  64  89 130 173 211 268 331 383
#     4  10  22  42  64  93 129 168 217 268 326 387
#     4  11  23  38  62  94 133 168 213 270 327 389
#     4  11  21  40  64  94 124 172 222 259 326 399
#     4  10  22  40  63  89 126 169 209 270 330 377
#     4  10  22  40  64  90 123 166 217 266 324 389
#
# _framework density 22.220258000000001
#
# number of rings (size 3 to 8) (size 9 to 14) (size 15 to 20)
#    0.000    1.429    4.286    1.714    2.000    1.143 
#    0.000    2.857    0.000    0.000    0.000    0.000 
#    0.000    0.000    0.000    0.000    0.000    0.000 
#
# Total GULP energy -78155.773106 kJ/mol
# GULP energy per Si atom -5582.555222 kJ/mol
# Density = 2.216968 g / cm^3
# Si number density = 22.220258 Si / 1000 Ang^3
#
#
#
# Elastic Constant Matrix: (Units=GPa)
#
#
# Indices 1 2 3 4 5 6 
#
# 1 78.7300 31.0560 24.5906 -3.1570 12.5741 23.5914
# 2 31.0560 120.3614 34.5671 -13.6696 4.8323 25.7725
# 3 24.5906 34.5671 98.9561 3.2741 12.1131 3.9854
# 4 -3.1570 -13.6696 3.2741 53.2601 1.6809 0.9905
# 5 12.5741 4.8323 12.1131 1.6809 17.8726 -0.3013
# 6 23.5914 25.7725 3.9854 0.9905 -0.3013 38.2882
#
#
#
# Elastic Compliance Matrix: (Units=1/GPa)
#
#
# Indices 1 2 3 4 5 6 
#
# 1 0.019168 -0.001262 -0.002495 0.001539 -0.011781 -0.010834
# 2 -0.001262 0.011431 -0.003487 0.003205 -0.000253 -0.006639
# 3 -0.002495 -0.003487 0.012585 -0.001687 -0.005629 0.002574
# 4 0.001539 0.003205 -0.001687 0.019944 -0.002740 -0.003468
# 5 -0.011781 -0.000253 -0.005629 -0.002740 0.068526 0.008625
# 6 -0.010834 -0.006639 0.002574 -0.003468 0.008625 0.037152
#
#
# Mechanical properties :
#
#
# Convention : Reuss Voigt Hill
#
# Bulk Modulus (GPa) = 34.84775 53.16389 44.00582
# Shear Modulus (GPa) = 25.92553 35.73977 30.83265
#
# Velocity S-wave (km/s) = 3.41948 4.01488 3.72908
# Velocity P-wave (km/s) = 5.59530 6.74315 6.19587
#
# Compressibility (1/GPa) = 0.02869626
#
# Stress axis : x y z
#
# Youngs Moduli (GPa) = 52.16932 87.48080 79.46054
#
# Poissons Ratio (x) = 0.11037 0.19826
# Poissons Ratio (y) = 0.06582 0.27710
# Poissons Ratio (z) = 0.13017 0.30507
#
# Static dielectric constant tensor:
#      x y z
#    x 1.838830 0.030060 0.000920 
#    y 0.030060 1.995400 -0.090460 
#    z 0.000920 -0.090460 1.863850 
# 
# From -- ./inp_files/37081.got.cif
#   From: 2010.05.17/outbox.cif.g08.bks.cpg/sg2_19_cif.got.tgz:37081.got - 2010.06.03 11:33:40.
