data_PCOD9024024
_publ_section_title
;
Structure prediction by ZEFSAII (Michael W. Deem and Ramdas Pophale) SiO2 
 PCOD9024024
Probable space group: P -1
;
_chemical_formula_sum "Si O2"
_cell_formula_units_Z 15
_cell_length_a 12.634178
_cell_length_b 10.530964
_cell_length_c 13.060514
_cell_angle_alpha 66.600663
_cell_angle_beta 30.156137
_cell_angle_gamma 55.068075
_cell_volume 695.129286
_symmetry_space_group_name_H-M "P -1"
_symmetry_group_IT_number 2
_symmetry_cell_setting 'triclinic'
loop_
_space_group_symop_operation_xyz
x,y,z
-x,-y,-z
loop_
_atom_site_type_symbol
_atom_site_label
_atom_site_fract_x
_atom_site_fract_y
_atom_site_fract_z
Si Si1 0.112561 0.588882 0.704375
Si Si2 0.555070 0.125535 0.151100
Si Si3 0.000000 0.500000 0.000000
Si Si4 0.467092 0.394213 0.773493
Si Si5 0.067344 0.829016 0.832355
Si Si6 0.690349 0.966200 0.443474
Si Si7 0.824920 0.273162 0.992843
Si Si8 0.591879 0.814358 0.969398
O O1 0.338825 0.575160 0.458733
O O2 0.100920 0.668353 0.802664
O O3 0.870574 0.704540 0.807794
O O4 0.111899 0.438482 0.803055
O O5 0.397571 0.071767 0.365957
O O6 0.436567 0.212012 0.117329
O O7 0.630793 0.225993 0.128863
O O8 0.809427 0.966449 0.965563
O O9 0.725651 0.603201 0.146368
O O10 0.322707 0.538981 0.927090
O O11 0.563791 0.235625 0.810710
O O12 0.258878 0.886838 0.630377
O O13 0.078814 0.806522 0.951049
O O14 0.945262 0.812714 0.246314
O O15 0.500000 0.000000 0.500000
O O16 0.500000 0.000000 0.000000
#
# Coordination Sequence:
#
# PCOD9024024 Si02
#       8
#     2   2   1   2   2   2   2   2
#     4  11  24  42  67  99 131 172 216 271 334 389
#     4  11  23  43  64  96 130 172 216 272 325 382
#     4  10  22  40  62  98 132 164 210 266 324 388
#     4  11  26  43  65  99 135 177 215 268 340 384
#     4  11  21  37  65 100 129 160 218 272 328 386
#     4  11  21  37  66  98 127 171 209 265 332 378
#     4  11  23  41  64  98 135 163 218 272 323 401
#     4  11  26  46  66  93 133 173 228 272 318 399
#
# _framework density 21.578721000000002
#
# number of rings (size 3 to 8) (size 9 to 14) (size 15 to 20)
#    0.000    1.067    5.333    1.200    1.867    6.400 
#    0.000    1.333    0.000    0.000    0.000    0.000 
#    0.000    0.000    0.000    0.000    0.000    0.000 
#
# Total GULP energy -83614.033963 kJ/mol
# GULP energy per Si atom -5574.268931 kJ/mol
# Density = 2.152961 g / cm^3
# Si number density = 21.578721 Si / 1000 Ang^3
#
#
#
# Elastic Constant Matrix: (Units=GPa)
#
#
# Indices 1 2 3 4 5 6 
#
# 1 115.2516 12.3136 20.9812 -10.3351 2.5223 -24.6107
# 2 12.3136 57.7125 1.4931 -9.4070 -0.5744 -13.5921
# 3 20.9812 1.4931 109.0053 -32.0947 -7.5859 -16.8442
# 4 -10.3351 -9.4070 -32.0947 30.4209 -4.8036 10.1709
# 5 2.5223 -0.5744 -7.5859 -4.8036 24.1107 -8.1985
# 6 -24.6107 -13.5921 -16.8442 10.1709 -8.1985 40.0552
#
#
#
# Elastic Compliance Matrix: (Units=1/GPa)
#
#
# Indices 1 2 3 4 5 6 
#
# 1 0.010147 -0.000726 -0.000873 0.000527 0.000664 0.005623
# 2 -0.000726 0.020586 0.004013 0.008899 0.006052 0.007206
# 3 -0.000873 0.004013 0.016081 0.017833 0.010576 0.005224
# 4 0.000527 0.008899 0.017833 0.057397 0.017126 -0.000227
# 5 0.000664 0.006052 0.010576 0.017126 0.052837 0.013375
# 6 0.005623 0.007206 0.005224 -0.000227 0.013375 0.035858
#
#
# Mechanical properties :
#
#
# Convention : Reuss Voigt Hill
#
# Bulk Modulus (GPa) = 19.36422 39.06059 29.21240
# Shear Modulus (GPa) = 24.35562 35.39614 29.87588
#
# Velocity S-wave (km/s) = 3.36324 4.05449 3.72493
# Velocity P-wave (km/s) = 4.90663 6.32924 5.66279
#
# Compressibility (1/GPa) = 0.05164164
#
# Stress axis : x y z
#
# Youngs Moduli (GPa) = 98.55582 48.57634 62.18597
#
# Poissons Ratio (x) = 0.03524 0.05428
# Poissons Ratio (y) = 0.07151 -0.24952
# Poissons Ratio (z) = 0.08603 -0.19491
#
# Static dielectric constant tensor:
#      x y z
#    x 1.773730 0.029520 0.007750 
#    y 0.029520 1.564330 0.137990 
#    z 0.007750 0.137990 1.754820 
# 
# From -- ./inp_files/66160.got.cif
#   From: 2010.05.17/outbox.cif.g08.bks.cpg/sg2_34_cif.got.tgz:66160.got - 2010.06.03 11:33:40.
