data_PCOD9024944
_publ_section_title
;
Structure prediction by ZEFSAII (Michael W. Deem and Ramdas Pophale) SiO2 
 PCOD9024944
Probable space group: P -1
;
_chemical_formula_sum "Si O2"
_cell_formula_units_Z 16
_cell_length_a 10.298184
_cell_length_b 11.206761
_cell_length_c 23.563577
_cell_angle_alpha 148.521231
_cell_angle_beta 27.986263
_cell_angle_gamma 142.115761
_cell_volume 659.082261
_symmetry_space_group_name_H-M "P -1"
_symmetry_group_IT_number 2
_symmetry_cell_setting 'triclinic'
loop_
_space_group_symop_operation_xyz
x,y,z
-x,-y,-z
loop_
_atom_site_type_symbol
_atom_site_label
_atom_site_fract_x
_atom_site_fract_y
_atom_site_fract_z
Si Si1 0.986736 0.824160 0.381036
Si Si2 0.118579 0.838028 0.613244
Si Si3 0.489104 0.756177 0.332451
Si Si4 0.281050 0.047591 0.053139
Si Si5 0.555483 0.464598 0.568415
Si Si6 0.262196 0.878066 0.179700
Si Si7 0.196376 0.567268 0.847565
Si Si8 0.951210 0.491874 0.680249
O O1 0.671112 0.757705 0.451506
O O2 0.201520 0.909642 0.282273
O O3 0.051856 0.580421 0.282479
O O4 0.000000 0.000000 0.500000
O O5 0.287125 0.852364 0.494960
O O6 0.197487 0.606938 0.515802
O O7 0.247181 0.044724 0.689421
O O8 0.829551 0.906821 0.732913
O O9 0.600147 0.536194 0.228470
O O10 0.304612 0.676101 0.317568
O O11 0.446347 0.138634 0.968588
O O12 0.115528 0.798770 0.998932
O O13 0.098861 0.252881 0.215937
O O14 0.500000 0.000000 0.000000
O O15 0.365463 0.604264 0.737602
O O16 0.744324 0.555184 0.479094
O O17 0.055156 0.641481 0.149149
#
# Coordination Sequence:
#
# PCOD9024944 Si02
#       8
#     2   2   2   2   2   2   2   2
#     4  11  24  44  68  95 125 173 223 269 325 382
#     4   9  17  34  63  93 118 162 214 269 336 364
#     4   9  17  33  58  92 126 158 209 270 319 383
#     4  12  25  43  65 101 134 175 215 266 332 391
#     4  10  22  40  66  97 127 162 219 284 325 379
#     4  10  23  43  66  93 137 173 217 267 323 396
#     4   9  21  41  65  95 131 168 215 272 331 377
#     4  12  24  39  62  97 135 165 221 263 325 390
#
# _framework density 24.276181999999999
#
# number of rings (size 3 to 8) (size 9 to 14) (size 15 to 20)
#    0.000    1.750    1.250    4.875    3.500    2.000 
#    4.500    2.500    0.000    0.000    0.000    0.000 
#    0.000    0.000    0.000    0.000    0.000    0.000 
#
# Total GULP energy -89343.742834 kJ/mol
# GULP energy per Si atom -5583.983927 kJ/mol
# Density = 2.422093 g / cm^3
# Si number density = 24.276182 Si / 1000 Ang^3
#
#
#
# Elastic Constant Matrix: (Units=GPa)
#
#
# Indices 1 2 3 4 5 6 
#
# 1 85.8542 23.4824 16.9887 7.7725 13.4399 -8.1389
# 2 23.4824 84.4854 25.7192 7.4370 9.2887 -2.2208
# 3 16.9887 25.7192 75.2330 20.2537 10.8278 -6.5673
# 4 7.7725 7.4370 20.2537 46.4488 -3.8360 11.7396
# 5 13.4399 9.2887 10.8278 -3.8360 27.8423 7.2059
# 6 -8.1389 -2.2208 -6.5673 11.7396 7.2059 39.0643
#
#
#
# Elastic Compliance Matrix: (Units=1/GPa)
#
#
# Indices 1 2 3 4 5 6 
#
# 1 0.014569 -0.002749 0.000574 -0.004431 -0.008468 0.005869
# 2 -0.002749 0.013995 -0.003813 -0.000279 -0.001902 0.000017
# 3 0.000574 -0.003813 0.019670 -0.011052 -0.010362 0.008442
# 4 -0.004431 -0.000279 -0.011052 0.032214 0.014910 -0.015228
# 5 -0.008468 -0.001902 -0.010362 0.014910 0.051265 -0.017552
# 6 0.005869 0.000017 0.008442 -0.015228 -0.017552 0.036056
#
#
# Mechanical properties :
#
#
# Convention : Reuss Voigt Hill
#
# Bulk Modulus (GPa) = 27.58063 41.99480 34.78772
# Shear Modulus (GPa) = 26.06447 34.62991 30.34719
#
# Velocity S-wave (km/s) = 3.28024 3.78100 3.53948
# Velocity P-wave (km/s) = 5.07272 6.03304 5.57360
#
# Compressibility (1/GPa) = 0.03625733
#
# Stress axis : x y z
#
# Youngs Moduli (GPa) = 68.63823 71.45213 50.83991
#
# Poissons Ratio (x) = 0.19640 -0.02917
# Poissons Ratio (y) = 0.18867 0.19387
# Poissons Ratio (z) = -0.03938 0.27247
#
# Static dielectric constant tensor:
#      x y z
#    x 1.942380 -0.019670 0.013110 
#    y -0.019670 1.993480 0.020130 
#    z 0.013110 0.020130 1.976930 
# 
# From -- ./inp_files/610294.got.cif
#   From: 2010.05.17/outbox.cif.g08.bks.cpg/sg2_306_cif.got.tgz:610294.got - 2010.06.03 11:33:40.
