data_PCOD9024661
_publ_section_title
;
Structure prediction by ZEFSAII (Michael W. Deem and Ramdas Pophale) SiO2 
 PCOD9024661
Probable space group: P -1
;
_chemical_formula_sum "Si O2"
_cell_formula_units_Z 14
_cell_length_a 16.922525
_cell_length_b 8.048337
_cell_length_c 12.110740
_cell_angle_alpha 72.946127
_cell_angle_beta 44.680146
_cell_angle_gamma 38.192519
_cell_volume 567.788830
_symmetry_space_group_name_H-M "P -1"
_symmetry_group_IT_number 2
_symmetry_cell_setting 'triclinic'
loop_
_space_group_symop_operation_xyz
x,y,z
-x,-y,-z
loop_
_atom_site_type_symbol
_atom_site_label
_atom_site_fract_x
_atom_site_fract_y
_atom_site_fract_z
Si Si1 0.110205 0.241775 0.770721
Si Si2 0.383936 0.371200 0.118718
Si Si3 0.018925 0.321411 0.602773
Si Si4 0.495275 0.791431 0.610559
Si Si5 0.395517 0.162314 0.821296
Si Si6 0.599842 0.379118 0.754300
Si Si7 0.245932 0.678772 0.765047
O O1 0.072355 0.336990 0.663005
O O2 0.267236 0.145406 0.709137
O O3 0.256349 0.870147 0.697392
O O4 0.861312 0.545342 0.999644
O O5 0.319199 0.592395 0.237759
O O6 0.191107 0.524610 0.220567
O O7 0.525311 0.035241 0.106961
O O8 0.502701 0.341029 0.920595
O O9 0.000000 0.500000 0.500000
O O10 0.206877 0.944310 0.449903
O O11 0.449389 0.689557 0.759435
O O12 0.682335 0.501488 0.389538
O O13 0.540833 0.882257 0.635721
O O14 0.392952 0.373640 0.765565
O O15 0.000000 0.000000 0.000000
#
# Coordination Sequence:
#
# PCOD9024661 Si02
#       7
#     2   2   2   2   2   2   2
#     4  11  24  41  62 100 135 173 224 278 346 401
#     4  10  24  46  70  97 137 184 230 285 335 406
#     4  12  26  42  67 101 140 180 229 283 347 411
#     4  11  22  43  68  97 135 177 225 283 341 409
#     4  10  23  42  67  98 132 177 229 276 342 402
#     4  10  23  46  71  97 133 183 236 278 341 412
#     4  10  22  40  65  96 133 174 223 284 344 401
#
# _framework density 24.657053999999999
#
# number of rings (size 3 to 8) (size 9 to 14) (size 15 to 20)
#    0.000    1.429    1.429    2.571    2.000    5.714 
#    0.000    1.429    0.000    0.000    0.000    0.000 
#    0.000    0.000    0.000    0.000    0.000    0.000 
#
# Total GULP energy -78211.034885 kJ/mol
# GULP energy per Si atom -5586.502492 kJ/mol
# Density = 2.460093 g / cm^3
# Si number density = 24.657054 Si / 1000 Ang^3
#
#
#
# Elastic Constant Matrix: (Units=GPa)
#
#
# Indices 1 2 3 4 5 6 
#
# 1 93.4640 24.2134 42.9723 -7.1659 9.2474 -19.0514
# 2 24.2134 153.5332 19.7792 -36.0596 -1.9827 -3.9651
# 3 42.9723 19.7792 107.1498 1.9797 19.2143 -9.5351
# 4 -7.1659 -36.0596 1.9797 45.7596 0.2565 2.1646
# 5 9.2474 -1.9827 19.2143 0.2565 40.9655 -4.4201
# 6 -19.0514 -3.9651 -9.5351 2.1646 -4.4201 36.3253
#
#
#
# Elastic Compliance Matrix: (Units=1/GPa)
#
#
# Indices 1 2 3 4 5 6 
#
# 1 0.014745 -0.001211 -0.005107 0.001287 -0.000337 0.006143
# 2 -0.001211 0.008432 -0.001451 0.006526 0.001286 -0.000328
# 3 -0.005107 -0.001451 0.012555 -0.002461 -0.004788 0.000023
# 4 0.001287 0.006526 -0.002461 0.027336 0.000925 -0.000775
# 5 -0.000337 0.001286 -0.004788 0.000925 0.026998 0.001937
# 6 0.006143 -0.000328 0.000023 -0.000775 0.001937 0.031003
#
#
# Mechanical properties :
#
#
# Convention : Reuss Voigt Hill
#
# Bulk Modulus (GPa) = 49.51890 58.67521 54.09705
# Shear Modulus (GPa) = 34.88268 42.42222 38.65245
#
# Velocity S-wave (km/s) = 3.76535 4.15238 3.96359
# Velocity P-wave (km/s) = 6.24744 6.84382 6.55242
#
# Compressibility (1/GPa) = 0.02019431
#
# Stress axis : x y z
#
# Youngs Moduli (GPa) = 67.81902 118.59475 79.65108
#
# Poissons Ratio (x) = 0.14362 0.40675
# Poissons Ratio (y) = 0.08213 0.11559
# Poissons Ratio (z) = 0.34633 0.17210
#
# Static dielectric constant tensor:
#      x y z
#    x 2.042070 0.060470 -0.029980 
#    y 0.060470 2.022860 -0.048230 
#    z -0.029980 -0.048230 1.987740 
# 
# From -- ./inp_files/462106.got.cif
#   From: 2010.05.17/outbox.cif.g08.bks.cpg/sg2_232_cif.got.tgz:462106.got - 2010.06.03 11:33:40.
