data_PCOD9024295
_publ_section_title
;
Structure prediction by ZEFSAII (Michael W. Deem and Ramdas Pophale) SiO2 
 PCOD9024295
Probable space group: P -1
;
_chemical_formula_sum "Si O2"
_cell_formula_units_Z 15
_cell_length_a 12.125926
_cell_length_b 10.770261
_cell_length_c 9.107266
_cell_angle_alpha 87.060565
_cell_angle_beta 41.191502
_cell_angle_gamma 61.943886
_cell_volume 590.139205
_symmetry_space_group_name_H-M "P -1"
_symmetry_group_IT_number 2
_symmetry_cell_setting 'triclinic'
loop_
_space_group_symop_operation_xyz
x,y,z
-x,-y,-z
loop_
_atom_site_type_symbol
_atom_site_label
_atom_site_fract_x
_atom_site_fract_y
_atom_site_fract_z
Si Si1 0.231050 0.924589 0.691090
Si Si2 0.531954 0.591727 0.579588
Si Si3 0.718834 0.099783 0.715326
Si Si4 0.500000 0.000000 0.000000
Si Si5 0.779264 0.308599 0.841536
Si Si6 0.248520 0.154282 0.531463
Si Si7 0.052801 0.501252 0.782175
Si Si8 0.234238 0.407693 0.191971
O O1 0.431788 0.757126 0.579731
O O2 0.240832 0.898821 0.501061
O O3 0.263442 0.057229 0.661200
O O4 0.000000 0.000000 0.000000
O O5 0.500000 0.500000 0.500000
O O6 0.788607 0.458595 0.381635
O O7 0.386394 0.648603 0.866253
O O8 0.756897 0.946670 0.759801
O O9 0.795716 0.182534 0.723794
O O10 0.445759 0.216633 0.018173
O O11 0.552342 0.967377 0.770896
O O12 0.701029 0.481718 0.849683
O O13 0.006794 0.233892 0.701465
O O14 0.222034 0.312333 0.570408
O O15 0.831282 0.592516 0.907806
O O16 0.000000 0.500000 0.000000
O O17 0.000000 0.500000 0.500000
#
# Coordination Sequence:
#
# PCOD9024295 Si02
#       8
#     2   2   2   1   2   2   2   2
#     4  11  24  43  65  97 138 175 222 284 328 405
#     4  12  24  43  70  99 137 178 224 280 341 406
#     4  11  23  42  68 100 133 177 231 276 339 402
#     4  10  22  40  64  90 136 176 216 278 334 398
#     4  11  22  41  67  98 131 173 228 278 337 397
#     4  10  22  44  65  96 136 176 227 275 339 407
#     4  11  24  43  67  97 132 180 219 277 346 402
#     4  11  23  43  67  97 136 170 226 283 339 405
#
# _framework density 25.417732000000001
#
# number of rings (size 3 to 8) (size 9 to 14) (size 15 to 20)
#    0.000    1.067    1.333    6.800    0.000    3.733 
#    2.400    2.667    0.000    0.000    0.000    0.000 
#    0.000    0.000    0.000    0.000    0.000    0.000 
#
# Total GULP energy -83548.034771 kJ/mol
# GULP energy per Si atom -5569.868985 kJ/mol
# Density = 2.535988 g / cm^3
# Si number density = 25.417732 Si / 1000 Ang^3
#
#
#
# Elastic Constant Matrix: (Units=GPa)
#
#
# Indices 1 2 3 4 5 6 
#
# 1 114.8599 -7.6058 20.8833 -16.2309 -5.9411 17.0063
# 2 -7.6058 51.7332 -15.9472 -9.9222 -3.7595 -9.4891
# 3 20.8833 -15.9472 146.2205 -29.7808 9.4978 0.2231
# 4 -16.2309 -9.9222 -29.7808 42.2971 -0.0893 1.3644
# 5 -5.9411 -3.7595 9.4978 -0.0893 41.2829 -4.4171
# 6 17.0063 -9.4891 0.2231 1.3644 -4.4171 31.8976
#
#
#
# Elastic Compliance Matrix: (Units=1/GPa)
#
#
# Indices 1 2 3 4 5 6 
#
# 1 0.010278 0.001243 -0.000590 0.003988 0.001190 -0.005111
# 2 0.001243 0.023728 0.004033 0.008684 0.002103 0.006287
# 3 -0.000590 0.004033 0.008882 0.006940 -0.001647 0.000927
# 4 0.003988 0.008684 0.006940 0.032128 -0.000270 -0.001003
# 5 0.001190 0.002103 -0.001647 -0.000270 0.025341 0.003524
# 6 -0.005111 0.006287 0.000927 -0.001003 0.003524 0.036470
#
#
# Mechanical properties :
#
#
# Convention : Reuss Voigt Hill
#
# Bulk Modulus (GPa) = 19.13529 34.16382 26.64956
# Shear Modulus (GPa) = 34.51270 44.12773 39.32022
#
# Velocity S-wave (km/s) = 3.68886 4.17117 3.93741
# Velocity P-wave (km/s) = 5.06836 6.05544 5.58375
#
# Compressibility (1/GPa) = 0.05225946
#
# Stress axis : x y z
#
# Youngs Moduli (GPa) = 97.29877 42.14519 112.58644
#
# Poissons Ratio (x) = -0.05239 0.06638
# Poissons Ratio (y) = -0.12094 -0.45403
# Poissons Ratio (z) = 0.05737 -0.16996
#
# Static dielectric constant tensor:
#      x y z
#    x 1.671140 -0.780200 0.148790 
#    y -0.780200 0.308300 0.541680 
#    z 0.148790 0.541680 2.011150 
# 
# From -- ./inp_files/258384.got.cif
#   From: 2010.05.17/outbox.cif.g08.bks.cpg/sg2_130_cif.got.tgz:258384.got - 2010.06.03 11:33:40.
