data_PCOD9024396
_publ_section_title
;
Structure prediction by ZEFSAII (Michael W. Deem and Ramdas Pophale) SiO2 
 PCOD9024396
Probable space group: P -1
;
_chemical_formula_sum "Si O2"
_cell_formula_units_Z 14
_cell_length_a 6.776789
_cell_length_b 19.854165
_cell_length_c 6.390570
_cell_angle_alpha 53.230146
_cell_angle_beta 75.290604
_cell_angle_gamma 60.243782
_cell_volume 596.796787
_symmetry_space_group_name_H-M "P -1"
_symmetry_group_IT_number 2
_symmetry_cell_setting 'triclinic'
loop_
_space_group_symop_operation_xyz
x,y,z
-x,-y,-z
loop_
_atom_site_type_symbol
_atom_site_label
_atom_site_fract_x
_atom_site_fract_y
_atom_site_fract_z
Si Si1 0.536738 0.880854 0.441396
Si Si2 0.765423 0.000307 0.001833
Si Si3 0.392911 0.598103 0.055795
Si Si4 0.894437 0.275261 0.727028
Si Si5 0.540422 0.269064 0.534990
Si Si6 0.651147 0.823695 0.988353
Si Si7 0.139206 0.560449 0.839924
O O1 0.301452 0.972380 0.274746
O O2 0.497154 0.798674 0.494976
O O3 0.612249 0.848377 0.713249
O O4 0.724924 0.912166 0.246449
O O5 0.561025 0.088049 0.012570
O O6 0.000000 0.000000 0.000000
O O7 0.290449 0.662775 0.163898
O O8 0.615397 0.502165 0.217686
O O9 0.478564 0.645210 0.760233
O O10 0.196697 0.581590 0.019760
O O11 0.776930 0.236506 0.659059
O O12 0.968160 0.343850 0.443403
O O13 0.101342 0.199708 0.945852
O O14 0.376280 0.269453 0.766296
O O15 0.000000 0.500000 0.000000
#
# Coordination Sequence:
#
# PCOD9024396 Si02
#       7
#     2   2   2   2   2   2   2
#     4  10  23  43  67  94 127 167 215 267 323 386
#     4  10  24  44  67  94 129 169 215 268 323 386
#     4  10  22  40  64  95 129 172 219 264 318 381
#     4  11  24  41  65  97 133 171 216 267 324 386
#     4  10  23  41  63  95 133 171 215 266 322 380
#     4  11  24  40  65  98 129 168 216 264 325 387
#     4  10  22  41  65  93 131 172 216 267 319 378
#
# _framework density 23.458573000000001
#
# number of rings (size 3 to 8) (size 9 to 14) (size 15 to 20)
#    0.000    1.714    0.000    2.571    0.000   18.286 
#    0.000    0.000    0.000    2.571    0.000    0.000 
#    0.000    0.000    0.000    0.000    0.000    0.000 
#
# Total GULP energy -78105.983451 kJ/mol
# GULP energy per Si atom -5578.998818 kJ/mol
# Density = 2.340518 g / cm^3
# Si number density = 23.458573 Si / 1000 Ang^3
#
#
#
# Elastic Constant Matrix: (Units=GPa)
#
#
# Indices 1 2 3 4 5 6 
#
# 1 161.8617 47.0490 61.8433 -8.8498 32.3519 18.3579
# 2 47.0490 84.4840 23.7806 4.2137 14.9296 5.8766
# 3 61.8433 23.7806 140.4672 -4.1983 27.1868 12.9648
# 4 -8.8498 4.2137 -4.1983 22.7954 6.2694 -5.6277
# 5 32.3519 14.9296 27.1868 6.2694 46.8489 -12.6282
# 6 18.3579 5.8766 12.9648 -5.6277 -12.6282 38.7770
#
#
#
# Elastic Compliance Matrix: (Units=1/GPa)
#
#
# Indices 1 2 3 4 5 6 
#
# 1 0.010232 -0.003853 -0.001927 0.004928 -0.006754 -0.005100
# 2 -0.003853 0.014697 -0.000496 -0.004215 -0.001534 -0.001348
# 3 -0.001927 -0.000496 0.009436 0.001612 -0.005178 -0.003620
# 4 0.004928 -0.004215 0.001612 0.049868 -0.009121 0.002034
# 5 -0.006754 -0.001534 -0.005178 -0.009121 0.034814 0.015175
# 6 -0.005100 -0.001348 -0.003620 0.002034 0.015175 0.034855
#
#
# Mechanical properties :
#
#
# Convention : Reuss Voigt Hill
#
# Bulk Modulus (GPa) = 45.84711 72.46208 59.15460
# Shear Modulus (GPa) = 28.78065 38.62693 33.70379
#
# Velocity S-wave (km/s) = 3.50647 4.06224 3.79454
# Velocity P-wave (km/s) = 5.99834 7.27728 6.66854
#
# Compressibility (1/GPa) = 0.02181162
#
# Stress axis : x y z
#
# Youngs Moduli (GPa) = 97.72832 68.03946 105.97529
#
# Poissons Ratio (x) = 0.26219 0.20426
# Poissons Ratio (y) = 0.37659 0.05259
# Poissons Ratio (z) = 0.18837 0.03377
#
# Static dielectric constant tensor:
#      x y z
#    x 1.900590 0.003790 -0.004550 
#    y 0.003790 1.980940 -0.017210 
#    z -0.004550 -0.017210 1.978090 
# 
# From -- ./inp_files/10173.got.cif
#   From: 2010.05.17/outbox.cif.g08.bks.cpg/sg2_6_cif.got.tgz:10173.got - 2010.06.03 11:33:40.
