data_PCOD9024647
_publ_section_title
;
Structure prediction by ZEFSAII (Michael W. Deem and Ramdas Pophale) SiO2 
 PCOD9024647
Probable space group: P -1
;
_chemical_formula_sum "Si O2"
_cell_formula_units_Z 16
_cell_length_a 11.649489
_cell_length_b 19.549542
_cell_length_c 5.219323
_cell_angle_alpha 128.243960
_cell_angle_beta 120.272721
_cell_angle_gamma 48.511621
_cell_volume 690.322945
_symmetry_space_group_name_H-M "P -1"
_symmetry_group_IT_number 2
_symmetry_cell_setting 'triclinic'
loop_
_space_group_symop_operation_xyz
x,y,z
-x,-y,-z
loop_
_atom_site_type_symbol
_atom_site_label
_atom_site_fract_x
_atom_site_fract_y
_atom_site_fract_z
Si Si1 0.674413 0.118867 0.262176
Si Si2 0.698318 0.847328 0.494244
Si Si3 0.866882 0.483277 0.692941
Si Si4 0.934985 0.718176 0.857477
Si Si5 0.217081 0.732700 0.269785
Si Si6 0.646183 0.015553 0.474505
Si Si7 0.332125 0.600376 0.567334
Si Si8 0.334604 0.295633 0.193301
O O1 0.787624 0.162193 0.515714
O O2 0.703117 0.040220 0.337292
O O3 0.501494 0.220681 0.330678
O O4 0.676306 0.069567 0.876217
O O5 0.852089 0.796652 0.713159
O O6 0.540067 0.934437 0.645915
O O7 0.711061 0.901021 0.376324
O O8 0.663252 0.757729 0.195069
O O9 0.790131 0.438250 0.690494
O O10 0.728175 0.587131 0.656096
O O11 0.952769 0.396077 0.379337
O O12 0.000000 0.500000 0.000000
O O13 0.800700 0.711018 0.831052
O O14 0.049354 0.748891 0.181689
O O15 0.319093 0.673286 0.492660
O O16 0.288854 0.662861 0.932517
O O17 0.500000 0.500000 0.500000
#
# Coordination Sequence:
#
# PCOD9024647 Si02
#       8
#     2   2   2   2   2   2   2   2
#     4  11  23  43  66  96 122 166 216 271 307 376
#     4  10  22  40  65  96 125 167 205 270 325 376
#     4  11  22  38  60  96 128 163 213 257 306 376
#     4  11  23  40  62  92 133 172 202 260 326 377
#     4  11  25  42  64  91 132 170 209 261 323 374
#     4  10  23  41  68  97 125 157 221 270 318 371
#     4  11  24  43  63  90 129 176 216 257 308 374
#     4  11  22  38  66  91 126 168 215 257 315 376
#
# _framework density 23.17756
#
# number of rings (size 3 to 8) (size 9 to 14) (size 15 to 20)
#    0.000    1.250    2.500    3.000    3.500    5.500 
#    0.000    1.250    0.000    0.000    0.000    0.000 
#    0.000    0.000    0.000    0.000    0.000    0.000 
#
# Total GULP energy -89471.054770 kJ/mol
# GULP energy per Si atom -5591.940923 kJ/mol
# Density = 2.312481 g / cm^3
# Si number density = 23.177560 Si / 1000 Ang^3
#
#
#
# Elastic Constant Matrix: (Units=GPa)
#
#
# Indices 1 2 3 4 5 6 
#
# 1 61.1378 -9.8021 26.9504 5.1063 6.7936 18.5706
# 2 -9.8021 98.4482 12.7397 12.7498 -17.7794 21.2526
# 3 26.9504 12.7397 81.9184 11.0442 1.9207 11.9007
# 4 5.1063 12.7498 11.0442 32.0690 10.0459 0.3942
# 5 6.7936 -17.7794 1.9207 10.0459 34.7340 1.5862
# 6 18.5706 21.2526 11.9007 0.3942 1.5862 38.0197
#
#
#
# Elastic Compliance Matrix: (Units=1/GPa)
#
#
# Indices 1 2 3 4 5 6 
#
# 1 0.025049 0.007266 -0.006692 -0.004781 0.001221 -0.014203
# 2 0.007266 0.017376 -0.002022 -0.010745 0.011286 -0.012989
# 3 -0.006692 -0.002022 0.015238 -0.003520 0.000466 -0.000354
# 4 -0.004781 -0.010745 -0.003520 0.042684 -0.017159 0.009717
# 5 0.001221 0.011286 0.000466 -0.017159 0.039655 -0.008528
# 6 -0.014203 -0.012989 -0.000354 0.009717 -0.008528 0.040866
#
#
# Mechanical properties :
#
#
# Convention : Reuss Voigt Hill
#
# Bulk Modulus (GPa) = 18.25857 33.47560 25.86709
# Shear Modulus (GPa) = 24.74999 35.07230 29.91114
#
# Velocity S-wave (km/s) = 3.27133 3.89421 3.59628
# Velocity P-wave (km/s) = 4.70782 5.89018 5.33188
#
# Compressibility (1/GPa) = 0.05476879
#
# Stress axis : x y z
#
# Youngs Moduli (GPa) = 39.92169 57.54919 65.62428
#
# Poissons Ratio (x) = -0.41814 0.43913
# Poissons Ratio (y) = -0.29007 0.13268
# Poissons Ratio (z) = 0.26714 0.11635
#
# Static dielectric constant tensor:
#      x y z
#    x 1.903340 -0.015300 -0.055260 
#    y -0.015300 1.942900 -0.014980 
#    z -0.055260 -0.014980 1.918110 
# 
# From -- ./inp_files/72262.got.cif
#   From: 2010.05.17/outbox.cif.g08.bks.cpg/sg2_37_cif.got.tgz:72262.got - 2010.06.03 11:33:40.
