data_PCOD9024104
_publ_section_title
;
Structure prediction by ZEFSAII (Michael W. Deem and Ramdas Pophale) SiO2 
 PCOD9024104
Probable space group: P -1
;
_chemical_formula_sum "Si O2"
_cell_formula_units_Z 15
_cell_length_a 4.971463
_cell_length_b 21.762596
_cell_length_c 5.860839
_cell_angle_alpha 110.977279
_cell_angle_beta 97.510555
_cell_angle_gamma 69.669860
_cell_volume 555.172564
_symmetry_space_group_name_H-M "P -1"
_symmetry_group_IT_number 2
_symmetry_cell_setting 'triclinic'
loop_
_space_group_symop_operation_xyz
x,y,z
-x,-y,-z
loop_
_atom_site_type_symbol
_atom_site_label
_atom_site_fract_x
_atom_site_fract_y
_atom_site_fract_z
Si Si1 0.474942 0.362082 0.072622
Si Si2 0.145813 0.210999 0.437870
Si Si3 0.500000 0.500000 0.500000
Si Si4 0.837279 0.555379 0.241631
Si Si5 0.294001 0.986596 0.766392
Si Si6 0.726015 0.138285 0.166985
Si Si7 0.964111 0.659731 0.682164
Si Si8 0.689399 0.887996 0.294700
O O1 0.415309 0.437964 0.274407
O O2 0.327438 0.324614 0.187041
O O3 0.813101 0.332460 0.095627
O O4 0.344580 0.375058 0.824018
O O5 0.481469 0.185263 0.374004
O O6 0.029865 0.290607 0.459615
O O7 0.123225 0.181306 0.646624
O O8 0.968843 0.173401 0.211482
O O9 0.632130 0.522930 0.307616
O O10 0.040411 0.580996 0.477651
O O11 0.000000 0.500000 0.000000
O O12 0.135288 0.937466 0.799224
O O13 0.495235 0.937902 0.533203
O O14 0.149800 0.062223 0.738706
O O15 0.500000 0.000000 0.000000
O O16 0.531350 0.129761 0.924531
#
# Coordination Sequence:
#
# PCOD9024104 Si02
#       8
#     2   2   1   2   2   2   2   2
#     4  11  23  43  68  96 133 174 215 274 342 402
#     4  11  24  42  62  91 132 175 225 277 328 399
#     4  10  22  42  68 102 134 164 218 278 334 414
#     4  11  24  45  74 105 139 180 226 286 356 416
#     4   8  16  36  63  95 128 164 217 278 337 397
#     4  10  22  40  63  92 127 172 224 277 334 402
#     4  11  26  43  64  98 136 178 232 281 333 416
#     4   9  19  38  64  93 128 172 217 275 340 393
#
# _framework density 27.018628
#
# number of rings (size 3 to 8) (size 9 to 14) (size 15 to 20)
#    0.000    1.867    0.000    2.800    0.000   10.133 
#    0.000   24.667    0.000    0.000    0.000    0.000 
#    0.000    0.000    0.000    0.000    0.000    0.000 
#
# Total GULP energy -83828.818418 kJ/mol
# GULP energy per Si atom -5588.587895 kJ/mol
# Density = 2.695713 g / cm^3
# Si number density = 27.018628 Si / 1000 Ang^3
#
#
#
# Elastic Constant Matrix: (Units=GPa)
#
#
# Indices 1 2 3 4 5 6 
#
# 1 118.6236 17.0988 20.6935 2.5821 8.7375 26.5253
# 2 17.0988 155.1036 25.1571 -27.0459 5.9008 34.2415
# 3 20.6935 25.1571 95.1912 -22.1184 15.8393 12.1045
# 4 2.5821 -27.0459 -22.1184 45.8041 -4.6156 -2.6744
# 5 8.7375 5.9008 15.8393 -4.6156 42.6268 -5.9458
# 6 26.5253 34.2415 12.1045 -2.6744 -5.9458 38.2003
#
#
#
# Elastic Compliance Matrix: (Units=1/GPa)
#
#
# Indices 1 2 3 4 5 6 
#
# 1 0.010657 0.000682 -0.001316 -0.001625 -0.003109 -0.008192
# 2 0.000682 0.009190 -0.000040 0.004649 -0.002108 -0.008701
# 3 -0.001316 -0.000040 0.013374 0.005840 -0.004563 -0.003590
# 4 -0.001625 0.004649 0.005840 0.027322 0.000064 -0.002966
# 5 -0.003109 -0.002108 -0.004563 0.000064 0.027454 0.009771
# 6 -0.008192 -0.008701 -0.003590 -0.002966 0.009771 0.042117
#
#
# Mechanical properties :
#
#
# Convention : Reuss Voigt Hill
#
# Bulk Modulus (GPa) = 31.37221 54.97969 43.17595
# Shear Modulus (GPa) = 35.18982 45.72416 40.45699
#
# Velocity S-wave (km/s) = 3.61283 4.11824 3.87379
# Velocity P-wave (km/s) = 5.38887 6.55791 6.00192
#
# Compressibility (1/GPa) = 0.03187534
#
# Stress axis : x y z
#
# Youngs Moduli (GPa) = 93.83092 108.81018 74.77011
#
# Poissons Ratio (x) = -0.07421 0.09837
# Poissons Ratio (y) = -0.06399 0.00297
# Poissons Ratio (z) = 0.12345 0.00433
#
# Static dielectric constant tensor:
#      x y z
#    x 1.941410 0.047720 -0.311480 
#    y 0.047720 2.042990 -0.043060 
#    z -0.311480 -0.043060 4.080020 
# 
# From -- ./inp_files/11432.got.cif
#   From: 2010.05.17/outbox.cif.g08.bks.cpg/sg2_6_cif.got.tgz:11432.got - 2010.06.03 11:33:40.
