data_PCOD9024028
_publ_section_title
;
Structure prediction by ZEFSAII (Michael W. Deem and Ramdas Pophale) SiO2 
 PCOD9024028
Probable space group: P -1
;
_chemical_formula_sum "Si O2"
_cell_formula_units_Z 15
_cell_length_a 11.228659
_cell_length_b 16.243036
_cell_length_c 11.248449
_cell_angle_alpha 56.107833
_cell_angle_beta 59.249385
_cell_angle_gamma 21.234642
_cell_volume 616.558209
_symmetry_space_group_name_H-M "P -1"
_symmetry_group_IT_number 2
_symmetry_cell_setting 'triclinic'
loop_
_space_group_symop_operation_xyz
x,y,z
-x,-y,-z
loop_
_atom_site_type_symbol
_atom_site_label
_atom_site_fract_x
_atom_site_fract_y
_atom_site_fract_z
Si Si1 0.889368 0.441385 0.759130
Si Si2 0.663821 0.554675 0.521354
Si Si3 0.515900 0.751890 0.108574
Si Si4 0.598867 0.102194 0.216902
Si Si5 0.097762 0.276493 0.293787
Si Si6 0.500000 0.500000 0.000000
Si Si7 0.598486 0.074312 0.742868
Si Si8 0.365674 0.630169 0.232263
O O1 0.852562 0.464972 0.616546
O O2 0.627681 0.688814 0.746856
O O3 0.750801 0.757189 0.222836
O O4 0.760643 0.417880 0.886534
O O5 0.445223 0.790667 0.405927
O O6 0.481456 0.569964 0.631464
O O7 0.904107 0.378249 0.430179
O O8 0.334689 0.941318 0.141557
O O9 0.419343 0.699191 0.215071
O O10 0.896955 0.497647 0.157320
O O11 0.438279 0.832456 0.950489
O O12 0.453387 0.086592 0.300239
O O13 0.975447 0.865594 0.248837
O O14 0.141532 0.162328 0.266969
O O15 0.473845 0.569917 0.089014
#
# Coordination Sequence:
#
# PCOD9024028 Si02
#       8
#     2   2   2   2   2   1   2   2
#     4  11  22  41  70 103 136 171 231 283 337 398
#     4  10  24  45  69 102 138 173 233 288 323 407
#     4  11  25  47  65 101 144 174 226 283 330 420
#     4  12  24  43  72 102 133 181 224 284 340 401
#     4  11  25  44  73  97 135 184 225 278 347 389
#     4  10  22  40  62  98 136 172 218 278 332 392
#     4  11  25  45  70 101 135 186 224 280 337 405
#     4  11  25  43  70 100 139 179 227 279 345 392
#
# _framework density 24.328603999999999
#
# number of rings (size 3 to 8) (size 9 to 14) (size 15 to 20)
#    0.000    1.067    4.000    2.800    1.867    4.800 
#    2.400    1.333    0.000    0.000    0.000    0.000 
#    0.000    0.000    0.000    0.000    0.000    0.000 
#
# Total GULP energy -83757.360225 kJ/mol
# GULP energy per Si atom -5583.824015 kJ/mol
# Density = 2.427323 g / cm^3
# Si number density = 24.328604 Si / 1000 Ang^3
#
#
#
# Elastic Constant Matrix: (Units=GPa)
#
#
# Indices 1 2 3 4 5 6 
#
# 1 147.2398 23.2932 30.7360 19.6351 17.7722 31.6932
# 2 23.2932 74.6251 24.6210 9.0376 16.5476 31.4975
# 3 30.7360 24.6210 98.1898 15.1701 21.0027 17.4392
# 4 19.6351 9.0376 15.1701 17.0948 3.5947 10.8328
# 5 17.7722 16.5476 21.0027 3.5947 26.9888 15.2114
# 6 31.6932 31.4975 17.4392 10.8328 15.2114 53.6237
#
#
#
# Elastic Compliance Matrix: (Units=1/GPa)
#
#
# Indices 1 2 3 4 5 6 
#
# 1 0.008816 0.000148 -0.000542 -0.007327 -0.002912 -0.002815
# 2 0.000148 0.019066 -0.001872 -0.001912 -0.005089 -0.008848
# 3 -0.000542 -0.001872 0.013988 -0.009803 -0.008841 0.001359
# 4 -0.007327 -0.001912 -0.009803 0.081293 0.008551 -0.010206
# 5 -0.002912 -0.005089 -0.008841 0.008551 0.053004 -0.009177
# 6 -0.002815 -0.008848 0.001359 -0.010206 -0.009177 0.029733
#
#
# Mechanical properties :
#
#
# Convention : Reuss Voigt Hill
#
# Bulk Modulus (GPa) = 26.78168 53.03944 39.91056
# Shear Modulus (GPa) = 22.43397 35.63509 29.03453
#
# Velocity S-wave (km/s) = 3.03994 3.83134 3.45836
# Velocity P-wave (km/s) = 4.83258 6.43590 5.69099
#
# Compressibility (1/GPa) = 0.03733896
#
# Stress axis : x y z
#
# Youngs Moduli (GPa) = 113.43221 52.44865 71.49232
#
# Poissons Ratio (x) = -0.00778 0.03874
# Poissons Ratio (y) = -0.01682 0.13381
# Poissons Ratio (z) = 0.06147 0.09817
#
# Static dielectric constant tensor:
#      x y z
#    x 1.957490 -0.014580 -0.003590 
#    y -0.014580 1.940960 -0.020860 
#    z -0.003590 -0.020860 1.922730 
# 
# From -- ./inp_files/437265.got.cif
#   From: 2010.05.17/outbox.cif.g08.bks.cpg/sg2_219_cif.got.tgz:437265.got - 2010.06.03 11:33:40.
