data_PCOD9024389
_publ_section_title
;
Structure prediction by ZEFSAII (Michael W. Deem and Ramdas Pophale) SiO2 
 PCOD9024389
Probable space group: P -1
;
_chemical_formula_sum "Si O2"
_cell_formula_units_Z 16
_cell_length_a 4.961524
_cell_length_b 10.374088
_cell_length_c 18.474277
_cell_angle_alpha 132.544972
_cell_angle_beta 97.139601
_cell_angle_gamma 70.674380
_cell_volume 654.290893
_symmetry_space_group_name_H-M "P -1"
_symmetry_group_IT_number 2
_symmetry_cell_setting 'triclinic'
loop_
_space_group_symop_operation_xyz
x,y,z
-x,-y,-z
loop_
_atom_site_type_symbol
_atom_site_label
_atom_site_fract_x
_atom_site_fract_y
_atom_site_fract_z
Si Si1 0.561231 0.752586 0.228830
Si Si2 0.241927 0.308813 0.299059
Si Si3 0.295052 0.023433 0.889413
Si Si4 0.171869 0.171184 0.403283
Si Si5 0.980940 0.434904 0.195974
Si Si6 0.058617 0.680165 0.103584
Si Si7 0.584493 0.239682 0.071718
Si Si8 0.411699 0.632379 0.477321
O O1 0.754412 0.640607 0.259629
O O2 0.804973 0.758254 0.183075
O O3 0.360675 0.652228 0.142937
O O4 0.356638 0.956879 0.320441
O O5 0.515500 0.134042 0.218579
O O6 0.137717 0.265700 0.357720
O O7 0.328349 0.495140 0.368861
O O8 0.006032 0.345620 0.242146
O O9 0.283972 0.922469 0.926202
O O10 0.004183 0.150653 0.890873
O O11 0.470922 0.159017 0.968947
O O12 0.338272 0.284499 0.497903
O O13 0.869448 0.202352 0.443089
O O14 0.829843 0.325707 0.097991
O O15 0.303499 0.387029 0.157746
O O16 0.000000 0.500000 0.000000
O O17 0.500000 0.500000 0.500000
#
# Coordination Sequence:
#
# PCOD9024389 Si02
#       8
#     2   2   2   2   2   2   2   2
#     4  12  25  42  64  93 130 172 211 258 319 378
#     4  10  22  40  67  93 123 164 216 262 314 383
#     4  10  22  40  64  96 122 168 217 257 311 376
#     4  11  23  42  64  95 126 161 210 269 321 371
#     4  11  24  43  62  91 132 171 209 252 322 370
#     4  12  25  41  65  91 132 169 218 256 312 375
#     4  10  24  40  62  90 135 164 207 267 309 363
#     4  10  22  40  64  95 127 156 206 275 327 362
#
# _framework density 24.453952999999998
#
# number of rings (size 3 to 8) (size 9 to 14) (size 15 to 20)
#    0.000    1.250    1.250    4.875    3.500    9.500 
#    0.000    1.250    0.000    0.000    0.000    0.000 
#    0.000    0.000    0.000    0.000    0.000    0.000 
#
# Total GULP energy -89576.652655 kJ/mol
# GULP energy per Si atom -5598.540791 kJ/mol
# Density = 2.439830 g / cm^3
# Si number density = 24.453953 Si / 1000 Ang^3
#
#
#
# Elastic Constant Matrix: (Units=GPa)
#
#
# Indices 1 2 3 4 5 6 
#
# 1 82.9448 24.3083 0.0445 -6.1702 -2.0677 -15.8404
# 2 24.3083 133.0624 13.5660 18.6844 -8.2394 -36.3839
# 3 0.0445 13.5660 84.9436 7.4142 0.3759 -14.6253
# 4 -6.1702 18.6844 7.4142 25.7979 -4.7043 -4.4699
# 5 -2.0677 -8.2394 0.3759 -4.7043 36.3331 2.8699
# 6 -15.8404 -36.3839 -14.6253 -4.4699 2.8699 27.2324
#
#
#
# Elastic Compliance Matrix: (Units=1/GPa)
#
#
# Indices 1 2 3 4 5 6 
#
# 1 0.014409 -0.001264 0.001107 0.005563 0.000599 0.008136
# 2 -0.001264 0.013108 0.001332 -0.007244 0.000667 0.016233
# 3 0.001107 0.001332 0.013423 -0.003126 -0.000906 0.009214
# 4 0.005563 -0.007244 -0.003126 0.046964 0.004860 -0.000925
# 5 0.000599 0.000667 -0.000906 0.004860 0.028461 -0.001449
# 6 0.008136 0.016233 0.009214 -0.000925 -0.001449 0.068091
#
#
# Mechanical properties :
#
#
# Convention : Reuss Voigt Hill
#
# Bulk Modulus (GPa) = 23.10129 41.86536 32.48333
# Shear Modulus (GPa) = 25.44060 35.40816 30.42438
#
# Velocity S-wave (km/s) = 3.22894 3.80933 3.53108
# Velocity P-wave (km/s) = 4.83413 6.04195 5.47147
#
# Compressibility (1/GPa) = 0.04328762
#
# Stress axis : x y z
#
# Youngs Moduli (GPa) = 69.40227 76.29145 74.50134
#
# Poissons Ratio (x) = 0.09646 -0.08248
# Poissons Ratio (y) = 0.08775 -0.09920
# Poissons Ratio (z) = -0.07683 -0.10159
#
# Static dielectric constant tensor:
#      x y z
#    x 1.949230 0.009310 0.064140 
#    y 0.009310 1.968230 0.011720 
#    z 0.064140 0.011720 2.030260 
# 
# From -- ./inp_files/468018.got.cif
#   From: 2010.05.17/outbox.cif.g08.bks.cpg/sg2_235_cif.got.tgz:468018.got - 2010.06.03 11:33:40.
