data_PCOD9024327
_publ_section_title
;
Structure prediction by ZEFSAII (Michael W. Deem and Ramdas Pophale) SiO2 
 PCOD9024327
Probable space group: P -1
;
_chemical_formula_sum "Si O2"
_cell_formula_units_Z 13
_cell_length_a 13.201850
_cell_length_b 8.524905
_cell_length_c 10.906399
_cell_angle_alpha 73.863634
_cell_angle_beta 135.695285
_cell_angle_gamma 75.185700
_cell_volume 605.746266
_symmetry_space_group_name_H-M "P -1"
_symmetry_group_IT_number 2
_symmetry_cell_setting 'triclinic'
loop_
_space_group_symop_operation_xyz
x,y,z
-x,-y,-z
loop_
_atom_site_type_symbol
_atom_site_label
_atom_site_fract_x
_atom_site_fract_y
_atom_site_fract_z
Si Si1 0.261215 0.080627 0.584707
Si Si2 0.596294 0.675298 0.373302
Si Si3 0.898858 0.548303 0.270248
Si Si4 0.500000 0.500000 0.500000
Si Si5 0.219101 0.911832 0.340196
Si Si6 0.468059 0.343063 0.958170
Si Si7 0.984675 0.775329 0.125316
O O1 0.399195 0.133461 0.670717
O O2 0.046179 0.317973 0.373590
O O3 0.262106 0.963816 0.493830
O O4 0.338859 0.916289 0.802175
O O5 0.436823 0.699902 0.307693
O O6 0.603349 0.609105 0.254040
O O7 0.798988 0.468171 0.664517
O O8 0.693652 0.619705 0.104340
O O9 0.000000 0.500000 0.500000
O O10 0.888823 0.725738 0.149581
O O11 0.406494 0.675488 0.496887
O O12 0.048238 0.903820 0.204197
O O13 0.136236 0.106052 0.128815
O O14 0.500000 0.500000 0.000000
#
# Coordination Sequence:
#
# PCOD9024327 Si02
#       7
#     2   2   2   1   2   2   2
#     4  11  25  44  69 101 136 173 234 281 334 406
#     4  10  22  43  65  98 133 175 225 282 332 405
#     4  11  24  44  71  98 135 185 220 276 352 396
#     4  10  22  40  64  92 132 170 218 270 340 390
#     4  10  22  43  66  99 131 180 221 283 331 404
#     4  12  25  46  68 102 140 177 228 285 334 407
#     4   9  20  43  66  90 137 170 226 274 338 397
#
# _framework density 21.461133
#
# number of rings (size 3 to 8) (size 9 to 14) (size 15 to 20)
#    0.000    1.538    3.077    2.308    2.154    3.692 
#   19.385    0.000    0.000    0.000    0.000    0.000 
#    0.000    0.000    0.000    0.000    0.000    0.000 
#
# Total GULP energy -72373.445650 kJ/mol
# GULP energy per Si atom -5567.188127 kJ/mol
# Density = 2.141229 g / cm^3
# Si number density = 21.461133 Si / 1000 Ang^3
#
#
#
# Elastic Constant Matrix: (Units=GPa)
#
#
# Indices 1 2 3 4 5 6 
#
# 1 65.0510 45.8490 12.8050 -7.7601 -24.3135 8.9989
# 2 45.8490 81.2851 3.1032 9.4753 2.8123 -10.6454
# 3 12.8050 3.1032 65.0603 -12.4095 -11.5586 0.0278
# 4 -7.7601 9.4753 -12.4095 24.7488 10.1318 -9.2220
# 5 -24.3135 2.8123 -11.5586 10.1318 29.0980 -5.8477
# 6 8.9989 -10.6454 0.0278 -9.2220 -5.8477 39.1251
#
#
#
# Elastic Compliance Matrix: (Units=1/GPa)
#
#
# Indices 1 2 3 4 5 6 
#
# 1 0.077477 -0.049664 0.000185 0.010764 0.061936 -0.019539
# 2 -0.049664 0.045100 -0.001655 -0.011982 -0.039329 0.014993
# 3 0.000185 -0.001655 0.017905 0.008486 0.004920 0.002230
# 4 0.010764 -0.011982 0.008486 0.057290 -0.005016 0.007012
# 5 0.061936 -0.039329 0.004920 -0.005016 0.091106 -0.012516
# 6 -0.019539 0.014993 0.002230 0.007012 -0.012516 0.033913
#
#
# Mechanical properties :
#
#
# Convention : Reuss Voigt Hill
#
# Bulk Modulus (GPa) = 26.16993 37.21232 31.69113
# Shear Modulus (GPa) = 11.42085 28.57033 19.99559
#
# Velocity S-wave (km/s) = 2.30937 3.65260 3.05571
# Velocity P-wave (km/s) = 4.39676 5.93007 5.22002
#
# Compressibility (1/GPa) = 0.03821180
#
# Stress axis : x y z
#
# Youngs Moduli (GPa) = 12.90713 22.17309 55.85135
#
# Poissons Ratio (x) = 1.10121 -0.01034
# Poissons Ratio (y) = 0.64102 0.09245
# Poissons Ratio (z) = -0.00239 0.03670
#
# Static dielectric constant tensor:
#      x y z
#    x 1.917030 0.009460 0.051650 
#    y 0.009460 1.757270 -0.065000 
#    z 0.051650 -0.065000 1.792460 
# 
# From -- ./inp_files/243158.got.cif
#   From: 2010.05.17/outbox.cif.g08.bks.cpg/sg2_122_cif.got.tgz:243158.got - 2010.06.03 11:33:40.
