data_PCOD9024050
_publ_section_title
;
Structure prediction by ZEFSAII (Michael W. Deem and Ramdas Pophale) SiO2 
 PCOD9024050
Probable space group: P -1
;
_chemical_formula_sum "Si O2"
_cell_formula_units_Z 12
_cell_length_a 19.434410
_cell_length_b 14.832427
_cell_length_c 10.063373
_cell_angle_alpha 141.591206
_cell_angle_beta 140.737111
_cell_angle_gamma 16.444594
_cell_volume 505.915218
_symmetry_space_group_name_H-M "P -1"
_symmetry_group_IT_number 2
_symmetry_cell_setting 'triclinic'
loop_
_space_group_symop_operation_xyz
x,y,z
-x,-y,-z
loop_
_atom_site_type_symbol
_atom_site_label
_atom_site_fract_x
_atom_site_fract_y
_atom_site_fract_z
Si Si1 0.834058 0.095902 0.272426
Si Si2 0.049811 0.036907 0.988681
Si Si3 0.627627 0.989758 0.237514
Si Si4 0.157312 0.242812 0.140204
Si Si5 0.253409 0.106823 0.411914
Si Si6 0.497099 0.297518 0.155538
O O1 0.808434 0.191268 0.195160
O O2 0.000000 0.000000 0.500000
O O3 0.598823 0.320791 0.263070
O O4 0.945824 0.799974 0.070013
O O5 0.778430 0.394870 0.943259
O O6 0.187118 0.017202 0.215765
O O7 0.000000 0.000000 0.000000
O O8 0.583085 0.053456 0.401952
O O9 0.922961 0.625126 0.238046
O O10 0.534864 0.236138 0.297321
O O11 0.500000 0.000000 0.000000
O O12 0.324394 0.052438 0.302598
O O13 0.333098 0.033560 0.035374
O O14 0.000000 0.500000 0.500000
#
# Coordination Sequence:
#
# PCOD9024050 Si02
#       6
#     2   2   2   2   2   2
#     4   9  21  40  61  90 127 156 208 254 300 371
#     4  11  24  43  63  88 126 167 208 256 307 368
#     4  11  20  37  66  95 122 161 203 256 312 365
#     4   8  19  39  58  89 127 151 204 247 300 366
#     4   9  19  40  63  88 126 159 204 255 303 369
#     4  10  22  40  63  88 126 160 204 253 309 358
#
# _framework density 23.719390000000001
#
# number of rings (size 3 to 8) (size 9 to 14) (size 15 to 20)
#    1.000    1.333    0.000    3.500    2.333    1.333 
#    3.000    9.167    0.000    0.000    0.000    0.000 
#    0.000    0.000    0.000    0.000    0.000    0.000 
#
# Total GULP energy -66937.241463 kJ/mol
# GULP energy per Si atom -5578.103455 kJ/mol
# Density = 2.366540 g / cm^3
# Si number density = 23.719390 Si / 1000 Ang^3
#
#
#
# Elastic Constant Matrix: (Units=GPa)
#
#
# Indices 1 2 3 4 5 6 
#
# 1 124.4315 10.5018 55.7811 -14.8151 -15.6385 4.4936
# 2 10.5018 57.9495 11.9514 -11.1483 -5.8702 0.9672
# 3 55.7811 11.9514 173.4829 -15.6060 -20.3071 6.9159
# 4 -14.8151 -11.1483 -15.6060 32.7724 5.3718 -1.9467
# 5 -15.6385 -5.8702 -20.3071 5.3718 35.1125 -19.4268
# 6 4.4936 0.9672 6.9159 -1.9467 -19.4268 23.2524
#
#
#
# Elastic Compliance Matrix: (Units=1/GPa)
#
#
# Indices 1 2 3 4 5 6 
#
# 1 0.009924 -0.000426 -0.002585 0.002643 0.003619 0.002114
# 2 -0.000426 0.018789 -0.000364 0.005633 0.003372 0.002698
# 3 -0.002585 -0.000364 0.007111 0.001615 0.003427 0.001398
# 4 0.002643 0.005633 0.001615 0.034778 -0.002481 -0.000387
# 5 0.003619 0.003372 0.003427 -0.002481 0.059272 0.047453
# 6 0.002114 0.002698 0.001398 -0.000387 0.047453 0.081684
#
#
# Mechanical properties :
#
#
# Convention : Reuss Voigt Hill
#
# Bulk Modulus (GPa) = 34.39181 56.92584 45.65882
# Shear Modulus (GPa) = 21.93010 36.73610 29.33310
#
# Velocity S-wave (km/s) = 3.04396 3.93972 3.52045
# Velocity P-wave (km/s) = 5.18510 6.68932 5.98466
#
# Compressibility (1/GPa) = 0.02907669
#
# Stress axis : x y z
#
# Youngs Moduli (GPa) = 100.76255 53.22305 140.62551
#
# Poissons Ratio (x) = 0.02265 0.36345
# Poissons Ratio (y) = 0.04289 0.05113
# Poissons Ratio (z) = 0.26043 0.01935
#
# Static dielectric constant tensor:
#      x y z
#    x 1.927000 0.037030 -0.050880 
#    y 0.037030 1.889360 0.099260 
#    z -0.050880 0.099260 1.827150 
# 
# From -- ./inp_files/303708.got.cif
#   From: 2010.05.17/outbox.cif.g08.bks.cpg/sg2_152_cif.got.tgz:303708.got - 2010.06.03 11:33:40.
