data_PCOD9024115
_publ_section_title
;
Structure prediction by ZEFSAII (Michael W. Deem and Ramdas Pophale) SiO2 
 PCOD9024115
Probable space group: P -1
;
_chemical_formula_sum "Si O2"
_cell_formula_units_Z 16
_cell_length_a 17.159413
_cell_length_b 9.421540
_cell_length_c 20.424038
_cell_angle_alpha 72.935786
_cell_angle_beta 157.419741
_cell_angle_gamma 123.837545
_cell_volume 760.221558
_symmetry_space_group_name_H-M "P -1"
_symmetry_group_IT_number 2
_symmetry_cell_setting 'triclinic'
loop_
_space_group_symop_operation_xyz
x,y,z
-x,-y,-z
loop_
_atom_site_type_symbol
_atom_site_label
_atom_site_fract_x
_atom_site_fract_y
_atom_site_fract_z
Si Si1 0.174946 0.482329 0.444529
Si Si2 0.269988 0.141884 0.353556
Si Si3 0.508473 0.027003 0.380197
Si Si4 0.900171 0.680536 0.727472
Si Si5 0.453535 0.287215 0.789416
Si Si6 0.474977 0.053722 0.746538
Si Si7 0.866688 0.171803 0.366768
Si Si8 0.867720 0.751747 0.991535
O O1 0.026483 0.310144 0.291866
O O2 0.944719 0.330819 0.349201
O O3 0.258945 0.700066 0.464826
O O4 0.527221 0.609587 0.716617
O O5 0.398124 0.059059 0.490972
O O6 0.563269 0.404315 0.516225
O O7 0.129386 0.163734 0.299078
O O8 0.009360 0.959410 0.120177
O O9 0.538775 0.996891 0.332108
O O10 0.143634 0.867059 0.138159
O O11 0.164109 0.764217 0.970453
O O12 0.382690 0.170937 0.678726
O O13 0.193578 0.259984 0.613922
O O14 0.399528 0.110398 0.815829
O O15 0.785533 0.562079 0.998861
O O16 0.246987 0.832466 0.650360
#
# Coordination Sequence:
#
# PCOD9024115 Si02
#       8
#     2   2   2   2   2   2   2   2
#     4  11  24  41  68  91 127 170 207 252 316 370
#     4  11  26  41  59  94 136 157 209 257 312 380
#     4  12  25  37  66  97 127 163 207 257 319 371
#     4  11  25  41  62  92 130 169 203 257 309 376
#     4   8  18  37  67  90 120 165 205 257 306 360
#     4  10  22  40  63  93 126 165 210 251 312 363
#     4   8  19  40  64  92 123 165 212 255 300 373
#     4  11  22  41  65  92 131 163 204 259 318 368
#
# _framework density 21.046496999999999
#
# number of rings (size 3 to 8) (size 9 to 14) (size 15 to 20)
#    0.750    1.000    1.250    2.250    8.750    2.000 
#    0.000    0.000    0.000    4.500    0.000    0.000 
#    0.000    0.000    0.000    0.000    0.000    0.000 
#
# Total GULP energy -89230.518481 kJ/mol
# GULP energy per Si atom -5576.907405 kJ/mol
# Density = 2.099859 g / cm^3
# Si number density = 21.046497 Si / 1000 Ang^3
#
#
#
# Elastic Constant Matrix: (Units=GPa)
#
#
# Indices 1 2 3 4 5 6 
#
# 1 98.7699 14.5972 38.2658 25.6167 -2.4319 -2.0747
# 2 14.5972 86.4494 12.4190 6.0262 12.7310 5.3130
# 3 38.2658 12.4190 35.7637 -9.9570 -3.9468 -4.2863
# 4 25.6167 6.0262 -9.9570 14.7831 15.1992 3.4541
# 5 -2.4319 12.7310 -3.9468 15.1992 22.4508 9.2475
# 6 -2.0747 5.3130 -4.2863 3.4541 9.2475 29.9571
#
#
#
# Elastic Compliance Matrix: (Units=1/GPa)
#
#
# Indices 1 2 3 4 5 6 
#
# 1 -0.002301 -0.000263 0.009574 0.032030 -0.021881 0.004318
# 2 -0.000263 0.013686 -0.005396 0.000397 -0.008778 -0.000553
# 3 0.009574 -0.005396 0.010571 -0.046238 0.038692 -0.003480
# 4 0.032030 0.000397 -0.046238 -0.052144 0.034120 -0.008988
# 5 -0.021881 -0.008778 0.038692 0.034120 0.034571 -0.009028
# 6 0.004318 -0.000553 -0.003480 -0.008988 -0.009028 0.037104
#
#
# Mechanical properties :
#
#
# Convention : Reuss Voigt Hill
#
# Bulk Modulus (GPa) = 33.57273 39.06080 36.31677
# Shear Modulus (GPa) = 114.71775 23.81828 69.26802
#
# Velocity S-wave (km/s) = 7.39088 3.36772 5.74311
# Velocity P-wave (km/s) = 9.42443 5.80703 7.82756
#
# Compressibility (1/GPa) = 0.02978608
#
# Stress axis : x y z
#
# Youngs Moduli (GPa) = -434.56728 73.06651 94.59720
#
# Poissons Ratio (x) = 0.01919 -0.90566
# Poissons Ratio (y) = -0.11416 0.51046
# Poissons Ratio (z) = 4.16047 0.39428
#
# Static dielectric constant tensor:
#      x y z
#    x 1.766240 0.008750 0.025620 
#    y 0.008750 1.807230 -0.016910 
#    z 0.025620 -0.016910 1.764880 
# 
# From -- ./inp_files/572874.got.cif
#   From: 2010.05.17/outbox.cif.g08.bks.cpg/sg2_287_cif.got.tgz:572874.got - 2010.06.03 11:33:40.
