data_PCOD9024126
_publ_section_title
;
Structure prediction by ZEFSAII (Michael W. Deem and Ramdas Pophale) SiO2 
 PCOD9024126
Probable space group: P -1
;
_chemical_formula_sum "Si O2"
_cell_formula_units_Z 16
_cell_length_a 15.510737
_cell_length_b 9.299933
_cell_length_c 12.883655
_cell_angle_alpha 120.122972
_cell_angle_beta 27.853790
_cell_angle_gamma 121.146026
_cell_volume 738.507637
_symmetry_space_group_name_H-M "P -1"
_symmetry_group_IT_number 2
_symmetry_cell_setting 'triclinic'
loop_
_space_group_symop_operation_xyz
x,y,z
-x,-y,-z
loop_
_atom_site_type_symbol
_atom_site_label
_atom_site_fract_x
_atom_site_fract_y
_atom_site_fract_z
Si Si1 0.339951 0.434406 0.364501
Si Si2 0.416641 0.813569 0.064348
Si Si3 0.950672 0.183213 0.642353
Si Si4 0.741137 0.590608 0.326562
Si Si5 0.746844 0.944863 0.358540
Si Si6 0.484854 0.776007 0.218216
Si Si7 0.176834 0.721879 0.967383
Si Si8 0.812087 0.958060 0.051019
O O1 0.336399 0.480726 0.506159
O O2 0.384074 0.596427 0.303460
O O3 0.141414 0.318158 0.502009
O O4 0.497021 0.320456 0.142496
O O5 0.192348 0.782135 0.281473
O O6 0.479620 0.791912 0.106564
O O7 0.500000 0.000000 0.000000
O O8 0.835589 0.194388 0.876514
O O9 0.000000 0.000000 0.500000
O O10 0.679191 0.762540 0.417351
O O11 0.962177 0.652832 0.137239
O O12 0.722916 0.439797 0.207924
O O13 0.756088 0.923762 0.217302
O O14 0.622967 0.081326 0.570283
O O15 0.963011 0.015668 0.188318
O O16 0.696532 0.814263 0.050138
O O17 0.245966 0.867823 0.863596
#
# Coordination Sequence:
#
# PCOD9024126 Si02
#       8
#     2   2   2   2   2   2   2   2
#     4  11  25  44  65  98 137 174 217 281 328 396
#     4  12  25  43  68  95 127 176 229 267 330 398
#     4  11  24  43  72  95 131 174 225 277 331 392
#     4   9  19  39  67  95 130 165 220 270 329 394
#     4  10  22  40  67  97 129 177 220 267 336 397
#     4  12  26  41  64  95 139 173 221 273 332 394
#     4   9  19  38  66  96 125 170 214 271 333 386
#     4  10  22  40  63  93 133 170 216 272 328 390
#
# _framework density 21.665315
#
# number of rings (size 3 to 8) (size 9 to 14) (size 15 to 20)
#    0.000    1.500    1.250    3.000    3.500    5.500 
#    0.000    1.875    0.000    0.000    0.000    0.000 
#    0.000    0.000    0.000    0.000    0.000    0.000 
#
# Total GULP energy -89491.779410 kJ/mol
# GULP energy per Si atom -5593.236213 kJ/mol
# Density = 2.161600 g / cm^3
# Si number density = 21.665315 Si / 1000 Ang^3
#
#
#
# Elastic Constant Matrix: (Units=GPa)
#
#
# Indices 1 2 3 4 5 6 
#
# 1 99.0478 41.1891 19.1009 -8.0680 6.2480 12.5736
# 2 41.1891 131.5163 39.9721 1.6505 12.0953 -15.8554
# 3 19.1009 39.9721 56.3262 9.0739 5.2345 7.0345
# 4 -8.0680 1.6505 9.0739 33.9882 -5.4266 5.4334
# 5 6.2480 12.0953 5.2345 -5.4266 35.3331 -4.0140
# 6 12.5736 -15.8554 7.0345 5.4334 -4.0140 31.1491
#
#
#
# Elastic Compliance Matrix: (Units=1/GPa)
#
#
# Indices 1 2 3 4 5 6 
#
# 1 0.014070 -0.005337 -0.000569 0.005097 -0.000847 -0.009265
# 2 -0.005337 0.013390 -0.008693 -0.001574 -0.001341 0.011035
# 3 -0.000569 -0.008693 0.026488 -0.005707 -0.002808 -0.009543
# 4 0.005097 -0.001574 -0.005707 0.034122 0.004942 -0.006885
# 5 -0.000847 -0.001341 -0.002808 0.004942 0.030467 0.003358
# 6 -0.009265 0.011035 -0.009543 -0.006885 0.003358 0.045250
#
#
# Mechanical properties :
#
#
# Convention : Reuss Voigt Hill
#
# Bulk Modulus (GPa) = 40.40299 54.15717 47.28008
# Shear Modulus (GPa) = 24.84659 32.53595 28.69127
#
# Velocity S-wave (km/s) = 3.39017 3.87945 3.64303
# Velocity P-wave (km/s) = 5.83211 6.71701 6.29014
#
# Compressibility (1/GPa) = 0.02475064
#
# Stress axis : x y z
#
# Youngs Moduli (GPa) = 71.07327 74.68027 37.75296
#
# Poissons Ratio (x) = 0.39854 0.02150
# Poissons Ratio (y) = 0.37929 0.32818
# Poissons Ratio (z) = 0.04047 0.64918
#
# Static dielectric constant tensor:
#      x y z
#    x 1.796500 0.025360 -0.004200 
#    y 0.025360 1.752290 -0.010650 
#    z -0.004200 -0.010650 1.818590 
# 
# From -- ./inp_files/272459.got.cif
#   From: 2010.05.17/outbox.cif.g08.bks.cpg/sg2_137_cif.got.tgz:272459.got - 2010.06.03 11:33:40.
