data_PCOD9024829
_publ_section_title
;
Structure prediction by ZEFSAII (Michael W. Deem and Ramdas Pophale) SiO2 
 PCOD9024829
Probable space group: P -1
;
_chemical_formula_sum "Si O2"
_cell_formula_units_Z 15
_cell_length_a 7.234247
_cell_length_b 21.519345
_cell_length_c 13.088002
_cell_angle_alpha 19.722798
_cell_angle_beta 109.331838
_cell_angle_gamma 111.577440
_cell_volume 638.661233
_symmetry_space_group_name_H-M "P -1"
_symmetry_group_IT_number 2
_symmetry_cell_setting 'triclinic'
loop_
_space_group_symop_operation_xyz
x,y,z
-x,-y,-z
loop_
_atom_site_type_symbol
_atom_site_label
_atom_site_fract_x
_atom_site_fract_y
_atom_site_fract_z
Si Si1 0.247588 0.159576 0.092206
Si Si2 0.629854 0.019852 0.096991
Si Si3 0.798243 0.404803 0.161798
Si Si4 0.848876 0.663876 0.948456
Si Si5 0.973791 0.052600 0.798475
Si Si6 0.525790 0.888000 0.509641
Si Si7 0.000000 0.000000 0.500000
Si Si8 0.203712 0.543409 0.534357
O O1 0.424237 0.039417 0.314881
O O2 0.073195 0.097531 0.240293
O O3 0.323824 0.380926 0.773223
O O4 0.154015 0.110273 0.039848
O O5 0.812753 0.915036 0.266674
O O6 0.542325 0.937769 0.315647
O O7 0.700907 0.240839 0.788134
O O8 0.500000 0.000000 0.000000
O O9 0.619655 0.312985 0.198418
O O10 0.865935 0.229385 0.501414
O O11 0.755998 0.559206 0.994197
O O12 0.000000 0.500000 0.000000
O O13 0.744742 0.857306 0.635258
O O14 0.061716 0.793579 0.792312
O O15 0.828548 0.511188 0.268095
O O16 0.000000 0.000000 0.000000
O O17 0.000000 0.500000 0.500000
#
# Coordination Sequence:
#
# PCOD9024829 Si02
#       8
#     2   2   2   2   2   2   1   2
#     4  10  22  43  68  98 134 182 235 273 353 413
#     4  12  24  43  68 103 143 184 224 289 354 402
#     4  11  23  41  67  99 131 179 229 278 339 419
#     4  11  23  41  66  99 132 177 229 284 343 400
#     4  11  22  41  68  98 136 183 230 280 338 421
#     4  11  24  42  68  99 144 171 227 295 348 407
#     4  10  22  40  66  92 130 180 226 278 336 410
#     4  11  24  42  69  95 135 181 231 280 329 422
#
# _framework density 23.486629000000001
#
# number of rings (size 3 to 8) (size 9 to 14) (size 15 to 20)
#    0.000    1.067    1.333    6.800    1.867    3.733 
#    0.000    1.333    2.933    0.000    0.000    0.000 
#    0.000    0.000    0.000    0.000    0.000    0.000 
#
# Total GULP energy -83572.538302 kJ/mol
# GULP energy per Si atom -5571.502553 kJ/mol
# Density = 2.343317 g / cm^3
# Si number density = 23.486629 Si / 1000 Ang^3
#
#
#
# Elastic Constant Matrix: (Units=GPa)
#
#
# Indices 1 2 3 4 5 6 
#
# 1 98.8709 21.4820 28.1888 -2.5096 11.3695 1.6655
# 2 21.4820 134.4970 41.6053 -10.3630 3.1075 13.4966
# 3 28.1888 41.6053 91.7395 -10.5214 -10.6616 2.3997
# 4 -2.5096 -10.3630 -10.5214 53.2575 -4.5792 4.2128
# 5 11.3695 3.1075 -10.6616 -4.5792 38.5184 -5.6588
# 6 1.6655 13.4966 2.3997 4.2128 -5.6588 27.6765
#
#
#
# Elastic Compliance Matrix: (Units=1/GPa)
#
#
# Indices 1 2 3 4 5 6 
#
# 1 0.011933 -0.000489 -0.004057 -0.000670 -0.004834 -0.001014
# 2 -0.000489 0.009425 -0.004133 0.001178 -0.002335 -0.004865
# 3 -0.004057 -0.004133 0.014965 0.002348 0.006228 0.001878
# 4 -0.000670 0.001178 0.002348 0.019921 0.002646 -0.003229
# 5 -0.004834 -0.002335 0.006228 0.002646 0.030606 0.006744
# 6 -0.001014 -0.004865 0.001878 -0.003229 0.006744 0.040273
#
#
# Mechanical properties :
#
#
# Convention : Reuss Voigt Hill
#
# Bulk Modulus (GPa) = 52.72806 56.40661 54.56734
# Shear Modulus (GPa) = 33.15582 39.47925 36.31753
#
# Velocity S-wave (km/s) = 3.76132 4.10436 3.93658
# Velocity P-wave (km/s) = 6.43136 6.82126 6.62918
#
# Compressibility (1/GPa) = 0.01896523
#
# Stress axis : x y z
#
# Youngs Moduli (GPa) = 83.80003 106.10534 66.82122
#
# Poissons Ratio (x) = 0.05190 0.27109
# Poissons Ratio (y) = 0.04099 0.27616
# Poissons Ratio (z) = 0.33998 0.43851
#
# Static dielectric constant tensor:
#      x y z
#    x 2.039360 0.041030 -0.053460 
#    y 0.041030 2.027090 -0.024330 
#    z -0.053460 -0.024330 1.926690 
# 
# From -- ./inp_files/404413.got.cif
#   From: 2010.05.17/outbox.cif.g08.bks.cpg/sg2_203_cif.got.tgz:404413.got - 2010.06.03 11:33:40.
