data_PCOD9024478
_publ_section_title
;
Structure prediction by ZEFSAII (Michael W. Deem and Ramdas Pophale) SiO2 
 PCOD9024478
Probable space group: P -1
;
_chemical_formula_sum "Si O2"
_cell_formula_units_Z 13
_cell_length_a 11.152066
_cell_length_b 22.707550
_cell_length_c 11.135527
_cell_angle_alpha 157.400855
_cell_angle_beta 135.891915
_cell_angle_gamma 33.337747
_cell_volume 576.285560
_symmetry_space_group_name_H-M "P -1"
_symmetry_group_IT_number 2
_symmetry_cell_setting 'triclinic'
loop_
_space_group_symop_operation_xyz
x,y,z
-x,-y,-z
loop_
_atom_site_type_symbol
_atom_site_label
_atom_site_fract_x
_atom_site_fract_y
_atom_site_fract_z
Si Si1 0.101909 0.180263 0.180241
Si Si2 0.445756 0.869181 0.274322
Si Si3 0.478283 0.859753 0.558459
Si Si4 0.982117 0.193148 0.862330
Si Si5 0.153584 0.547793 0.256487
Si Si6 0.941449 0.102170 0.280387
Si Si7 0.500000 0.500000 0.000000
O O1 0.317660 0.161344 0.279710
O O2 0.967918 0.317933 0.459326
O O3 0.946037 0.260400 0.101876
O O4 0.182818 0.959450 0.852050
O O5 0.524227 0.818825 0.372660
O O6 0.500000 0.000000 0.500000
O O7 0.599619 0.655953 0.917460
O O8 0.181052 0.991987 0.308131
O O9 0.465064 0.698261 0.300748
O O10 0.241213 0.088159 0.823516
O O11 0.000000 0.000000 0.500000
O O12 0.777179 0.369923 0.968694
O O13 0.174432 0.670588 0.403485
O O14 0.000000 0.500000 0.000000
O O15 0.000000 0.000000 0.000000
#
# Coordination Sequence:
#
# PCOD9024478 Si02
#       7
#     2   2   2   2   2   2   1
#     4  11  23  44  69 105 140 186 238 288 356 423
#     4  12  23  42  71 103 141 187 231 287 355 416
#     4  11  24  43  70 101 139 182 236 287 355 414
#     4  10  23  46  70  95 136 183 233 294 348 410
#     4  11  22  43  68 102 141 182 231 287 345 419
#     4  10  22  40  64  99 141 182 232 285 348 414
#     4  10  24  46  70 100 134 186 236 288 348 414
#
# _framework density 22.558261999999999
#
# number of rings (size 3 to 8) (size 9 to 14) (size 15 to 20)
#    0.000    1.231    3.077    3.231    0.000    8.000 
#    0.000   12.308    0.000    0.000    0.000    0.000 
#    0.000    0.000    0.000    0.000    0.000    0.000 
#
# Total GULP energy -72415.128157 kJ/mol
# GULP energy per Si atom -5570.394474 kJ/mol
# Density = 2.250692 g / cm^3
# Si number density = 22.558262 Si / 1000 Ang^3
#
#
#
# Elastic Constant Matrix: (Units=GPa)
#
#
# Indices 1 2 3 4 5 6 
#
# 1 77.8805 12.9776 43.7974 5.0615 15.8363 -6.4792
# 2 12.9776 99.9108 46.3056 24.4441 -4.8633 -9.9245
# 3 43.7974 46.3056 96.0559 17.9858 14.8569 2.1728
# 4 5.0615 24.4441 17.9858 55.6382 3.0464 -5.5183
# 5 15.8363 -4.8633 14.8569 3.0464 48.8404 -6.2077
# 6 -6.4792 -9.9245 2.1728 -5.5183 -6.2077 22.2147
#
#
#
# Elastic Compliance Matrix: (Units=1/GPa)
#
#
# Indices 1 2 3 4 5 6 
#
# 1 0.018944 0.002457 -0.009906 0.001238 -0.002030 0.007332
# 2 0.002457 0.015961 -0.009107 -0.003649 0.004962 0.009218
# 3 -0.009906 -0.009107 0.020888 -0.002665 -0.005299 -0.011144
# 4 0.001238 -0.003649 -0.002665 0.020757 -0.000748 0.003939
# 5 -0.002030 0.004962 -0.005299 -0.000748 0.024401 0.008776
# 6 0.007332 0.009218 -0.011144 0.003939 0.008776 0.055793
#
#
# Mechanical properties :
#
#
# Convention : Reuss Voigt Hill
#
# Bulk Modulus (GPa) = 44.08985 53.33425 48.71205
# Shear Modulus (GPa) = 25.32737 36.72311 31.02524
#
# Velocity S-wave (km/s) = 3.35439 4.03913 3.71258
# Velocity P-wave (km/s) = 5.88131 6.74144 6.32601
#
# Compressibility (1/GPa) = 0.02268096
#
# Stress axis : x y z
#
# Youngs Moduli (GPa) = 52.78836 62.65394 47.87413
#
# Poissons Ratio (x) = -0.15394 0.47422
# Poissons Ratio (y) = -0.12970 0.43600
# Poissons Ratio (z) = 0.52290 0.57060
#
# Static dielectric constant tensor:
#      x y z
#    x 1.902650 0.069640 -0.087120 
#    y 0.069640 2.156970 -0.231070 
#    z -0.087120 -0.231070 1.974610 
# 
# From -- ./inp_files/291762.got.cif
#   From: 2010.05.17/outbox.cif.g08.bks.cpg/sg2_146_cif.got.tgz:291762.got - 2010.06.03 11:33:40.
