data_PCOD9024470
_publ_section_title
;
Structure prediction by ZEFSAII (Michael W. Deem and Ramdas Pophale) SiO2 
 PCOD9024470
Probable space group: P -1
;
_chemical_formula_sum "Si O2"
_cell_formula_units_Z 12
_cell_length_a 7.071173
_cell_length_b 11.634364
_cell_length_c 14.326258
_cell_angle_alpha 44.241495
_cell_angle_beta 90.291797
_cell_angle_gamma 125.501874
_cell_volume 462.107788
_symmetry_space_group_name_H-M "P -1"
_symmetry_group_IT_number 2
_symmetry_cell_setting 'triclinic'
loop_
_space_group_symop_operation_xyz
x,y,z
-x,-y,-z
loop_
_atom_site_type_symbol
_atom_site_label
_atom_site_fract_x
_atom_site_fract_y
_atom_site_fract_z
Si Si1 0.141552 0.007596 0.110999
Si Si2 0.792702 0.536031 0.676840
Si Si3 0.929420 0.430007 0.182116
Si Si4 0.494907 0.384617 0.471310
Si Si5 0.437836 0.649242 0.918771
Si Si6 0.638603 0.938254 0.191784
O O1 0.269330 0.063340 0.183638
O O2 0.465411 0.273598 0.895127
O O3 0.875856 0.681824 0.263848
O O4 0.929162 0.022816 0.107895
O O5 0.093882 0.685359 0.654169
O O6 0.758654 0.701946 0.547413
O O7 0.698918 0.352736 0.695418
O O8 0.620940 0.303283 0.207054
O O9 0.097342 0.433329 0.102864
O O10 0.212929 0.777376 0.992484
O O11 0.500000 0.500000 0.500000
O O12 0.415421 0.149530 0.648966
O O13 0.500000 0.500000 0.000000
#
# Coordination Sequence:
#
# PCOD9024470 Si02
#       6
#     2   2   2   2   2   2
#     4   9  16  30  53  77  99 139 174 202 252 309
#     4   9  17  30  50  80 109 127 172 214 254 307
#     4  10  20  31  54  82  98 134 180 215 251 299
#     4   8  16  29  51  77 105 140 159 203 274 313
#     4  10  19  34  51  75 104 137 176 217 248 299
#     4  10  17  31  53  80 107 134 162 214 268 309
#
# _framework density 25.967969
#
# number of rings (size 3 to 8) (size 9 to 14) (size 15 to 20)
#    0.000    3.000    1.667    2.500    0.000    0.000 
#    0.000    3.333    0.000   26.000    0.000    1.167 
#    0.000    0.000    0.000    0.000    0.000    0.000 
#
# Total GULP energy -67036.361965 kJ/mol
# GULP energy per Si atom -5586.363497 kJ/mol
# Density = 2.590886 g / cm^3
# Si number density = 25.967969 Si / 1000 Ang^3
#
#
#
# Elastic Constant Matrix: (Units=GPa)
#
#
# Indices 1 2 3 4 5 6 
#
# 1 130.4646 35.3221 23.8981 14.1932 30.5362 27.4036
# 2 35.3221 119.2088 19.8599 22.7553 30.1484 53.0103
# 3 23.8981 19.8599 108.7603 22.5966 22.6938 8.7351
# 4 14.1932 22.7553 22.5966 30.2102 20.1222 24.6728
# 5 30.5362 30.1484 22.6938 20.1222 32.2121 18.7553
# 6 27.4036 53.0103 8.7351 24.6728 18.7553 51.8821
#
#
#
# Elastic Compliance Matrix: (Units=1/GPa)
#
#
# Indices 1 2 3 4 5 6 
#
# 1 0.010774 0.001297 -0.001282 0.007936 -0.011810 -0.006304
# 2 0.001297 0.018122 -0.001799 0.011826 -0.012707 -0.019929
# 3 -0.001282 -0.001799 0.012049 -0.010472 -0.002825 0.006488
# 4 0.007936 0.011826 -0.010472 0.092465 -0.044233 -0.042494
# 5 -0.011810 -0.012707 -0.002825 -0.044233 0.076045 0.013242
# 6 -0.006304 -0.019929 0.006488 -0.042494 0.013242 0.057295
#
#
# Mechanical properties :
#
#
# Convention : Reuss Voigt Hill
#
# Bulk Modulus (GPa) = 26.75523 57.39932 42.07727
# Shear Modulus (GPa) = 17.68169 41.48444 29.58307
#
# Velocity S-wave (km/s) = 2.61224 4.00124 3.37889
# Velocity P-wave (km/s) = 4.40726 6.59533 5.60903
#
# Compressibility (1/GPa) = 0.03737587
#
# Stress axis : x y z
#
# Youngs Moduli (GPa) = 92.81736 55.18015 82.99506
#
# Poissons Ratio (x) = -0.07155 0.10642
# Poissons Ratio (y) = -0.12035 0.14931
# Poissons Ratio (z) = 0.11902 0.09927
#
# Static dielectric constant tensor:
#      x y z
#    x 2.081520 0.040660 -0.024380 
#    y 0.040660 2.146110 0.033210 
#    z -0.024380 0.033210 2.155740 
# 
# From -- ./inp_files/230809.got.cif
#   From: 2010.05.17/outbox.cif.g08.bks.cpg/sg2_116_cif.got.tgz:230809.got - 2010.06.03 11:33:40.
