data_PCOD9024360
_publ_section_title
;
Structure prediction by ZEFSAII (Michael W. Deem and Ramdas Pophale) SiO2 
 PCOD9024360
Probable space group: P -1
;
_chemical_formula_sum "Si O2"
_cell_formula_units_Z 14
_cell_length_a 9.238645
_cell_length_b 9.749708
_cell_length_c 6.800025
_cell_angle_alpha 61.734922
_cell_angle_beta 82.883103
_cell_angle_gamma 62.788087
_cell_volume 476.398010
_symmetry_space_group_name_H-M "P -1"
_symmetry_group_IT_number 2
_symmetry_cell_setting 'triclinic'
loop_
_space_group_symop_operation_xyz
x,y,z
-x,-y,-z
loop_
_atom_site_type_symbol
_atom_site_label
_atom_site_fract_x
_atom_site_fract_y
_atom_site_fract_z
Si Si1 0.865093 0.806477 0.367079
Si Si2 0.457071 0.877304 0.745035
Si Si3 0.906221 0.913556 0.693434
Si Si4 0.600909 0.551679 0.689661
Si Si5 0.166596 0.830689 0.164879
Si Si6 0.863018 0.447138 0.002780
Si Si7 0.331512 0.326614 0.792847
O O1 0.849142 0.820867 0.599432
O O2 0.800666 0.711947 0.282138
O O3 0.057658 0.743368 0.345344
O O4 0.727160 0.009569 0.218976
O O5 0.470122 0.705232 0.745132
O O6 0.500000 0.000000 0.500000
O O7 0.573414 0.820736 0.957586
O O8 0.781075 0.066119 0.748442
O O9 0.000000 0.000000 0.500000
O O10 0.044368 0.758018 0.901005
O O11 0.000000 0.000000 0.000000
O O12 0.671341 0.340134 0.825336
O O13 0.762945 0.548938 0.763406
O O14 0.576556 0.628133 0.425810
O O15 0.743741 0.503125 0.170800
O O16 0.000000 0.500000 0.000000
#
# Coordination Sequence:
#
# PCOD9024360 Si02
#       7
#     2   2   2   2   2   2   2
#     4  11  23  41  68  98 135 176 222 278 342 402
#     4  11  25  44  67 102 141 176 219 279 347 412
#     4  10  22  40  64  93 137 176 224 276 339 401
#     4  11  23  43  67  97 138 170 224 281 340 395
#     4  11  23  43  69  95 133 181 230 278 332 399
#     4  11  22  36  65 103 132 172 225 286 345 406
#     4  11  23  40  67 100 137 172 220 277 348 405
#
# _framework density 29.387191999999999
#
# number of rings (size 3 to 8) (size 9 to 14) (size 15 to 20)
#    0.000    1.143    2.857    3.857    2.000    1.714 
#    0.000    1.429    0.000    0.000    0.000    0.000 
#    0.000    0.000    0.000    0.000    0.000    0.000 
#
# Total GULP energy -78158.169327 kJ/mol
# GULP energy per Si atom -5582.726380 kJ/mol
# Density = 2.932031 g / cm^3
# Si number density = 29.387192 Si / 1000 Ang^3
#
#
#
# Elastic Constant Matrix: (Units=GPa)
#
#
# Indices 1 2 3 4 5 6 
#
# 1 77.6840 27.7118 41.2809 0.1254 18.8241 6.8722
# 2 27.7118 266.9869 53.3151 28.7804 -11.9994 8.7879
# 3 41.2809 53.3151 201.2478 6.9323 19.2383 -6.9670
# 4 0.1254 28.7804 6.9323 57.1376 -1.6538 -3.7517
# 5 18.8241 -11.9994 19.2383 -1.6538 44.8580 9.7394
# 6 6.8722 8.7879 -6.9670 -3.7517 9.7394 50.3491
#
#
#
# Elastic Compliance Matrix: (Units=1/GPa)
#
#
# Indices 1 2 3 4 5 6 
#
# 1 0.016229 -0.001514 -0.002428 0.000779 -0.005910 -0.001086
# 2 -0.001514 0.004514 -0.001102 -0.002154 0.002537 -0.001385
# 3 -0.002428 -0.001102 0.006041 -0.000121 -0.002259 0.001788
# 4 0.000779 -0.002154 -0.000121 0.018699 -0.000542 0.001751
# 5 -0.005910 0.002537 -0.002259 -0.000542 0.027555 -0.005319
# 6 -0.001086 -0.001385 0.001788 0.001751 -0.005319 0.021658
#
#
# Mechanical properties :
#
#
# Convention : Reuss Voigt Hill
#
# Bulk Modulus (GPa) = 59.88389 87.83713 73.86051
# Shear Modulus (GPa) = 45.31086 58.70965 52.01026
#
# Velocity S-wave (km/s) = 3.93091 4.47452 4.21150
# Velocity P-wave (km/s) = 6.40504 7.52659 6.98835
#
# Compressibility (1/GPa) = 0.01669898
#
# Stress axis : x y z
#
# Youngs Moduli (GPa) = 61.61650 221.51115 165.54000
#
# Poissons Ratio (x) = 0.33528 0.40185
# Poissons Ratio (y) = 0.09326 0.18238
# Poissons Ratio (z) = 0.14958 0.24404
#
# Static dielectric constant tensor:
#      x y z
#    x 2.337380 0.169310 0.036110 
#    y 0.169310 2.075000 -0.295740 
#    z 0.036110 -0.295740 2.285420 
# 
# From -- ./inp_files/94599.got.cif
#   From: 2010.05.17/outbox.cif.g08.bks.cpg/sg2_48_cif.got.tgz:94599.got - 2010.06.03 11:33:40.
