data_PCOD9024631
_publ_section_title
;
Structure prediction by ZEFSAII (Michael W. Deem and Ramdas Pophale) SiO2 
 PCOD9024631
Probable space group: P -1
;
_chemical_formula_sum "Si O2"
_cell_formula_units_Z 16
_cell_length_a 11.584454
_cell_length_b 10.561802
_cell_length_c 9.533732
_cell_angle_alpha 38.208437
_cell_angle_beta 108.889049
_cell_angle_gamma 90.967350
_cell_volume 623.897707
_symmetry_space_group_name_H-M "P -1"
_symmetry_group_IT_number 2
_symmetry_cell_setting 'triclinic'
loop_
_space_group_symop_operation_xyz
x,y,z
-x,-y,-z
loop_
_atom_site_type_symbol
_atom_site_label
_atom_site_fract_x
_atom_site_fract_y
_atom_site_fract_z
Si Si1 0.761131 0.466711 0.148068
Si Si2 0.855256 0.020167 0.461633
Si Si3 0.649794 0.149735 0.010671
Si Si4 0.727715 0.731176 0.646939
Si Si5 0.267781 0.523605 0.380841
Si Si6 0.969357 0.632692 0.223592
Si Si7 0.463012 0.104573 0.190832
Si Si8 0.738638 0.089622 0.796457
O O1 0.793002 0.205475 0.396576
O O2 0.882357 0.520710 0.206689
O O3 0.744492 0.519069 0.929746
O O4 0.626726 0.651460 0.998453
O O5 0.854249 0.780578 0.697685
O O6 0.760136 0.083910 0.232543
O O7 0.000000 0.000000 0.500000
O O8 0.634433 0.394474 0.740404
O O9 0.715361 0.020360 0.007344
O O10 0.513976 0.150500 0.018053
O O11 0.701141 0.706217 0.493158
O O12 0.599964 0.950000 0.455852
O O13 0.270786 0.656586 0.412060
O O14 0.106819 0.613518 0.224021
O O15 0.000000 0.500000 0.500000
O O16 0.878238 0.896464 0.975330
O O17 0.377385 0.955163 0.287297
#
# Coordination Sequence:
#
# PCOD9024631 Si02
#       8
#     2   2   2   2   2   2   2   2
#     4  11  24  46  65  98 134 173 216 278 323 389
#     4  11  24  40  67 100 128 174 222 265 334 390
#     4   9  21  39  66  90 134 172 209 272 317 382
#     4  11  24  42  68  98 129 177 220 271 324 390
#     4  10  22  40  65  95 130 167 218 270 331 380
#     4  11  25  41  66  94 133 170 217 275 329 397
#     4  10  22  42  65  97 133 174 222 263 328 391
#     4   9  21  41  64  92 129 174 214 268 328 380
#
# _framework density 25.645230000000002
#
# number of rings (size 3 to 8) (size 9 to 14) (size 15 to 20)
#    0.750    1.000    1.250    1.875    7.000    3.500 
#    6.750    0.000    0.000    0.000    0.000    0.000 
#    0.000    0.000    0.000    0.000    0.000    0.000 
#
# Total GULP energy -89150.076144 kJ/mol
# GULP energy per Si atom -5571.879759 kJ/mol
# Density = 2.558686 g / cm^3
# Si number density = 25.645230 Si / 1000 Ang^3
#
#
#
# Elastic Constant Matrix: (Units=GPa)
#
#
# Indices 1 2 3 4 5 6 
#
# 1 110.6471 19.6942 18.6259 -24.8389 20.8002 2.3123
# 2 19.6942 133.5639 25.4678 -30.1536 12.1584 5.1179
# 3 18.6259 25.4678 59.1483 -5.0425 0.5445 2.3811
# 4 -24.8389 -30.1536 -5.0425 44.6143 -3.1981 0.4928
# 5 20.8002 12.1584 0.5445 -3.1981 30.9327 -1.9918
# 6 2.3123 5.1179 2.3811 0.4928 -1.9918 26.6587
#
#
#
# Elastic Compliance Matrix: (Units=1/GPa)
#
#
# Indices 1 2 3 4 5 6 
#
# 1 0.012579 0.001225 -0.003760 0.006832 -0.008279 -0.001735
# 2 0.001225 0.010054 -0.004016 0.006750 -0.004143 -0.002112
# 3 -0.003760 -0.004016 0.019602 -0.002338 0.003498 -0.000349
# 4 0.006832 0.006750 -0.002338 0.030240 -0.004244 -0.002556
# 5 -0.008279 -0.004143 0.003498 -0.004244 0.039295 0.004215
# 6 -0.001735 -0.002112 -0.000349 -0.002556 0.004215 0.038461
#
#
# Mechanical properties :
#
#
# Convention : Reuss Voigt Hill
#
# Bulk Modulus (GPa) = 34.32568 47.88167 41.10367
# Shear Modulus (GPa) = 28.89435 36.41256 32.65345
#
# Velocity S-wave (km/s) = 3.36027 3.77219 3.57217
# Velocity P-wave (km/s) = 5.33564 6.13872 5.75121
#
# Compressibility (1/GPa) = 0.02913271
#
# Stress axis : x y z
#
# Youngs Moduli (GPa) = 79.49789 99.46194 51.01401
#
# Poissons Ratio (x) = -0.12180 0.19181
# Poissons Ratio (y) = -0.09736 0.20488
# Poissons Ratio (z) = 0.29891 0.39945
#
# Static dielectric constant tensor:
#      x y z
#    x 2.031380 -0.040460 -0.110830 
#    y -0.040460 2.064560 0.025000 
#    z -0.110830 0.025000 2.085550 
# 
# From -- ./inp_files/425074.got.cif
#   From: 2010.05.17/outbox.cif.g08.bks.cpg/sg2_213_cif.got.tgz:425074.got - 2010.06.03 11:33:40.
