data_PCOD9024419
_publ_section_title
;
Structure prediction by ZEFSAII (Michael W. Deem and Ramdas Pophale) SiO2 
 PCOD9024419
Probable space group: P -1
;
_chemical_formula_sum "Si O2"
_cell_formula_units_Z 16
_cell_length_a 8.954291
_cell_length_b 11.317345
_cell_length_c 11.098236
_cell_angle_alpha 53.202482
_cell_angle_beta 121.742654
_cell_angle_gamma 118.167958
_cell_volume 745.272528
_symmetry_space_group_name_H-M "P -1"
_symmetry_group_IT_number 2
_symmetry_cell_setting 'triclinic'
loop_
_space_group_symop_operation_xyz
x,y,z
-x,-y,-z
loop_
_atom_site_type_symbol
_atom_site_label
_atom_site_fract_x
_atom_site_fract_y
_atom_site_fract_z
Si Si1 0.593380 0.623467 0.732282
Si Si2 0.506823 0.825279 0.388988
Si Si3 0.643768 0.306941 0.020617
Si Si4 0.100945 0.109049 0.585565
Si Si5 0.948897 0.624657 0.745783
Si Si6 0.543061 0.879659 0.725861
Si Si7 0.205444 0.729075 0.136070
Si Si8 0.033848 0.046651 0.125676
O O1 0.506480 0.662229 0.547074
O O2 0.565943 0.456114 0.876040
O O3 0.807215 0.666374 0.758239
O O4 0.510329 0.730020 0.720607
O O5 0.685505 0.868326 0.357782
O O6 0.320266 0.804030 0.252706
O O7 0.529041 0.965671 0.407594
O O8 0.659356 0.237071 0.939798
O O9 0.527347 0.187041 0.133499
O O10 0.850685 0.355375 0.127943
O O11 0.047297 0.265665 0.433336
O O12 0.000000 0.000000 0.500000
O O13 0.054316 0.053591 0.735612
O O14 0.864302 0.451825 0.779009
O O15 0.756281 0.930750 0.778781
O O16 0.038652 0.801257 0.994079
O O17 0.000000 0.000000 0.000000
#
# Coordination Sequence:
#
# PCOD9024419 Si02
#       8
#     2   2   2   2   2   2   2   2
#     4  10  22  40  64  96 128 163 215 265 322 374
#     4  11  24  40  65  97 127 172 212 264 319 386
#     4  11  23  40  70  94 125 172 216 264 315 390
#     4  11  24  44  69  96 127 173 225 264 317 391
#     4  10  22  44  69  95 122 175 217 265 316 384
#     4  12  23  40  64  94 129 167 213 268 321 381
#     4  11  23  44  65  94 133 168 217 260 325 391
#     4  12  25  43  63  95 136 168 211 268 331 378
#
# _framework density 21.468655999999999
#
# number of rings (size 3 to 8) (size 9 to 14) (size 15 to 20)
#    0.000    1.000    1.250    7.500    1.750    6.500 
#    0.000    0.625    0.000    0.000    0.000    0.000 
#    0.000    0.000    0.000    0.000    0.000    0.000 
#
# Total GULP energy -89279.265239 kJ/mol
# GULP energy per Si atom -5579.954077 kJ/mol
# Density = 2.141979 g / cm^3
# Si number density = 21.468656 Si / 1000 Ang^3
#
#
#
# Elastic Constant Matrix: (Units=GPa)
#
#
# Indices 1 2 3 4 5 6 
#
# 1 47.3235 16.8390 36.8144 -15.3685 1.1179 -10.1730
# 2 16.8390 49.5034 24.1246 -5.4749 -5.1047 -18.1307
# 3 36.8144 24.1246 106.9244 -21.4789 2.6005 -7.2353
# 4 -15.3685 -5.4749 -21.4789 34.6764 -2.2720 4.2485
# 5 1.1179 -5.1047 2.6005 -2.2720 30.2622 3.8415
# 6 -10.1730 -18.1307 -7.2353 4.2485 3.8415 27.5296
#
#
#
# Elastic Compliance Matrix: (Units=1/GPa)
#
#
# Indices 1 2 3 4 5 6 
#
# 1 0.033108 -0.004130 -0.008412 0.007951 -0.001396 0.006271
# 2 -0.004130 0.030263 -0.004706 -0.001827 0.003369 0.016980
# 3 -0.008412 -0.004706 0.014037 0.004539 -0.000957 -0.003085
# 4 0.007951 -0.001827 0.004539 0.035362 0.002020 -0.002811
# 5 -0.001396 0.003369 -0.000957 0.002020 0.034362 -0.003655
# 6 0.006271 0.016980 -0.003085 -0.002811 -0.003655 0.049957
#
#
# Mechanical properties :
#
#
# Convention : Reuss Voigt Hill
#
# Bulk Modulus (GPa) = 23.30377 39.92301 31.61339
# Shear Modulus (GPa) = 20.33440 26.89184 23.61312
#
# Velocity S-wave (km/s) = 3.08095 3.54306 3.32005
# Velocity P-wave (km/s) = 4.85125 5.94761 5.42719
#
# Compressibility (1/GPa) = 0.04291150
#
# Stress axis : x y z
#
# Youngs Moduli (GPa) = 30.20439 33.04342 71.24260
#
# Poissons Ratio (x) = 0.13648 0.59927
# Poissons Ratio (y) = 0.12476 0.33526
# Poissons Ratio (z) = 0.25407 0.15550
#
# Static dielectric constant tensor:
#      x y z
#    x 1.843210 -0.044950 -0.018150 
#    y -0.044950 1.810830 0.013810 
#    z -0.018150 0.013810 1.808980 
# 
# From -- ./inp_files/389174.got.cif
#   From: 2010.05.17/outbox.cif.g08.bks.cpg/sg2_195_cif.got.tgz:389174.got - 2010.06.03 11:33:40.
