data_PCOD9024945
_publ_section_title
;
Structure prediction by ZEFSAII (Michael W. Deem and Ramdas Pophale) SiO2 
 PCOD9024945
Probable space group: P -1
;
_chemical_formula_sum "Si O2"
_cell_formula_units_Z 15
_cell_length_a 9.668843
_cell_length_b 12.910615
_cell_length_c 10.951071
_cell_angle_alpha 39.612024
_cell_angle_beta 117.764662
_cell_angle_gamma 131.083440
_cell_volume 654.642724
_symmetry_space_group_name_H-M "P -1"
_symmetry_group_IT_number 2
_symmetry_cell_setting 'triclinic'
loop_
_space_group_symop_operation_xyz
x,y,z
-x,-y,-z
loop_
_atom_site_type_symbol
_atom_site_label
_atom_site_fract_x
_atom_site_fract_y
_atom_site_fract_z
Si Si1 0.438856 0.140326 0.388700
Si Si2 0.436269 0.673548 0.979974
Si Si3 0.669272 0.484956 0.308827
Si Si4 0.007701 0.696729 0.071869
Si Si5 0.295784 0.337698 0.601770
Si Si6 0.000000 0.500000 0.000000
Si Si7 0.981595 0.021100 0.615666
Si Si8 0.367314 0.016997 0.025478
O O1 0.506130 0.292076 0.168818
O O2 0.540866 0.257822 0.445296
O O3 0.500000 0.000000 0.500000
O O4 0.220885 0.020138 0.414574
O O5 0.218959 0.568907 0.005534
O O6 0.526139 0.556766 0.171589
O O7 0.532302 0.879303 0.901792
O O8 0.761065 0.567979 0.401836
O O9 0.826368 0.572390 0.191326
O O10 0.044339 0.584382 0.084200
O O11 0.990702 0.857533 0.842976
O O12 0.178779 0.812397 0.130317
O O13 0.500000 0.500000 0.500000
O O14 0.139969 0.231999 0.531664
O O15 0.313988 0.165413 0.817424
O O16 0.000000 0.000000 0.500000
O O17 0.500000 0.000000 0.000000
#
# Coordination Sequence:
#
# PCOD9024945 Si02
#       8
#     2   2   2   2   2   1   2   2
#     4  12  26  43  63  96 135 172 219 279 336 383
#     4  11  23  41  68  95 133 169 222 275 331 398
#     4  11  23  46  70  96 129 177 224 280 329 404
#     4  11  23  41  70  97 130 172 228 270 335 396
#     4  10  24  44  68  95 132 178 220 269 338 404
#     4  12  22  36  66  98 126 164 222 270 326 384
#     4  11  25  43  68  94 135 178 217 268 338 403
#     4  10  22  40  66  97 129 167 215 279 321 390
#
# _framework density 22.913260999999999
#
# number of rings (size 3 to 8) (size 9 to 14) (size 15 to 20)
#    0.000    1.067    4.000    2.000    3.733    3.733 
#    2.400    0.667    0.000    0.000    0.000    0.000 
#    0.000    0.000    0.000    0.000    0.000    0.000 
#
# Total GULP energy -83638.024573 kJ/mol
# GULP energy per Si atom -5575.868305 kJ/mol
# Density = 2.286111 g / cm^3
# Si number density = 22.913261 Si / 1000 Ang^3
#
#
#
# Elastic Constant Matrix: (Units=GPa)
#
#
# Indices 1 2 3 4 5 6 
#
# 1 145.9657 57.6473 5.5810 -9.1502 -22.3343 12.0927
# 2 57.6473 210.8506 12.6293 -12.8189 -15.1900 -0.9303
# 3 5.5810 12.6293 25.9711 -8.8386 -4.3258 -1.1078
# 4 -9.1502 -12.8189 -8.8386 19.1071 -2.9803 -5.0231
# 5 -22.3343 -15.1900 -4.3258 -2.9803 30.1783 -7.8181
# 6 12.0927 -0.9303 -1.1078 -5.0231 -7.8181 53.7627
#
#
#
# Elastic Compliance Matrix: (Units=1/GPa)
#
#
# Indices 1 2 3 4 5 6 
#
# 1 0.008760 -0.001779 0.001481 0.004456 0.006066 -0.000672
# 2 -0.001779 0.005616 -0.000937 0.003062 0.001950 0.001048
# 3 0.001481 -0.000937 0.049661 0.026117 0.011564 0.004796
# 4 0.004456 0.003062 0.026117 0.073856 0.018245 0.009142
# 5 0.006066 0.001950 0.011564 0.018245 0.043878 0.006993
# 6 -0.000672 0.001048 0.004796 0.009142 0.006993 0.020740
#
#
# Mechanical properties :
#
#
# Convention : Reuss Voigt Hill
#
# Bulk Modulus (GPa) = 16.24251 59.38917 37.81584
# Shear Modulus (GPa) = 22.17258 41.07162 31.62210
#
# Velocity S-wave (km/s) = 3.11412 4.23837 3.71897
# Velocity P-wave (km/s) = 4.47598 7.06591 5.91445
#
# Compressibility (1/GPa) = 0.06156685
#
# Stress axis : x y z
#
# Youngs Moduli (GPa) = 114.15542 178.04905 20.13650
#
# Poissons Ratio (x) = 0.31670 -0.02982
# Poissons Ratio (y) = 0.20305 0.01887
# Poissons Ratio (z) = -0.16903 0.16688
#
# Static dielectric constant tensor:
#      x y z
#    x 1.776580 -0.005760 0.026720 
#    y -0.005760 1.913290 -0.005560 
#    z 0.026720 -0.005560 1.822120 
# 
# From -- ./inp_files/181904.got.cif
#   From: 2010.05.17/outbox.cif.g08.bks.cpg/sg2_91_cif.got.tgz:181904.got - 2010.06.03 11:33:40.
