data_PCOD9024848
_publ_section_title
;
Structure prediction by ZEFSAII (Michael W. Deem and Ramdas Pophale) SiO2 
 PCOD9024848
Probable space group: P -1
;
_chemical_formula_sum "Si O2"
_cell_formula_units_Z 15
_cell_length_a 13.592998
_cell_length_b 9.837044
_cell_length_c 9.237584
_cell_angle_alpha 43.206410
_cell_angle_beta 127.363510
_cell_angle_gamma 121.582469
_cell_volume 664.568094
_symmetry_space_group_name_H-M "P -1"
_symmetry_group_IT_number 2
_symmetry_cell_setting 'triclinic'
loop_
_space_group_symop_operation_xyz
x,y,z
-x,-y,-z
loop_
_atom_site_type_symbol
_atom_site_label
_atom_site_fract_x
_atom_site_fract_y
_atom_site_fract_z
Si Si1 0.732494 0.567056 0.007968
Si Si2 0.074637 0.673187 0.032851
Si Si3 0.821423 0.163056 0.455036
Si Si4 0.414205 0.123178 0.420103
Si Si5 0.703076 0.528939 0.691246
Si Si6 0.000000 0.000000 0.500000
Si Si7 0.471484 0.200689 0.743099
Si Si8 0.980904 0.761055 0.189879
O O1 0.736974 0.331717 0.205207
O O2 0.834759 0.674728 0.127562
O O3 0.607820 0.667092 0.835001
O O4 0.767287 0.611962 0.833880
O O5 0.212372 0.611147 0.203575
O O6 0.029659 0.667871 0.160654
O O7 0.000000 0.500000 0.000000
O O8 0.053387 0.879636 0.778422
O O9 0.889552 0.073952 0.450590
O O10 0.934048 0.269082 0.574125
O O11 0.724710 0.002739 0.581878
O O12 0.471562 0.165806 0.597615
O O13 0.500000 0.000000 0.500000
O O14 0.578362 0.382230 0.739559
O O15 0.660071 0.712006 0.420230
O O16 0.500000 0.000000 0.000000
O O17 0.000000 0.000000 0.000000
#
# Coordination Sequence:
#
# PCOD9024848 Si02
#       8
#     2   2   2   2   2   1   2   2
#     4  11  22  45  68  96 137 178 228 283 340 413
#     4  12  24  41  66 101 137 179 223 279 350 410
#     4  12  25  44  71 103 140 181 230 284 343 418
#     4  11  26  46  68  95 139 184 224 286 345 402
#     4  10  22  40  66  93 129 173 226 282 329 400
#     4  12  24  40  74 102 130 184 230 274 354 410
#     4  10  23  43  67  91 125 173 234 283 327 392
#     4  12  23  42  68 102 144 176 219 284 352 409
#
# _framework density 22.571051000000001
#
# number of rings (size 3 to 8) (size 9 to 14) (size 15 to 20)
#    0.000    0.800    5.333    1.200    3.733    0.533 
#    2.400    0.000    0.000    0.000    0.000    0.000 
#    0.000    0.000    0.000    0.000    0.000    0.000 
#
# Total GULP energy -83533.967102 kJ/mol
# GULP energy per Si atom -5568.931140 kJ/mol
# Density = 2.251968 g / cm^3
# Si number density = 22.571051 Si / 1000 Ang^3
#
#
#
# Elastic Constant Matrix: (Units=GPa)
#
#
# Indices 1 2 3 4 5 6 
#
# 1 63.2644 28.2623 25.3473 -6.9785 12.3296 -22.9748
# 2 28.2623 84.8094 25.8471 2.9960 9.4522 -5.6694
# 3 25.3473 25.8471 181.4496 -32.5971 20.9336 -8.1621
# 4 -6.9785 2.9960 -32.5971 55.2467 -12.9385 11.2886
# 5 12.3296 9.4522 20.9336 -12.9385 29.6317 -8.9412
# 6 -22.9748 -5.6694 -8.1621 11.2886 -8.9412 33.1030
#
#
#
# Elastic Compliance Matrix: (Units=1/GPa)
#
#
# Indices 1 2 3 4 5 6 
#
# 1 0.025694 -0.006533 -0.001845 -0.001477 -0.003147 0.015912
# 2 -0.006533 0.014661 -0.001433 -0.002663 -0.002778 -0.002219
# 3 -0.001845 -0.001433 0.006843 0.003647 -0.002552 -0.001772
# 4 -0.001477 -0.002663 0.003647 0.023204 0.007030 -0.006597
# 5 -0.003147 -0.002778 -0.002552 0.007030 0.042569 0.005812
# 6 0.015912 -0.002219 -0.001772 -0.006597 0.005812 0.044255
#
#
# Mechanical properties :
#
#
# Convention : Reuss Voigt Hill
#
# Bulk Modulus (GPa) = 36.26708 54.27075 45.26892
# Shear Modulus (GPa) = 26.87598 40.26740 33.57169
#
# Velocity S-wave (km/s) = 3.45444 4.22836 3.86084
# Velocity P-wave (km/s) = 5.65806 6.92353 6.32254
#
# Compressibility (1/GPa) = 0.02757321
#
# Stress axis : x y z
#
# Youngs Moduli (GPa) = 38.92031 68.21032 146.13683
#
# Poissons Ratio (x) = 0.44564 0.26964
# Poissons Ratio (y) = 0.25428 0.20949
# Poissons Ratio (z) = 0.07181 0.09778
#
# Static dielectric constant tensor:
#      x y z
#    x 1.862540 0.044620 0.046260 
#    y 0.044620 1.865790 -0.037040 
#    z 0.046260 -0.037040 1.928240 
# 
# From -- ./inp_files/294326.got.cif
#   From: 2010.05.17/outbox.cif.g08.bks.cpg/sg2_148_cif.got.tgz:294326.got - 2010.06.03 11:33:40.
