data_PCOD9024565
_publ_section_title
;
Structure prediction by ZEFSAII (Michael W. Deem and Ramdas Pophale) SiO2 
 PCOD9024565
Probable space group: P -1
;
_chemical_formula_sum "Si O2"
_cell_formula_units_Z 13
_cell_length_a 8.371960
_cell_length_b 13.098051
_cell_length_c 14.986567
_cell_angle_alpha 134.810944
_cell_angle_beta 43.351215
_cell_angle_gamma 147.981724
_cell_volume 580.280254
_symmetry_space_group_name_H-M "P -1"
_symmetry_group_IT_number 2
_symmetry_cell_setting 'triclinic'
loop_
_space_group_symop_operation_xyz
x,y,z
-x,-y,-z
loop_
_atom_site_type_symbol
_atom_site_label
_atom_site_fract_x
_atom_site_fract_y
_atom_site_fract_z
Si Si1 0.839430 0.173165 0.682951
Si Si2 0.927376 0.850283 0.768590
Si Si3 0.437112 0.495227 0.420509
Si Si4 0.500000 0.500000 0.000000
Si Si5 0.629944 0.235819 0.453955
Si Si6 0.668673 0.338044 0.979941
Si Si7 0.440187 0.733014 0.288288
O O1 0.777442 0.244428 0.663192
O O2 0.209509 0.334399 0.659580
O O3 0.686892 0.956346 0.586220
O O4 0.659995 0.177701 0.838746
O O5 0.742443 0.719678 0.675481
O O6 0.652780 0.779993 0.904527
O O7 0.122988 0.789466 0.677567
O O8 0.196412 0.083334 0.783295
O O9 0.500000 0.500000 0.500000
O O10 0.259666 0.567570 0.512637
O O11 0.653589 0.445294 0.971502
O O12 0.374030 0.543968 0.166292
O O13 0.563127 0.232811 0.584319
O O14 0.000000 0.500000 0.000000
#
# Coordination Sequence:
#
# PCOD9024565 Si02
#       7
#     2   2   2   1   2   2   2
#     4  10  22  40  65  92 131 175 213 272 335 390
#     4  11  23  42  67  96 128 172 223 275 326 397
#     4  12  23  38  62  96 132 167 218 271 334 395
#     4  10  24  42  72  92 136 186 214 264 352 394
#     4  11  23  41  66  95 133 173 215 277 334 391
#     4  11  23  45  67  96 138 177 224 277 332 396
#     4  10  22  43  68  97 129 173 222 269 336 397
#
# _framework density 22.40297
#
# number of rings (size 3 to 8) (size 9 to 14) (size 15 to 20)
#    0.000    1.231    1.538    5.538    0.000    8.000 
#    0.000    0.769    0.000    0.000    0.000    0.000 
#    0.000    0.000    0.000    0.000    0.000    0.000 
#
# Total GULP energy -72434.262852 kJ/mol
# GULP energy per Si atom -5571.866373 kJ/mol
# Density = 2.235198 g / cm^3
# Si number density = 22.402970 Si / 1000 Ang^3
#
#
#
# Elastic Constant Matrix: (Units=GPa)
#
#
# Indices 1 2 3 4 5 6 
#
# 1 66.6045 15.8118 26.6838 -14.6423 12.3680 7.1840
# 2 15.8118 48.5318 2.2837 -19.8724 1.8866 20.0464
# 3 26.6838 2.2837 124.6160 -17.4899 5.2131 3.2343
# 4 -14.6423 -19.8724 -17.4899 38.5946 5.4986 -1.4561
# 5 12.3680 1.8866 5.2131 5.4986 28.8422 0.9147
# 6 7.1840 20.0464 3.2343 -1.4561 0.9147 35.6866
#
#
#
# Elastic Compliance Matrix: (Units=1/GPa)
#
#
# Indices 1 2 3 4 5 6 
#
# 1 0.020056 -0.002920 -0.002986 0.005966 -0.008955 -0.001654
# 2 -0.002920 0.038159 0.003480 0.020076 -0.005059 -0.020214
# 3 -0.002986 0.003480 0.009429 0.005080 -0.001558 -0.001961
# 4 0.005966 0.020076 0.005080 0.042180 -0.012485 -0.010897
# 5 -0.008955 -0.005059 -0.001558 -0.012485 0.041402 0.003215
# 6 -0.001654 -0.020214 -0.001961 -0.010897 0.003215 0.039360
#
#
# Mechanical properties :
#
#
# Convention : Reuss Voigt Hill
#
# Bulk Modulus (GPa) = 15.92554 36.59011 26.25782
# Shear Modulus (GPa) = 23.10843 33.62288 28.36566
#
# Velocity S-wave (km/s) = 3.21517 3.87825 3.56217
# Velocity P-wave (km/s) = 4.57243 6.03511 5.35396
#
# Compressibility (1/GPa) = 0.06279221
#
# Stress axis : x y z
#
# Youngs Moduli (GPa) = 49.85978 26.20587 106.05195
#
# Poissons Ratio (x) = 0.07652 0.31670
# Poissons Ratio (y) = 0.14559 -0.36904
# Poissons Ratio (z) = 0.14890 -0.09119
#
# Static dielectric constant tensor:
#      x y z
#    x 1.823210 0.031240 -0.012160 
#    y 0.031240 1.907330 -0.019060 
#    z -0.012160 -0.019060 1.844140 
# 
# From -- ./inp_files/154546.got.cif
#   From: 2010.05.17/outbox.cif.g08.bks.cpg/sg2_78_cif.got.tgz:154546.got - 2010.06.03 11:33:40.
