data_PCOD9024862
_publ_section_title
;
Structure prediction by ZEFSAII (Michael W. Deem and Ramdas Pophale) SiO2 
 PCOD9024862
Probable space group: P -1
;
_chemical_formula_sum "Si O2"
_cell_formula_units_Z 16
_cell_length_a 9.182754
_cell_length_b 9.065771
_cell_length_c 26.273181
_cell_angle_alpha 39.593456
_cell_angle_beta 39.857279
_cell_angle_gamma 67.180082
_cell_volume 774.351024
_symmetry_space_group_name_H-M "P -1"
_symmetry_group_IT_number 2
_symmetry_cell_setting 'triclinic'
loop_
_space_group_symop_operation_xyz
x,y,z
-x,-y,-z
loop_
_atom_site_type_symbol
_atom_site_label
_atom_site_fract_x
_atom_site_fract_y
_atom_site_fract_z
Si Si1 0.490509 0.592995 0.880289
Si Si2 0.691696 0.546965 0.595430
Si Si3 0.996646 0.992189 0.307961
Si Si4 0.131435 0.560028 0.232968
Si Si5 0.085724 0.007338 0.169043
Si Si6 0.922051 0.222290 0.477728
Si Si7 0.699914 0.259375 0.344954
Si Si8 0.570327 0.961217 0.271131
O O1 0.720693 0.797143 0.801542
O O2 0.640391 0.507447 0.821635
O O3 0.367322 0.756070 0.844056
O O4 0.279761 0.323508 0.035407
O O5 0.466421 0.603172 0.662624
O O6 0.568888 0.264406 0.675302
O O7 0.884279 0.597415 0.577009
O O8 0.850583 0.768613 0.449959
O O9 0.831014 0.144229 0.302206
O O10 0.020983 0.888394 0.274685
O O11 0.216522 0.861824 0.142731
O O12 0.960448 0.384355 0.373032
O O13 0.937498 0.460983 0.263341
O O14 0.822273 0.952683 0.225847
O O15 0.635786 0.100306 0.611553
O O16 0.000000 0.000000 0.500000
O O17 0.500000 0.000000 0.500000
#
# Coordination Sequence:
#
# PCOD9024862 Si02
#       8
#     2   2   2   2   2   2   2   2
#     4  11  24  47  63  88 132 176 207 253 315 373
#     4  11  22  40  63  96 132 159 202 268 327 374
#     4  10  22  40  66  94 123 166 211 258 318 366
#     4  11  23  42  65  97 122 165 213 259 315 374
#     4  12  26  41  67  93 127 168 222 256 293 384
#     4  12  23  39  67  96 129 162 205 265 325 379
#     4   9  19  37  61  91 130 155 193 262 326 368
#     4  12  25  41  64  95 132 164 208 262 325 367
#
# _framework density 20.662462999999999
#
# number of rings (size 3 to 8) (size 9 to 14) (size 15 to 20)
#    0.000    1.000    3.750    3.750    7.000    1.000 
#    0.000    0.000    0.000    1.500    0.000    0.000 
#    0.000    0.000    0.000    0.000    0.000    0.000 
#
# Total GULP energy -89447.180756 kJ/mol
# GULP energy per Si atom -5590.448797 kJ/mol
# Density = 2.061543 g / cm^3
# Si number density = 20.662463 Si / 1000 Ang^3
#
#
#
# Elastic Constant Matrix: (Units=GPa)
#
#
# Indices 1 2 3 4 5 6 
#
# 1 58.5817 21.4867 2.0324 -5.4127 -2.3944 -2.8428
# 2 21.4867 105.8518 2.8003 -5.8054 -10.8083 -4.1608
# 3 2.0324 2.8003 36.0916 -10.6137 -3.0914 0.1890
# 4 -5.4127 -5.8054 -10.6137 29.0053 1.0073 0.7602
# 5 -2.3944 -10.8083 -3.0914 1.0073 17.6396 -2.7487
# 6 -2.8428 -4.1608 0.1890 0.7602 -2.7487 28.3566
#
#
#
# Elastic Compliance Matrix: (Units=1/GPa)
#
#
# Indices 1 2 3 4 5 6 
#
# 1 0.018707 -0.003553 0.000061 0.002753 0.000422 0.001321
# 2 -0.003553 0.010972 0.000298 0.001368 0.006502 0.001845
# 3 0.000061 0.000298 0.031469 0.011410 0.005058 0.000025
# 4 0.002753 0.001368 0.011410 0.039424 0.000871 -0.000572
# 5 0.000422 0.006502 0.005058 0.000871 0.062661 0.007013
# 6 0.001321 0.001845 0.000025 -0.000572 0.007013 0.036363
#
#
# Mechanical properties :
#
#
# Convention : Reuss Voigt Hill
#
# Bulk Modulus (GPa) = 18.26118 28.12932 23.19525
# Shear Modulus (GPa) = 22.29775 26.61400 24.45588
#
# Velocity S-wave (km/s) = 3.28859 3.59282 3.44407
# Velocity P-wave (km/s) = 4.82461 5.55467 5.20246
#
# Compressibility (1/GPa) = 0.05476098
#
# Stress axis : x y z
#
# Youngs Moduli (GPa) = 53.45621 91.14130 31.77699
#
# Poissons Ratio (x) = 0.32382 -0.00194
# Poissons Ratio (y) = 0.18993 -0.00948
# Poissons Ratio (z) = -0.00326 -0.02719
#
# Static dielectric constant tensor:
#      x y z
#    x 1.711540 -0.025990 0.001150 
#    y -0.025990 1.768750 -0.016150 
#    z 0.001150 -0.016150 1.719460 
# 
# From -- ./inp_files/184920.got.cif
#   From: 2010.05.17/outbox.cif.g08.bks.cpg/sg2_93_cif.got.tgz:184920.got - 2010.06.03 11:33:40.
