data_PCOD9024894
_publ_section_title
;
Structure prediction by ZEFSAII (Michael W. Deem and Ramdas Pophale) SiO2 
 PCOD9024894
Probable space group: P -1
;
_chemical_formula_sum "Si O2"
_cell_formula_units_Z 14
_cell_length_a 5.245304
_cell_length_b 9.272793
_cell_length_c 14.971400
_cell_angle_alpha 112.432259
_cell_angle_beta 73.427259
_cell_angle_gamma 110.190064
_cell_volume 621.756301
_symmetry_space_group_name_H-M "P -1"
_symmetry_group_IT_number 2
_symmetry_cell_setting 'triclinic'
loop_
_space_group_symop_operation_xyz
x,y,z
-x,-y,-z
loop_
_atom_site_type_symbol
_atom_site_label
_atom_site_fract_x
_atom_site_fract_y
_atom_site_fract_z
Si Si1 0.809932 0.608111 0.507123
Si Si2 0.038665 0.032656 0.394742
Si Si3 0.684400 0.403774 0.010769
Si Si4 0.404435 0.965192 0.104569
Si Si5 0.984069 0.313119 0.688548
Si Si6 0.197309 0.041183 0.782375
Si Si7 0.455487 0.407468 0.793808
O O1 0.500000 0.500000 0.500000
O O2 0.801058 0.780666 0.591450
O O3 0.000000 0.500000 0.500000
O O4 0.976312 0.668502 0.414807
O O5 0.145385 0.876433 0.320170
O O6 0.000000 0.000000 0.500000
O O7 0.796169 0.008967 0.336044
O O8 0.586785 0.425647 0.125755
O O9 0.500000 0.500000 0.000000
O O10 0.657778 0.229173 0.934878
O O11 0.000000 0.500000 0.000000
O O12 0.628500 0.023570 0.175077
O O13 0.121654 0.010311 0.166046
O O14 0.500000 0.000000 0.000000
O O15 0.773309 0.410801 0.764144
O O16 0.292367 0.374886 0.709881
O O17 0.297312 0.238867 0.819497
#
# Coordination Sequence:
#
# PCOD9024894 Si02
#       7
#     2   2   2   2   2   2   2
#     4  11  24  44  65  94 139 169 207 269 340 400
#     4   9  22  44  73  99 126 175 224 273 332 400
#     4  12  22  40  67  94 128 172 222 275 333 379
#     4  12  25  44  63  96 137 179 222 270 327 400
#     4  10  22  40  66  95 126 167 221 268 319 395
#     4  11  22  42  70  95 130 173 226 275 327 390
#     4  11  20  38  67  96 123 161 228 278 315 377
#
# _framework density 22.516860000000001
#
# number of rings (size 3 to 8) (size 9 to 14) (size 15 to 20)
#    0.000    1.143    2.857    3.857    0.000    3.429 
#    7.714   12.143    0.000    0.000    0.000    0.000 
#    0.000    0.000    0.000    0.000    0.000    0.000 
#
# Total GULP energy -77955.077491 kJ/mol
# GULP energy per Si atom -5568.219821 kJ/mol
# Density = 2.246561 g / cm^3
# Si number density = 22.516860 Si / 1000 Ang^3
#
#
#
# Elastic Constant Matrix: (Units=GPa)
#
#
# Indices 1 2 3 4 5 6 
#
# 1 142.8092 45.0570 17.9137 -10.0456 16.0986 -10.0975
# 2 45.0570 70.8101 13.5244 13.9452 13.2383 0.4063
# 3 17.9137 13.5244 74.4652 -3.1203 19.7593 -4.1945
# 4 -10.0456 13.9452 -3.1203 43.0415 -3.3570 5.8497
# 5 16.0986 13.2383 19.7593 -3.3570 44.1367 -1.3792
# 6 -10.0975 0.4063 -4.1945 5.8497 -1.3792 25.9496
#
#
#
# Elastic Compliance Matrix: (Units=1/GPa)
#
#
# Indices 1 2 3 4 5 6 
#
# 1 0.009787 -0.006750 -0.000560 0.003969 -0.000902 0.002881
# 2 -0.006750 0.021164 -0.001643 -0.008651 -0.003855 -0.001478
# 3 -0.000560 -0.001643 0.015640 0.000805 -0.006186 0.001826
# 4 0.003969 -0.008651 0.000805 0.027823 0.002768 -0.004315
# 5 -0.000902 -0.003855 -0.006186 0.002768 0.027107 -0.000474
# 6 0.002881 -0.001478 0.001826 -0.004315 -0.000474 0.040923
#
#
# Mechanical properties :
#
#
# Convention : Reuss Voigt Hill
#
# Bulk Modulus (GPa) = 34.86174 49.00828 41.93501
# Shear Modulus (GPa) = 29.42684 36.73152 33.07918
#
# Velocity S-wave (km/s) = 3.61900 4.04330 3.83702
# Velocity P-wave (km/s) = 5.74274 6.60380 6.18826
#
# Compressibility (1/GPa) = 0.02868474
#
# Stress axis : x y z
#
# Youngs Moduli (GPa) = 102.17840 47.25031 63.93680
#
# Poissons Ratio (x) = 0.31893 0.03583
# Poissons Ratio (y) = 0.68968 0.10505
# Poissons Ratio (z) = 0.05727 0.07763
#
# Static dielectric constant tensor:
#      x y z
#    x 1.858420 -0.019430 0.033810 
#    y -0.019430 1.844600 0.005340 
#    z 0.033810 0.005340 1.998120 
# 
# From -- ./inp_files/479967.got.cif
#   From: 2010.05.17/outbox.cif.g08.bks.cpg/sg2_240_cif.got.tgz:479967.got - 2010.06.03 11:33:40.
