data_PCOD9024079
_publ_section_title
;
Structure prediction by ZEFSAII (Michael W. Deem and Ramdas Pophale) SiO2 
 PCOD9024079
Probable space group: P -1
;
_chemical_formula_sum "Si O2"
_cell_formula_units_Z 10
_cell_length_a 12.321761
_cell_length_b 10.948688
_cell_length_c 7.052416
_cell_angle_alpha 98.951209
_cell_angle_beta 114.018811
_cell_angle_gamma 139.068838
_cell_volume 360.588967
_symmetry_space_group_name_H-M "P -1"
_symmetry_group_IT_number 2
_symmetry_cell_setting 'triclinic'
loop_
_space_group_symop_operation_xyz
x,y,z
-x,-y,-z
loop_
_atom_site_type_symbol
_atom_site_label
_atom_site_fract_x
_atom_site_fract_y
_atom_site_fract_z
Si Si1 0.168154 0.805919 0.852871
Si Si2 0.243077 0.141610 0.118534
Si Si3 0.268673 0.787728 0.523780
Si Si4 0.813831 0.726374 0.178579
Si Si5 0.601445 0.834139 0.412008
O O1 0.131368 0.736190 0.589555
O O2 0.975295 0.537607 0.784250
O O3 0.113020 0.896962 0.871464
O O4 0.488227 0.070247 0.186765
O O5 0.462398 0.293869 0.464288
O O6 0.369012 0.348956 0.096920
O O7 0.000000 0.000000 0.000000
O O8 0.405898 0.025049 0.552550
O O9 0.584260 0.397933 0.946620
O O10 0.000000 0.000000 0.500000
O O11 0.071323 0.893349 0.309696
#
# Coordination Sequence:
#
# PCOD9024079 Si02
#       5
#     2   2   2   2   2
#     4  10  22  40  63  91 126 164 211 259 308 372
#     4  10  24  42  64  95 132 167 206 260 321 376
#     4  10  22  40  64  92 122 166 213 259 308 366
#     4  11  23  40  64  90 124 168 211 256 307 374
#     4  11  23  40  62  92 127 161 209 260 315 373
#
# _framework density 27.732406000000001
#
# number of rings (size 3 to 8) (size 9 to 14) (size 15 to 20)
#    0.000    1.600    0.000    3.600    0.000   11.200 
#    0.000    0.000    0.000    0.000    0.000    0.000 
#    0.000    0.000    0.000    0.000    0.000    0.000 
#
# Total GULP energy -55861.953177 kJ/mol
# GULP energy per Si atom -5586.195318 kJ/mol
# Density = 2.766929 g / cm^3
# Si number density = 27.732406 Si / 1000 Ang^3
#
#
#
# Elastic Constant Matrix: (Units=GPa)
#
#
# Indices 1 2 3 4 5 6 
#
# 1 108.6510 23.2043 16.3571 19.1312 -8.4282 -48.1713
# 2 23.2043 109.5926 36.3698 10.2673 -10.7486 -44.9277
# 3 16.3571 36.3698 82.6239 35.0674 -6.8143 -12.5070
# 4 19.1312 10.2673 35.0674 50.2197 -10.1448 -3.5897
# 5 -8.4282 -10.7486 -6.8143 -10.1448 49.8504 12.7178
# 6 -48.1713 -44.9277 -12.5070 -3.5897 12.7178 45.7348
#
#
#
# Elastic Compliance Matrix: (Units=1/GPa)
#
#
# Indices 1 2 3 4 5 6 
#
# 1 0.024538 0.010215 -0.000101 -0.009759 -0.004951 0.036463
# 2 0.010215 0.021591 -0.006041 -0.002449 -0.002828 0.030911
# 3 -0.000101 -0.006041 0.020014 -0.012976 -0.000882 -0.001341
# 4 -0.009759 -0.002449 -0.012976 0.033460 0.006812 -0.015502
# 5 -0.004951 -0.002828 -0.000882 0.006812 0.023511 -0.014237
# 6 0.036463 0.030911 -0.001341 -0.015502 -0.014237 0.093011
#
#
# Mechanical properties :
#
#
# Convention : Reuss Voigt Hill
#
# Bulk Modulus (GPa) = 13.46115 50.30332 31.88224
# Shear Modulus (GPa) = 21.48313 44.15673 32.81993
#
# Velocity S-wave (km/s) = 2.78629 3.99462 3.44386
# Velocity P-wave (km/s) = 3.90073 6.28126 5.22828
#
# Compressibility (1/GPa) = 0.07428783
#
# Stress axis : x y z
#
# Youngs Moduli (GPa) = 40.75337 46.31640 49.96611
#
# Poissons Ratio (x) = -0.47311 0.00504
# Poissons Ratio (y) = -0.41628 0.30184
# Poissons Ratio (z) = 0.00411 0.27979
#
# Static dielectric constant tensor:
#      x y z
#    x 2.152060 0.174000 -0.137150 
#    y 0.174000 2.441090 -0.094340 
#    z -0.137150 -0.094340 2.151340 
# 
# From -- ./inp_files/16166.got.cif
#   From: 2010.05.17/outbox.cif.g08.bks.cpg/sg2_9_cif.got.tgz:16166.got - 2010.06.03 11:33:40.
