data_PCOD9024524
_publ_section_title
;
Structure prediction by ZEFSAII (Michael W. Deem and Ramdas Pophale) SiO2 
 PCOD9024524
Probable space group: P -1
;
_chemical_formula_sum "Si O2"
_cell_formula_units_Z 12
_cell_length_a 7.826636
_cell_length_b 9.718364
_cell_length_c 16.002451
_cell_angle_alpha 29.592098
_cell_angle_beta 90.848905
_cell_angle_gamma 81.885471
_cell_volume 571.011392
_symmetry_space_group_name_H-M "P -1"
_symmetry_group_IT_number 2
_symmetry_cell_setting 'triclinic'
loop_
_space_group_symop_operation_xyz
x,y,z
-x,-y,-z
loop_
_atom_site_type_symbol
_atom_site_label
_atom_site_fract_x
_atom_site_fract_y
_atom_site_fract_z
Si Si1 0.228087 0.679611 0.570825
Si Si2 0.351188 0.591702 0.304264
Si Si3 0.937497 0.216563 0.656141
Si Si4 0.933472 0.404509 0.962409
Si Si5 0.291219 0.174369 0.393956
Si Si6 0.148914 0.163551 0.933845
O O1 0.438022 0.575699 0.599586
O O2 0.114187 0.843486 0.405680
O O3 0.174672 0.395401 0.745937
O O4 0.204606 0.914684 0.520800
O O5 0.239716 0.693989 0.333925
O O6 0.252984 0.393720 0.356135
O O7 0.325238 0.888915 0.094897
O O8 0.000000 0.500000 0.500000
O O9 0.079697 0.921838 0.848733
O O10 0.764121 0.629927 0.794446
O O11 0.087518 0.341827 0.925381
O O12 0.000000 0.500000 0.000000
O O13 0.500000 0.000000 0.500000
O O14 0.000000 0.000000 0.000000
#
# Coordination Sequence:
#
# PCOD9024524 Si02
#       6
#     2   2   2   2   2   2
#     4  11  22  40  64  92 125 169 210 254 319 375
#     4  10  22  41  63  88 130 165 211 258 309 373
#     4  11  24  38  64  96 126 165 210 260 314 366
#     4  11  22  41  61  90 129 160 208 264 309 368
#     4  10  22  40  65  88 126 165 211 252 316 371
#     4  11  22  39  64  93 123 166 214 260 312 368
#
# _framework density 21.015342
#
# number of rings (size 3 to 8) (size 9 to 14) (size 15 to 20)
#    0.000    1.333    3.333    3.000    0.000    2.000 
#    0.000    0.000    0.000    4.000    0.000    0.000 
#    0.000    0.000    0.000    0.000    0.000    0.000 
#
# Total GULP energy -66924.265077 kJ/mol
# GULP energy per Si atom -5577.022090 kJ/mol
# Density = 2.096751 g / cm^3
# Si number density = 21.015342 Si / 1000 Ang^3
#
#
#
# Elastic Constant Matrix: (Units=GPa)
#
#
# Indices 1 2 3 4 5 6 
#
# 1 65.2378 2.5397 32.3229 -4.3682 1.8572 7.2729
# 2 2.5397 87.1791 -3.4038 -3.7722 -7.3918 17.0968
# 3 32.3229 -3.4038 144.8442 -8.5491 3.6420 9.4032
# 4 -4.3682 -3.7722 -8.5491 30.2726 3.8138 3.2805
# 5 1.8572 -7.3918 3.6420 3.8138 44.7784 -1.2407
# 6 7.2729 17.0968 9.4032 3.2805 -1.2407 25.4484
#
#
#
# Elastic Compliance Matrix: (Units=1/GPa)
#
#
# Indices 1 2 3 4 5 6 
#
# 1 0.017700 0.000202 -0.003529 0.002127 -0.000711 -0.004199
# 2 0.000202 0.013725 0.001055 0.002909 0.001648 -0.009963
# 3 -0.003529 0.001055 0.008063 0.002302 -0.000615 -0.003006
# 4 0.002127 0.002909 0.002302 0.035621 -0.003055 -0.008154
# 5 -0.000711 0.001648 -0.000615 -0.003055 0.022967 0.000837
# 6 -0.004199 -0.009963 -0.003006 -0.008154 0.000837 0.049391
#
#
# Mechanical properties :
#
#
# Convention : Reuss Voigt Hill
#
# Bulk Modulus (GPa) = 28.61828 40.01984 34.31906
# Shear Modulus (GPa) = 30.55098 37.82002 34.18550
#
# Velocity S-wave (km/s) = 3.81694 4.24682 4.03760
# Velocity P-wave (km/s) = 5.75089 6.56748 6.17270
#
# Compressibility (1/GPa) = 0.03494270
#
# Stress axis : x y z
#
# Youngs Moduli (GPa) = 56.49719 72.85761 124.02674
#
# Poissons Ratio (x) = -0.01470 0.43770
# Poissons Ratio (y) = -0.01140 -0.13080
# Poissons Ratio (z) = 0.19938 -0.07684
#
# Static dielectric constant tensor:
#      x y z
#    x 1.750490 0.031420 0.027100 
#    y 0.031420 1.797590 -0.020900 
#    z 0.027100 -0.020900 1.782930 
# 
# From -- ./inp_files/146426.got.cif
#   From: 2010.05.17/outbox.cif.g08.bks.cpg/sg2_74_cif.got.tgz:146426.got - 2010.06.03 11:33:40.
