data_PCOD9024496
_publ_section_title
;
Structure prediction by ZEFSAII (Michael W. Deem and Ramdas Pophale) SiO2 
 PCOD9024496
Probable space group: P -1
;
_chemical_formula_sum "Si O2"
_cell_formula_units_Z 12
_cell_length_a 4.592579
_cell_length_b 12.978237
_cell_length_c 24.840826
_cell_angle_alpha 19.806140
_cell_angle_beta 109.394270
_cell_angle_gamma 112.652884
_cell_volume 460.804696
_symmetry_space_group_name_H-M "P -1"
_symmetry_group_IT_number 2
_symmetry_cell_setting 'triclinic'
loop_
_space_group_symop_operation_xyz
x,y,z
-x,-y,-z
loop_
_atom_site_type_symbol
_atom_site_label
_atom_site_fract_x
_atom_site_fract_y
_atom_site_fract_z
Si Si1 0.229533 0.836435 0.853521
Si Si2 0.281082 0.253989 0.982504
Si Si3 0.806546 0.631165 0.759653
Si Si4 0.674763 0.871687 0.399690
Si Si5 0.712689 0.589466 0.363889
Si Si6 0.394655 0.746024 0.165246
O O1 0.318285 0.956951 0.739733
O O2 0.642929 0.496887 0.583629
O O3 0.511258 0.785487 0.934387
O O4 0.000000 0.500000 0.000000
O O5 0.969683 0.362683 0.925994
O O6 0.473685 0.538471 0.816339
O O7 0.210011 0.940130 0.097061
O O8 0.764214 0.557511 0.729904
O O9 0.055446 0.947281 0.633655
O O10 0.898087 0.886000 0.261041
O O11 0.306592 0.777301 0.446635
O O12 0.643829 0.655102 0.266445
O O13 0.500000 0.000000 0.000000
#
# Coordination Sequence:
#
# PCOD9024496 Si02
#       6
#     2   2   2   2   2   2
#     4  11  24  46  73 100 133 183 232 277 326 405
#     4  10  22  40  65 102 128 171 228 280 319 384
#     4  11  22  40  67  97 134 173 223 270 331 397
#     4  12  26  45  67 101 145 177 218 278 346 402
#     4  11  27  47  67 101 140 179 219 280 348 396
#     4   9  22  43  71  98 133 176 227 280 332 397
#
# _framework density 26.041399999999999
#
# number of rings (size 3 to 8) (size 9 to 14) (size 15 to 20)
#    0.000    1.333    1.667    2.500    0.000   14.000 
#    0.000    0.000    0.000    0.000    0.000    0.000 
#    0.000    0.000    0.000    0.000    0.000    0.000 
#
# Total GULP energy -66849.217988 kJ/mol
# GULP energy per Si atom -5570.768166 kJ/mol
# Density = 2.598213 g / cm^3
# Si number density = 26.041400 Si / 1000 Ang^3
#
#
#
# Elastic Constant Matrix: (Units=GPa)
#
#
# Indices 1 2 3 4 5 6 
#
# 1 56.7845 25.6135 22.2438 -1.2752 -6.3165 -5.9898
# 2 25.6135 193.6914 79.8078 -18.2301 -16.5829 1.4780
# 3 22.2438 79.8078 143.9934 -5.8299 -31.5399 -10.6012
# 4 -1.2752 -18.2301 -5.8299 51.6830 -0.0315 6.0739
# 5 -6.3165 -16.5829 -31.5399 -0.0315 31.2778 -1.0869
# 6 -5.9898 1.4780 -10.6012 6.0739 -1.0869 18.2567
#
#
#
# Elastic Compliance Matrix: (Units=1/GPa)
#
#
# Indices 1 2 3 4 5 6 
#
# 1 0.019895 -0.002229 -0.000926 -0.001185 0.002134 0.006692
# 2 -0.002229 0.007389 -0.004192 0.002630 -0.000920 -0.004693
# 3 -0.000926 -0.004192 0.012187 -0.001069 0.010160 0.008073
# 4 -0.001185 0.002630 -0.001069 0.021096 -0.000189 -0.008252
# 5 0.002134 -0.000920 0.010160 -0.000189 0.042481 0.009266
# 6 0.006692 -0.004693 0.008073 -0.008252 0.009266 0.065335
#
#
# Mechanical properties :
#
#
# Convention : Reuss Voigt Hill
#
# Bulk Modulus (GPa) = 40.35765 72.19996 56.27881
# Shear Modulus (GPa) = 26.13189 38.03046 32.08118
#
# Velocity S-wave (km/s) = 3.17120 3.82564 3.51369
# Velocity P-wave (km/s) = 5.37958 6.87745 6.17411
#
# Compressibility (1/GPa) = 0.02477845
#
# Stress axis : x y z
#
# Youngs Moduli (GPa) = 50.26322 135.33009 82.05209
#
# Poissons Ratio (x) = 0.30171 0.07596
# Poissons Ratio (y) = 0.11206 0.34393
# Poissons Ratio (z) = 0.04653 0.56725
#
# Static dielectric constant tensor:
#      x y z
#    x 2.181880 -0.009750 0.001930 
#    y -0.009750 2.012870 -0.056480 
#    z 0.001930 -0.056480 1.966650 
# 
# From -- ./inp_files/101730.got.cif
#   From: 2010.05.17/outbox.cif.g08.bks.cpg/sg2_51_cif.got.tgz:101730.got - 2010.06.03 11:33:40.
