data_PCOD9024240
_publ_section_title
;
Structure prediction by ZEFSAII (Michael W. Deem and Ramdas Pophale) SiO2 
 PCOD9024240
Probable space group: P -1
;
_chemical_formula_sum "Si O2"
_cell_formula_units_Z 13
_cell_length_a 8.997057
_cell_length_b 13.227642
_cell_length_c 13.114618
_cell_angle_alpha 43.511560
_cell_angle_beta 139.704768
_cell_angle_gamma 105.468633
_cell_volume 532.077052
_symmetry_space_group_name_H-M "P -1"
_symmetry_group_IT_number 2
_symmetry_cell_setting 'triclinic'
loop_
_space_group_symop_operation_xyz
x,y,z
-x,-y,-z
loop_
_atom_site_type_symbol
_atom_site_label
_atom_site_fract_x
_atom_site_fract_y
_atom_site_fract_z
Si Si1 0.820164 0.430246 0.258710
Si Si2 0.995845 0.945792 0.282023
Si Si3 0.776820 0.217548 0.683084
Si Si4 0.813853 0.965214 0.499158
Si Si5 0.500000 0.000000 0.000000
Si Si6 0.868044 0.602588 0.747344
Si Si7 0.238982 0.277286 0.863699
O O1 0.037686 0.198263 0.565951
O O2 0.802443 0.531487 0.279396
O O3 0.945452 0.482257 0.197289
O O4 0.500000 0.500000 0.000000
O O5 0.245774 0.813137 0.426810
O O6 0.075955 0.045234 0.322399
O O7 0.661954 0.075014 0.970694
O O8 0.452525 0.342470 0.469932
O O9 0.944211 0.303297 0.711620
O O10 0.000000 0.000000 0.000000
O O11 0.847817 0.786215 0.615063
O O12 0.470839 0.146375 0.171913
O O13 0.000000 0.000000 0.500000
O O14 0.402168 0.152774 0.937869
O O15 0.000000 0.500000 0.000000
#
# Coordination Sequence:
#
# PCOD9024240 Si02
#       7
#     2   2   2   2   1   2   2
#     4  12  24  44  74 109 146 188 255 313 367 437
#     4  11  24  42  73 104 141 193 255 302 370 444
#     4  11  26  47  69 104 152 197 245 307 381 449
#     4  12  21  44  77 104 139 200 253 305 363 445
#     4  10  22  40  64 106 138 188 248 302 366 438
#     4  12  27  46  72 110 156 193 250 312 376 446
#     4  11  23  43  74 102 149 193 248 308 374 445
#
# _framework density 24.432552000000001
#
# number of rings (size 3 to 8) (size 9 to 14) (size 15 to 20)
#    0.000    0.615    6.154    0.923    2.154    4.923 
#    2.769    0.000    0.000    0.000    0.000    0.000 
#    0.000    0.000    0.000    0.000    0.000    0.000 
#
# Total GULP energy -72506.216861 kJ/mol
# GULP energy per Si atom -5577.401297 kJ/mol
# Density = 2.437694 g / cm^3
# Si number density = 24.432552 Si / 1000 Ang^3
#
#
#
# Elastic Constant Matrix: (Units=GPa)
#
#
# Indices 1 2 3 4 5 6 
#
# 1 143.0718 26.1365 41.2861 9.3757 27.1528 3.5275
# 2 26.1365 156.8642 23.5880 -1.0687 29.0285 -6.1211
# 3 41.2861 23.5880 70.2886 1.3189 5.7195 11.6166
# 4 9.3757 -1.0687 1.3189 40.7794 12.9647 4.8553
# 5 27.1528 29.0285 5.7195 12.9647 41.9906 -4.5162
# 6 3.5275 -6.1211 11.6166 4.8553 -4.5162 36.1953
#
#
#
# Elastic Compliance Matrix: (Units=1/GPa)
#
#
# Indices 1 2 3 4 5 6 
#
# 1 0.009517 0.000221 -0.005236 -0.000284 -0.005491 0.000143
# 2 0.000221 0.007825 -0.002520 0.001903 -0.005673 0.001147
# 3 -0.005236 -0.002520 0.018969 0.000684 0.001700 -0.005884
# 4 -0.000284 0.001903 0.000684 0.028580 -0.010589 -0.005025
# 5 -0.005491 -0.005673 0.001700 -0.010589 0.034841 0.004798
# 6 0.000143 0.001147 -0.005884 -0.005025 0.004798 0.030969
#
#
# Mechanical properties :
#
#
# Convention : Reuss Voigt Hill
#
# Bulk Modulus (GPa) = 47.07508 61.36065 54.21786
# Shear Modulus (GPa) = 32.71163 42.40734 37.55948
#
# Velocity S-wave (km/s) = 3.66301 4.17068 3.92506
# Velocity P-wave (km/s) = 6.09913 6.95425 6.54068
#
# Compressibility (1/GPa) = 0.02124266
#
# Stress axis : x y z
#
# Youngs Moduli (GPa) = 105.07296 127.80366 52.71651
#
# Poissons Ratio (x) = -0.02829 0.27603
# Poissons Ratio (y) = -0.02326 0.13282
# Poissons Ratio (z) = 0.55017 0.32200
#
# Static dielectric constant tensor:
#      x y z
#    x 2.023430 -0.040580 -0.167160 
#    y -0.040580 2.140240 -0.298840 
#    z -0.167160 -0.298840 1.705570 
# 
# From -- ./inp_files/502750.got.cif
#   From: 2010.05.17/outbox.cif.g08.bks.cpg/sg2_252_cif.got.tgz:502750.got - 2010.06.03 11:33:40.
