data_PCOD9024755
_publ_section_title
;
Structure prediction by ZEFSAII (Michael W. Deem and Ramdas Pophale) SiO2 
 PCOD9024755
Probable space group: P -1
;
_chemical_formula_sum "Si O2"
_cell_formula_units_Z 15
_cell_length_a 14.621858
_cell_length_b 17.049753
_cell_length_c 7.417708
_cell_angle_alpha 129.152613
_cell_angle_beta 119.364299
_cell_angle_gamma 24.261606
_cell_volume 567.755408
_symmetry_space_group_name_H-M "P -1"
_symmetry_group_IT_number 2
_symmetry_cell_setting 'triclinic'
loop_
_space_group_symop_operation_xyz
x,y,z
-x,-y,-z
loop_
_atom_site_type_symbol
_atom_site_label
_atom_site_fract_x
_atom_site_fract_y
_atom_site_fract_z
Si Si1 0.500000 0.500000 0.500000
Si Si2 0.050167 0.535888 0.763473
Si Si3 0.109732 0.973046 0.911455
Si Si4 0.335039 0.547737 0.783151
Si Si5 0.251408 0.485512 0.289267
Si Si6 0.539632 0.656490 0.053793
Si Si7 0.784958 0.792470 0.336182
Si Si8 0.400085 0.998994 0.142696
O O1 0.421452 0.545856 0.705289
O O2 0.260326 0.776838 0.640386
O O3 0.000000 0.500000 0.500000
O O4 0.277946 0.412085 0.813549
O O5 0.093015 0.417984 0.791956
O O6 0.823220 0.799956 0.906840
O O7 0.288237 0.893113 0.072675
O O8 0.891345 0.222124 0.992351
O O9 0.000000 0.000000 0.000000
O O10 0.264141 0.512606 0.542967
O O11 0.503468 0.368800 0.843243
O O12 0.985889 0.687352 0.294099
O O13 0.339259 0.492759 0.234169
O O14 0.432464 0.238630 0.084962
O O15 0.570635 0.950071 0.229406
O O16 0.683798 0.922181 0.614848
#
# Coordination Sequence:
#
# PCOD9024755 Si02
#       8
#     1   2   2   2   2   2   2   2
#     4  10  22  50  78 106 138 176 234 296 362 442
#     4  10  22  40  66 102 142 194 243 290 353 416
#     4  10  25  51  78 107 145 183 233 306 366 435
#     4  11  26  48  73 106 148 182 234 304 361 435
#     4  12  25  45  70 106 145 192 254 293 356 439
#     4  12  26  46  74 108 148 191 244 296 363 432
#     4  10  22  42  63  95 145 194 241 309 352 410
#     4  10  22  41  66  94 145 191 244 305 351 408
#
# _framework density 26.419827000000002
#
# number of rings (size 3 to 8) (size 9 to 14) (size 15 to 20)
#    0.000    1.333    2.667    2.000    3.733    2.667 
#    4.800    2.000    0.000    0.000    0.000    0.000 
#    0.000    0.000    0.000    0.000    0.000    0.000 
#
# Total GULP energy -83628.093513 kJ/mol
# GULP energy per Si atom -5575.206234 kJ/mol
# Density = 2.635969 g / cm^3
# Si number density = 26.419827 Si / 1000 Ang^3
#
#
#
# Elastic Constant Matrix: (Units=GPa)
#
#
# Indices 1 2 3 4 5 6 
#
# 1 90.9009 17.4630 13.5692 9.7679 -26.8460 -21.2671
# 2 17.4630 102.8587 28.7583 5.2301 5.2434 -33.4765
# 3 13.5692 28.7583 154.9935 22.1753 -0.5938 -5.4216
# 4 9.7679 5.2301 22.1753 56.7925 -0.4202 -7.4403
# 5 -26.8460 5.2434 -0.5938 -0.4202 34.1341 4.2727
# 6 -21.2671 -33.4765 -5.4216 -7.4403 4.2727 41.7490
#
#
#
# Elastic Compliance Matrix: (Units=1/GPa)
#
#
# Indices 1 2 3 4 5 6 
#
# 1 0.016556 -0.001291 -0.000733 -0.001598 0.012468 0.005742
# 2 -0.001291 0.014471 -0.002375 0.001268 -0.004684 0.011343
# 3 -0.000733 -0.002375 0.007285 -0.002739 0.000111 -0.001831
# 4 -0.001598 0.001268 -0.002739 0.019276 -0.001695 0.003456
# 5 0.012468 -0.004684 0.000111 -0.001695 0.040027 -0.001789
# 6 0.005742 0.011343 -0.001831 0.003456 -0.001789 0.036534
#
#
# Mechanical properties :
#
#
# Convention : Reuss Voigt Hill
#
# Bulk Modulus (GPa) = 33.88144 52.03714 42.95929
# Shear Modulus (GPa) = 32.72594 45.79928 39.26261
#
# Velocity S-wave (km/s) = 3.52332 4.16807 3.85918
# Velocity P-wave (km/s) = 5.42253 6.55002 6.01276
#
# Compressibility (1/GPa) = 0.02951468
#
# Stress axis : x y z
#
# Youngs Moduli (GPa) = 60.40169 69.10261 137.27129
#
# Poissons Ratio (x) = 0.08925 0.10056
# Poissons Ratio (y) = 0.07801 0.32596
# Poissons Ratio (z) = 0.04425 0.16409
#
# Static dielectric constant tensor:
#      x y z
#    x 2.266140 0.010950 0.123430 
#    y 0.010950 2.075780 0.013260 
#    z 0.123430 0.013260 2.133880 
# 
# From -- ./inp_files/337847.got.cif
#   From: 2010.05.17/outbox.cif.g08.bks.cpg/sg2_169_cif.got.tgz:337847.got - 2010.06.03 11:33:40.
