data_PCOD9024906
_publ_section_title
;
Structure prediction by ZEFSAII (Michael W. Deem and Ramdas Pophale) SiO2 
 PCOD9024906
Probable space group: P -1
;
_chemical_formula_sum "Si O2"
_cell_formula_units_Z 16
_cell_length_a 7.643890
_cell_length_b 11.137353
_cell_length_c 10.758185
_cell_angle_alpha 123.420782
_cell_angle_beta 64.135379
_cell_angle_gamma 107.769252
_cell_volume 685.283198
_symmetry_space_group_name_H-M "P -1"
_symmetry_group_IT_number 2
_symmetry_cell_setting 'triclinic'
loop_
_space_group_symop_operation_xyz
x,y,z
-x,-y,-z
loop_
_atom_site_type_symbol
_atom_site_label
_atom_site_fract_x
_atom_site_fract_y
_atom_site_fract_z
Si Si1 0.472464 0.785916 0.513603
Si Si2 0.312447 0.409332 0.065144
Si Si3 0.063154 0.798275 0.275447
Si Si4 0.753112 0.586722 0.178183
Si Si5 0.227112 0.505030 0.418896
Si Si6 0.117446 0.927385 0.600752
Si Si7 0.416813 0.746183 0.964516
Si Si8 0.688032 0.804810 0.702781
O O1 0.591454 0.697955 0.325459
O O2 0.327152 0.650995 0.528875
O O3 0.323036 0.901216 0.585105
O O4 0.622274 0.842456 0.606268
O O5 0.182547 0.389792 0.972437
O O6 0.500000 0.500000 0.000000
O O7 0.251968 0.489363 0.252799
O O8 0.396719 0.266233 0.010237
O O9 0.123098 0.842138 0.420270
O O10 0.943357 0.642438 0.228014
O O11 0.245880 0.805321 0.130386
O O12 0.918126 0.910227 0.331037
O O13 0.666970 0.421667 0.135828
O O14 0.303275 0.367292 0.383914
O O15 0.000000 0.500000 0.500000
O O16 0.910784 0.869113 0.696347
O O17 0.510793 0.831225 0.866147
#
# Coordination Sequence:
#
# PCOD9024906 Si02
#       8
#     2   2   2   2   2   2   2   2
#     4  12  22  40  67  96 131 167 215 265 318 386
#     4   9  18  35  57  94 123 158 205 250 332 369
#     4  11  25  45  62  96 128 171 222 264 315 385
#     4  11  21  38  68  98 126 165 216 270 323 377
#     4  11  21  35  65  97 134 166 200 274 322 379
#     4  11  26  45  67  91 131 174 218 262 316 386
#     4  10  22  40  66  95 132 163 208 275 326 372
#     4  11  23  42  65  99 128 171 215 259 331 379
#
# _framework density 23.348013999999999
#
# number of rings (size 3 to 8) (size 9 to 14) (size 15 to 20)
#    0.000    1.250    6.250    1.500    1.750    2.000 
#    2.250    0.625    0.000    0.000    0.000    0.000 
#    0.000    0.000    0.000    0.000    0.000    0.000 
#
# Total GULP energy -89332.081859 kJ/mol
# GULP energy per Si atom -5583.255116 kJ/mol
# Density = 2.329487 g / cm^3
# Si number density = 23.348014 Si / 1000 Ang^3
#
#
#
# Elastic Constant Matrix: (Units=GPa)
#
#
# Indices 1 2 3 4 5 6 
#
# 1 75.1571 12.5168 39.0885 -6.5807 -13.0389 -1.6942
# 2 12.5168 53.6940 25.4999 -14.6963 -2.1618 4.1808
# 3 39.0885 25.4999 109.9578 -27.8949 -22.9409 5.5518
# 4 -6.5807 -14.6963 -27.8949 34.8013 6.4036 -7.6017
# 5 -13.0389 -2.1618 -22.9409 6.4036 31.4074 -5.1282
# 6 -1.6942 4.1808 5.5518 -7.6017 -5.1282 33.6528
#
#
#
# Elastic Compliance Matrix: (Units=1/GPa)
#
#
# Indices 1 2 3 4 5 6 
#
# 1 0.016976 -0.001983 -0.005476 -0.002249 0.003706 0.002061
# 2 -0.001983 0.022530 -0.003459 0.006698 -0.003382 -0.001331
# 3 -0.005476 -0.003459 0.015529 0.008781 0.007149 0.000665
# 4 -0.002249 0.006698 0.008781 0.039785 -0.001122 0.006422
# 5 0.003706 -0.003382 0.007149 -0.001122 0.039443 0.005184
# 6 0.002061 -0.001331 0.000665 0.006422 0.005184 0.032115
#
#
# Mechanical properties :
#
#
# Convention : Reuss Voigt Hill
#
# Bulk Modulus (GPa) = 30.12216 43.66880 36.89548
# Shear Modulus (GPa) = 25.09009 30.75255 27.92132
#
# Velocity S-wave (km/s) = 3.28169 3.63318 3.46190
# Velocity P-wave (km/s) = 5.22386 6.02860 5.64060
#
# Compressibility (1/GPa) = 0.03319815
#
# Stress axis : x y z
#
# Youngs Moduli (GPa) = 58.90497 44.38547 64.39643
#
# Poissons Ratio (x) = 0.08804 0.35264
# Poissons Ratio (y) = 0.11684 0.22274
# Poissons Ratio (z) = 0.32257 0.15352
#
# Static dielectric constant tensor:
#      x y z
#    x 1.961070 -0.006940 0.012800 
#    y -0.006940 1.929880 -0.017470 
#    z 0.012800 -0.017470 1.969700 
# 
# From -- ./inp_files/393014.got.cif
#   From: 2010.05.17/outbox.cif.g08.bks.cpg/sg2_197_cif.got.tgz:393014.got - 2010.06.03 11:33:40.
