data_PCOD9024956
_publ_section_title
;
Structure prediction by ZEFSAII (Michael W. Deem and Ramdas Pophale) SiO2 
 PCOD9024956
Probable space group: P -1
;
_chemical_formula_sum "Si O2"
_cell_formula_units_Z 16
_cell_length_a 5.477150
_cell_length_b 11.137664
_cell_length_c 12.685013
_cell_angle_alpha 89.605120
_cell_angle_beta 80.952691
_cell_angle_gamma 127.848814
_cell_volume 598.105194
_symmetry_space_group_name_H-M "P -1"
_symmetry_group_IT_number 2
_symmetry_cell_setting 'triclinic'
loop_
_space_group_symop_operation_xyz
x,y,z
-x,-y,-z
loop_
_atom_site_type_symbol
_atom_site_label
_atom_site_fract_x
_atom_site_fract_y
_atom_site_fract_z
Si Si1 0.621709 0.839411 0.432820
Si Si2 0.195482 0.855765 0.147382
Si Si3 0.888078 0.817150 0.621906
Si Si4 0.507033 0.741127 0.223256
Si Si5 0.449321 0.626966 0.999092
Si Si6 0.024019 0.603556 0.589041
Si Si7 0.884958 0.175463 0.076371
Si Si8 0.732410 0.342119 0.212857
O O1 0.840449 0.837448 0.501957
O O2 0.519139 0.718146 0.346721
O O3 0.320419 0.774957 0.526356
O O4 0.794278 0.010094 0.374527
O O5 0.273774 0.786025 0.234175
O O6 0.894963 0.852186 0.179646
O O7 0.544518 0.014718 0.110114
O O8 0.131916 0.770699 0.039695
O O9 0.622022 0.788603 0.719929
O O10 0.802909 0.648732 0.630905
O O11 0.391585 0.638452 0.126134
O O12 0.265782 0.594678 0.901982
O O13 0.787117 0.796048 0.951274
O O14 0.500000 0.500000 0.000000
O O15 0.102482 0.560658 0.693318
O O16 0.000000 0.500000 0.500000
O O17 0.900949 0.268132 0.173150
#
# Coordination Sequence:
#
# PCOD9024956 Si02
#       8
#     2   2   2   2   2   2   2   2
#     4  10  24  42  71 100 139 178 235 298 360 417
#     4  10  23  39  68 103 145 175 235 279 358 414
#     4  10  23  45  69 101 132 176 237 297 359 415
#     4  11  24  43  68 107 139 188 224 297 352 424
#     4  11  26  44  65  98 143 186 236 281 352 432
#     4  11  26  45  69  98 135 185 236 293 357 431
#     4  10  22  40  66  97 135 180 219 292 340 424
#     4  11  23  43  69  97 131 178 235 287 358 417
#
# _framework density 26.751144
#
# number of rings (size 3 to 8) (size 9 to 14) (size 15 to 20)
#    0.000    1.500    1.250    1.875    7.000    7.000 
#    2.250    0.000    0.000    0.000    0.000    0.000 
#    0.000    0.000    0.000    0.000    0.000    0.000 
#
# Total GULP energy -89079.441967 kJ/mol
# GULP energy per Si atom -5567.465123 kJ/mol
# Density = 2.669026 g / cm^3
# Si number density = 26.751144 Si / 1000 Ang^3
#
#
#
# Elastic Constant Matrix: (Units=GPa)
#
#
# Indices 1 2 3 4 5 6 
#
# 1 63.1096 21.1369 23.7078 8.4497 13.0748 9.5376
# 2 21.1369 70.2021 47.6140 6.6950 9.5178 9.9997
# 3 23.7078 47.6140 204.8676 24.6000 17.8821 12.2301
# 4 8.4497 6.6950 24.6000 51.5182 16.8629 4.2772
# 5 13.0748 9.5178 17.8821 16.8629 48.4218 -1.2170
# 6 9.5376 9.9997 12.2301 4.2772 -1.2170 28.7265
#
#
#
# Elastic Compliance Matrix: (Units=1/GPa)
#
#
# Indices 1 2 3 4 5 6 
#
# 1 0.019057 -0.004083 -0.000545 -0.000615 -0.004047 -0.004753
# 2 -0.004083 0.018578 -0.003576 0.000801 -0.001602 -0.003776
# 3 -0.000545 -0.003576 0.006141 -0.002066 -0.000721 -0.000911
# 4 -0.000615 0.000801 -0.002066 0.023035 -0.007324 -0.002935
# 5 -0.004047 -0.001602 -0.000721 -0.007324 0.024986 0.004357
# 6 -0.004753 -0.003776 -0.000911 -0.002935 0.004357 0.038713
#
#
# Mechanical properties :
#
#
# Convention : Reuss Voigt Hill
#
# Bulk Modulus (GPa) = 36.54141 58.12186 47.33164
# Shear Modulus (GPa) = 32.04248 42.11468 37.07858
#
# Velocity S-wave (km/s) = 3.46468 3.97207 3.72702
# Velocity P-wave (km/s) = 5.44929 6.54297 6.02101
#
# Compressibility (1/GPa) = 0.02736621
#
# Stress axis : x y z
#
# Youngs Moduli (GPa) = 52.47373 53.82624 162.84135
#
# Poissons Ratio (x) = 0.21980 0.08881
# Poissons Ratio (y) = 0.21428 0.58235
# Poissons Ratio (z) = 0.02862 0.19249
#
# Static dielectric constant tensor:
#      x y z
#    x 2.227160 0.037930 0.004910 
#    y 0.037930 2.340330 -0.080590 
#    z 0.004910 -0.080590 2.022230 
# 
# From -- ./inp_files/364507.got.cif
#   From: 2010.05.17/outbox.cif.g08.bks.cpg/sg2_183_cif.got.tgz:364507.got - 2010.06.03 11:33:40.
