data_PCOD9024659
_publ_section_title
;
Structure prediction by ZEFSAII (Michael W. Deem and Ramdas Pophale) SiO2 
 PCOD9024659
Probable space group: P -1
;
_chemical_formula_sum "Si O2"
_cell_formula_units_Z 13
_cell_length_a 20.070820
_cell_length_b 12.583889
_cell_length_c 9.474606
_cell_angle_alpha 35.041552
_cell_angle_beta 30.282082
_cell_angle_gamma 23.385791
_cell_volume 474.861120
_symmetry_space_group_name_H-M "P -1"
_symmetry_group_IT_number 2
_symmetry_cell_setting 'triclinic'
loop_
_space_group_symop_operation_xyz
x,y,z
-x,-y,-z
loop_
_atom_site_type_symbol
_atom_site_label
_atom_site_fract_x
_atom_site_fract_y
_atom_site_fract_z
Si Si1 0.000000 0.000000 0.000000
Si Si2 0.655240 0.845104 0.536113
Si Si3 0.086714 0.429667 0.095166
Si Si4 0.418781 0.452867 0.078515
Si Si5 0.386751 0.794906 0.565974
Si Si6 0.718745 0.571279 0.009218
Si Si7 0.955231 0.225549 0.428479
O O1 0.839365 0.997662 0.270562
O O2 0.849270 0.256230 0.106340
O O3 0.525108 0.820199 0.722842
O O4 0.855545 0.683941 0.266404
O O5 0.578516 0.102202 0.477286
O O6 0.716494 0.656716 0.764919
O O7 0.116787 0.191013 0.241865
O O8 0.191178 0.373489 0.107881
O O9 0.138784 0.532221 0.772834
O O10 0.188400 0.684586 0.279973
O O11 0.500000 0.500000 0.000000
O O12 0.458303 0.521858 0.788298
O O13 0.510901 0.736391 0.272717
O O14 0.000000 0.000000 0.500000
#
# Coordination Sequence:
#
# PCOD9024659 Si02
#       7
#     1   2   2   2   2   2   2
#     4  12  26  44  76 100 148 184 230 294 350 422
#     4  11  24  45  68 102 143 183 233 289 356 415
#     4  10  22  41  65  96 139 176 232 286 336 415
#     4  11  25  45  67 101 141 182 240 288 345 419
#     4  12  26  46  72 106 141 184 235 288 353 421
#     4  12  25  45  71 108 140 187 231 288 360 416
#     4  10  22  40  65  96 130 185 230 277 347 401
#
# _framework density 27.376425000000001
#
# number of rings (size 3 to 8) (size 9 to 14) (size 15 to 20)
#    0.000    0.923    3.077    3.231    0.000    1.846 
#    0.000    0.000    0.000    0.000    0.000    0.000 
#    0.000    0.000    0.000    0.000    0.000    0.000 
#
# Total GULP energy -72640.094160 kJ/mol
# GULP energy per Si atom -5587.699551 kJ/mol
# Density = 2.731411 g / cm^3
# Si number density = 27.376425 Si / 1000 Ang^3
#
#
#
# Elastic Constant Matrix: (Units=GPa)
#
#
# Indices 1 2 3 4 5 6 
#
# 1 100.9576 36.2610 23.1848 -0.2233 -45.8915 57.3356
# 2 36.2610 116.1558 51.0585 -1.2101 -21.0629 39.7206
# 3 23.1848 51.0585 113.4529 9.7271 -11.8954 11.0037
# 4 -0.2233 -1.2101 9.7271 65.1979 9.1250 -17.8601
# 5 -45.8915 -21.0629 -11.8954 9.1250 47.1561 -0.4641
# 6 57.3356 39.7206 11.0037 -17.8601 -0.4641 52.3377
#
#
#
# Elastic Compliance Matrix: (Units=1/GPa)
#
#
# Indices 1 2 3 4 5 6 
#
# 1 -0.027041 -0.014276 0.002490 0.016546 -0.034820 0.045271
# 2 -0.014276 0.008652 -0.003838 0.005554 -0.011956 0.011669
# 3 0.002490 -0.003838 0.011037 -0.003149 0.004072 -0.003174
# 4 0.016546 0.005554 -0.003149 0.008646 0.015932 -0.018587
# 5 -0.034820 -0.011956 0.004072 0.015932 -0.019568 0.051626
# 6 0.045271 0.011669 -0.003174 -0.018587 0.051626 -0.044560
#
#
# Mechanical properties :
#
#
# Convention : Reuss Voigt Hill
#
# Bulk Modulus (GPa) = -25.90826 61.28610 17.68892
# Shear Modulus (GPa) = -112.47901 47.60914 -32.43494
#
# Velocity S-wave (km/s) = -6.41680 4.17472 -3.44579
# Velocity P-wave (km/s) = 8.02400 6.75817 3.05874
#
# Compressibility (1/GPa) = -0.03859772
#
# Stress axis : x y z
#
# Youngs Moduli (GPa) = -36.98139 115.57561 90.60138
#
# Poissons Ratio (x) = 1.64992 -0.22563
# Poissons Ratio (y) = -0.52793 0.34774
# Poissons Ratio (z) = 0.09210 0.44359
#
# Static dielectric constant tensor:
#      x y z
#    x 0.642310 0.695950 0.098000 
#    y 0.695950 1.828940 -0.141060 
#    z 0.098000 -0.141060 2.047340 
# 
# From -- ./inp_files/344902.got.cif
#   From: 2010.05.17/outbox.cif.g08.bks.cpg/sg2_173_cif.got.tgz:344902.got - 2010.06.03 11:33:40.
