data_PCOD9024265
_publ_section_title
;
Structure prediction by ZEFSAII (Michael W. Deem and Ramdas Pophale) SiO2 
 PCOD9024265
Probable space group: P -1
;
_chemical_formula_sum "Si O2"
_cell_formula_units_Z 16
_cell_length_a 9.172101
_cell_length_b 24.131069
_cell_length_c 21.294004
_cell_angle_alpha 20.436327
_cell_angle_beta 148.809505
_cell_angle_gamma 137.695195
_cell_volume 800.533608
_symmetry_space_group_name_H-M "P -1"
_symmetry_group_IT_number 2
_symmetry_cell_setting 'triclinic'
loop_
_space_group_symop_operation_xyz
x,y,z
-x,-y,-z
loop_
_atom_site_type_symbol
_atom_site_label
_atom_site_fract_x
_atom_site_fract_y
_atom_site_fract_z
Si Si1 0.571583 0.660679 0.332017
Si Si2 0.128879 0.648745 0.638050
Si Si3 0.713851 0.657719 0.240876
Si Si4 0.193685 0.493480 0.963427
Si Si5 0.915250 0.209664 0.179165
Si Si6 0.181929 0.013261 0.115085
Si Si7 0.835247 0.008493 0.121557
Si Si8 0.115270 0.151748 0.455613
O O1 0.500000 0.500000 0.500000
O O2 0.658464 0.675467 0.276259
O O3 0.863246 0.653121 0.488421
O O4 0.260174 0.812951 0.069150
O O5 0.135849 0.551088 0.808645
O O6 0.462689 0.560778 0.829118
O O7 0.047073 0.849221 0.407296
O O8 0.000000 0.500000 0.500000
O O9 0.406425 0.657168 0.098783
O O10 0.778262 0.808085 0.069127
O O11 0.012429 0.668526 0.746625
O O12 0.128924 0.317351 0.129331
O O13 0.954583 0.179739 0.299476
O O14 0.931506 0.026042 0.350144
O O15 0.994534 0.004522 0.117342
O O16 0.526250 0.888160 0.376395
O O17 0.000000 0.000000 0.000000
O O18 0.500000 0.000000 0.000000
#
# Coordination Sequence:
#
# PCOD9024265 Si02
#       8
#     2   2   2   2   2   2   2   2
#     4  11  23  42  67  96 135 178 216 281 345 395
#     4  10  24  41  63  97 129 172 234 261 341 413
#     4  11  25  39  64  98 131 168 225 280 334 409
#     4  11  23  43  68  93 134 182 220 282 332 409
#     4  10  23  43  63  95 131 171 224 276 339 397
#     4  11  23  39  66  99 125 171 223 276 343 395
#     4  10  22  40  64  88 134 168 213 276 325 406
#     4  10  24  41  69  94 135 172 225 283 336 400
#
# _framework density 19.986668000000002
#
# number of rings (size 3 to 8) (size 9 to 14) (size 15 to 20)
#    0.000    1.500    0.000    4.125   10.500    0.000 
#    4.500    1.250    0.000    0.000    0.000    0.000 
#    0.000    0.000    0.000    0.000    0.000    0.000 
#
# Total GULP energy -89084.508392 kJ/mol
# GULP energy per Si atom -5567.781775 kJ/mol
# Density = 1.994118 g / cm^3
# Si number density = 19.986668 Si / 1000 Ang^3
#
#
#
# Elastic Constant Matrix: (Units=GPa)
#
#
# Indices 1 2 3 4 5 6 
#
# 1 88.6064 32.2538 48.4585 -9.9755 8.7705 13.3658
# 2 32.2538 68.9284 27.0404 11.6909 10.1536 7.6173
# 3 48.4585 27.0404 145.3727 1.5151 22.1092 1.4559
# 4 -9.9755 11.6909 1.5151 45.3815 2.3644 -13.0363
# 5 8.7705 10.1536 22.1092 2.3644 41.9875 -1.6219
# 6 13.3658 7.6173 1.4559 -13.0363 -1.6219 19.8726
#
#
#
# Elastic Compliance Matrix: (Units=1/GPa)
#
#
# Indices 1 2 3 4 5 6 
#
# 1 0.017531 -0.006264 -0.004624 0.003730 -0.000178 -0.006619
# 2 -0.006264 0.021115 -0.001174 -0.009587 -0.003039 -0.010331
# 3 -0.004624 -0.001174 0.009140 -0.000111 -0.003459 0.002535
# 4 0.003730 -0.009587 -0.000111 0.031602 0.000666 0.021959
# 5 -0.000178 -0.003039 -0.003459 0.000666 0.026532 0.004140
# 6 -0.006619 -0.010331 0.002535 0.021959 0.004140 0.073290
#
#
# Mechanical properties :
#
#
# Convention : Reuss Voigt Hill
#
# Bulk Modulus (GPa) = 42.26202 57.60142 49.93172
# Shear Modulus (GPa) = 23.67181 34.45864 29.06522
#
# Velocity S-wave (km/s) = 3.44522 4.15671 3.81757
# Velocity P-wave (km/s) = 6.08416 7.20556 6.66848
#
# Compressibility (1/GPa) = 0.02366191
#
# Stress axis : x y z
#
# Youngs Moduli (GPa) = 57.04211 47.36003 109.40363
#
# Poissons Ratio (x) = 0.29667 0.50589
# Poissons Ratio (y) = 0.35732 0.12843
# Poissons Ratio (z) = 0.26377 0.05560
#
# Static dielectric constant tensor:
#      x y z
#    x 1.691170 -0.010990 -0.020510 
#    y -0.010990 1.720780 -0.162000 
#    z -0.020510 -0.162000 1.899010 
# 
# From -- ./inp_files/205633.got.cif
#   From: 2010.05.17/outbox.cif.g08.bks.cpg/sg2_103_cif.got.tgz:205633.got - 2010.06.03 11:33:40.
