data_PCOD9024118
_publ_section_title
;
Structure prediction by ZEFSAII (Michael W. Deem and Ramdas Pophale) SiO2 
 PCOD9024118
Probable space group: P -1
;
_chemical_formula_sum "Si O2"
_cell_formula_units_Z 16
_cell_length_a 17.324208
_cell_length_b 6.952433
_cell_length_c 8.312180
_cell_angle_alpha 59.290153
_cell_angle_beta 117.922787
_cell_angle_gamma 129.871165
_cell_volume 645.391202
_symmetry_space_group_name_H-M "P -1"
_symmetry_group_IT_number 2
_symmetry_cell_setting 'triclinic'
loop_
_space_group_symop_operation_xyz
x,y,z
-x,-y,-z
loop_
_atom_site_type_symbol
_atom_site_label
_atom_site_fract_x
_atom_site_fract_y
_atom_site_fract_z
Si Si1 0.277359 0.238365 0.267114
Si Si2 0.645230 0.555989 0.404342
Si Si3 0.095018 0.000446 0.966171
Si Si4 0.030005 0.278568 0.323283
Si Si5 0.434927 0.328218 0.163845
Si Si6 0.760645 0.306369 0.498031
Si Si7 0.118218 0.534330 0.782781
Si Si8 0.266393 0.964431 0.947496
O O1 0.304344 0.391002 0.393970
O O2 0.358214 0.409489 0.132084
O O3 0.300226 0.004773 0.407898
O O4 0.158922 0.065680 0.166922
O O5 0.521981 0.383676 0.353250
O O6 0.685522 0.413073 0.391130
O O7 0.686144 0.840319 0.241432
O O8 0.068040 0.225158 0.849500
O O9 0.184830 0.027767 0.921544
O O10 0.999209 0.764933 0.876284
O O11 0.961848 0.376622 0.301901
O O12 0.147355 0.511545 0.364229
O O13 0.000000 0.000000 0.500000
O O14 0.500000 0.500000 0.000000
O O15 0.357001 0.043954 0.128032
O O16 0.820840 0.359983 0.367910
O O17 0.203303 0.668779 0.948507
#
# Coordination Sequence:
#
# PCOD9024118 Si02
#       8
#     2   2   2   2   2   2   2   2
#     4  11  25  41  64  96 134 165 205 268 329 366
#     4  11  21  40  64  92 132 166 210 263 325 373
#     4  10  22  40  63  93 127 169 216 255 309 380
#     4  11  23  39  68  97 126 167 222 261 303 378
#     4   9  21  42  68  92 126 169 212 261 316 385
#     4  12  24  38  65  96 130 170 213 264 317 371
#     4  11  20  39  69  93 126 172 218 253 313 379
#     4   9  18  38  64  94 125 165 214 262 305 377
#
# _framework density 24.791167000000002
#
# number of rings (size 3 to 8) (size 9 to 14) (size 15 to 20)
#    0.000    1.500    3.750    1.500    0.000    4.000 
#    0.000    4.375    0.000    0.000    0.000    0.000 
#    0.000    0.000    0.000    0.000    0.000    0.000 
#
# Total GULP energy -89385.537089 kJ/mol
# GULP energy per Si atom -5586.596068 kJ/mol
# Density = 2.473474 g / cm^3
# Si number density = 24.791167 Si / 1000 Ang^3
#
#
#
# Elastic Constant Matrix: (Units=GPa)
#
#
# Indices 1 2 3 4 5 6 
#
# 1 98.8613 44.6045 27.5876 21.8658 0.9942 3.4630
# 2 44.6045 124.9254 28.6912 22.3735 12.0715 -10.4053
# 3 27.5876 28.6912 84.9163 35.8133 -3.3525 -3.1227
# 4 21.8658 22.3735 35.8133 54.3355 4.8775 6.3775
# 5 0.9942 12.0715 -3.3525 4.8775 33.3683 9.4166
# 6 3.4630 -10.4053 -3.1227 6.3775 9.4166 36.2298
#
#
#
# Elastic Compliance Matrix: (Units=1/GPa)
#
#
# Indices 1 2 3 4 5 6 
#
# 1 0.013144 -0.004307 -0.001962 -0.002076 0.002073 -0.002836
# 2 -0.004307 0.011200 -0.001562 -0.001988 -0.005260 0.005211
# 3 -0.001962 -0.001562 0.017720 -0.010816 0.003335 0.002303
# 4 -0.002076 -0.001988 -0.010816 0.028090 -0.002858 -0.005507
# 5 0.002073 -0.005260 0.003335 -0.002858 0.035420 -0.010124
# 6 -0.002836 0.005211 0.002303 -0.005507 -0.010124 0.033169
#
#
# Mechanical properties :
#
#
# Convention : Reuss Voigt Hill
#
# Bulk Modulus (GPa) = 37.87818 56.71885 47.29852
# Shear Modulus (GPa) = 30.63653 38.64138 34.63895
#
# Velocity S-wave (km/s) = 3.51919 3.95229 3.74201
# Velocity P-wave (km/s) = 5.64136 6.61481 6.14739
#
# Compressibility (1/GPa) = 0.02640042
#
# Stress axis : x y z
#
# Youngs Moduli (GPa) = 76.08304 89.28715 56.43478
#
# Poissons Ratio (x) = 0.38457 0.11071
# Poissons Ratio (y) = 0.32770 0.08818
# Poissons Ratio (z) = 0.14925 0.13951
#
# Static dielectric constant tensor:
#      x y z
#    x 2.094940 0.090520 -0.088610 
#    y 0.090520 1.952070 -0.046670 
#    z -0.088610 -0.046670 2.097740 
# 
# From -- ./inp_files/38446.got.cif
#   From: 2010.05.17/outbox.cif.g08.bks.cpg/sg2_20_cif.got.tgz:38446.got - 2010.06.03 11:33:40.
