data_PCOD9024745
_publ_section_title
;
Structure prediction by ZEFSAII (Michael W. Deem and Ramdas Pophale) SiO2 
 PCOD9024745
Probable space group: P -1
;
_chemical_formula_sum "Si O2"
_cell_formula_units_Z 15
_cell_length_a 12.050043
_cell_length_b 11.163364
_cell_length_c 10.423953
_cell_angle_alpha 36.595501
_cell_angle_beta 102.753969
_cell_angle_gamma 118.588898
_cell_volume 697.340798
_symmetry_space_group_name_H-M "P -1"
_symmetry_group_IT_number 2
_symmetry_cell_setting 'triclinic'
loop_
_space_group_symop_operation_xyz
x,y,z
-x,-y,-z
loop_
_atom_site_type_symbol
_atom_site_label
_atom_site_fract_x
_atom_site_fract_y
_atom_site_fract_z
Si Si1 0.605136 0.615280 0.627341
Si Si2 0.727135 0.944774 0.625153
Si Si3 0.745110 0.427857 0.171629
Si Si4 0.781893 0.968475 0.160131
Si Si5 0.644538 0.239726 0.828481
Si Si6 0.038360 0.105076 0.276912
Si Si7 0.700513 0.554641 0.320428
Si Si8 0.500000 0.500000 0.000000
O O1 0.655572 0.782557 0.373294
O O2 0.638676 0.415469 0.778942
O O3 0.449525 0.511661 0.694902
O O4 0.675309 0.769507 0.638168
O O5 0.729258 0.175639 0.386788
O O6 0.869171 0.993185 0.664115
O O7 0.614287 0.772361 0.841891
O O8 0.769731 0.519402 0.246098
O O9 0.863936 0.614194 0.951394
O O10 0.610984 0.419893 0.106348
O O11 0.778643 0.818678 0.166573
O O12 0.909292 0.036072 0.220704
O O13 0.755326 0.174549 0.943658
O O14 0.679076 0.376620 0.584136
O O15 0.500000 0.000000 0.000000
O O16 0.000000 0.000000 0.500000
#
# Coordination Sequence:
#
# PCOD9024745 Si02
#       8
#     2   2   2   2   2   2   2   1
#     4  11  21  39  66 102 137 166 229 278 338 408
#     4  11  24  44  67 101 137 181 221 281 344 410
#     4  11  26  44  68 102 140 185 227 278 353 401
#     4  11  23  44  67  99 136 178 228 284 341 398
#     4  11  21  38  67 103 132 179 217 275 349 397
#     4  11  26  49  67  97 134 185 239 285 334 416
#     4  11  23  41  66 102 141 168 227 285 337 423
#     4  10  22  40  66 102 136 172 220 276 336 410
#
# _framework density 21.510286000000001
#
# number of rings (size 3 to 8) (size 9 to 14) (size 15 to 20)
#    0.000    1.067    5.333    1.200    0.000    8.533 
#    0.000    1.333    0.000    0.000    0.000    0.000 
#    0.000    0.000    0.000    0.000    0.000    0.000 
#
# Total GULP energy -83594.814972 kJ/mol
# GULP energy per Si atom -5572.987665 kJ/mol
# Density = 2.146133 g / cm^3
# Si number density = 21.510286 Si / 1000 Ang^3
#
#
#
# Elastic Constant Matrix: (Units=GPa)
#
#
# Indices 1 2 3 4 5 6 
#
# 1 85.7512 54.5994 75.6513 -3.5295 9.7265 27.7141
# 2 54.5994 108.8316 45.8594 10.3440 31.8391 7.5394
# 3 75.6513 45.8594 177.5145 -11.9394 29.6306 -3.7163
# 4 -3.5295 10.3440 -11.9394 33.9804 7.1081 16.9957
# 5 9.7265 31.8391 29.6306 7.1081 66.1676 28.6518
# 6 27.7141 7.5394 -3.7163 16.9957 28.6518 66.4687
#
#
#
# Elastic Compliance Matrix: (Units=1/GPa)
#
#
# Indices 1 2 3 4 5 6 
#
# 1 0.065226 -0.031224 -0.024748 0.023304 0.033734 -0.045538
# 2 -0.031224 0.026939 0.009311 -0.015538 -0.021065 0.023537
# 3 -0.024748 0.009311 0.016369 -0.005554 -0.015490 0.018274
# 4 0.023304 -0.015538 -0.005554 0.044539 0.012619 -0.025093
# 5 0.033734 -0.021065 -0.015490 0.012619 0.040204 -0.033099
# 6 -0.045538 0.023537 0.018274 -0.025093 -0.033099 0.053067
#
#
# Mechanical properties :
#
#
# Convention : Reuss Voigt Hill
#
# Bulk Modulus (GPa) = 65.73485 80.47972 73.10729
# Shear Modulus (GPa) = 14.50387 46.38917 30.44652
#
# Velocity S-wave (km/s) = 2.59950 4.64896 3.76632
# Velocity P-wave (km/s) = 6.29571 8.14327 7.27835
#
# Compressibility (1/GPa) = 0.01521263
#
# Stress axis : x y z
#
# Youngs Moduli (GPa) = 15.33132 37.12129 61.09073
#
# Poissons Ratio (x) = 1.15909 1.51185
# Poissons Ratio (y) = 0.47871 -0.56884
# Poissons Ratio (z) = 0.37941 -0.34565
#
# Static dielectric constant tensor:
#      x y z
#    x 1.721110 -0.007580 0.006040 
#    y -0.007580 1.817020 0.031720 
#    z 0.006040 0.031720 1.785880 
# 
# From -- ./inp_files/363419.got.cif
#   From: 2010.05.17/outbox.cif.g08.bks.cpg/sg2_182_cif.got.tgz:363419.got - 2010.06.03 11:33:40.
