data_PCOD9024041
_publ_section_title
;
Structure prediction by ZEFSAII (Michael W. Deem and Ramdas Pophale) SiO2 
 PCOD9024041
Probable space group: P -1
;
_chemical_formula_sum "Si O2"
_cell_formula_units_Z 15
_cell_length_a 15.374440
_cell_length_b 8.157384
_cell_length_c 9.519166
_cell_angle_alpha 73.509157
_cell_angle_beta 44.391502
_cell_angle_gamma 45.780746
_cell_volume 541.002964
_symmetry_space_group_name_H-M "P -1"
_symmetry_group_IT_number 2
_symmetry_cell_setting 'triclinic'
loop_
_space_group_symop_operation_xyz
x,y,z
-x,-y,-z
loop_
_atom_site_type_symbol
_atom_site_label
_atom_site_fract_x
_atom_site_fract_y
_atom_site_fract_z
Si Si1 0.500000 0.500000 0.500000
Si Si2 0.899826 0.883057 0.264788
Si Si3 0.658666 0.126857 0.927857
Si Si4 0.941115 0.441884 0.386975
Si Si5 0.595717 0.924862 0.256664
Si Si6 0.123719 0.776500 0.296477
Si Si7 0.834251 0.431752 0.210417
Si Si8 0.521964 0.271853 0.735145
O O1 0.647957 0.511421 0.388104
O O2 0.408257 0.550098 0.751777
O O3 0.009203 0.872122 0.262694
O O4 0.899750 0.683826 0.360730
O O5 0.999903 0.803933 0.021036
O O6 0.682227 0.154161 0.456869
O O7 0.845009 0.821739 0.776466
O O8 0.704333 0.273796 0.880947
O O9 0.585733 0.196863 0.836621
O O10 0.557916 0.138943 0.170661
O O11 0.841156 0.450086 0.631293
O O12 0.880983 0.406488 0.323953
O O13 0.799076 0.658313 0.131446
O O14 0.547782 0.837623 0.210711
O O15 0.500000 0.000000 0.500000
O O16 0.000000 0.000000 0.500000
#
# Coordination Sequence:
#
# PCOD9024041 Si02
#       8
#     1   2   2   2   2   2   2   2
#     4  10  26  48  64 100 154 186 240 296 356 436
#     4  12  23  41  73 111 135 192 241 298 370 418
#     4  11  23  44  71 104 144 189 243 298 357 434
#     4  11  22  41  71 106 148 174 241 306 347 433
#     4  11  25  45  68 103 148 194 240 289 363 433
#     4  10  22  40  63 105 143 177 233 298 358 416
#     4  11  25  43  69 105 146 190 239 302 359 428
#     4  11  24  44  73  99 141 193 238 298 364 428
#
# _framework density 27.726281
#
# number of rings (size 3 to 8) (size 9 to 14) (size 15 to 20)
#    0.000    1.067    4.000    2.800    3.733    2.667 
#    0.000    0.000    0.000   10.400    0.000    0.000 
#    0.000    0.000    0.000    0.000    0.000    0.000 
#
# Total GULP energy -83803.796630 kJ/mol
# GULP energy per Si atom -5586.919775 kJ/mol
# Density = 2.766317 g / cm^3
# Si number density = 27.726281 Si / 1000 Ang^3
#
#
#
# Elastic Constant Matrix: (Units=GPa)
#
#
# Indices 1 2 3 4 5 6 
#
# 1 205.9382 33.0567 73.2796 -26.5644 25.5289 -17.4603
# 2 33.0567 106.5456 39.1850 -19.4953 1.6226 1.8779
# 3 73.2796 39.1850 129.0130 -20.2904 14.2257 -7.1257
# 4 -26.5644 -19.4953 -20.2904 70.4903 -0.6019 -1.6953
# 5 25.5289 1.6226 14.2257 -0.6019 42.8549 -14.0843
# 6 -17.4603 1.8779 -7.1257 -1.6953 -14.0843 50.5296
#
#
#
# Elastic Compliance Matrix: (Units=1/GPa)
#
#
# Indices 1 2 3 4 5 6 
#
# 1 0.006632 -0.000675 -0.002987 0.001461 -0.002503 0.001247
# 2 -0.000675 0.010973 -0.002756 0.001974 0.000675 -0.000776
# 3 -0.002987 -0.002756 0.010652 0.001169 -0.001580 0.000171
# 4 0.001461 0.001974 0.001169 0.015634 -0.000820 0.000892
# 5 -0.002503 0.000675 -0.001580 -0.000820 0.027453 0.006512
# 6 0.001247 -0.000776 0.000171 0.000892 0.006512 0.022119
#
#
# Mechanical properties :
#
#
# Convention : Reuss Voigt Hill
#
# Bulk Modulus (GPa) = 64.84877 81.39327 73.12102
# Shear Modulus (GPa) = 44.86700 52.50667 48.68684
#
# Velocity S-wave (km/s) = 4.02706 4.35645 4.19499
# Velocity P-wave (km/s) = 6.71287 7.39760 7.06354
#
# Compressibility (1/GPa) = 0.01542049
#
# Stress axis : x y z
#
# Youngs Moduli (GPa) = 150.79399 91.12910 93.87633
#
# Poissons Ratio (x) = 0.06156 0.28040
# Poissons Ratio (y) = 0.10186 0.25873
# Poissons Ratio (z) = 0.45041 0.25115
#
# Static dielectric constant tensor:
#      x y z
#    x 2.129220 -0.095840 -0.080320 
#    y -0.095840 2.737400 0.023750 
#    z -0.080320 0.023750 2.403190 
# 
# From -- ./inp_files/154115.got.cif
#   From: 2010.05.17/outbox.cif.g08.bks.cpg/sg2_78_cif.got.tgz:154115.got - 2010.06.03 11:33:40.
