data_PCOD9024864
_publ_section_title
;
Structure prediction by ZEFSAII (Michael W. Deem and Ramdas Pophale) SiO2 
 PCOD9024864
Probable space group: P -1
;
_chemical_formula_sum "Si O2"
_cell_formula_units_Z 16
_cell_length_a 6.422926
_cell_length_b 10.472577
_cell_length_c 13.634183
_cell_angle_alpha 55.402322
_cell_angle_beta 58.309491
_cell_angle_gamma 63.078634
_cell_volume 626.540254
_symmetry_space_group_name_H-M "P -1"
_symmetry_group_IT_number 2
_symmetry_cell_setting 'triclinic'
loop_
_space_group_symop_operation_xyz
x,y,z
-x,-y,-z
loop_
_atom_site_type_symbol
_atom_site_label
_atom_site_fract_x
_atom_site_fract_y
_atom_site_fract_z
Si Si1 0.145920 0.752207 0.254734
Si Si2 0.622503 0.506067 0.279656
Si Si3 0.073489 0.332499 0.001908
Si Si4 0.554441 0.106050 0.030878
Si Si5 0.083653 0.943716 0.372651
Si Si6 0.955844 0.739785 0.643788
Si Si7 0.370496 0.079945 0.704512
Si Si8 0.406575 0.744286 0.776708
O O1 0.337377 0.602763 0.319526
O O2 0.140682 0.899912 0.265534
O O3 0.256773 0.792633 0.105587
O O4 0.850082 0.764708 0.315860
O O5 0.775569 0.635354 0.145639
O O6 0.807203 0.406041 0.356718
O O7 0.613835 0.373050 0.256430
O O8 0.284523 0.221560 0.064205
O O9 0.000000 0.500000 0.000000
O O10 0.814953 0.274877 0.085325
O O11 0.646122 0.003102 0.148819
O O12 0.500000 0.000000 0.000000
O O13 0.916043 0.832284 0.509901
O O14 0.355496 0.886812 0.382626
O O15 0.001448 0.124605 0.349253
O O16 0.698019 0.691869 0.758591
O O17 0.363598 0.936021 0.692526
#
# Coordination Sequence:
#
# PCOD9024864 Si02
#       8
#     2   2   2   2   2   2   2   2
#     4  11  23  41  62  96 131 165 208 260 319 382
#     4  10  23  42  62  93 138 163 204 264 317 376
#     4   9  21  38  60  92 130 165 197 257 314 375
#     4  11  21  39  63  93 131 165 202 260 318 378
#     4  10  23  43  67  93 125 165 221 268 305 368
#     4  10  23  43  68  93 121 173 217 263 314 362
#     4  11  23  39  68  93 124 172 211 255 317 373
#     4  10  22  40  66  94 124 166 215 256 306 385
#
# _framework density 25.537065999999999
#
# number of rings (size 3 to 8) (size 9 to 14) (size 15 to 20)
#    0.000    1.750    1.250    1.875    7.000    3.000 
#    4.500    5.000    0.000    0.000    0.000    0.000 
#    0.000    0.000    0.000    0.000    0.000    0.000 
#
# Total GULP energy -89397.460377 kJ/mol
# GULP energy per Si atom -5587.341274 kJ/mol
# Density = 2.547894 g / cm^3
# Si number density = 25.537066 Si / 1000 Ang^3
#
#
#
# Elastic Constant Matrix: (Units=GPa)
#
#
# Indices 1 2 3 4 5 6 
#
# 1 69.0186 44.5553 13.8826 0.1566 -18.4590 -22.5510
# 2 44.5553 128.4871 11.5365 6.5219 0.4817 -54.6951
# 3 13.8826 11.5365 69.7892 3.1634 -0.6487 -2.7576
# 4 0.1566 6.5219 3.1634 28.0070 -0.7251 3.1961
# 5 -18.4590 0.4817 -0.6487 -0.7251 30.9407 7.1409
# 6 -22.5510 -54.6951 -2.7576 3.1961 7.1409 62.3894
#
#
#
# Elastic Compliance Matrix: (Units=1/GPa)
#
#
# Indices 1 2 3 4 5 6 
#
# 1 0.024566 -0.008742 -0.003459 0.002767 0.014967 -0.000792
# 2 -0.008742 0.016480 -0.000325 -0.005401 -0.008495 0.012523
# 3 -0.003459 -0.000325 0.015104 -0.001585 -0.001641 -0.000598
# 4 0.002767 -0.005401 -0.001585 0.037939 0.004024 -0.006209
# 5 0.014967 -0.008495 -0.001641 0.004024 0.043115 -0.007251
# 6 -0.000792 0.012523 -0.000598 -0.006209 -0.007251 0.027842
#
#
# Mechanical properties :
#
#
# Convention : Reuss Voigt Hill
#
# Bulk Modulus (GPa) = 32.15609 45.24931 38.70270
# Shear Modulus (GPa) = 24.94229 37.42210 31.18220
#
# Velocity S-wave (km/s) = 3.12863 3.83221 3.49815
# Velocity P-wave (km/s) = 5.06659 6.11054 5.61289
#
# Compressibility (1/GPa) = 0.03109830
#
# Stress axis : x y z
#
# Youngs Moduli (GPa) = 40.70707 60.67941 66.20941
#
# Poissons Ratio (x) = 0.53044 0.22903
# Poissons Ratio (y) = 0.35585 0.02150
# Poissons Ratio (z) = 0.14081 0.01970
#
# Static dielectric constant tensor:
#      x y z
#    x 2.105840 -0.025600 0.008820 
#    y -0.025600 1.981760 -0.003340 
#    z 0.008820 -0.003340 2.042500 
# 
# From -- ./inp_files/482705.got.cif
#   From: 2010.05.17/outbox.cif.g08.bks.cpg/sg2_242_cif.got.tgz:482705.got - 2010.06.03 11:33:40.
