data_PCOD9024972
_publ_section_title
;
Structure prediction by ZEFSAII (Michael W. Deem and Ramdas Pophale) SiO2 
 PCOD9024972
Probable space group: P -1
;
_chemical_formula_sum "Si O2"
_cell_formula_units_Z 15
_cell_length_a 17.347364
_cell_length_b 11.138059
_cell_length_c 17.077041
_cell_angle_alpha 32.731192
_cell_angle_beta 22.102340
_cell_angle_gamma 32.105626
_cell_volume 633.052133
_symmetry_space_group_name_H-M "P -1"
_symmetry_group_IT_number 2
_symmetry_cell_setting 'triclinic'
loop_
_space_group_symop_operation_xyz
x,y,z
-x,-y,-z
loop_
_atom_site_type_symbol
_atom_site_label
_atom_site_fract_x
_atom_site_fract_y
_atom_site_fract_z
Si Si1 0.959553 0.717878 0.665271
Si Si2 0.575997 0.554152 0.555308
Si Si3 0.006331 0.988177 0.678914
Si Si4 0.518589 0.129928 0.663672
Si Si5 0.314115 0.747774 0.036302
Si Si6 0.986966 0.780670 0.185037
Si Si7 0.500000 0.000000 0.500000
Si Si8 0.708562 0.751862 0.029080
O O1 0.960834 0.886545 0.500091
O O2 0.938922 0.470993 0.790123
O O3 0.198657 0.638353 0.523933
O O4 0.763922 0.833726 0.846921
O O5 0.601595 0.629745 0.400525
O O6 0.367323 0.468470 0.798615
O O7 0.533019 0.775873 0.531331
O O8 0.819635 0.182409 0.796123
O O9 0.227224 0.920260 0.556219
O O10 0.921686 0.768055 0.865128
O O11 0.469445 0.122582 0.806426
O O12 0.431773 0.940108 0.808760
O O13 0.145920 0.760026 0.119099
O O14 0.500000 0.500000 0.000000
O O15 0.733755 0.851778 0.403447
O O16 0.000000 0.000000 0.000000
#
# Coordination Sequence:
#
# PCOD9024972 Si02
#       8
#     2   2   2   2   2   2   1   2
#     4  11  25  42  65  96 132 176 224 279 336 398
#     4  11  24  42  68  99 131 171 221 281 342 401
#     4  11  26  45  66  96 135 179 227 277 334 404
#     4  11  25  44  68  99 135 176 225 282 338 400
#     4  11  25  44  70 102 138 179 224 277 342 410
#     4  11  23  42  68  99 133 173 222 278 340 403
#     4  10  22  40  66  98 132 166 212 272 334 396
#     4  11  25  44  68  95 132 177 227 277 337 402
#
# _framework density 23.694731999999998
#
# number of rings (size 3 to 8) (size 9 to 14) (size 15 to 20)
#    0.000    1.067    0.000    5.600    0.000   13.867 
#    0.000    0.000    0.000    0.000    0.000    0.000 
#    0.000    0.000    0.000    0.000    0.000    0.000 
#
# Total GULP energy -83575.069351 kJ/mol
# GULP energy per Si atom -5571.671290 kJ/mol
# Density = 2.364080 g / cm^3
# Si number density = 23.694732 Si / 1000 Ang^3
#
#
#
# Elastic Constant Matrix: (Units=GPa)
#
#
# Indices 1 2 3 4 5 6 
#
# 1 147.6598 63.1647 78.2166 0.7977 -29.2463 -4.3519
# 2 63.1647 83.7622 44.3733 5.9929 -8.0498 3.6685
# 3 78.2166 44.3733 133.5256 -4.1811 -11.3648 4.7734
# 4 0.7977 5.9929 -4.1811 39.1055 -2.6192 -2.9935
# 5 -29.2463 -8.0498 -11.3648 -2.6192 34.6951 -4.7253
# 6 -4.3519 3.6685 4.7734 -2.9935 -4.7253 47.0774
#
#
#
# Elastic Compliance Matrix: (Units=1/GPa)
#
#
# Indices 1 2 3 4 5 6 
#
# 1 0.014980 -0.007710 -0.005484 0.001208 0.009622 0.003584
# 2 -0.007710 0.018869 -0.002058 -0.003376 -0.003395 -0.002530
# 3 -0.005484 -0.002058 0.011360 0.001423 -0.001484 -0.001557
# 4 0.001208 -0.003376 0.001423 0.026589 0.003012 0.002223
# 5 0.009622 -0.003395 -0.001484 0.003012 0.036591 0.005169
# 6 0.003584 -0.002530 -0.001557 0.002223 0.005169 0.022588
#
#
# Mechanical properties :
#
#
# Convention : Reuss Voigt Hill
#
# Bulk Modulus (GPa) = 68.01016 81.82855 74.91936
# Shear Modulus (GPa) = 30.05098 36.12178 33.08638
#
# Velocity S-wave (km/s) = 3.56512 3.90868 3.74084
# Velocity P-wave (km/s) = 6.76105 7.41484 7.09547
#
# Compressibility (1/GPa) = 0.01470368
#
# Stress axis : x y z
#
# Youngs Moduli (GPa) = 66.75368 52.99648 88.02975
#
# Poissons Ratio (x) = 0.40861 0.48279
# Poissons Ratio (y) = 0.51467 0.18120
# Poissons Ratio (z) = 0.36610 0.10909
#
# Static dielectric constant tensor:
#      x y z
#    x 1.887760 0.059750 0.020980 
#    y 0.059750 1.834300 -0.021310 
#    z 0.020980 -0.021310 1.923640 
# 
# From -- ./inp_files/575900.got.cif
#   From: 2010.05.17/outbox.cif.g08.bks.cpg/sg2_288_cif.got.tgz:575900.got - 2010.06.03 11:33:40.
