data_PCOD9024773
_publ_section_title
;
Structure prediction by ZEFSAII (Michael W. Deem and Ramdas Pophale) SiO2 
 PCOD9024773
Probable space group: P -1
;
_chemical_formula_sum "Si O2"
_cell_formula_units_Z 15
_cell_length_a 12.054572
_cell_length_b 4.924563
_cell_length_c 18.351965
_cell_angle_alpha 79.971467
_cell_angle_beta 145.795375
_cell_angle_gamma 108.413282
_cell_volume 573.273043
_symmetry_space_group_name_H-M "P -1"
_symmetry_group_IT_number 2
_symmetry_cell_setting 'triclinic'
loop_
_space_group_symop_operation_xyz
x,y,z
-x,-y,-z
loop_
_atom_site_type_symbol
_atom_site_label
_atom_site_fract_x
_atom_site_fract_y
_atom_site_fract_z
Si Si1 0.500000 0.500000 0.500000
Si Si2 0.960879 0.535209 0.366452
Si Si3 0.288518 0.111196 0.720189
Si Si4 0.200851 0.824870 0.065977
Si Si5 0.097624 0.725750 0.278438
Si Si6 0.688715 0.565219 0.963785
Si Si7 0.238312 0.115997 0.214373
Si Si8 0.629938 0.655845 0.402256
O O1 0.278608 0.576372 0.380695
O O2 0.576554 0.712032 0.454502
O O3 0.894716 0.738870 0.378616
O O4 0.010354 0.725183 0.311246
O O5 0.165014 0.440126 0.490138
O O6 0.786442 0.221725 0.280834
O O7 0.466304 0.317879 0.860947
O O8 0.357452 0.136373 0.671036
O O9 0.328676 0.118435 0.078134
O O10 0.235101 0.859473 0.168898
O O11 0.235362 0.547908 0.063004
O O12 0.969603 0.815274 0.920980
O O13 0.218007 0.033238 0.292012
O O14 0.882252 0.592618 0.121733
O O15 0.446020 0.362599 0.301919
#
# Coordination Sequence:
#
# PCOD9024773 Si02
#       8
#     1   2   2   2   2   2   2   2
#     4  10  24  42  66 106 144 178 222 284 368 422
#     4  11  28  48  68 101 143 193 246 283 344 411
#     4  12  26  47  73  99 138 192 245 295 334 410
#     4  10  22  40  66 111 141 172 226 290 366 426
#     4  10  25  43  70 106 149 187 230 292 356 430
#     4  11  23  43  72 104 139 184 236 292 352 410
#     4  10  22  40  71 104 142 180 223 297 363 426
#     4  11  24  44  71 106 140 187 231 297 353 428
#
# _framework density 26.165538999999999
#
# number of rings (size 3 to 8) (size 9 to 14) (size 15 to 20)
#    0.000    1.333    1.333    2.400    1.867   14.400 
#    0.000    0.000    0.000    0.000    0.000    0.000 
#    0.000    0.000    0.000    0.000    0.000    0.000 
#
# Total GULP energy -83664.742029 kJ/mol
# GULP energy per Si atom -5577.649469 kJ/mol
# Density = 2.610598 g / cm^3
# Si number density = 26.165539 Si / 1000 Ang^3
#
#
#
# Elastic Constant Matrix: (Units=GPa)
#
#
# Indices 1 2 3 4 5 6 
#
# 1 153.8239 27.4377 31.0015 -5.0825 1.0580 26.7558
# 2 27.4377 97.0720 4.6449 7.3985 13.5577 15.2829
# 3 31.0015 4.6449 74.2759 -10.4934 21.5597 15.2651
# 4 -5.0825 7.3985 -10.4934 34.8001 15.3108 -2.7118
# 5 1.0580 13.5577 21.5597 15.3108 40.8665 0.4578
# 6 26.7558 15.2829 15.2651 -2.7118 0.4578 36.9888
#
#
#
# Elastic Compliance Matrix: (Units=1/GPa)
#
#
# Indices 1 2 3 4 5 6 
#
# 1 0.008120 -0.001818 -0.003331 -0.000834 0.002506 -0.003840
# 2 -0.001818 0.012167 0.002408 -0.000237 -0.005118 -0.004660
# 3 -0.003331 0.002408 0.023199 0.013313 -0.017861 -0.006962
# 4 -0.000834 -0.000237 0.013313 0.042638 -0.022882 -0.001384
# 5 0.002506 -0.005118 -0.017861 -0.022882 0.044038 0.005451
# 6 -0.003840 -0.004660 -0.006962 -0.001384 0.005451 0.034442
#
#
# Mechanical properties :
#
#
# Convention : Reuss Voigt Hill
#
# Bulk Modulus (GPa) = 26.31353 50.14890 38.23121
# Shear Modulus (GPa) = 27.35916 40.00359 33.68137
#
# Velocity S-wave (km/s) = 3.23711 3.91431 3.59171
# Velocity P-wave (km/s) = 4.90410 6.29577 5.64300
#
# Compressibility (1/GPa) = 0.03800327
#
# Stress axis : x y z
#
# Youngs Moduli (GPa) = 123.15878 82.19109 43.10469
#
# Poissons Ratio (x) = 0.14938 0.14359
# Poissons Ratio (y) = 0.22384 -0.10378
# Poissons Ratio (z) = 0.41028 -0.19788
#
# Static dielectric constant tensor:
#      x y z
#    x 2.072360 0.009650 -0.037860 
#    y 0.009650 2.128460 0.079920 
#    z -0.037860 0.079920 2.283740 
# 
# From -- ./inp_files/564091.got.cif
#   From: 2010.05.17/outbox.cif.g08.bks.cpg/sg2_283_cif.got.tgz:564091.got - 2010.06.03 11:33:40.
