data_PCOD9024486
_publ_section_title
;
Structure prediction by ZEFSAII (Michael W. Deem and Ramdas Pophale) SiO2 
 PCOD9024486
Probable space group: P -1
;
_chemical_formula_sum "Si O2"
_cell_formula_units_Z 15
_cell_length_a 12.664066
_cell_length_b 8.300425
_cell_length_c 11.484941
_cell_angle_alpha 136.338642
_cell_angle_beta 100.917147
_cell_angle_gamma 107.153058
_cell_volume 630.764955
_symmetry_space_group_name_H-M "P -1"
_symmetry_group_IT_number 2
_symmetry_cell_setting 'triclinic'
loop_
_space_group_symop_operation_xyz
x,y,z
-x,-y,-z
loop_
_atom_site_type_symbol
_atom_site_label
_atom_site_fract_x
_atom_site_fract_y
_atom_site_fract_z
Si Si1 0.058154 0.276648 0.070370
Si Si2 0.952569 0.894694 0.621359
Si Si3 0.461013 0.945757 0.130278
Si Si4 0.730347 0.217470 0.186012
Si Si5 0.500000 0.500000 0.500000
Si Si6 0.860917 0.116513 0.516203
Si Si7 0.319921 0.361367 0.186984
Si Si8 0.466143 0.260994 0.769915
O O1 0.049578 0.527123 0.248309
O O2 0.220707 0.438124 0.175243
O O3 0.000000 0.000000 0.000000
O O4 0.986378 0.113835 0.848491
O O5 0.845956 0.535259 0.437362
O O6 0.085513 0.943015 0.619201
O O7 0.886676 0.968830 0.547649
O O8 0.592027 0.014440 0.129630
O O9 0.483632 0.251342 0.285241
O O10 0.465483 0.873317 0.226670
O O11 0.319198 0.715904 0.907873
O O12 0.761481 0.991751 0.045448
O O13 0.363955 0.428031 0.365344
O O14 0.699917 0.967010 0.395884
O O15 0.458631 0.578377 0.251065
O O16 0.500000 0.500000 0.000000
#
# Coordination Sequence:
#
# PCOD9024486 Si02
#       8
#     2   2   2   2   1   2   2   2
#     4  12  28  46  71 103 139 184 236 285 339 414
#     4  11  26  48  72  96 141 187 232 286 340 418
#     4  10  22  40  65 100 135 175 226 277 346 407
#     4  10  22  43  70  96 134 182 228 274 345 412
#     4  10  24  40  62  94 142 172 222 278 334 414
#     4  11  27  47  70 104 136 186 234 281 354 408
#     4  11  25  44  68 107 137 177 229 282 349 408
#     4  12  23  42  73 102 139 175 225 294 344 408
#
# _framework density 23.780646999999998
#
# number of rings (size 3 to 8) (size 9 to 14) (size 15 to 20)
#    0.000    1.067    1.333    3.600    7.467    4.267 
#    0.000    2.667    0.000    0.000    0.000    0.000 
#    0.000    0.000    0.000    0.000    0.000    0.000 
#
# Total GULP energy -83648.352479 kJ/mol
# GULP energy per Si atom -5576.556832 kJ/mol
# Density = 2.372652 g / cm^3
# Si number density = 23.780647 Si / 1000 Ang^3
#
#
#
# Elastic Constant Matrix: (Units=GPa)
#
#
# Indices 1 2 3 4 5 6 
#
# 1 49.1104 11.7764 8.6078 6.0909 -0.4284 0.0468
# 2 11.7764 73.1975 19.0414 4.2508 4.3143 -3.9534
# 3 8.6078 19.0414 120.7778 4.3636 -7.4417 4.8933
# 4 6.0909 4.2508 4.3636 28.5071 -17.2605 -1.0252
# 5 -0.4284 4.3143 -7.4417 -17.2605 31.4999 0.2135
# 6 0.0468 -3.9534 4.8933 -1.0252 0.2135 21.5607
#
#
#
# Elastic Compliance Matrix: (Units=1/GPa)
#
#
# Indices 1 2 3 4 5 6 
#
# 1 0.021909 -0.002783 -0.001059 -0.005780 -0.002735 -0.000565
# 2 -0.002783 0.015502 -0.002539 -0.004334 -0.005158 0.003270
# 3 -0.001059 -0.002539 0.009007 0.000954 0.003001 -0.002492
# 4 -0.005780 -0.004334 0.000954 0.055828 0.031322 0.001346
# 5 -0.002735 -0.005158 0.003001 0.031322 0.050291 -0.000629
# 6 -0.000565 0.003270 -0.002492 0.001346 -0.000629 0.047617
#
#
# Mechanical properties :
#
#
# Convention : Reuss Voigt Hill
#
# Bulk Modulus (GPa) = 29.71368 35.77076 32.74222
# Shear Modulus (GPa) = 22.30787 29.89087 26.09937
#
# Velocity S-wave (km/s) = 3.06611 3.54918 3.31645
# Velocity P-wave (km/s) = 5.00567 5.64537 5.33512
#
# Compressibility (1/GPa) = 0.03365453
#
# Stress axis : x y z
#
# Youngs Moduli (GPa) = 45.64359 64.50666 111.02572
#
# Poissons Ratio (x) = 0.17952 0.11763
# Poissons Ratio (y) = 0.12702 0.28194
# Poissons Ratio (z) = 0.04836 0.16381
#
# Static dielectric constant tensor:
#      x y z
#    x 2.009790 -0.071840 0.022430 
#    y -0.071840 1.993190 -0.000380 
#    z 0.022430 -0.000380 1.870850 
# 
# From -- ./inp_files/418667.got.cif
#   From: 2010.05.17/outbox.cif.g08.bks.cpg/sg2_210_cif.got.tgz:418667.got - 2010.06.03 11:33:40.
