data_PCOD9024421
_publ_section_title
;
Structure prediction by ZEFSAII (Michael W. Deem and Ramdas Pophale) SiO2 
 PCOD9024421
Probable space group: P -1
;
_chemical_formula_sum "Si O2"
_cell_formula_units_Z 12
_cell_length_a 8.131396
_cell_length_b 13.962340
_cell_length_c 15.969859
_cell_angle_alpha 155.921690
_cell_angle_beta 122.424207
_cell_angle_gamma 47.665789
_cell_volume 527.891767
_symmetry_space_group_name_H-M "P -1"
_symmetry_group_IT_number 2
_symmetry_cell_setting 'triclinic'
loop_
_space_group_symop_operation_xyz
x,y,z
-x,-y,-z
loop_
_atom_site_type_symbol
_atom_site_label
_atom_site_fract_x
_atom_site_fract_y
_atom_site_fract_z
Si Si1 0.919882 0.666235 0.216336
Si Si2 0.695006 0.088686 0.046840
Si Si3 0.883407 0.460392 0.354561
Si Si4 0.715414 0.949602 0.131753
Si Si5 0.962704 0.060407 0.674861
Si Si6 0.586503 0.045072 0.648112
O O1 0.649182 0.778798 0.223224
O O2 0.944010 0.856487 0.443599
O O3 0.030061 0.713248 0.200899
O O4 0.059773 0.359988 0.048490
O O5 0.718494 0.347461 0.240496
O O6 0.665077 0.084646 0.134909
O O7 0.494944 0.089944 0.940772
O O8 0.921419 0.793120 0.849735
O O9 0.000000 0.500000 0.500000
O O10 0.748753 0.749567 0.500493
O O11 0.791830 0.099145 0.337197
O O12 0.750940 0.158352 0.759822
O O13 0.500000 0.000000 0.500000
#
# Coordination Sequence:
#
# PCOD9024421 Si02
#       6
#     2   2   2   2   2   2
#     4  10  23  40  65  98 130 167 216 273 320 385
#     4  10  25  41  65  92 133 170 215 266 316 398
#     4  11  24  45  66  94 129 176 218 264 328 387
#     4  11  23  43  62  97 130 169 215 265 327 387
#     4  10  22  40  64  96 128 172 211 264 333 376
#     4  10  22  41  66  95 128 167 216 271 320 380
#
# _framework density 22.731933999999999
#
# number of rings (size 3 to 8) (size 9 to 14) (size 15 to 20)
#    0.000    1.667    0.000    3.500    9.333    0.667 
#    0.000    4.167    0.000    0.000    0.000    0.000 
#    0.000    0.000    0.000    0.000    0.000    0.000 
#
# Total GULP energy -67038.926474 kJ/mol
# GULP energy per Si atom -5586.577206 kJ/mol
# Density = 2.268019 g / cm^3
# Si number density = 22.731934 Si / 1000 Ang^3
#
#
#
# Elastic Constant Matrix: (Units=GPa)
#
#
# Indices 1 2 3 4 5 6 
#
# 1 157.1087 54.3615 46.8402 2.3031 33.7546 -24.8851
# 2 54.3615 129.3984 20.8166 -1.8387 22.4448 -13.2537
# 3 46.8402 20.8166 69.9523 10.0143 22.2541 -4.6804
# 4 2.3031 -1.8387 10.0143 35.1130 -7.0667 4.7217
# 5 33.7546 22.4448 22.2541 -7.0667 30.1244 -6.6960
# 6 -24.8851 -13.2537 -4.6804 4.7217 -6.6960 34.8877
#
#
#
# Elastic Compliance Matrix: (Units=1/GPa)
#
#
# Indices 1 2 3 4 5 6 
#
# 1 0.010477 -0.002149 -0.003628 -0.001811 -0.006744 0.005121
# 2 -0.002149 0.009534 0.000281 -0.000569 -0.004749 0.001292
# 3 -0.003628 0.000281 0.022770 -0.009182 -0.015371 -0.001134
# 4 -0.001811 -0.000569 -0.009182 0.035090 0.016508 -0.004321
# 5 -0.006744 -0.004749 -0.015371 0.016508 0.059637 0.000535
# 6 0.005121 0.001292 -0.001134 -0.004321 0.000535 0.033342
#
#
# Mechanical properties :
#
#
# Convention : Reuss Voigt Hill
#
# Bulk Modulus (GPa) = 31.45926 66.72179 49.09053
# Shear Modulus (GPa) = 25.98207 35.65445 30.81826
#
# Velocity S-wave (km/s) = 3.38446 3.96469 3.68601
# Velocity P-wave (km/s) = 5.39834 7.09744 6.30538
#
# Compressibility (1/GPa) = 0.03178714
#
# Stress axis : x y z
#
# Youngs Moduli (GPa) = 95.44624 104.89026 43.91731
#
# Poissons Ratio (x) = 0.22543 0.15935
# Poissons Ratio (y) = 0.20513 -0.01233
# Poissons Ratio (z) = 0.34632 -0.02945
#
# Static dielectric constant tensor:
#      x y z
#    x 1.913660 -0.005160 -0.032760 
#    y -0.005160 1.815820 -0.066150 
#    z -0.032760 -0.066150 1.857390 
# 
# From -- ./inp_files/238267.got.cif
#   From: 2010.05.17/outbox.cif.g08.bks.cpg/sg2_120_cif.got.tgz:238267.got - 2010.06.03 11:33:40.
