data_PCOD9024136
_publ_section_title
;
Structure prediction by ZEFSAII (Michael W. Deem and Ramdas Pophale) SiO2 
 PCOD9024136
Probable space group: P -1
;
_chemical_formula_sum "Si O2"
_cell_formula_units_Z 12
_cell_length_a 14.490011
_cell_length_b 16.214976
_cell_length_c 7.321132
_cell_angle_alpha 132.096567
_cell_angle_beta 41.153427
_cell_angle_gamma 154.854709
_cell_volume 480.610347
_symmetry_space_group_name_H-M "P -1"
_symmetry_group_IT_number 2
_symmetry_cell_setting 'triclinic'
loop_
_space_group_symop_operation_xyz
x,y,z
-x,-y,-z
loop_
_atom_site_type_symbol
_atom_site_label
_atom_site_fract_x
_atom_site_fract_y
_atom_site_fract_z
Si Si1 0.936261 0.827969 0.824553
Si Si2 0.581770 0.296677 0.127500
Si Si3 0.644101 0.552168 0.536377
Si Si4 0.796547 0.118088 0.801308
Si Si5 0.128921 0.623020 0.751301
Si Si6 0.165455 0.446054 0.202932
O O1 0.703558 0.663044 0.788869
O O2 0.871982 0.706592 0.912484
O O3 0.154192 0.900526 0.501457
O O4 0.000000 0.000000 0.000000
O O5 0.526307 0.354709 0.447184
O O6 0.374712 0.072375 0.110938
O O7 0.617767 0.378258 0.998076
O O8 0.854712 0.429335 0.950609
O O9 0.500000 0.500000 0.500000
O O10 0.922933 0.706965 0.283627
O O11 0.720763 0.195326 0.074384
O O12 0.211420 0.554237 0.470851
O O13 0.076404 0.658573 0.692743
#
# Coordination Sequence:
#
# PCOD9024136 Si02
#       6
#     2   2   2   2   2   2
#     4  10  22  40  63  94 127 163 214 265 308 367
#     4   9  18  38  61  91 121 166 209 250 318 380
#     4   9  21  40  61  83 125 174 206 249 314 381
#     4   9  20  38  64  89 122 167 214 251 311 383
#     4   8  18  38  64  87 129 164 208 244 323 387
#     4   9  18  38  62  90 128 163 203 264 311 366
#
# _framework density 24.968254000000002
#
# number of rings (size 3 to 8) (size 9 to 14) (size 15 to 20)
#    2.000    1.000    0.000    0.000    0.000    4.667 
#    0.000    5.833    0.000    1.000    0.000    0.000 
#    0.000    0.000    0.000    0.000    0.000    0.000 
#
# Total GULP energy -66819.845687 kJ/mol
# GULP energy per Si atom -5568.320474 kJ/mol
# Density = 2.491143 g / cm^3
# Si number density = 24.968254 Si / 1000 Ang^3
#
#
#
# Elastic Constant Matrix: (Units=GPa)
#
#
# Indices 1 2 3 4 5 6 
#
# 1 113.0944 21.7174 10.4891 10.7935 3.4736 -32.7527
# 2 21.7174 153.9302 50.3707 32.0279 1.0735 -48.3954
# 3 10.4891 50.3707 127.1471 43.3715 0.6547 -19.5510
# 4 10.7935 32.0279 43.3715 50.4677 1.7788 -7.0923
# 5 3.4736 1.0735 0.6547 1.7788 18.2062 -3.5447
# 6 -32.7527 -48.3954 -19.5510 -7.0923 -3.5447 37.9608
#
#
#
# Elastic Compliance Matrix: (Units=1/GPa)
#
#
# Indices 1 2 3 4 5 6 
#
# 1 0.012909 0.003447 0.001281 -0.003891 0.000692 0.015530
# 2 0.003447 0.013402 -0.000602 -0.006175 0.002850 0.018863
# 3 0.001281 -0.000602 0.012000 -0.009567 0.001238 0.004847
# 4 -0.003891 -0.006175 -0.009567 0.031424 -0.003689 -0.010631
# 5 0.000692 0.002850 0.001238 -0.003689 0.056788 0.009481
# 6 0.015530 0.018863 0.004847 -0.010631 0.009481 0.065185
#
#
# Mechanical properties :
#
#
# Convention : Reuss Voigt Hill
#
# Bulk Modulus (GPa) = 21.47546 62.14732 41.81139
# Shear Modulus (GPa) = 25.12842 42.09991 33.61417
#
# Velocity S-wave (km/s) = 3.17585 4.11072 3.67314
# Velocity P-wave (km/s) = 4.69764 6.89023 5.89674
#
# Compressibility (1/GPa) = 0.04656477
#
# Stress axis : x y z
#
# Youngs Moduli (GPa) = 77.46480 74.61296 83.33285
#
# Poissons Ratio (x) = -0.25717 -0.10678
# Poissons Ratio (y) = -0.26700 0.05013
# Poissons Ratio (z) = -0.09926 0.04489
#
# Static dielectric constant tensor:
#      x y z
#    x 2.090410 0.029900 -0.009770 
#    y 0.029900 1.907630 -0.025790 
#    z -0.009770 -0.025790 2.229610 
# 
# From -- ./inp_files/336795.got.cif
#   From: 2010.05.17/outbox.cif.g08.bks.cpg/sg2_169_cif.got.tgz:336795.got - 2010.06.03 11:33:40.
