data_PCOD9024622
_publ_section_title
;
Structure prediction by ZEFSAII (Michael W. Deem and Ramdas Pophale) SiO2 
 PCOD9024622
Probable space group: P -1
;
_chemical_formula_sum "Si O2"
_cell_formula_units_Z 10
_cell_length_a 5.021584
_cell_length_b 8.469139
_cell_length_c 15.578630
_cell_angle_alpha 135.471847
_cell_angle_beta 97.823047
_cell_angle_gamma 64.303241
_cell_volume 402.663485
_symmetry_space_group_name_H-M "P -1"
_symmetry_group_IT_number 2
_symmetry_cell_setting 'triclinic'
loop_
_space_group_symop_operation_xyz
x,y,z
-x,-y,-z
loop_
_atom_site_type_symbol
_atom_site_label
_atom_site_fract_x
_atom_site_fract_y
_atom_site_fract_z
Si Si1 0.079101 0.653766 0.791128
Si Si2 0.876774 0.275251 0.854208
Si Si3 0.375182 0.815265 0.017157
Si Si4 0.610974 0.862560 0.303556
Si Si5 0.311134 0.438600 0.537353
O O1 0.257712 0.749126 0.899267
O O2 0.145707 0.378487 0.723703
O O3 0.218402 0.605042 0.683663
O O4 0.728184 0.883834 0.868229
O O5 0.718432 0.585460 0.957006
O O6 0.670838 0.185972 0.753168
O O7 0.213868 0.141469 0.777942
O O8 0.817746 0.218087 0.925906
O O9 0.493264 0.135380 0.448729
O O10 0.500000 0.500000 0.500000
O O11 0.000000 0.500000 0.500000
#
# Coordination Sequence:
#
# PCOD9024622 Si02
#       5
#     2   2   2   2   2
#     4  10  22  40  65  95 128 164 208 259 311 367
#     4  10  22  41  67  94 127 166 205 252 310 373
#     4   9  20  40  64  95 130 165 205 253 310 373
#     4  11  23  42  66  94 126 163 209 258 309 369
#     4  12  26  45  67  90 124 167 213 260 311 370
#
# _framework density 24.834631999999999
#
# number of rings (size 3 to 8) (size 9 to 14) (size 15 to 20)
#    0.000    1.600    0.000    4.200    0.000   11.200 
#    0.000   15.000    0.000    0.000    0.000    0.000 
#    0.000    0.000    0.000    0.000    0.000    0.000 
#
# Total GULP energy -56045.291254 kJ/mol
# GULP energy per Si atom -5604.529125 kJ/mol
# Density = 2.477811 g / cm^3
# Si number density = 24.834632 Si / 1000 Ang^3
#
#
#
# Elastic Constant Matrix: (Units=GPa)
#
#
# Indices 1 2 3 4 5 6 
#
# 1 71.0155 3.6430 -4.4048 12.9055 -6.6561 7.0291
# 2 3.6430 121.0555 52.0921 21.8552 9.2146 0.7176
# 3 -4.4048 52.0921 164.5897 19.5359 -2.7277 -2.4191
# 4 12.9055 21.8552 19.5359 63.5415 3.4181 -0.6398
# 5 -6.6561 9.2146 -2.7277 3.4181 20.4409 1.4838
# 6 7.0291 0.7176 -2.4191 -0.6398 1.4838 20.7492
#
#
#
# Elastic Compliance Matrix: (Units=1/GPa)
#
#
# Indices 1 2 3 4 5 6 
#
# 1 0.016102 -0.000782 0.001153 -0.003782 0.006810 -0.005897
# 2 -0.000782 0.010412 -0.003142 -0.002190 -0.004989 -0.000172
# 3 0.001153 -0.003142 0.007342 -0.001570 0.003011 0.000310
# 4 -0.003782 -0.002190 -0.001570 0.017955 -0.003600 0.001985
# 5 0.006810 -0.004989 0.003011 -0.003600 0.054814 -0.005814
# 6 -0.005897 -0.000172 0.000310 0.001985 -0.005814 0.050711
#
#
# Mechanical properties :
#
#
# Convention : Reuss Voigt Hill
#
# Bulk Modulus (GPa) = 35.31488 51.03571 43.17529
# Shear Modulus (GPa) = 29.01656 41.30168 35.15912
#
# Velocity S-wave (km/s) = 3.42188 4.08250 3.76670
# Velocity P-wave (km/s) = 5.46473 6.54349 6.02829
#
# Compressibility (1/GPa) = 0.02831668
#
# Stress axis : x y z
#
# Youngs Moduli (GPa) = 62.10287 96.04091 136.20864
#
# Poissons Ratio (x) = 0.07506 -0.15710
# Poissons Ratio (y) = 0.04853 0.42791
# Poissons Ratio (z) = -0.07163 0.30172
#
# Static dielectric constant tensor:
#      x y z
#    x 1.915570 -0.001680 0.028240 
#    y -0.001680 2.024470 0.031770 
#    z 0.028240 0.031770 1.935470 
# 
# From -- ./inp_files/17143.got.cif
#   From: 2010.05.17/outbox.cif.g08.bks.cpg/sg2_9_cif.got.tgz:17143.got - 2010.06.03 11:33:40.
