data_PCOD9024505
_publ_section_title
;
Structure prediction by ZEFSAII (Michael W. Deem and Ramdas Pophale) SiO2 
 PCOD9024505
Probable space group: P -1
;
_chemical_formula_sum "Si O2"
_cell_formula_units_Z 15
_cell_length_a 12.077861
_cell_length_b 17.129938
_cell_length_c 18.127254
_cell_angle_alpha 18.218113
_cell_angle_beta 151.829694
_cell_angle_gamma 149.284334
_cell_volume 547.148472
_symmetry_space_group_name_H-M "P -1"
_symmetry_group_IT_number 2
_symmetry_cell_setting 'triclinic'
loop_
_space_group_symop_operation_xyz
x,y,z
-x,-y,-z
loop_
_atom_site_type_symbol
_atom_site_label
_atom_site_fract_x
_atom_site_fract_y
_atom_site_fract_z
Si Si1 0.813546 0.661394 0.102681
Si Si2 0.432102 0.282241 0.539650
Si Si3 0.127561 0.361486 0.113697
Si Si4 0.609293 0.777419 0.728647
Si Si5 0.218751 0.339415 0.657164
Si Si6 0.556798 0.825388 0.924183
Si Si7 0.000000 0.000000 0.500000
Si Si8 0.265024 0.862888 0.023699
O O1 0.607996 0.445768 0.204684
O O2 0.710926 0.883623 0.887405
O O3 0.052123 0.553211 0.358615
O O4 0.782241 0.687476 0.973351
O O5 0.512378 0.546714 0.310026
O O6 0.172444 0.152737 0.527420
O O7 0.483918 0.070692 0.700107
O O8 0.623550 0.289955 0.709997
O O9 0.278108 0.167676 0.334062
O O10 0.304130 0.628164 0.961427
O O11 0.068022 0.254130 0.256582
O O12 0.896888 0.316321 0.966751
O O13 0.500000 0.000000 0.500000
O O14 0.248541 0.264845 0.825778
O O15 0.146646 0.089917 0.789110
O O16 0.500000 0.000000 0.000000
#
# Coordination Sequence:
#
# PCOD9024505 Si02
#       8
#     2   2   2   2   2   2   1   2
#     4  10  22  40  65 104 132 181 223 281 345 403
#     4  11  25  44  65 100 136 185 227 278 348 403
#     4  11  23  45  67 100 131 178 230 283 335 409
#     4  10  22  40  67  97 139 178 225 280 343 408
#     4  11  23  43  67  99 143 173 225 289 338 418
#     4  10  24  42  71  98 140 176 230 279 345 413
#     4  12  24  42  70  96 132 180 236 280 344 396
#     4  11  24  44  66  96 134 182 230 280 343 402
#
# _framework density 27.414861999999999
#
# number of rings (size 3 to 8) (size 9 to 14) (size 15 to 20)
#    0.000    1.333    2.667    2.000    1.867    3.733 
#    4.800    0.000    0.000    0.000    0.000    0.000 
#    0.000    0.000    0.000    0.000    0.000    0.000 
#
# Total GULP energy -83654.388413 kJ/mol
# GULP energy per Si atom -5576.959228 kJ/mol
# Density = 2.735246 g / cm^3
# Si number density = 27.414862 Si / 1000 Ang^3
#
#
#
# Elastic Constant Matrix: (Units=GPa)
#
#
# Indices 1 2 3 4 5 6 
#
# 1 107.5763 12.3716 9.5150 2.9676 -8.6043 12.1954
# 2 12.3716 169.5303 23.3264 -0.1555 -3.8486 10.6348
# 3 9.5150 23.3264 52.1577 21.8361 3.7841 -2.1496
# 4 2.9676 -0.1555 21.8361 42.1524 0.3731 -11.0229
# 5 -8.6043 -3.8486 3.7841 0.3731 46.9917 1.3206
# 6 12.1954 10.6348 -2.1496 -11.0229 1.3206 38.0863
#
#
#
# Elastic Compliance Matrix: (Units=1/GPa)
#
#
# Indices 1 2 3 4 5 6 
#
# 1 0.010062 -0.000231 -0.001705 -0.000772 0.002067 -0.003549
# 2 -0.000231 0.006533 -0.003636 0.001512 0.000817 -0.001546
# 3 -0.001705 -0.003636 0.027213 -0.014208 -0.002663 -0.000923
# 4 -0.000772 0.001512 -0.014208 0.033405 0.000618 0.008670
# 5 0.002067 0.000817 -0.002663 0.000618 0.021981 -0.001624
# 6 -0.003549 -0.001546 -0.000923 0.008670 -0.001624 0.030338
#
#
# Mechanical properties :
#
#
# Convention : Reuss Voigt Hill
#
# Bulk Modulus (GPa) = 30.61431 46.63228 38.62329
# Shear Modulus (GPa) = 32.98961 44.38283 38.68622
#
# Velocity S-wave (km/s) = 3.47269 4.02796 3.76059
# Velocity P-wave (km/s) = 5.22214 6.21928 5.74239
#
# Compressibility (1/GPa) = 0.03266446
#
# Stress axis : x y z
#
# Youngs Moduli (GPa) = 99.38364 153.07740 36.74705
#
# Poissons Ratio (x) = 0.03533 0.06266
# Poissons Ratio (y) = 0.02294 0.13359
# Poissons Ratio (z) = 0.16948 0.55652
#
# Static dielectric constant tensor:
#      x y z
#    x 1.686190 0.182740 -0.095760 
#    y 0.182740 2.199850 0.120790 
#    z -0.095760 0.120790 2.188330 
# 
# From -- ./inp_files/570319.got.cif
#   From: 2010.05.17/outbox.cif.g08.bks.cpg/sg2_286_cif.got.tgz:570319.got - 2010.06.03 11:33:40.
