data_PCOD9024584
_publ_section_title
;
Structure prediction by ZEFSAII (Michael W. Deem and Ramdas Pophale) SiO2 
 PCOD9024584
Probable space group: P -1
;
_chemical_formula_sum "Si O2"
_cell_formula_units_Z 14
_cell_length_a 8.835578
_cell_length_b 5.399163
_cell_length_c 17.702972
_cell_angle_alpha 95.032204
_cell_angle_beta 52.176717
_cell_angle_gamma 86.911714
_cell_volume 658.266585
_symmetry_space_group_name_H-M "P -1"
_symmetry_group_IT_number 2
_symmetry_cell_setting 'triclinic'
loop_
_space_group_symop_operation_xyz
x,y,z
-x,-y,-z
loop_
_atom_site_type_symbol
_atom_site_label
_atom_site_fract_x
_atom_site_fract_y
_atom_site_fract_z
Si Si1 0.182974 0.057763 0.396596
Si Si2 0.043991 0.201670 0.052957
Si Si3 0.298084 0.893299 0.063151
Si Si4 0.694066 0.976001 0.488127
Si Si5 0.054212 0.575557 0.612760
Si Si6 0.690816 0.468594 0.094419
Si Si7 0.738382 0.351407 0.770343
O O1 0.347302 0.998293 0.408043
O O2 0.112798 0.341121 0.397731
O O3 0.214053 0.878514 0.309661
O O4 0.000000 0.000000 0.500000
O O5 0.848781 0.396723 0.110152
O O6 0.109538 0.096829 0.111402
O O7 0.233519 0.296231 0.962215
O O8 0.000000 0.000000 0.000000
O O9 0.284816 0.751265 0.141477
O O10 0.295691 0.720537 0.985427
O O11 0.500000 0.000000 0.000000
O O12 0.809579 0.691386 0.441551
O O13 0.500000 0.000000 0.500000
O O14 0.818169 0.194047 0.425218
O O15 0.908657 0.524968 0.723081
O O16 0.469873 0.507919 0.187432
#
# Coordination Sequence:
#
# PCOD9024584 Si02
#       7
#     2   2   2   2   2   2   2
#     4  10  23  44  72  95 138 177 228 282 349 411
#     4   9  20  41  64  88 133 177 230 275 350 404
#     4  11  23  39  66  97 137 181 231 284 343 408
#     4  11  24  46  74 100 140 181 223 289 359 411
#     4  11  23  44  71 103 133 178 232 283 343 421
#     4  10  22  40  65  93 132 183 223 286 344 405
#     4  12  24  39  70 103 131 179 242 284 339 406
#
# _framework density 21.267976999999998
#
# number of rings (size 3 to 8) (size 9 to 14) (size 15 to 20)
#    0.000    1.429    4.286    1.286    4.000    0.000 
#    0.000    7.143    0.000    0.000    0.000    0.000 
#    0.000    0.000    0.000    0.000    0.000    0.000 
#
# Total GULP energy -77950.236946 kJ/mol
# GULP energy per Si atom -5567.874068 kJ/mol
# Density = 2.121957 g / cm^3
# Si number density = 21.267977 Si / 1000 Ang^3
#
#
#
# Elastic Constant Matrix: (Units=GPa)
#
#
# Indices 1 2 3 4 5 6 
#
# 1 138.0010 47.2029 38.9031 -13.2265 -4.0898 -14.5763
# 2 47.2029 109.0092 44.4316 -17.1145 -4.1603 -4.3304
# 3 38.9031 44.4316 86.8840 -6.2290 -7.8196 -3.7191
# 4 -13.2265 -17.1145 -6.2290 39.9445 6.0189 -2.7625
# 5 -4.0898 -4.1603 -7.8196 6.0189 23.2129 -3.9117
# 6 -14.5763 -4.3304 -3.7191 -2.7625 -3.9117 44.4532
#
#
#
# Elastic Compliance Matrix: (Units=1/GPa)
#
#
# Indices 1 2 3 4 5 6 
#
# 1 0.009323 -0.002597 -0.002578 0.001712 0.000324 0.002723
# 2 -0.002597 0.013069 -0.005307 0.004063 -0.000931 0.000148
# 3 -0.002578 -0.005307 0.015677 -0.001307 0.004256 0.000243
# 4 0.001712 0.004063 -0.001307 0.028242 -0.006390 0.002041
# 5 0.000324 -0.000931 0.004256 -0.006390 0.046749 0.004088
# 6 0.002723 0.000148 0.000243 0.002041 0.004088 0.023910
#
#
# Mechanical properties :
#
#
# Convention : Reuss Voigt Hill
#
# Bulk Modulus (GPa) = 58.45883 66.10772 62.28327
# Shear Modulus (GPa) = 30.55567 35.07922 32.81745
#
# Velocity S-wave (km/s) = 3.79449 4.06568 3.93242
# Velocity P-wave (km/s) = 6.83696 7.29317 7.06875
#
# Compressibility (1/GPa) = 0.01710606
#
# Stress axis : x y z
#
# Youngs Moduli (GPa) = 107.26671 76.51518 63.78572
#
# Poissons Ratio (x) = 0.19870 0.16443
# Poissons Ratio (y) = 0.27855 0.33851
# Poissons Ratio (z) = 0.27652 0.40606
#
# Static dielectric constant tensor:
#      x y z
#    x 1.810900 -0.041480 -0.008140 
#    y -0.041480 1.907530 0.030610 
#    z -0.008140 0.030610 1.775280 
# 
# From -- ./inp_files/553398.got.cif
#   From: 2010.05.17/outbox.cif.g08.bks.cpg/sg2_277_cif.got.tgz:553398.got - 2010.06.03 11:33:40.
