data_PCOD9024046
_publ_section_title
;
Structure prediction by ZEFSAII (Michael W. Deem and Ramdas Pophale) SiO2 
 PCOD9024046
Probable space group: P -1
;
_chemical_formula_sum "Si O2"
_cell_formula_units_Z 16
_cell_length_a 9.726208
_cell_length_b 17.891702
_cell_length_c 10.710561
_cell_angle_alpha 25.456319
_cell_angle_beta 107.641661
_cell_angle_gamma 116.079847
_cell_volume 697.952114
_symmetry_space_group_name_H-M "P -1"
_symmetry_group_IT_number 2
_symmetry_cell_setting 'triclinic'
loop_
_space_group_symop_operation_xyz
x,y,z
-x,-y,-z
loop_
_atom_site_type_symbol
_atom_site_label
_atom_site_fract_x
_atom_site_fract_y
_atom_site_fract_z
Si Si1 0.727242 0.091800 0.782453
Si Si2 0.759222 0.650859 0.831205
Si Si3 0.518255 0.282689 0.464104
Si Si4 0.173515 0.150866 0.189680
Si Si5 0.481306 0.481612 0.671278
Si Si6 0.196971 0.267050 0.627912
Si Si7 0.015253 0.698367 0.262527
Si Si8 0.950686 0.214156 0.441195
O O1 0.558834 0.102524 0.726070
O O2 0.823201 0.190682 0.785036
O O3 0.820877 0.214441 0.503328
O O4 0.732692 0.885853 0.083585
O O5 0.654788 0.735634 0.593486
O O6 0.822112 0.795648 0.745963
O O7 0.905320 0.630451 0.830755
O O8 0.638512 0.453031 0.154657
O O9 0.555797 0.361860 0.496240
O O10 0.343571 0.287670 0.971033
O O11 0.033684 0.193517 0.022841
O O12 0.139887 0.940310 0.454570
O O13 0.500000 0.500000 0.500000
O O14 0.663348 0.539185 0.674719
O O15 0.116378 0.326139 0.631149
O O16 0.060413 0.160315 0.651645
O O17 0.000000 0.500000 0.500000
#
# Coordination Sequence:
#
# PCOD9024046 Si02
#       8
#     2   2   2   2   2   2   2   2
#     4  11  22  39  66  93 133 162 207 271 322 376
#     4  10  22  40  63  87 124 174 218 253 308 379
#     4  10  23  41  60  94 128 169 210 262 315 377
#     4  11  21  38  63  90 127 166 207 266 310 372
#     4  11  20  36  62  90 126 162 209 254 322 373
#     4  11  21  39  64  94 129 168 201 264 330 376
#     4  11  20  36  62  95 127 160 209 263 322 370
#     4  11  20  41  65  90 125 168 211 258 323 375
#
# _framework density 22.924208
#
# number of rings (size 3 to 8) (size 9 to 14) (size 15 to 20)
#    0.000    1.250    5.000    2.625    0.000    1.000 
#    0.000    0.625    0.000    0.000    0.000    0.000 
#    0.000    0.000    0.000    0.000    0.000    0.000 
#
# Total GULP energy -89240.496814 kJ/mol
# GULP energy per Si atom -5577.531051 kJ/mol
# Density = 2.287203 g / cm^3
# Si number density = 22.924208 Si / 1000 Ang^3
#
#
#
# Elastic Constant Matrix: (Units=GPa)
#
#
# Indices 1 2 3 4 5 6 
#
# 1 90.6308 14.1156 24.3475 0.2438 -16.3896 -16.3760
# 2 14.1156 114.0626 6.6617 -2.1059 -3.6748 -9.0689
# 3 24.3475 6.6617 56.1585 -6.6781 -15.9684 -12.4899
# 4 0.2438 -2.1059 -6.6781 24.0754 -6.7342 -9.3595
# 5 -16.3896 -3.6748 -15.9684 -6.7342 35.1878 -5.1181
# 6 -16.3760 -9.0689 -12.4899 -9.3595 -5.1181 28.2307
#
#
#
# Elastic Compliance Matrix: (Units=1/GPa)
#
#
# Indices 1 2 3 4 5 6 
#
# 1 0.015420 -0.000321 0.000619 0.008511 0.011087 0.013947
# 2 -0.000321 0.009341 0.001748 0.004421 0.003287 0.005650
# 3 0.000619 0.001748 0.035405 0.029596 0.026747 0.031246
# 4 0.008511 0.004421 0.029596 0.082870 0.041639 0.054474
# 5 0.011087 0.003287 0.026747 0.041639 0.060445 0.044084
# 6 0.013947 0.005650 0.031246 0.054474 0.044084 0.085204
#
#
# Mechanical properties :
#
#
# Convention : Reuss Voigt Hill
#
# Bulk Modulus (GPa) = 15.56224 39.01129 27.28676
# Shear Modulus (GPa) = 16.33924 31.88059 24.10991
#
# Velocity S-wave (km/s) = 2.67264 3.73325 3.24655
# Velocity P-wave (km/s) = 4.04070 5.96970 5.09728
#
# Compressibility (1/GPa) = 0.06425810
#
# Stress axis : x y z
#
# Youngs Moduli (GPa) = 64.85287 107.04944 28.24491
#
# Poissons Ratio (x) = 0.03438 -0.01750
# Poissons Ratio (y) = 0.02083 -0.04937
# Poissons Ratio (z) = -0.04017 -0.18712
#
# Static dielectric constant tensor:
#      x y z
#    x 1.879770 0.003320 -0.046880 
#    y 0.003320 1.901030 0.012640 
#    z -0.046880 0.012640 1.926350 
# 
# From -- ./inp_files/402671.got.cif
#   From: 2010.05.17/outbox.cif.g08.bks.cpg/sg2_202_cif.got.tgz:402671.got - 2010.06.03 11:33:40.
