data_PCOD9024809
_publ_section_title
;
Structure prediction by ZEFSAII (Michael W. Deem and Ramdas Pophale) SiO2 
 PCOD9024809
Probable space group: P -1
;
_chemical_formula_sum "Si O2"
_cell_formula_units_Z 15
_cell_length_a 15.458170
_cell_length_b 8.135908
_cell_length_c 7.923201
_cell_angle_alpha 48.222257
_cell_angle_beta 92.130751
_cell_angle_gamma 106.377219
_cell_volume 696.964172
_symmetry_space_group_name_H-M "P -1"
_symmetry_group_IT_number 2
_symmetry_cell_setting 'triclinic'
loop_
_space_group_symop_operation_xyz
x,y,z
-x,-y,-z
loop_
_atom_site_type_symbol
_atom_site_label
_atom_site_fract_x
_atom_site_fract_y
_atom_site_fract_z
Si Si1 0.157935 0.022433 0.266513
Si Si2 0.414397 0.583841 0.466644
Si Si3 0.941897 0.464763 0.277126
Si Si4 0.316372 0.742422 0.075867
Si Si5 0.000000 0.000000 0.000000
Si Si6 0.509824 0.097923 0.244297
Si Si7 0.352659 0.209187 0.988688
Si Si8 0.882065 0.583908 0.823074
O O1 0.264244 0.144653 0.144667
O O2 0.133018 0.169349 0.315786
O O3 0.136112 0.752232 0.496450
O O4 0.093293 0.032315 0.098741
O O5 0.500000 0.500000 0.500000
O O6 0.344913 0.565037 0.321895
O O7 0.463117 0.859690 0.300710
O O8 0.364755 0.442588 0.723149
O O9 0.032444 0.391782 0.308763
O O10 0.908690 0.505842 0.059984
O O11 0.971389 0.711767 0.203465
O O12 0.210583 0.616065 0.107295
O O13 0.333242 0.990659 0.003926
O O14 0.385927 0.788062 0.890891
O O15 0.444498 0.242096 0.083072
O O16 0.500000 0.000000 0.500000
#
# Coordination Sequence:
#
# PCOD9024809 Si02
#       8
#     2   2   2   2   1   2   2   2
#     4  11  24  39  66  94 130 167 218 266 322 386
#     4  11  21  43  63  85 128 172 214 263 320 383
#     4  10  22  44  64  92 135 163 211 273 322 388
#     4  11  23  41  64  92 128 172 217 265 325 387
#     4  10  22  40  66  92 120 168 212 256 322 382
#     4  11  25  39  64  93 130 166 214 276 320 380
#     4  11  24  42  62  95 127 173 219 263 323 384
#     4  10  24  40  63  96 127 169 214 265 328 385
#
# _framework density 21.521906999999999
#
# number of rings (size 3 to 8) (size 9 to 14) (size 15 to 20)
#    0.000    1.333    2.667    2.400    3.733    6.933 
#    0.000    0.000    0.000    0.000    0.000    0.000 
#    0.000    0.000    0.000    0.000    0.000    0.000 
#
# Total GULP energy -83559.063596 kJ/mol
# GULP energy per Si atom -5570.604240 kJ/mol
# Density = 2.147292 g / cm^3
# Si number density = 21.521907 Si / 1000 Ang^3
#
#
#
# Elastic Constant Matrix: (Units=GPa)
#
#
# Indices 1 2 3 4 5 6 
#
# 1 45.8118 10.6032 20.8191 -5.1947 -9.2921 12.5691
# 2 10.6032 43.8986 -0.4417 -13.7154 4.8633 11.4451
# 3 20.8191 -0.4417 83.7202 -7.5306 -15.4546 -13.4750
# 4 -5.1947 -13.7154 -7.5306 36.6915 6.4159 6.4896
# 5 -9.2921 4.8633 -15.4546 6.4159 29.3760 -4.4038
# 6 12.5691 11.4451 -13.4750 6.4896 -4.4038 31.0334
#
#
#
# Elastic Compliance Matrix: (Units=1/GPa)
#
#
# Indices 1 2 3 4 5 6 
#
# 1 0.032669 -0.002183 -0.010249 0.004522 0.001679 -0.017584
# 2 -0.002183 0.036167 -0.003751 0.018783 -0.015790 -0.020252
# 3 -0.010249 -0.003751 0.018604 -0.003644 0.010337 0.015841
# 4 0.004522 0.018783 -0.003644 0.040624 -0.015625 -0.021054
# 5 0.001679 -0.015790 0.010337 -0.015625 0.049014 0.019854
# 6 -0.017584 -0.020252 0.015841 -0.021054 0.019854 0.060913
#
#
# Mechanical properties :
#
#
# Convention : Reuss Voigt Hill
#
# Bulk Modulus (GPa) = 18.15734 26.15465 22.15600
# Shear Modulus (GPa) = 17.31816 28.91683 23.11749
#
# Velocity S-wave (km/s) = 2.83976 3.66949 3.28096
# Velocity P-wave (km/s) = 4.38261 5.48931 4.96688
#
# Compressibility (1/GPa) = 0.05507414
#
# Stress axis : x y z
#
# Youngs Moduli (GPa) = 30.60989 27.64947 53.75322
#
# Poissons Ratio (x) = 0.06035 0.55092
# Poissons Ratio (y) = 0.06681 0.20164
# Poissons Ratio (z) = 0.31372 0.10372
#
# Static dielectric constant tensor:
#      x y z
#    x 1.763230 -0.011880 0.023500 
#    y -0.011880 1.805660 0.030660 
#    z 0.023500 0.030660 1.795790 
# 
# From -- ./inp_files/35016.got.cif
#   From: 2010.05.17/outbox.cif.g08.bks.cpg/sg2_18_cif.got.tgz:35016.got - 2010.06.03 11:33:40.
