data_PCOD9024342
_publ_section_title
;
Structure prediction by ZEFSAII (Michael W. Deem and Ramdas Pophale) SiO2 
 PCOD9024342
Probable space group: P -1
;
_chemical_formula_sum "Si O2"
_cell_formula_units_Z 15
_cell_length_a 19.671723
_cell_length_b 9.554803
_cell_length_c 17.632041
_cell_angle_alpha 32.046862
_cell_angle_beta 20.469311
_cell_angle_gamma 34.210925
_cell_volume 605.230278
_symmetry_space_group_name_H-M "P -1"
_symmetry_group_IT_number 2
_symmetry_cell_setting 'triclinic'
loop_
_space_group_symop_operation_xyz
x,y,z
-x,-y,-z
loop_
_atom_site_type_symbol
_atom_site_label
_atom_site_fract_x
_atom_site_fract_y
_atom_site_fract_z
Si Si1 0.896886 0.302664 0.986245
Si Si2 0.353565 0.895487 0.061959
Si Si3 0.180477 0.185295 0.378889
Si Si4 0.136526 0.758370 0.216916
Si Si5 0.574662 0.545903 0.316530
Si Si6 0.697809 0.594366 0.464286
Si Si7 0.000000 0.000000 0.500000
Si Si8 0.370492 0.805506 0.808594
O O1 0.066769 0.483938 0.732617
O O2 0.753746 0.322580 0.199194
O O3 0.757153 0.366613 0.030531
O O4 0.000000 0.000000 0.000000
O O5 0.334444 0.185160 0.907665
O O6 0.587401 0.820815 0.861983
O O7 0.222676 0.934169 0.255593
O O8 0.268217 0.704960 0.179520
O O9 0.093137 0.498268 0.338364
O O10 0.102302 0.069592 0.439643
O O11 0.072400 0.067341 0.617964
O O12 0.280821 0.861586 0.958809
O O13 0.500000 0.500000 0.500000
O O14 0.403259 0.562829 0.422282
O O15 0.588411 0.643732 0.637309
O O16 0.656221 0.896290 0.335123
#
# Coordination Sequence:
#
# PCOD9024342 Si02
#       8
#     2   2   2   2   2   2   1   2
#     4   9  20  38  59  87 126 169 218 258 309 387
#     4  11  24  43  64  93 131 170 214 267 329 380
#     4  10  23  43  65  94 125 166 215 269 328 378
#     4  10  22  40  64  93 126 162 215 268 316 392
#     4  11  24  39  61  94 133 167 212 265 324 390
#     4   9  19  35  56  87 124 164 208 252 313 379
#     4  10  24  44  66  90 128 166 220 270 310 390
#     4   9  18  35  58  89 124 160 207 260 308 378
#
# _framework density 24.783954999999999
#
# number of rings (size 3 to 8) (size 9 to 14) (size 15 to 20)
#    0.000    2.133    0.000    2.400    3.733    5.867 
#    2.400    0.000    0.000    0.000    0.000    0.000 
#    0.000    0.000    0.000    0.000    0.000    0.000 
#
# Total GULP energy -83545.310953 kJ/mol
# GULP energy per Si atom -5569.687397 kJ/mol
# Density = 2.472755 g / cm^3
# Si number density = 24.783955 Si / 1000 Ang^3
#
#
#
# Elastic Constant Matrix: (Units=GPa)
#
#
# Indices 1 2 3 4 5 6 
#
# 1 86.6726 46.7963 68.0547 31.6682 7.1269 43.8346
# 2 46.7963 78.7601 54.5268 15.4291 4.9524 25.7426
# 3 68.0547 54.5268 183.5737 62.9188 7.1031 30.9118
# 4 31.6682 15.4291 62.9188 57.4529 17.9763 3.0968
# 5 7.1269 4.9524 7.1031 17.9763 64.3263 9.3728
# 6 43.8346 25.7426 30.9118 3.0968 9.3728 35.8166
#
#
#
# Elastic Compliance Matrix: (Units=1/GPa)
#
#
# Indices 1 2 3 4 5 6 
#
# 1 0.065834 -0.010105 0.004501 -0.039080 0.015245 -0.077804
# 2 -0.010105 0.020239 -0.004228 0.005198 -0.001635 0.001448
# 3 0.004501 -0.004228 0.012470 -0.015789 0.004773 -0.013117
# 4 -0.039080 0.005198 -0.015789 0.057626 -0.018833 0.057665
# 5 0.015245 -0.001635 0.004773 -0.018833 0.022486 -0.025858
# 6 -0.077804 0.001448 -0.013117 0.057665 -0.025858 0.135203
#
#
# Mechanical properties :
#
#
# Convention : Reuss Voigt Hill
#
# Bulk Modulus (GPa) = 12.67744 76.41798 44.54771
# Shear Modulus (GPa) = 13.89610 43.49440 28.69525
#
# Velocity S-wave (km/s) = 2.37046 4.19375 3.40636
# Velocity P-wave (km/s) = 3.55223 7.37229 5.78658
#
# Compressibility (1/GPa) = 0.07888030
#
# Stress axis : x y z
#
# Youngs Moduli (GPa) = 15.18970 49.40985 80.19379
#
# Poissons Ratio (x) = 0.49929 -0.36099
# Poissons Ratio (y) = 0.15349 0.33903
# Poissons Ratio (z) = -0.06838 0.20888
#
# Static dielectric constant tensor:
#      x y z
#    x 2.028970 -0.254570 0.068260 
#    y -0.254570 2.434700 -0.116400 
#    z 0.068260 -0.116400 2.178700 
# 
# From -- ./inp_files/577188.got.cif
#   From: 2010.05.17/outbox.cif.g08.bks.cpg/sg2_289_cif.got.tgz:577188.got - 2010.06.03 11:33:40.
