data_PCOD9024532
_publ_section_title
;
Structure prediction by ZEFSAII (Michael W. Deem and Ramdas Pophale) SiO2 
 PCOD9024532
Probable space group: P -1
;
_chemical_formula_sum "Si O2"
_cell_formula_units_Z 16
_cell_length_a 10.063767
_cell_length_b 9.223666
_cell_length_c 13.968566
_cell_angle_alpha 91.804747
_cell_angle_beta 131.064755
_cell_angle_gamma 109.218748
_cell_volume 865.444178
_symmetry_space_group_name_H-M "P -1"
_symmetry_group_IT_number 2
_symmetry_cell_setting 'triclinic'
loop_
_space_group_symop_operation_xyz
x,y,z
-x,-y,-z
loop_
_atom_site_type_symbol
_atom_site_label
_atom_site_fract_x
_atom_site_fract_y
_atom_site_fract_z
Si Si1 0.820272 0.831402 0.880996
Si Si2 0.542209 0.149975 0.641941
Si Si3 0.517133 0.212136 0.414273
Si Si4 0.513353 0.858520 0.110853
Si Si5 0.216522 0.520143 0.609981
Si Si6 0.793430 0.831077 0.389490
Si Si7 0.118610 0.688782 0.039771
Si Si8 0.514063 0.198478 0.128131
O O1 0.702875 0.825332 0.727884
O O2 0.664141 0.802508 0.892498
O O3 0.938252 0.726801 0.928500
O O4 0.000000 0.000000 0.000000
O O5 0.562038 0.231166 0.548739
O O6 0.369446 0.172763 0.612810
O O7 0.747386 0.224321 0.800958
O O8 0.469105 0.955155 0.601966
O O9 0.658118 0.365759 0.417966
O O10 0.685379 0.829575 0.239231
O O11 0.290510 0.741951 0.041671
O O12 0.549115 0.040548 0.163886
O O13 0.521919 0.828084 0.002112
O O14 0.199402 0.339811 0.600173
O O15 0.310344 0.628458 0.752068
O O16 0.000000 0.500000 0.500000
O O17 0.000000 0.000000 0.500000
O O18 0.000000 0.500000 0.000000
#
# Coordination Sequence:
#
# PCOD9024532 Si02
#       8
#     2   2   2   2   2   2   2   2
#     4  11  19  39  62  92 119 162 202 245 307 368
#     4  10  22  42  61  91 123 158 201 255 307 358
#     4  10  22  40  65  89 121 157 206 254 302 362
#     4  10  22  42  61  91 123 158 201 255 307 358
#     4  11  23  41  62  87 122 162 205 249 301 360
#     4  11  23  41  62  87 124 163 201 249 305 361
#     4  11  23  39  60  88 129 160 198 249 307 362
#     4  10  22  40  65  89 121 157 206 254 302 362
#
# _framework density 18.487615999999999
#
# number of rings (size 3 to 8) (size 9 to 14) (size 15 to 20)
#    0.000    1.500    2.500    3.750    7.000    3.000 
#    4.500    0.000    0.000    0.000    0.000    0.000 
#    0.000    0.000    0.000    0.000    0.000    0.000 
#
# Total GULP energy -89087.959551 kJ/mol
# GULP energy per Si atom -5567.997472 kJ/mol
# Density = 1.844554 g / cm^3
# Si number density = 18.487616 Si / 1000 Ang^3
#
#
#
# Elastic Constant Matrix: (Units=GPa)
#
#
# Indices 1 2 3 4 5 6 
#
# 1 41.0754 14.2951 44.3947 -12.6212 3.1904 -3.0623
# 2 14.2951 124.4246 31.0382 -7.2030 18.5138 -0.6884
# 3 44.3947 31.0382 98.3001 -17.6726 9.2528 2.1214
# 4 -12.6212 -7.2030 -17.6726 39.9709 1.8536 3.0058
# 5 3.1904 18.5138 9.2528 1.8536 36.5279 -13.0310
# 6 -3.0623 -0.6884 2.1214 3.0058 -13.0310 21.6288
#
#
#
# Elastic Compliance Matrix: (Units=1/GPa)
#
#
# Indices 1 2 3 4 5 6 
#
# 1 0.051249 -0.000705 -0.022887 0.004738 0.005840 0.012339
# 2 -0.000705 0.009437 -0.001890 0.001117 -0.005372 -0.003006
# 3 -0.022887 -0.001890 0.022545 0.003443 -0.006453 -0.009878
# 4 0.004738 0.001117 0.003443 0.029055 -0.005905 -0.007227
# 5 0.005840 -0.005372 -0.006453 -0.005905 0.041112 0.026879
# 6 0.012339 -0.003006 -0.009878 -0.007227 0.026879 0.066053
#
#
# Mechanical properties :
#
#
# Convention : Reuss Voigt Hill
#
# Bulk Modulus (GPa) = 30.99083 49.25068 40.12075
# Shear Modulus (GPa) = 17.78277 31.23034 24.50655
#
# Velocity S-wave (km/s) = 3.10478 4.11452 3.64478
# Velocity P-wave (km/s) = 5.44539 7.01926 6.28181
#
# Compressibility (1/GPa) = 0.03226761
#
# Stress axis : x y z
#
# Youngs Moduli (GPa) = 19.51246 105.96860 44.35481
#
# Poissons Ratio (x) = 0.07473 1.01515
# Poissons Ratio (y) = 0.01376 0.08382
# Poissons Ratio (z) = 0.44658 0.20026
#
# Static dielectric constant tensor:
#      x y z
#    x 1.615850 0.000340 -0.060550 
#    y 0.000340 1.073100 -0.276670 
#    z -0.060550 -0.276670 1.510710 
# 
# From -- ./inp_files/416553.got.cif
#   From: 2010.05.17/outbox.cif.g08.bks.cpg/sg2_209_cif.got.tgz:416553.got - 2010.06.03 11:33:40.
