data_PCOD9024892
_publ_section_title
;
Structure prediction by ZEFSAII (Michael W. Deem and Ramdas Pophale) SiO2 
 PCOD9024892
Probable space group: P -1
;
_chemical_formula_sum "Si O2"
_cell_formula_units_Z 14
_cell_length_a 15.380791
_cell_length_b 12.021643
_cell_length_c 10.416012
_cell_angle_alpha 56.715660
_cell_angle_beta 43.885146
_cell_angle_gamma 29.550622
_cell_volume 641.009741
_symmetry_space_group_name_H-M "P -1"
_symmetry_group_IT_number 2
_symmetry_cell_setting 'triclinic'
loop_
_space_group_symop_operation_xyz
x,y,z
-x,-y,-z
loop_
_atom_site_type_symbol
_atom_site_label
_atom_site_fract_x
_atom_site_fract_y
_atom_site_fract_z
Si Si1 0.952393 0.429070 0.905689
Si Si2 0.686377 0.445285 0.641132
Si Si3 0.764839 0.030534 0.210473
Si Si4 0.025649 0.289098 0.196584
Si Si5 0.350293 0.719542 0.428429
Si Si6 0.516285 0.142231 0.926338
Si Si7 0.951796 0.095073 0.786128
O O1 0.981118 0.557503 0.831222
O O2 0.158102 0.182478 0.776220
O O3 0.734022 0.599521 0.945266
O O4 0.924306 0.383090 0.103563
O O5 0.615356 0.371104 0.692325
O O6 0.762845 0.347769 0.764680
O O7 0.888353 0.320517 0.420413
O O8 0.490639 0.719757 0.665375
O O9 0.889385 0.963452 0.250321
O O10 0.854864 0.056002 0.991931
O O11 0.280499 0.025168 0.086296
O O12 0.500000 0.500000 0.500000
O O13 0.411745 0.821525 0.288676
O O14 0.106303 0.917314 0.616599
O O15 0.500000 0.000000 0.000000
#
# Coordination Sequence:
#
# PCOD9024892 Si02
#       7
#     2   2   2   2   2   2   2
#     4  10  23  42  66  91 128 167 211 261 320 382
#     4  12  24  39  66  96 127 163 215 263 316 381
#     4  11  25  41  59  92 134 169 202 264 329 382
#     4  10  22  42  68  95 120 166 218 264 312 378
#     4  12  22  40  70  97 125 166 218 271 312 370
#     4  10  22  40  66  95 125 162 214 267 313 372
#     4  11  24  41  59  90 130 166 212 260 317 379
#
# _framework density 21.840541000000002
#
# number of rings (size 3 to 8) (size 9 to 14) (size 15 to 20)
#    0.000    1.143    2.857    3.429    4.000    1.714 
#    0.000    0.714    0.000    0.000    0.000    0.000 
#    0.000    0.000    0.000    0.000    0.000    0.000 
#
# Total GULP energy -78221.442574 kJ/mol
# GULP energy per Si atom -5587.245898 kJ/mol
# Density = 2.179083 g / cm^3
# Si number density = 21.840541 Si / 1000 Ang^3
#
#
#
# Elastic Constant Matrix: (Units=GPa)
#
#
# Indices 1 2 3 4 5 6 
#
# 1 52.6804 61.4457 17.3061 -2.9904 4.4366 -13.6347
# 2 61.4457 138.6802 19.6903 1.1911 12.6179 -21.5209
# 3 17.3061 19.6903 48.4822 -11.2444 -3.7533 4.6898
# 4 -2.9904 1.1911 -11.2444 43.4651 2.9369 -1.1890
# 5 4.4366 12.6179 -3.7533 2.9369 23.4899 0.1405
# 6 -13.6347 -21.5209 4.6898 -1.1890 0.1405 33.3789
#
#
#
# Elastic Compliance Matrix: (Units=1/GPa)
#
#
# Indices 1 2 3 4 5 6 
#
# 1 0.044011 -0.016732 -0.009518 0.001331 -0.001063 0.008579
# 2 -0.016732 0.015933 -0.001632 -0.001540 -0.005488 0.003635
# 3 -0.009518 -0.001632 0.027357 0.005801 0.006372 -0.008604
# 4 0.001331 -0.001540 0.005801 0.024738 -0.001588 -0.000376
# 5 -0.001063 -0.005488 0.006372 -0.001588 0.046968 -0.005122
# 6 0.008579 0.003635 -0.008604 -0.000376 -0.005122 0.037024
#
#
# Mechanical properties :
#
#
# Convention : Reuss Voigt Hill
#
# Bulk Modulus (GPa) = 31.70872 48.52522 40.11697
# Shear Modulus (GPa) = 19.06160 29.49349 24.27754
#
# Velocity S-wave (km/s) = 2.95746 3.67877 3.33766
# Velocity P-wave (km/s) = 5.11976 6.34906 5.76726
#
# Compressibility (1/GPa) = 0.03153707
#
# Stress axis : x y z
#
# Youngs Moduli (GPa) = 22.72179 62.76369 36.55307
#
# Poissons Ratio (x) = 1.05016 0.34791
# Poissons Ratio (y) = 0.38018 0.05965
# Poissons Ratio (z) = 0.21627 0.10242
#
# Static dielectric constant tensor:
#      x y z
#    x 1.841290 -0.006730 -0.013920 
#    y -0.006730 1.829500 -0.005900 
#    z -0.013920 -0.005900 1.763970 
# 
# From -- ./inp_files/268724.got.cif
#   From: 2010.05.17/outbox.cif.g08.bks.cpg/sg2_135_cif.got.tgz:268724.got - 2010.06.03 11:33:40.
