data_PCOD9024267
_publ_section_title
;
Structure prediction by ZEFSAII (Michael W. Deem and Ramdas Pophale) SiO2 
 PCOD9024267
Probable space group: P -1
;
_chemical_formula_sum "Si O2"
_cell_formula_units_Z 14
_cell_length_a 15.246011
_cell_length_b 7.729439
_cell_length_c 18.596331
_cell_angle_alpha 54.165054
_cell_angle_beta 159.030713
_cell_angle_gamma 117.350925
_cell_volume 606.370796
_symmetry_space_group_name_H-M "P -1"
_symmetry_group_IT_number 2
_symmetry_cell_setting 'triclinic'
loop_
_space_group_symop_operation_xyz
x,y,z
-x,-y,-z
loop_
_atom_site_type_symbol
_atom_site_label
_atom_site_fract_x
_atom_site_fract_y
_atom_site_fract_z
Si Si1 0.167848 0.151650 0.952932
Si Si2 0.759009 0.620039 0.503629
Si Si3 0.594663 0.188243 0.674820
Si Si4 0.123994 0.448867 0.185553
Si Si5 0.900706 0.041657 0.319084
Si Si6 0.254610 0.775430 0.997311
Si Si7 0.383191 0.744148 0.818278
O O1 0.926314 0.366826 0.705765
O O2 0.137869 0.947319 0.931119
O O3 0.410092 0.206087 0.088257
O O4 0.246459 0.055441 0.116384
O O5 0.587814 0.711855 0.420459
O O6 0.943802 0.774724 0.595885
O O7 0.550272 0.653241 0.272267
O O8 0.384658 0.235961 0.439275
O O9 0.776620 0.343885 0.766654
O O10 0.911809 0.396987 0.086955
O O11 0.000000 0.500000 0.000000
O O12 0.788008 0.088841 0.142224
O O13 0.689388 0.095139 0.206663
O O14 0.114440 0.804606 0.554174
O O15 0.500000 0.500000 0.000000
#
# Coordination Sequence:
#
# PCOD9024267 Si02
#       7
#     2   2   2   2   2   2   2
#     4  11  22  41  62  93 127 160 204 256 302 364
#     4  11  21  41  63  88 125 163 202 246 308 365
#     4  10  22  40  64  89 123 165 201 247 309 366
#     4  11  19  39  69  87 121 165 201 251 308 361
#     4  11  23  42  65  87 125 168 200 254 309 360
#     4  11  23  42  63  93 124 161 204 255 307 361
#     4  11  22  40  66  91 122 165 209 249 304 363
#
# _framework density 23.088183999999998
#
# number of rings (size 3 to 8) (size 9 to 14) (size 15 to 20)
#    0.000    1.143    8.571    0.000    0.000    1.714 
#    2.571    7.143    0.000    0.000    0.000    0.000 
#    0.000    0.000    0.000    0.000    0.000    0.000 
#
# Total GULP energy -78286.440389 kJ/mol
# GULP energy per Si atom -5591.888599 kJ/mol
# Density = 2.303563 g / cm^3
# Si number density = 23.088184 Si / 1000 Ang^3
#
#
#
# Elastic Constant Matrix: (Units=GPa)
#
#
# Indices 1 2 3 4 5 6 
#
# 1 64.1797 0.7030 44.1770 -5.5055 -14.7502 9.5963
# 2 0.7030 72.0527 58.9266 -8.9555 3.0310 25.3458
# 3 44.1770 58.9266 237.4378 -23.3840 -32.9421 -2.1639
# 4 -5.5055 -8.9555 -23.3840 49.2859 1.9366 -1.7879
# 5 -14.7502 3.0310 -32.9421 1.9366 51.1947 -6.0757
# 6 9.5963 25.3458 -2.1639 -1.7879 -6.0757 26.4498
#
#
#
# Elastic Compliance Matrix: (Units=1/GPa)
#
#
# Indices 1 2 3 4 5 6 
#
# 1 0.025640 0.017878 -0.009876 0.000544 -0.003367 -0.027978
# 2 0.017878 0.051957 -0.019149 0.000801 -0.017616 -0.061833
# 3 -0.009876 -0.019149 0.012502 0.001900 0.009253 0.025210
# 4 0.000544 0.000801 0.001900 0.021402 0.000615 0.000778
# 5 -0.003367 -0.017616 0.009253 0.000615 0.028558 0.025460
# 6 -0.027978 -0.061833 0.025210 0.000778 0.025460 0.115174
#
#
# Mechanical properties :
#
#
# Convention : Reuss Voigt Hill
#
# Bulk Modulus (GPa) = 14.74850 64.58706 39.66778
# Shear Modulus (GPa) = 16.65954 43.37700 30.01827
#
# Velocity S-wave (km/s) = 2.68910 4.33916 3.60968
# Velocity P-wave (km/s) = 4.00543 7.28967 5.88144
#
# Compressibility (1/GPa) = 0.06780350
#
# Stress axis : x y z
#
# Youngs Moduli (GPa) = 39.00228 19.24684 79.98651
#
# Poissons Ratio (x) = -0.34409 0.78993
# Poissons Ratio (y) = -0.69727 1.53168
# Poissons Ratio (z) = 0.38518 0.36856
#
# Static dielectric constant tensor:
#      x y z
#    x 1.885590 0.001590 -0.027090 
#    y 0.001590 1.897100 -0.003880 
#    z -0.027090 -0.003880 1.916240 
# 
# From -- ./inp_files/348021.got.cif
#   From: 2010.05.17/outbox.cif.g08.bks.cpg/sg2_175_cif.got.tgz:348021.got - 2010.06.03 11:33:40.
