data_PCOD9024001
_publ_section_title
;
Structure prediction by ZEFSAII (Michael W. Deem and Ramdas Pophale) SiO2 
 PCOD9024001
Probable space group: P -1
;
_chemical_formula_sum "Si O2"
_cell_formula_units_Z 16
_cell_length_a 14.814980
_cell_length_b 14.471159
_cell_length_c 11.132518
_cell_angle_alpha 151.207107
_cell_angle_beta 108.732041
_cell_angle_gamma 51.411510
_cell_volume 719.575846
_symmetry_space_group_name_H-M "P -1"
_symmetry_group_IT_number 2
_symmetry_cell_setting 'triclinic'
loop_
_space_group_symop_operation_xyz
x,y,z
-x,-y,-z
loop_
_atom_site_type_symbol
_atom_site_label
_atom_site_fract_x
_atom_site_fract_y
_atom_site_fract_z
Si Si1 0.972012 0.174372 0.071827
Si Si2 0.916694 0.857349 0.572656
Si Si3 0.334675 0.262323 0.691653
Si Si4 0.571100 0.466952 0.347337
Si Si5 0.210405 0.202615 0.358736
Si Si6 0.882912 0.304422 0.716997
Si Si7 0.627851 0.392499 0.007996
Si Si8 0.723022 0.283632 0.428411
O O1 0.866125 0.514203 0.427387
O O2 0.122433 0.020345 0.903541
O O3 0.000000 0.000000 0.000000
O O4 0.914556 0.089397 0.865690
O O5 0.912797 0.736742 0.554735
O O6 0.038145 0.668499 0.309878
O O7 0.760966 0.047007 0.668964
O O8 0.298882 0.186374 0.477168
O O9 0.320848 0.500871 0.917507
O O10 0.500000 0.000000 0.500000
O O11 0.216993 0.422410 0.926939
O O12 0.591920 0.491211 0.244785
O O13 0.640910 0.494471 0.513661
O O14 0.403630 0.667496 0.524947
O O15 0.672042 0.123296 0.013805
O O16 0.777096 0.334307 0.620443
O O17 0.000000 0.000000 0.500000
O O18 0.500000 0.500000 0.000000
#
# Coordination Sequence:
#
# PCOD9024001 Si02
#       8
#     2   2   2   2   2   2   2   2
#     4  11  22  41  69  93 132 174 219 274 332 397
#     4  10  22  40  62  95 129 175 218 269 339 388
#     4  12  23  39  63 100 132 171 224 282 333 391
#     4  10  23  42  68  94 135 178 224 274 335 404
#     4  11  23  42  66  99 133 170 227 275 328 413
#     4  11  21  41  68  94 137 176 223 280 335 399
#     4  11  20  38  64  94 128 178 220 269 333 393
#     4  10  22  42  66  97 131 178 219 272 339 399
#
# _framework density 22.235322
#
# number of rings (size 3 to 8) (size 9 to 14) (size 15 to 20)
#    0.000    1.250    2.500    5.250    0.000    2.500 
#    2.250    0.625    2.750    0.000    0.000    0.000 
#    0.000    0.000    0.000    0.000    0.000    0.000 
#
# Total GULP energy -89150.960007 kJ/mol
# GULP energy per Si atom -5571.935000 kJ/mol
# Density = 2.218471 g / cm^3
# Si number density = 22.235322 Si / 1000 Ang^3
#
#
#
# Elastic Constant Matrix: (Units=GPa)
#
#
# Indices 1 2 3 4 5 6 
#
# 1 85.6621 16.2903 15.4681 9.6274 -17.5086 4.9635
# 2 16.2903 132.8920 19.8952 2.8749 -6.0157 -24.7005
# 3 15.4681 19.8952 64.7396 9.5366 -11.8142 8.4767
# 4 9.6274 2.8749 9.5366 34.9363 3.1874 2.7511
# 5 -17.5086 -6.0157 -11.8142 3.1874 44.2230 -2.5940
# 6 4.9635 -24.7005 8.4767 2.7511 -2.5940 49.4861
#
#
#
# Elastic Compliance Matrix: (Units=1/GPa)
#
#
# Indices 1 2 3 4 5 6 
#
# 1 0.013701 -0.001461 -0.001163 -0.003690 0.005097 -0.001432
# 2 -0.001461 0.009155 -0.003141 0.000081 0.000130 0.005257
# 3 -0.001163 -0.003141 0.018674 -0.004571 0.004185 -0.004176
# 4 -0.003690 0.000081 -0.004571 0.031400 -0.004982 -0.000813
# 5 0.005097 0.000130 0.004185 -0.004982 0.026154 0.000485
# 6 -0.001432 0.005257 -0.004176 -0.000813 0.000485 0.023761
#
#
# Mechanical properties :
#
#
# Convention : Reuss Voigt Hill
#
# Bulk Modulus (GPa) = 33.33363 42.95566 38.14465
# Shear Modulus (GPa) = 34.63179 41.17175 37.90177
#
# Velocity S-wave (km/s) = 3.95081 4.30773 4.13313
# Velocity P-wave (km/s) = 5.98630 6.64099 6.32212
#
# Compressibility (1/GPa) = 0.02999973
#
# Stress axis : x y z
#
# Youngs Moduli (GPa) = 72.98660 109.22467 53.55133
#
# Poissons Ratio (x) = 0.15957 0.06230
# Poissons Ratio (y) = 0.10663 0.16820
# Poissons Ratio (z) = 0.08492 0.34306
#
# Static dielectric constant tensor:
#      x y z
#    x 1.861820 0.030610 0.012200 
#    y 0.030610 1.639330 -0.124110 
#    z 0.012200 -0.124110 1.766000 
# 
# From -- ./inp_files/455254.got.cif
#   From: 2010.05.17/outbox.cif.g08.bks.cpg/sg2_228_cif.got.tgz:455254.got - 2010.06.03 11:33:40.
