data_PCOD9024657
_publ_section_title
;
Structure prediction by ZEFSAII (Michael W. Deem and Ramdas Pophale) SiO2 
 PCOD9024657
Probable space group: P -1
;
_chemical_formula_sum "Si O2"
_cell_formula_units_Z 10
_cell_length_a 19.963403
_cell_length_b 9.106429
_cell_length_c 5.440927
_cell_angle_alpha 108.963795
_cell_angle_beta 45.428998
_cell_angle_gamma 142.356280
_cell_volume 364.863571
_symmetry_space_group_name_H-M "P -1"
_symmetry_group_IT_number 2
_symmetry_cell_setting 'triclinic'
loop_
_space_group_symop_operation_xyz
x,y,z
-x,-y,-z
loop_
_atom_site_type_symbol
_atom_site_label
_atom_site_fract_x
_atom_site_fract_y
_atom_site_fract_z
Si Si1 0.396707 0.830681 0.929197
Si Si2 0.898634 0.401830 0.962736
Si Si3 0.324201 0.044737 0.051995
Si Si4 0.936547 0.076165 0.114115
Si Si5 0.362285 0.431983 0.698062
O O1 0.328860 0.559408 0.961328
O O2 0.500000 0.000000 0.500000
O O3 0.500000 0.000000 0.000000
O O4 0.287999 0.840303 0.193662
O O5 0.000000 0.500000 0.500000
O O6 0.722059 0.072890 0.172765
O O7 0.896682 0.583911 0.100027
O O8 0.000000 0.500000 0.000000
O O9 0.205655 0.025820 0.417119
O O10 0.523679 0.366405 0.727865
O O11 0.824758 0.898246 0.057054
O O12 0.000000 0.000000 0.000000
O O13 0.500000 0.500000 0.500000
#
# Coordination Sequence:
#
# PCOD9024657 Si02
#       5
#     2   2   2   2   2
#     4  10  22  40  65  96 130 172 220 272 332 399
#     4  10  22  42  65  92 131 178 220 268 335 407
#     4  10  22  43  68  97 135 184 229 275 336 417
#     4  11  23  41  65 101 138 175 223 287 345 396
#     4  11  22  40  68 102 133 173 228 288 337 397
#
# _framework density 27.407503999999999
#
# number of rings (size 3 to 8) (size 9 to 14) (size 15 to 20)
#    0.000    1.600    0.000    4.200    0.000    6.400 
#    0.000   13.000    0.000    0.000    0.000    0.000 
#    0.000    0.000    0.000    0.000    0.000    0.000 
#
# Total GULP energy -55767.735757 kJ/mol
# GULP energy per Si atom -5576.773576 kJ/mol
# Density = 2.734512 g / cm^3
# Si number density = 27.407504 Si / 1000 Ang^3
#
#
#
# Elastic Constant Matrix: (Units=GPa)
#
#
# Indices 1 2 3 4 5 6 
#
# 1 201.2590 65.9308 25.3637 34.6140 -36.0056 0.1818
# 2 65.9308 213.4562 10.2399 33.0244 -6.3299 -3.5701
# 3 25.3637 10.2399 108.2057 18.4194 -14.8515 -1.4474
# 4 34.6140 33.0244 18.4194 48.3575 -4.5165 -9.1728
# 5 -36.0056 -6.3299 -14.8515 -4.5165 42.2932 16.2794
# 6 0.1818 -3.5701 -1.4474 -9.1728 16.2794 63.9574
#
#
#
# Elastic Compliance Matrix: (Units=1/GPa)
#
#
# Indices 1 2 3 4 5 6 
#
# 1 0.007310 -0.001477 -0.000029 -0.004051 0.006455 -0.002328
# 2 -0.001477 0.005555 0.000215 -0.002867 -0.000689 0.000083
# 3 -0.000029 0.000215 0.010400 -0.003981 0.003724 -0.001271
# 4 -0.004051 -0.002867 -0.003981 0.027570 -0.004170 0.004777
# 5 0.006455 -0.000689 0.003724 -0.004170 0.033390 -0.009070
# 6 -0.002328 0.000083 -0.001271 0.004777 -0.009070 0.018612
#
#
# Mechanical properties :
#
#
# Convention : Reuss Voigt Hill
#
# Bulk Modulus (GPa) = 48.34974 80.66552 64.50763
# Shear Modulus (GPa) = 44.51811 59.01406 51.76608
#
# Velocity S-wave (km/s) = 4.03464 4.64530 4.35070
# Velocity P-wave (km/s) = 6.27565 7.63332 6.98754
#
# Compressibility (1/GPa) = 0.02068263
#
# Stress axis : x y z
#
# Youngs Moduli (GPa) = 136.79735 180.00934 96.15559
#
# Poissons Ratio (x) = 0.26591 0.00281
# Poissons Ratio (y) = 0.20208 -0.02069
# Poissons Ratio (z) = 0.00399 -0.03873
#
# Static dielectric constant tensor:
#      x y z
#    x 2.116110 0.381740 -0.208320 
#    y 0.381740 1.351240 0.359230 
#    z -0.208320 0.359230 2.159680 
# 
# From -- ./inp_files/18119.got.cif
#   From: 2010.05.17/outbox.cif.g08.bks.cpg/sg2_10_cif.got.tgz:18119.got - 2010.06.03 11:33:40.
