data_PCOD9024688
_publ_section_title
;
Structure prediction by ZEFSAII (Michael W. Deem and Ramdas Pophale) SiO2 
 PCOD9024688
Probable space group: P -1
;
_chemical_formula_sum "Si O2"
_cell_formula_units_Z 16
_cell_length_a 10.350640
_cell_length_b 19.421573
_cell_length_c 19.070579
_cell_angle_alpha 15.126656
_cell_angle_beta 40.948544
_cell_angle_gamma 38.291247
_cell_volume 619.847365
_symmetry_space_group_name_H-M "P -1"
_symmetry_group_IT_number 2
_symmetry_cell_setting 'triclinic'
loop_
_space_group_symop_operation_xyz
x,y,z
-x,-y,-z
loop_
_atom_site_type_symbol
_atom_site_label
_atom_site_fract_x
_atom_site_fract_y
_atom_site_fract_z
Si Si1 0.580724 0.790162 0.014063
Si Si2 0.406014 0.451765 0.326607
Si Si3 0.398261 0.055577 0.602246
Si Si4 0.043531 0.922400 0.209551
Si Si5 0.859213 0.033931 0.591104
Si Si6 0.233238 0.321143 0.656566
Si Si7 0.903627 0.351128 0.391931
Si Si8 0.674945 0.644022 0.805308
O O1 0.416734 0.733990 0.081265
O O2 0.676324 0.572853 0.250501
O O3 0.781602 0.780326 0.895049
O O4 0.465054 0.094843 0.794362
O O5 0.401122 0.335014 0.365640
O O6 0.639192 0.263639 0.437651
O O7 0.236464 0.365791 0.527064
O O8 0.338765 0.135701 0.467883
O O9 0.206968 0.985035 0.783674
O O10 0.607996 0.794027 0.761186
O O11 0.169661 0.633726 0.403551
O O12 0.093969 0.823398 0.366924
O O13 0.099427 0.169788 0.904566
O O14 0.956153 0.134122 0.519650
O O15 0.000000 0.000000 0.500000
O O16 0.077751 0.510403 0.155969
O O17 0.500000 0.500000 0.000000
#
# Coordination Sequence:
#
# PCOD9024688 Si02
#       8
#     2   2   2   2   2   2   2   2
#     4  10  23  44  67 100 139 177 233 280 342 411
#     4  10  22  44  65 100 134 184 227 283 344 404
#     4  10  24  42  67  98 139 177 231 283 343 410
#     4  11  26  44  71 101 137 184 234 284 344 409
#     4  10  22  40  65  98 137 176 228 279 344 410
#     4  11  24  47  67 102 141 179 236 285 342 404
#     4  10  24  41  68 103 131 183 224 282 347 413
#     4  10  23  43  67 102 136 177 225 284 347 410
#
# _framework density 25.812805999999998
#
# number of rings (size 3 to 8) (size 9 to 14) (size 15 to 20)
#    0.000    1.750    1.250    0.750    5.250   10.000 
#    0.000    0.000    0.000    0.000    0.000    0.000 
#    0.000    0.000    0.000    0.000    0.000    0.000 
#
# Total GULP energy -89198.782606 kJ/mol
# GULP energy per Si atom -5574.923913 kJ/mol
# Density = 2.575405 g / cm^3
# Si number density = 25.812806 Si / 1000 Ang^3
#
#
#
# Elastic Constant Matrix: (Units=GPa)
#
#
# Indices 1 2 3 4 5 6 
#
# 1 55.8831 33.9507 0.4631 3.7249 -6.0377 5.7276
# 2 33.9507 149.7501 24.5515 17.7869 -6.8071 18.8244
# 3 0.4631 24.5515 90.1204 11.2442 -15.7980 -3.4137
# 4 3.7249 17.7869 11.2442 48.9517 -7.9914 -6.9400
# 5 -6.0377 -6.8071 -15.7980 -7.9914 26.3438 7.8794
# 6 5.7276 18.8244 -3.4137 -6.9400 7.8794 35.4920
#
#
#
# Elastic Compliance Matrix: (Units=1/GPa)
#
#
# Indices 1 2 3 4 5 6 
#
# 1 0.021555 -0.004754 0.002062 0.000252 0.005610 -0.001955
# 2 -0.004754 0.009131 -0.002176 -0.003080 0.000527 -0.005004
# 3 0.002062 -0.002176 0.013121 -0.001146 0.007364 0.000224
# 4 0.000252 -0.003080 -0.001146 0.023182 0.004079 0.005110
# 5 0.005610 0.000527 0.007364 0.004079 0.048135 -0.010366
# 6 -0.001955 -0.005004 0.000224 0.005110 -0.010366 0.034467
#
#
# Mechanical properties :
#
#
# Convention : Reuss Voigt Hill
#
# Bulk Modulus (GPa) = 29.35007 45.96490 37.65749
# Shear Modulus (GPa) = 29.29376 37.94339 33.61857
#
# Velocity S-wave (km/s) = 3.37241 3.83814 3.61279
# Velocity P-wave (km/s) = 5.15357 6.12270 5.65892
#
# Compressibility (1/GPa) = 0.03407147
#
# Stress axis : x y z
#
# Youngs Moduli (GPa) = 46.39207 109.51356 76.21426
#
# Poissons Ratio (x) = 0.52066 -0.15718
# Poissons Ratio (y) = 0.22056 0.16585
# Poissons Ratio (z) = -0.09568 0.23831
#
# Static dielectric constant tensor:
#      x y z
#    x 2.149110 -0.071310 -0.053080 
#    y -0.071310 2.128080 -0.099720 
#    z -0.053080 -0.099720 2.203280 
# 
# From -- ./inp_files/570298.got.cif
#   From: 2010.05.17/outbox.cif.g08.bks.cpg/sg2_286_cif.got.tgz:570298.got - 2010.06.03 11:33:40.
