data_PCOD9024840
_publ_section_title
;
Structure prediction by ZEFSAII (Michael W. Deem and Ramdas Pophale) SiO2 
 PCOD9024840
Probable space group: P -1
;
_chemical_formula_sum "Si O2"
_cell_formula_units_Z 16
_cell_length_a 17.504612
_cell_length_b 6.519007
_cell_length_c 8.621523
_cell_angle_alpha 79.322893
_cell_angle_beta 67.514876
_cell_angle_gamma 54.516985
_cell_volume 739.332780
_symmetry_space_group_name_H-M "P -1"
_symmetry_group_IT_number 2
_symmetry_cell_setting 'triclinic'
loop_
_space_group_symop_operation_xyz
x,y,z
-x,-y,-z
loop_
_atom_site_type_symbol
_atom_site_label
_atom_site_fract_x
_atom_site_fract_y
_atom_site_fract_z
Si Si1 0.560346 0.206185 0.965123
Si Si2 0.164528 0.417649 0.856390
Si Si3 0.270418 0.773464 0.292929
Si Si4 0.902586 0.686838 0.644188
Si Si5 0.063403 0.167285 0.070975
Si Si6 0.808643 0.414266 0.870047
Si Si7 0.340977 0.348419 0.539509
Si Si8 0.513571 0.917239 0.264959
O O1 0.669987 0.115933 0.838403
O O2 0.509224 0.173336 0.860957
O O3 0.500000 0.500000 0.000000
O O4 0.555566 0.075568 0.141885
O O5 0.236969 0.388521 0.666358
O O6 0.052297 0.673469 0.908997
O O7 0.138351 0.206254 0.904773
O O8 0.216793 0.433127 0.970514
O O9 0.265178 0.616364 0.175846
O O10 0.320438 0.584872 0.423385
O O11 0.164971 0.020546 0.393340
O O12 0.934752 0.703823 0.789755
O O13 0.844816 0.550452 0.714544
O O14 0.000000 0.500000 0.500000
O O15 0.108363 0.877039 0.109125
O O16 0.407535 0.293865 0.648676
O O17 0.411280 0.103238 0.412209
#
# Coordination Sequence:
#
# PCOD9024840 Si02
#       8
#     2   2   2   2   2   2   2   2
#     4  11  24  47  75  96 134 182 226 277 339 420
#     4  10  22  40  66  92 138 173 224 276 340 400
#     4  11  26  42  67 103 132 179 230 270 348 411
#     4  10  24  40  66  96 134 177 227 287 332 399
#     4   9  21  42  62  96 127 180 227 273 332 407
#     4  10  23  41  65  93 133 179 227 269 334 414
#     4  11  25  45  65 105 138 174 220 292 342 395
#     4  10  26  47  70  98 140 173 225 286 341 405
#
# _framework density 21.641133
#
# number of rings (size 3 to 8) (size 9 to 14) (size 15 to 20)
#    0.000    1.750    1.250    0.375   12.250    1.500 
#    2.250    0.000    0.000    0.000    0.000    0.000 
#    0.000    0.000    0.000    0.000    0.000    0.000 
#
# Total GULP energy -89317.275862 kJ/mol
# GULP energy per Si atom -5582.329741 kJ/mol
# Density = 2.159188 g / cm^3
# Si number density = 21.641133 Si / 1000 Ang^3
#
#
#
# Elastic Constant Matrix: (Units=GPa)
#
#
# Indices 1 2 3 4 5 6 
#
# 1 71.1520 40.6511 36.1178 -11.7811 0.7042 -0.3394
# 2 40.6511 61.8773 30.4232 -8.8086 0.3562 -4.6997
# 3 36.1178 30.4232 98.1457 -6.5393 -17.8675 -9.2663
# 4 -11.7811 -8.8086 -6.5393 30.6137 -10.0880 2.3227
# 5 0.7042 0.3562 -17.8675 -10.0880 35.0719 -3.9058
# 6 -0.3394 -4.6997 -9.2663 2.3227 -3.9058 27.5402
#
#
#
# Elastic Compliance Matrix: (Units=1/GPa)
#
#
# Indices 1 2 3 4 5 6 
#
# 1 0.025479 -0.013641 -0.005802 0.004118 -0.002667 -0.004691
# 2 -0.013641 0.027110 -0.003153 0.001352 -0.000867 0.003160
# 3 -0.005802 -0.003153 0.015823 0.003001 0.009723 0.005840
# 4 0.004118 0.001352 0.003001 0.039505 0.012770 -0.000230
# 5 -0.002667 -0.000867 0.009723 0.012770 0.038027 0.007407
# 6 -0.004691 0.003160 0.005840 -0.000230 0.007407 0.039827
#
#
# Mechanical properties :
#
#
# Convention : Reuss Voigt Hill
#
# Bulk Modulus (GPa) = 43.06595 49.50659 46.28627
# Shear Modulus (GPa) = 20.94660 26.91069 23.92865
#
# Velocity S-wave (km/s) = 3.11450 3.53015 3.32882
# Velocity P-wave (km/s) = 5.73382 6.28823 6.01741
#
# Compressibility (1/GPa) = 0.02322020
#
# Stress axis : x y z
#
# Youngs Moduli (GPa) = 39.24847 36.88640 63.19945
#
# Poissons Ratio (x) = 0.50315 0.36668
# Poissons Ratio (y) = 0.53537 0.19928
# Poissons Ratio (z) = 0.22772 0.11631
#
# Static dielectric constant tensor:
#      x y z
#    x 1.852730 -0.011330 -0.046340 
#    y -0.011330 1.779850 -0.008790 
#    z -0.046340 -0.008790 1.822920 
# 
# From -- ./inp_files/323541.got.cif
#   From: 2010.05.17/outbox.cif.g08.bks.cpg/sg2_162_cif.got.tgz:323541.got - 2010.06.03 11:33:40.
