data_PCOD9024598
_publ_section_title
;
Structure prediction by ZEFSAII (Michael W. Deem and Ramdas Pophale) SiO2 
 PCOD9024598
Probable space group: P -1
;
_chemical_formula_sum "Si O2"
_cell_formula_units_Z 16
_cell_length_a 12.383015
_cell_length_b 11.601527
_cell_length_c 6.316995
_cell_angle_alpha 115.511502
_cell_angle_beta 113.297520
_cell_angle_gamma 67.856626
_cell_volume 728.510925
_symmetry_space_group_name_H-M "P -1"
_symmetry_group_IT_number 2
_symmetry_cell_setting 'triclinic'
loop_
_space_group_symop_operation_xyz
x,y,z
-x,-y,-z
loop_
_atom_site_type_symbol
_atom_site_label
_atom_site_fract_x
_atom_site_fract_y
_atom_site_fract_z
Si Si1 0.730858 0.073831 0.043095
Si Si2 0.626445 0.891688 0.541654
Si Si3 0.048590 0.815088 0.743085
Si Si4 0.516817 0.294704 0.848653
Si Si5 0.936740 0.688361 0.937454
Si Si6 0.853871 0.437042 0.673843
Si Si7 0.179369 0.092909 0.646176
Si Si8 0.399950 0.521150 0.257867
O O1 0.613404 0.189016 0.981429
O O2 0.695991 0.943565 0.824510
O O3 0.849765 0.107586 0.061076
O O4 0.768618 0.042036 0.290599
O O5 0.578523 0.761461 0.408031
O O6 0.715106 0.887020 0.409118
O O7 0.500000 0.000000 0.500000
O O8 0.117869 0.680005 0.569059
O O9 0.980598 0.771092 0.853910
O O10 0.944197 0.898787 0.573708
O O11 0.593762 0.357463 0.793307
O O12 0.436614 0.398540 0.029501
O O13 0.875097 0.575284 0.714839
O O14 0.855988 0.786073 0.121530
O O15 0.052853 0.612280 0.101344
O O16 0.724110 0.460498 0.699215
O O17 0.500000 0.500000 0.500000
#
# Coordination Sequence:
#
# PCOD9024598 Si02
#       8
#     2   2   2   2   2   2   2   2
#     4  11  24  43  64  90 129 171 212 261 310 370
#     4  10  24  42  63  89 125 169 213 257 304 366
#     4  11  23  40  65  97 129 164 209 261 317 376
#     4  10  24  43  64  95 128 166 214 259 314 374
#     4  10  22  41  65  93 127 164 205 259 315 377
#     4  10  22  40  65  94 125 164 208 255 319 379
#     4  11  24  40  64  95 125 167 212 257 314 377
#     4  11  23  40  67  97 127 163 206 263 319 376
#
# _framework density 21.962609
#
# number of rings (size 3 to 8) (size 9 to 14) (size 15 to 20)
#    0.000    1.500    0.000    3.750    0.000   14.000 
#    0.000    0.000    0.000    0.000    0.000    0.000 
#    0.000    0.000    0.000    0.000    0.000    0.000 
#
# Total GULP energy -89442.454695 kJ/mol
# GULP energy per Si atom -5590.153418 kJ/mol
# Density = 2.191262 g / cm^3
# Si number density = 21.962609 Si / 1000 Ang^3
#
#
#
# Elastic Constant Matrix: (Units=GPa)
#
#
# Indices 1 2 3 4 5 6 
#
# 1 132.2242 19.3106 18.7030 6.5951 14.5031 -19.4528
# 2 19.3106 47.9065 7.9166 -11.9864 13.2586 -2.5973
# 3 18.7030 7.9166 58.3713 10.1565 15.5520 -4.0600
# 4 6.5951 -11.9864 10.1565 32.2376 5.8469 5.7859
# 5 14.5031 13.2586 15.5520 5.8469 26.6919 1.8697
# 6 -19.4528 -2.5973 -4.0600 5.7859 1.8697 20.3463
#
#
#
# Elastic Compliance Matrix: (Units=1/GPa)
#
#
# Indices 1 2 3 4 5 6 
#
# 1 0.010399 -0.003849 -0.000328 -0.004849 -0.003260 0.011064
# 2 -0.003849 0.030925 -0.001896 0.016290 -0.015501 -0.003318
# 3 -0.000328 -0.001896 0.021999 -0.006847 -0.010671 0.006762
# 4 -0.004849 0.016290 -0.006847 0.044903 -0.010200 -0.015755
# 5 -0.003260 -0.015501 -0.010671 -0.010200 0.056051 -0.009475
# 6 0.011064 -0.003318 0.006762 -0.015755 -0.009475 0.066003
#
#
# Mechanical properties :
#
#
# Convention : Reuss Voigt Hill
#
# Bulk Modulus (GPa) = 19.54034 36.70695 28.12365
# Shear Modulus (GPa) = 19.26900 28.69330 23.98115
#
# Velocity S-wave (km/s) = 2.96523 3.61842 3.30799
# Velocity P-wave (km/s) = 4.54311 5.84867 5.23674
#
# Compressibility (1/GPa) = 0.05117617
#
# Stress axis : x y z
#
# Youngs Moduli (GPa) = 96.16757 32.33671 45.45702
#
# Poissons Ratio (x) = 0.12445 0.01491
# Poissons Ratio (y) = 0.37011 0.08620
# Poissons Ratio (z) = 0.03154 0.06132
#
# Static dielectric constant tensor:
#      x y z
#    x 1.766680 0.010490 0.020920 
#    y 0.010490 1.845480 0.029760 
#    z 0.020920 0.029760 1.822230 
# 
# From -- ./inp_files/71976.got.cif
#   From: 2010.05.17/outbox.cif.g08.bks.cpg/sg2_36_cif.got.tgz:71976.got - 2010.06.03 11:33:40.
