data_PCOD9024846
_publ_section_title
;
Structure prediction by ZEFSAII (Michael W. Deem and Ramdas Pophale) SiO2 
 PCOD9024846
Probable space group: P -1
;
_chemical_formula_sum "Si O2"
_cell_formula_units_Z 14
_cell_length_a 11.872548
_cell_length_b 8.937147
_cell_length_c 8.280059
_cell_angle_alpha 100.804309
_cell_angle_beta 67.685087
_cell_angle_gamma 52.815107
_cell_volume 533.956834
_symmetry_space_group_name_H-M "P -1"
_symmetry_group_IT_number 2
_symmetry_cell_setting 'triclinic'
loop_
_space_group_symop_operation_xyz
x,y,z
-x,-y,-z
loop_
_atom_site_type_symbol
_atom_site_label
_atom_site_fract_x
_atom_site_fract_y
_atom_site_fract_z
Si Si1 0.413321 0.816770 0.528991
Si Si2 0.096181 0.684823 0.807483
Si Si3 0.250915 0.266262 0.751244
Si Si4 0.385197 0.218578 0.996898
Si Si5 0.698250 0.157181 0.727935
Si Si6 0.279967 0.781587 0.905043
Si Si7 0.938901 0.379373 0.536032
O O1 0.587813 0.769453 0.412816
O O2 0.354920 0.745502 0.408175
O O3 0.406325 0.747618 0.696037
O O4 0.256676 0.092881 0.642769
O O5 0.082302 0.532438 0.864620
O O6 0.232084 0.661934 0.833277
O O7 0.144590 0.605633 0.580975
O O8 0.905767 0.948695 0.955583
O O9 0.300137 0.202393 0.896783
O O10 0.222639 0.461770 0.216283
O O11 0.537135 0.186776 0.839860
O O12 0.500000 0.000000 0.000000
O O13 0.682883 0.260570 0.930205
O O14 0.894091 0.889872 0.570857
O O15 0.000000 0.500000 0.500000
#
# Coordination Sequence:
#
# PCOD9024846 Si02
#       7
#     2   2   2   2   2   2   2
#     4  10  22  40  66  93 127 170 213 272 325 379
#     4  10  24  43  61  97 128 168 224 260 324 399
#     4  10  23  39  62  98 127 161 221 272 318 389
#     4  11  22  38  62  96 133 165 210 276 325 383
#     4  10  22  41  61  94 128 167 220 262 323 388
#     4  10  23  45  66  87 136 176 207 275 323 380
#     4  11  22  38  65  93 127 172 211 268 330 382
#
# _framework density 26.219345000000001
#
# number of rings (size 3 to 8) (size 9 to 14) (size 15 to 20)
#    0.000    1.714    1.429    1.714   10.000    1.143 
#    2.571    3.571    0.000    0.000    0.000    0.000 
#    0.000    0.000    0.000    0.000    0.000    0.000 
#
# Total GULP energy -78260.486049 kJ/mol
# GULP energy per Si atom -5590.034718 kJ/mol
# Density = 2.615967 g / cm^3
# Si number density = 26.219345 Si / 1000 Ang^3
#
#
#
# Elastic Constant Matrix: (Units=GPa)
#
#
# Indices 1 2 3 4 5 6 
#
# 1 121.7673 32.9105 51.4523 -11.0173 30.9062 -22.9337
# 2 32.9105 111.4443 35.8004 -0.0626 8.1819 -4.1525
# 3 51.4523 35.8004 129.3509 -10.0363 32.2069 -8.5970
# 4 -11.0173 -0.0626 -10.0363 23.4942 -10.9099 9.3826
# 5 30.9062 8.1819 32.2069 -10.9099 51.8636 -4.0578
# 6 -22.9337 -4.1525 -8.5970 9.3826 -4.0578 45.5234
#
#
#
# Elastic Compliance Matrix: (Units=1/GPa)
#
#
# Indices 1 2 3 4 5 6 
#
# 1 0.012087 -0.002181 -0.002671 0.000368 -0.004741 0.004888
# 2 -0.002181 0.010293 -0.002306 -0.001540 0.000767 -0.000210
# 3 -0.002671 -0.002306 0.010608 0.001330 -0.004369 -0.000216
# 4 0.000368 -0.001540 0.001330 0.051384 0.009266 -0.009468
# 5 -0.004741 0.000767 -0.004369 0.009266 0.026437 -0.002697
# 6 0.004888 -0.000210 -0.000216 -0.009468 -0.002697 0.026080
#
#
# Mechanical properties :
#
#
# Convention : Reuss Voigt Hill
#
# Bulk Modulus (GPa) = 53.55164 66.98767 60.26965
# Shear Modulus (GPa) = 31.76026 40.33621 36.04824
#
# Velocity S-wave (km/s) = 3.48419 3.92652 3.71195
# Velocity P-wave (km/s) = 6.05433 6.79420 6.43491
#
# Compressibility (1/GPa) = 0.01867357
#
# Stress axis : x y z
#
# Youngs Moduli (GPa) = 82.73023 97.15447 94.26742
#
# Poissons Ratio (x) = 0.21192 0.25175
# Poissons Ratio (y) = 0.18046 0.21734
# Poissons Ratio (z) = 0.22094 0.22400
#
# Static dielectric constant tensor:
#      x y z
#    x 2.015610 -0.017820 -0.043330 
#    y -0.017820 2.056460 -0.010860 
#    z -0.043330 -0.010860 2.279920 
# 
# From -- ./inp_files/244953.got.cif
#   From: 2010.05.17/outbox.cif.g08.bks.cpg/sg2_123_cif.got.tgz:244953.got - 2010.06.03 11:33:40.
