data_PCOD9024619
_publ_section_title
;
Structure prediction by ZEFSAII (Michael W. Deem and Ramdas Pophale) SiO2 
 PCOD9024619
Probable space group: P -1
;
_chemical_formula_sum "Si O2"
_cell_formula_units_Z 16
_cell_length_a 25.600420
_cell_length_b 14.282196
_cell_length_c 16.652095
_cell_angle_alpha 148.356803
_cell_angle_beta 161.019352
_cell_angle_gamma 20.813064
_cell_volume 675.076795
_symmetry_space_group_name_H-M "P -1"
_symmetry_group_IT_number 2
_symmetry_cell_setting 'triclinic'
loop_
_space_group_symop_operation_xyz
x,y,z
-x,-y,-z
loop_
_atom_site_type_symbol
_atom_site_label
_atom_site_fract_x
_atom_site_fract_y
_atom_site_fract_z
Si Si1 0.121207 0.151718 0.731300
Si Si2 0.639713 0.067550 0.345560
Si Si3 0.162387 0.720939 0.450650
Si Si4 0.897855 0.195787 0.747840
Si Si5 0.922336 0.453354 0.117772
Si Si6 0.397963 0.580422 0.001452
Si Si7 0.704739 0.629345 0.182159
Si Si8 0.925265 0.882396 0.765114
O O1 0.045521 0.218801 0.763328
O O2 0.050912 0.015894 0.498888
O O3 0.998331 0.424404 0.711553
O O4 0.411047 0.912624 0.960081
O O5 0.766167 0.115093 0.512196
O O6 0.359956 0.284982 0.069857
O O7 0.777246 0.761180 0.340566
O O8 0.675001 0.116276 0.522239
O O9 0.216678 0.622542 0.366802
O O10 0.391360 0.545975 0.717786
O O11 0.896553 0.326084 0.918039
O O12 0.182523 0.907143 0.935295
O O13 0.095513 0.245158 0.289066
O O14 0.500000 0.500000 0.000000
O O15 0.288613 0.480482 0.801478
O O16 0.843049 0.368721 0.137489
O O17 0.000000 0.000000 0.000000
#
# Coordination Sequence:
#
# PCOD9024619 Si02
#       8
#     2   2   2   2   2   2   2   2
#     4   9  21  43  64  95 120 167 215 264 311 370
#     4  11  25  40  63  96 128 171 209 257 314 381
#     4  10  23  42  68  93 122 166 217 265 313 368
#     4  12  24  40  65  94 130 169 207 259 324 370
#     4  11  26  41  64  95 132 168 209 260 316 385
#     4  11  23  42  66  95 125 161 218 267 311 372
#     4  10  22  40  65  95 126 165 213 262 311 381
#     4  12  24  41  60  93 134 165 208 253 314 378
#
# _framework density 23.701006
#
# number of rings (size 3 to 8) (size 9 to 14) (size 15 to 20)
#    0.000    1.250    2.500    3.000    5.250    3.500 
#    0.000    0.625    0.000    0.000    0.000    0.000 
#    0.000    0.000    0.000    0.000    0.000    0.000 
#
# Total GULP energy -89240.651178 kJ/mol
# GULP energy per Si atom -5577.540699 kJ/mol
# Density = 2.364706 g / cm^3
# Si number density = 23.701006 Si / 1000 Ang^3
#
#
#
# Elastic Constant Matrix: (Units=GPa)
#
#
# Indices 1 2 3 4 5 6 
#
# 1 170.9706 31.8879 27.2580 2.6438 1.0286 12.9408
# 2 31.8879 54.7977 7.6134 -2.1631 10.5102 3.4396
# 3 27.2580 7.6134 39.0058 -2.4962 -6.7614 10.4277
# 4 2.6438 -2.1631 -2.4962 21.1844 15.6195 -2.7377
# 5 1.0286 10.5102 -6.7614 15.6195 34.3771 -1.2954
# 6 12.9408 3.4396 10.4277 -2.7377 -1.2954 29.4767
#
#
#
# Elastic Compliance Matrix: (Units=1/GPa)
#
#
# Indices 1 2 3 4 5 6 
#
# 1 0.007394 -0.004123 -0.003838 -0.003266 0.001706 -0.001635
# 2 -0.004123 0.024263 -0.003658 0.012868 -0.013828 0.000860
# 3 -0.003838 -0.003658 0.032905 -0.004003 0.009166 -0.009498
# 4 -0.003266 0.012868 -0.004003 0.079046 -0.040278 0.006920
# 5 0.001706 -0.013828 0.009166 -0.040278 0.053227 -0.003780
# 6 -0.001635 0.000860 -0.009498 0.006920 -0.003780 0.038379
#
#
# Mechanical properties :
#
#
# Convention : Reuss Voigt Hill
#
# Bulk Modulus (GPa) = 24.19950 44.25476 34.22713
# Shear Modulus (GPa) = 18.36703 30.20861 24.28782
#
# Velocity S-wave (km/s) = 2.78681 3.57399 3.20466
# Velocity P-wave (km/s) = 4.53735 5.97861 5.30713
#
# Compressibility (1/GPa) = 0.04132317
#
# Stress axis : x y z
#
# Youngs Moduli (GPa) = 135.24699 41.21568 30.39037
#
# Poissons Ratio (x) = 0.16993 0.11664
# Poissons Ratio (y) = 0.55762 0.11117
# Poissons Ratio (z) = 0.51910 0.15077
#
# Static dielectric constant tensor:
#      x y z
#    x 1.990640 0.003210 0.007250 
#    y 0.003210 1.908110 0.011940 
#    z 0.007250 0.011940 2.008800 
# 
# From -- ./inp_files/579895.got.cif
#   From: 2010.05.17/outbox.cif.g08.bks.cpg/sg2_290_cif.got.tgz:579895.got - 2010.06.03 11:33:40.
