data_PCOD9024977
_publ_section_title
;
Structure prediction by ZEFSAII (Michael W. Deem and Ramdas Pophale) SiO2 
 PCOD9024977
Probable space group: P -1
;
_chemical_formula_sum "Si O2"
_cell_formula_units_Z 16
_cell_length_a 10.390088
_cell_length_b 8.902978
_cell_length_c 19.363411
_cell_angle_alpha 58.067778
_cell_angle_beta 34.169620
_cell_angle_gamma 44.579242
_cell_volume 697.766733
_symmetry_space_group_name_H-M "P -1"
_symmetry_group_IT_number 2
_symmetry_cell_setting 'triclinic'
loop_
_space_group_symop_operation_xyz
x,y,z
-x,-y,-z
loop_
_atom_site_type_symbol
_atom_site_label
_atom_site_fract_x
_atom_site_fract_y
_atom_site_fract_z
Si Si1 0.298842 0.437543 0.634100
Si Si2 0.836250 0.690970 0.882937
Si Si3 0.275518 0.481643 0.908294
Si Si4 0.573238 0.269763 0.048671
Si Si5 0.169643 0.411320 0.312062
Si Si6 0.916024 0.168672 0.696727
Si Si7 0.188564 0.024991 0.464439
Si Si8 0.016257 0.909386 0.847519
O O1 0.500000 0.500000 0.500000
O O2 0.138684 0.567374 0.742988
O O3 0.066636 0.498476 0.664756
O O4 0.494907 0.185415 0.626331
O O5 0.617352 0.787867 0.894661
O O6 0.820985 0.852280 0.906928
O O7 0.781910 0.524870 0.983642
O O8 0.585820 0.264740 0.812932
O O9 0.253642 0.679317 0.831374
O O10 0.000000 0.500000 0.000000
O O11 0.464933 0.302043 0.166873
O O12 0.500000 0.500000 0.000000
O O13 0.875188 0.078526 0.932267
O O14 0.098228 0.615485 0.337895
O O15 0.170515 0.236148 0.399617
O O16 0.060961 0.023688 0.736323
O O17 0.072765 0.046712 0.587507
O O18 0.000000 0.000000 0.500000
#
# Coordination Sequence:
#
# PCOD9024977 Si02
#       8
#     2   2   2   2   2   2   2   2
#     4  11  24  46  68 103 137 179 240 288 343 413
#     4  10  22  40  66  98 137 175 230 287 334 416
#     4  10  24  39  67 106 136 179 230 288 337 420
#     4  11  21  42  67 100 142 173 227 280 351 412
#     4  11  26  46  71 100 144 185 228 299 343 417
#     4  12  26  48  67 104 145 177 240 286 351 415
#     4  12  28  44  76 101 135 192 234 294 348 411
#     4  11  23  39  70  96 136 188 214 281 352 400
#
# _framework density 22.930299000000002
#
# number of rings (size 3 to 8) (size 9 to 14) (size 15 to 20)
#    0.000    1.000    3.750    1.500    8.750    2.500 
#    0.000    1.250    0.000    0.000    0.000    0.000 
#    0.000    0.000    0.000    0.000    0.000    0.000 
#
# Total GULP energy -89347.688704 kJ/mol
# GULP energy per Si atom -5584.230544 kJ/mol
# Density = 2.287811 g / cm^3
# Si number density = 22.930299 Si / 1000 Ang^3
#
#
#
# Elastic Constant Matrix: (Units=GPa)
#
#
# Indices 1 2 3 4 5 6 
#
# 1 65.6084 7.8913 2.9397 5.0348 2.1311 7.2998
# 2 7.8913 105.5143 23.8013 -14.0044 11.2562 -1.7029
# 3 2.9397 23.8013 104.7840 3.3468 20.5310 5.1486
# 4 5.0348 -14.0044 3.3468 44.2184 7.0476 6.3996
# 5 2.1311 11.2562 20.5310 7.0476 28.1679 -3.7857
# 6 7.2998 -1.7029 5.1486 6.3996 -3.7857 35.5710
#
#
#
# Elastic Compliance Matrix: (Units=1/GPa)
#
#
# Indices 1 2 3 4 5 6 
#
# 1 0.015911 -0.001436 0.000247 -0.001701 -0.000808 -0.003150
# 2 -0.001436 0.011020 -0.001788 0.004471 -0.004132 -0.000163
# 3 0.000247 -0.001788 0.011687 0.000234 -0.008250 -0.002748
# 4 -0.001701 0.004471 0.000234 0.026415 -0.009136 -0.005195
# 5 -0.000808 -0.004132 -0.008250 -0.009136 0.046556 0.007761
# 6 -0.003150 -0.000163 -0.002748 -0.005195 0.007761 0.030910
#
#
# Mechanical properties :
#
#
# Convention : Reuss Voigt Hill
#
# Bulk Modulus (GPa) = 30.61503 38.35236 34.48370
# Shear Modulus (GPa) = 31.37957 37.67644 34.52800
#
# Velocity S-wave (km/s) = 3.70331 4.05790 3.88465
# Velocity P-wave (km/s) = 5.62728 6.22232 5.93227
#
# Compressibility (1/GPa) = 0.03266370
#
# Stress axis : x y z
#
# Youngs Moduli (GPa) = 62.85036 90.74630 85.56739
#
# Poissons Ratio (x) = 0.13032 -0.02115
# Poissons Ratio (y) = 0.09026 0.15299
# Poissons Ratio (z) = -0.01554 0.16225
#
# Static dielectric constant tensor:
#      x y z
#    x 1.977060 -0.028320 0.019720 
#    y -0.028320 1.882880 -0.042200 
#    z 0.019720 -0.042200 1.899380 
# 
# From -- ./inp_files/278884.got.cif
#   From: 2010.05.17/outbox.cif.g08.bks.cpg/sg2_140_cif.got.tgz:278884.got - 2010.06.03 11:33:40.
