data_PCOD9024237
_publ_section_title
;
Structure prediction by ZEFSAII (Michael W. Deem and Ramdas Pophale) SiO2 
 PCOD9024237
Probable space group: P -1
;
_chemical_formula_sum "Si O2"
_cell_formula_units_Z 15
_cell_length_a 8.864271
_cell_length_b 16.490364
_cell_length_c 12.862855
_cell_angle_alpha 155.215387
_cell_angle_beta 54.827737
_cell_angle_gamma 133.557419
_cell_volume 563.545125
_symmetry_space_group_name_H-M "P -1"
_symmetry_group_IT_number 2
_symmetry_cell_setting 'triclinic'
loop_
_space_group_symop_operation_xyz
x,y,z
-x,-y,-z
loop_
_atom_site_type_symbol
_atom_site_label
_atom_site_fract_x
_atom_site_fract_y
_atom_site_fract_z
Si Si1 0.703781 0.008721 0.875401
Si Si2 0.650212 0.567641 0.158849
Si Si3 0.044829 0.910553 0.704884
Si Si4 0.649845 0.142297 0.846950
Si Si5 0.645020 0.653948 0.801452
Si Si6 0.916435 0.499268 0.415363
Si Si7 0.000000 0.500000 0.000000
Si Si8 0.621033 0.868569 0.354083
O O1 0.874900 0.269481 0.116825
O O2 0.648059 0.972547 0.734135
O O3 0.500000 0.000000 0.000000
O O4 0.814738 0.877000 0.725431
O O5 0.449787 0.488490 0.221744
O O6 0.842319 0.605119 0.197466
O O7 0.702037 0.750568 0.265921
O O8 0.583437 0.337863 0.854765
O O9 0.043680 0.707221 0.530643
O O10 0.197652 0.987651 0.633009
O O11 0.145820 0.122944 0.988527
O O12 0.566314 0.018629 0.625804
O O13 0.510653 0.254703 0.067119
O O14 0.881531 0.331789 0.948265
O O15 0.703159 0.515186 0.538254
O O16 0.000000 0.500000 0.500000
#
# Coordination Sequence:
#
# PCOD9024237 Si02
#       8
#     2   2   2   2   2   2   1   2
#     4  12  29  48  72 112 145 189 246 306 363 431
#     4   9  21  42  71 106 144 186 248 285 364 432
#     4  11  25  47  76 110 141 187 256 292 362 447
#     4  11  26  45  71 104 151 188 235 300 363 429
#     4  10  23  45  74 106 139 191 246 297 355 440
#     4  12  27  49  81 102 142 196 243 310 364 426
#     4  10  22  40  64 104 144 180 230 294 354 420
#     4  10  23  46  72 103 146 197 233 296 359 441
#
# _framework density 26.617208999999999
#
# number of rings (size 3 to 8) (size 9 to 14) (size 15 to 20)
#    0.000    1.333    1.333    2.000    5.600    9.067 
#    2.400    0.000    0.000    0.000    0.000    0.000 
#    0.000    0.000    0.000    0.000    0.000    0.000 
#
# Total GULP energy -83771.126861 kJ/mol
# GULP energy per Si atom -5584.741791 kJ/mol
# Density = 2.655663 g / cm^3
# Si number density = 26.617209 Si / 1000 Ang^3
#
#
#
# Elastic Constant Matrix: (Units=GPa)
#
#
# Indices 1 2 3 4 5 6 
#
# 1 80.2461 46.3950 20.2240 24.2922 -26.6704 -3.7592
# 2 46.3950 164.1579 20.8153 20.3562 -10.2351 -28.1168
# 3 20.2240 20.8153 101.3884 2.2864 -2.5774 -20.2448
# 4 24.2922 20.3562 2.2864 39.6248 -11.7834 -20.5062
# 5 -26.6704 -10.2351 -2.5774 -11.7834 31.8617 4.5334
# 6 -3.7592 -28.1168 -20.2448 -20.5062 4.5334 40.4661
#
#
#
# Elastic Compliance Matrix: (Units=1/GPa)
#
#
# Indices 1 2 3 4 5 6 
#
# 1 0.027549 -0.006547 -0.006401 -0.016069 0.016660 -0.015201
# 2 -0.006547 0.008612 0.000894 0.002566 -0.002750 0.007431
# 3 -0.006401 0.000894 0.012805 0.007291 -0.002824 0.010444
# 4 -0.016069 0.002566 0.007291 0.048581 0.001897 0.028343
# 5 0.016660 -0.002750 -0.002824 0.001897 0.045766 -0.005942
# 6 -0.015201 0.007431 0.010444 0.028343 -0.005942 0.048717
#
#
# Mechanical properties :
#
#
# Convention : Reuss Voigt Hill
#
# Bulk Modulus (GPa) = 40.22616 57.85124 49.03870
# Shear Modulus (GPa) = 22.27928 39.61442 30.94685
#
# Velocity S-wave (km/s) = 2.89628 3.86204 3.41348
# Velocity P-wave (km/s) = 5.13130 6.45514 5.83091
#
# Compressibility (1/GPa) = 0.02485944
#
# Stress axis : x y z
#
# Youngs Moduli (GPa) = 36.29875 116.11997 78.09174
#
# Poissons Ratio (x) = 0.76021 0.49983
# Poissons Ratio (y) = 0.23764 -0.06980
# Poissons Ratio (z) = 0.23233 -0.10380
#
# Static dielectric constant tensor:
#      x y z
#    x 1.979770 0.066170 0.168180 
#    y 0.066170 2.038680 -0.034130 
#    z 0.168180 -0.034130 2.085890 
# 
# From -- ./inp_files/399911.got.cif
#   From: 2010.05.17/outbox.cif.g08.bks.cpg/sg2_200_cif.got.tgz:399911.got - 2010.06.03 11:33:40.
