data_PCOD9024912
_publ_section_title
;
Structure prediction by ZEFSAII (Michael W. Deem and Ramdas Pophale) SiO2 
 PCOD9024912
Probable space group: P -1
;
_chemical_formula_sum "Si O2"
_cell_formula_units_Z 16
_cell_length_a 14.790529
_cell_length_b 8.183741
_cell_length_c 9.558598
_cell_angle_alpha 46.887663
_cell_angle_beta 49.368029
_cell_angle_gamma 63.492638
_cell_volume 640.987675
_symmetry_space_group_name_H-M "P -1"
_symmetry_group_IT_number 2
_symmetry_cell_setting 'triclinic'
loop_
_space_group_symop_operation_xyz
x,y,z
-x,-y,-z
loop_
_atom_site_type_symbol
_atom_site_label
_atom_site_fract_x
_atom_site_fract_y
_atom_site_fract_z
Si Si1 0.267440 0.266948 0.409600
Si Si2 0.582727 0.322028 0.334617
Si Si3 0.402597 0.165189 0.067576
Si Si4 0.834909 0.414612 0.107983
Si Si5 0.885586 0.380785 0.754511
Si Si6 0.641022 0.944410 0.277413
Si Si7 0.025134 0.013299 0.728151
Si Si8 0.806008 0.918189 0.871941
O O1 0.377748 0.198501 0.238563
O O2 0.225584 0.523599 0.279044
O O3 0.295856 0.199234 0.578778
O O4 0.149883 0.137387 0.549659
O O5 0.466104 0.209710 0.581236
O O6 0.602228 0.170193 0.264989
O O7 0.569559 0.583055 0.160954
O O8 0.703158 0.306731 0.312735
O O9 0.275479 0.083573 0.180996
O O10 0.500000 0.000000 0.000000
O O11 0.856626 0.453484 0.898010
O O12 0.934657 0.242662 0.155950
O O13 0.830268 0.657831 0.036434
O O14 0.000000 0.500000 0.500000
O O15 0.934942 0.125771 0.866675
O O16 0.722731 0.001063 0.032257
O O17 0.933029 0.042207 0.673846
#
# Coordination Sequence:
#
# PCOD9024912 Si02
#       8
#     2   2   2   2   2   2   2   2
#     4  11  24  45  69 100 136 176 227 276 343 400
#     4  10  23  45  71  94 141 175 232 279 333 412
#     4  11  27  48  70  99 142 181 215 286 357 394
#     4  11  21  45  65  97 138 182 216 285 343 399
#     4  10  22  40  66  95 134 178 222 272 337 405
#     4  11  25  43  73 103 124 187 237 276 329 412
#     4  11  24  40  71  95 136 184 226 271 334 413
#     4  11  26  42  68 102 136 171 230 276 337 404
#
# _framework density 24.961478
#
# number of rings (size 3 to 8) (size 9 to 14) (size 15 to 20)
#    0.000    1.250    3.750    1.500    7.000    5.000 
#    0.000    0.000    0.000    0.000    0.000    0.000 
#    0.000    0.000    0.000    0.000    0.000    0.000 
#
# Total GULP energy -89369.935754 kJ/mol
# GULP energy per Si atom -5585.620985 kJ/mol
# Density = 2.490466 g / cm^3
# Si number density = 24.961478 Si / 1000 Ang^3
#
#
#
# Elastic Constant Matrix: (Units=GPa)
#
#
# Indices 1 2 3 4 5 6 
#
# 1 107.6216 4.5634 33.6050 -2.0799 -27.9453 -10.6304
# 2 4.5634 139.5621 5.0235 -4.8673 5.0784 -21.1144
# 3 33.6050 5.0235 52.0273 6.6239 -9.5318 -0.3571
# 4 -2.0799 -4.8673 6.6239 37.3781 6.0929 1.0123
# 5 -27.9453 5.0784 -9.5318 6.0929 43.1837 -6.1206
# 6 -10.6304 -21.1144 -0.3571 1.0123 -6.1206 31.5958
#
#
#
# Elastic Compliance Matrix: (Units=1/GPa)
#
#
# Indices 1 2 3 4 5 6 
#
# 1 0.014678 0.000560 -0.008018 0.000735 0.008530 0.006851
# 2 0.000560 0.008075 -0.001308 0.001210 -0.000270 0.005479
# 3 -0.008018 -0.001308 0.025322 -0.005165 0.000864 -0.002952
# 4 0.000735 0.001210 -0.005165 0.028704 -0.004983 -0.000887
# 5 0.008530 -0.000270 0.000864 -0.004983 0.030855 0.008836
# 6 0.006851 0.005479 -0.002952 -0.000887 0.008836 0.039323
#
#
# Mechanical properties :
#
#
# Convention : Reuss Voigt Hill
#
# Bulk Modulus (GPa) = 32.74033 42.84388 37.79210
# Shear Modulus (GPa) = 28.62585 39.49946 34.06265
#
# Velocity S-wave (km/s) = 3.39012 3.98228 3.69807
# Velocity P-wave (km/s) = 5.33561 6.19241 5.77991
#
# Compressibility (1/GPa) = 0.03054337
#
# Stress axis : x y z
#
# Youngs Moduli (GPa) = 68.13114 123.83994 39.49187
#
# Poissons Ratio (x) = -0.06940 0.31666
# Poissons Ratio (y) = -0.03818 0.05164
# Poissons Ratio (z) = 0.54630 0.16192
#
# Static dielectric constant tensor:
#      x y z
#    x 2.004500 0.015820 -0.029640 
#    y 0.015820 2.028460 -0.066780 
#    z -0.029640 -0.066780 2.014650 
# 
# From -- ./inp_files/445500.got.cif
#   From: 2010.05.17/outbox.cif.g08.bks.cpg/sg2_223_cif.got.tgz:445500.got - 2010.06.03 11:33:40.
