data_PCOD9024151
_publ_section_title
;
Structure prediction by ZEFSAII (Michael W. Deem and Ramdas Pophale) SiO2 
 PCOD9024151
Probable space group: P -1
;
_chemical_formula_sum "Si O2"
_cell_formula_units_Z 15
_cell_length_a 11.948031
_cell_length_b 6.475136
_cell_length_c 11.680946
_cell_angle_alpha 87.312828
_cell_angle_beta 104.428357
_cell_angle_gamma 129.673514
_cell_volume 665.959873
_symmetry_space_group_name_H-M "P -1"
_symmetry_group_IT_number 2
_symmetry_cell_setting 'triclinic'
loop_
_space_group_symop_operation_xyz
x,y,z
-x,-y,-z
loop_
_atom_site_type_symbol
_atom_site_label
_atom_site_fract_x
_atom_site_fract_y
_atom_site_fract_z
Si Si1 0.255477 0.016977 0.562789
Si Si2 0.885198 0.153158 0.704896
Si Si3 0.214168 0.685500 0.768991
Si Si4 0.500000 0.000000 0.500000
Si Si5 0.697352 0.675458 0.846605
Si Si6 0.165431 0.906961 0.951451
Si Si7 0.407740 0.585396 0.695793
Si Si8 0.823264 0.418285 0.836154
O O1 0.402164 0.070617 0.545328
O O2 0.297038 0.280372 0.626628
O O3 0.142370 0.924727 0.431284
O O4 0.183696 0.780621 0.643893
O O5 0.805853 0.281767 0.714550
O O6 0.059321 0.392819 0.774243
O O7 0.809771 0.894422 0.771680
O O8 0.252270 0.898054 0.870023
O O9 0.334439 0.652114 0.768505
O O10 0.540262 0.215168 0.403079
O O11 0.544334 0.620084 0.788240
O O12 0.692211 0.426943 0.829044
O O13 0.766048 0.806646 0.985135
O O14 0.988381 0.717589 0.877521
O O15 0.174269 0.756547 0.063397
#
# Coordination Sequence:
#
# PCOD9024151 Si02
#       8
#     2   2   2   1   2   2   2   2
#     4  11  23  39  64  91 126 165 209 252 313 372
#     4  10  22  40  63  95 122 163 214 255 313 365
#     4  10  24  42  61  87 134 166 203 259 311 368
#     4  10  22  42  62  84 132 160 200 262 298 370
#     4  11  22  37  67  97 118 161 219 257 307 370
#     4   9  20  41  60  90 124 166 207 255 315 361
#     4  11  25  40  62  97 124 168 205 251 319 372
#     4   9  20  37  65  91 124 160 208 266 306 359
#
# _framework density 22.523878
#
# number of rings (size 3 to 8) (size 9 to 14) (size 15 to 20)
#    0.000    1.867    1.333    2.000    1.867    6.400 
#    0.000    1.333    0.000    0.000    0.000    0.000 
#    0.000    0.000    0.000    0.000    0.000    0.000 
#
# Total GULP energy -83629.335475 kJ/mol
# GULP energy per Si atom -5575.289032 kJ/mol
# Density = 2.247261 g / cm^3
# Si number density = 22.523878 Si / 1000 Ang^3
#
#
#
# Elastic Constant Matrix: (Units=GPa)
#
#
# Indices 1 2 3 4 5 6 
#
# 1 76.5585 13.2599 7.0986 -6.5344 -10.4571 -21.6057
# 2 13.2599 29.0345 4.9035 10.0903 9.0005 -4.1631
# 3 7.0986 4.9035 72.5939 16.5705 -13.6388 -2.3977
# 4 -6.5344 10.0903 16.5705 14.4648 -0.7743 0.5759
# 5 -10.4571 9.0005 -13.6388 -0.7743 29.8746 -3.6408
# 6 -21.6057 -4.1631 -2.3977 0.5759 -3.6408 22.2256
#
#
#
# Elastic Compliance Matrix: (Units=1/GPa)
#
#
# Indices 1 2 3 4 5 6 
#
# 1 0.036294 -0.036108 -0.006506 0.049184 0.025634 0.030741
# 2 -0.036108 0.090929 0.010317 -0.092876 -0.040309 -0.021152
# 3 -0.006506 0.010317 0.022627 -0.035829 0.003970 -0.000372
# 4 0.049184 -0.092876 -0.035829 0.198086 0.037330 0.027533
# 5 0.025634 -0.040309 0.003970 0.037330 0.060631 0.026762
# 6 0.030741 -0.021152 -0.000372 0.027533 0.026762 0.074545
#
#
# Mechanical properties :
#
#
# Convention : Reuss Voigt Hill
#
# Bulk Modulus (GPa) = 11.72928 25.41230 18.57079
# Shear Modulus (GPa) = 8.67872 23.50799 16.09335
#
# Velocity S-wave (km/s) = 1.96507 3.23413 2.67592
# Velocity P-wave (km/s) = 3.21985 5.02523 4.22021
#
# Compressibility (1/GPa) = 0.08525676
#
# Stress axis : x y z
#
# Youngs Moduli (GPa) = 27.55308 10.99762 44.19589
#
# Poissons Ratio (x) = 0.39710 0.28752
# Poissons Ratio (y) = 0.99488 -0.45597
# Poissons Ratio (z) = 0.17925 -0.11346
#
# Static dielectric constant tensor:
#      x y z
#    x 1.872250 0.020480 0.000840 
#    y 0.020480 1.834730 0.030170 
#    z 0.000840 0.030170 1.820310 
# 
# From -- ./inp_files/40285.got.cif
#   From: 2010.05.17/outbox.cif.g08.bks.cpg/sg2_21_cif.got.tgz:40285.got - 2010.06.03 11:33:40.
