data_PCOD9024062
_publ_section_title
;
Structure prediction by ZEFSAII (Michael W. Deem and Ramdas Pophale) SiO2 
 PCOD9024062
Probable space group: P -1
;
_chemical_formula_sum "Si O2"
_cell_formula_units_Z 14
_cell_length_a 5.542396
_cell_length_b 5.284400
_cell_length_c 21.616308
_cell_angle_alpha 94.012334
_cell_angle_beta 59.993718
_cell_angle_gamma 95.329333
_cell_volume 545.675958
_symmetry_space_group_name_H-M "P -1"
_symmetry_group_IT_number 2
_symmetry_cell_setting 'triclinic'
loop_
_space_group_symop_operation_xyz
x,y,z
-x,-y,-z
loop_
_atom_site_type_symbol
_atom_site_label
_atom_site_fract_x
_atom_site_fract_y
_atom_site_fract_z
Si Si1 0.070870 0.996545 0.353642
Si Si2 0.062020 0.323279 0.047858
Si Si3 0.565487 0.360365 0.308344
Si Si4 0.436625 0.098472 0.913632
Si Si5 0.694051 0.618845 0.181452
Si Si6 0.276074 0.500492 0.582771
Si Si7 0.960561 0.950800 0.783737
O O1 0.868172 0.229918 0.392618
O O2 0.105666 0.951090 0.274709
O O3 0.366918 0.111166 0.342900
O O4 0.948013 0.739460 0.396621
O O5 0.969596 0.481632 0.120954
O O6 0.635026 0.776321 0.009318
O O7 0.836433 0.082872 0.071275
O O8 0.000000 0.500000 0.000000
O O9 0.490148 0.465156 0.252593
O O10 0.570456 0.529541 0.371265
O O11 0.885037 0.301381 0.254147
O O12 0.454718 0.311619 0.861553
O O13 0.701783 0.940811 0.863589
O O14 0.809505 0.863478 0.208569
O O15 0.500000 0.500000 0.500000
#
# Coordination Sequence:
#
# PCOD9024062 Si02
#       7
#     2   2   2   2   2   2   2
#     4  11  25  44  74 103 148 186 231 293 351 412
#     4   9  20  39  60  89 127 177 227 289 351 415
#     4  11  26  43  69 103 140 183 235 281 359 415
#     4  10  22  40  63  89 130 177 232 289 351 407
#     4  11  21  39  64  92 132 175 235 287 348 419
#     4  11  26  48  74 110 145 184 236 286 349 428
#     4  11  23  39  63  99 134 174 239 286 343 421
#
# _framework density 25.656255999999999
#
# number of rings (size 3 to 8) (size 9 to 14) (size 15 to 20)
#    0.000    1.429    1.429    3.000    4.000    4.000 
#    0.000   10.000    0.000    0.000    0.000    0.000 
#    0.000    0.000    0.000    0.000    0.000    0.000 
#
# Total GULP energy -78366.914920 kJ/mol
# GULP energy per Si atom -5597.636780 kJ/mol
# Density = 2.559786 g / cm^3
# Si number density = 25.656256 Si / 1000 Ang^3
#
#
#
# Elastic Constant Matrix: (Units=GPa)
#
#
# Indices 1 2 3 4 5 6 
#
# 1 61.3934 15.3792 33.8620 1.0412 -14.1670 -3.5237
# 2 15.3792 96.9084 54.6563 -7.6256 -4.2217 3.0743
# 3 33.8620 54.6563 203.2396 6.6498 -25.1418 -6.2341
# 4 1.0412 -7.6256 6.6498 45.9819 -5.8585 -8.6263
# 5 -14.1670 -4.2217 -25.1418 -5.8585 28.0178 0.0535
# 6 -3.5237 3.0743 -6.2341 -8.6263 0.0535 39.2876
#
#
#
# Elastic Compliance Matrix: (Units=1/GPa)
#
#
# Indices 1 2 3 4 5 6 
#
# 1 0.019704 -0.001760 -0.001756 0.000915 0.008310 0.001816
# 2 -0.001760 0.012670 -0.003419 0.002207 -0.001585 -0.001205
# 3 -0.001756 -0.003419 0.006743 -0.000741 0.004491 0.001011
# 4 0.000915 0.002207 -0.000741 0.023789 0.005096 0.005008
# 5 0.008310 -0.001585 0.004491 0.005096 0.044746 0.002640
# 6 0.001816 -0.001205 0.001011 0.005008 0.002640 0.026967
#
#
# Mechanical properties :
#
#
# Convention : Reuss Voigt Hill
#
# Bulk Modulus (GPa) = 39.60952 63.25960 51.43456
# Shear Modulus (GPa) = 31.86650 39.83372 35.85011
#
# Velocity S-wave (km/s) = 3.52810 3.94457 3.74214
# Velocity P-wave (km/s) = 5.66293 6.74213 6.22596
#
# Compressibility (1/GPa) = 0.02524646
#
# Stress axis : x y z
#
# Youngs Moduli (GPa) = 50.75071 78.92851 148.29788
#
# Poissons Ratio (x) = 0.13894 0.26037
# Poissons Ratio (y) = 0.08934 0.50706
# Poissons Ratio (z) = 0.08910 0.26987
#
# Static dielectric constant tensor:
#      x y z
#    x 2.106980 -0.099590 -0.011680 
#    y -0.099590 2.081790 0.009400 
#    z -0.011680 0.009400 1.960850 
# 
# From -- ./inp_files/121493.got.cif
#   From: 2010.05.17/outbox.cif.g08.bks.cpg/sg2_61_cif.got.tgz:121493.got - 2010.06.03 11:33:40.
