data_PCOD9024859
_publ_section_title
;
Structure prediction by ZEFSAII (Michael W. Deem and Ramdas Pophale) SiO2 
 PCOD9024859
Probable space group: P -1
;
_chemical_formula_sum "Si O2"
_cell_formula_units_Z 15
_cell_length_a 7.833767
_cell_length_b 13.836436
_cell_length_c 12.645321
_cell_angle_alpha 40.813280
_cell_angle_beta 62.078062
_cell_angle_gamma 90.881474
_cell_volume 608.003444
_symmetry_space_group_name_H-M "P -1"
_symmetry_group_IT_number 2
_symmetry_cell_setting 'triclinic'
loop_
_space_group_symop_operation_xyz
x,y,z
-x,-y,-z
loop_
_atom_site_type_symbol
_atom_site_label
_atom_site_fract_x
_atom_site_fract_y
_atom_site_fract_z
Si Si1 0.870211 0.940614 0.817713
Si Si2 0.000000 0.000000 0.000000
Si Si3 0.073127 0.691206 0.193810
Si Si4 0.621083 0.351373 0.698975
Si Si5 0.127354 0.805389 0.736029
Si Si6 0.477506 0.175338 0.187790
Si Si7 0.690892 0.437489 0.078648
Si Si8 0.689205 0.691964 0.518211
O O1 0.023532 0.867201 0.804512
O O2 0.702141 0.890264 0.806250
O O3 0.677955 0.830129 0.065863
O O4 0.058059 0.165100 0.603407
O O5 0.247150 0.164346 0.713090
O O6 0.038035 0.844875 0.093655
O O7 0.225515 0.702626 0.242187
O O8 0.796052 0.480472 0.442575
O O9 0.256695 0.743885 0.002447
O O10 0.641617 0.505878 0.640454
O O11 0.196761 0.674719 0.860177
O O12 0.907142 0.664179 0.832687
O O13 0.349234 0.995660 0.452121
O O14 0.520889 0.346493 0.099135
O O15 0.535823 0.376815 0.282001
#
# Coordination Sequence:
#
# PCOD9024859 Si02
#       8
#     2   1   2   2   2   2   2   2
#     4  11  23  39  66  96 129 168 225 256 323 384
#     4  10  22  40  66  94 118 170 218 262 322 382
#     4   9  20  40  65  88 126 167 214 259 326 369
#     4   9  20  43  62  91 128 170 213 271 312 381
#     4  11  23  39  59  98 128 170 217 257 317 391
#     4  11  23  40  63  97 129 171 209 268 313 390
#     4  11  24  39  64  92 138 169 207 265 327 379
#     4  11  22  41  67  94 131 175 212 268 323 383
#
# _framework density 24.670912000000001
#
# number of rings (size 3 to 8) (size 9 to 14) (size 15 to 20)
#    0.000    1.600    2.667    1.600    1.867    2.667 
#    0.000   24.667    0.000    0.000    0.000    0.000 
#    0.000    0.000    0.000    0.000    0.000    0.000 
#
# Total GULP energy -83728.947097 kJ/mol
# GULP energy per Si atom -5581.929806 kJ/mol
# Density = 2.461476 g / cm^3
# Si number density = 24.670912 Si / 1000 Ang^3
#
#
#
# Elastic Constant Matrix: (Units=GPa)
#
#
# Indices 1 2 3 4 5 6 
#
# 1 50.3935 -1.4980 -0.7756 14.5747 4.3998 -13.4137
# 2 -1.4980 69.0526 33.3153 24.2373 -5.9277 -8.1632
# 3 -0.7756 33.3153 140.4765 15.0874 -19.8599 -12.1075
# 4 14.5747 24.2373 15.0874 49.1853 -4.6297 -12.1989
# 5 4.3998 -5.9277 -19.8599 -4.6297 30.7792 3.4045
# 6 -13.4137 -8.1632 -12.1075 -12.1989 3.4045 33.7039
#
#
#
# Elastic Compliance Matrix: (Units=1/GPa)
#
#
# Indices 1 2 3 4 5 6 
#
# 1 0.024855 0.003738 0.000119 -0.007569 -0.004845 0.008590
# 2 0.003738 0.019731 -0.003602 -0.009379 -0.000651 0.001644
# 3 0.000119 -0.003602 0.008812 -0.000059 0.004763 0.001838
# 4 -0.007569 -0.009379 -0.000059 0.028682 0.003024 0.004770
# 5 -0.004845 -0.000651 0.004763 0.003024 0.036918 -0.003010
# 6 0.008590 0.001644 0.001838 0.004770 -0.003010 0.036178
#
#
# Mechanical properties :
#
#
# Convention : Reuss Voigt Hill
#
# Bulk Modulus (GPa) = 18.54975 35.77846 27.16411
# Shear Modulus (GPa) = 28.96293 37.99240 33.47766
#
# Velocity S-wave (km/s) = 3.43004 3.92850 3.68770
# Velocity P-wave (km/s) = 4.81893 5.92547 5.40062
#
# Compressibility (1/GPa) = 0.05390907
#
# Stress axis : x y z
#
# Youngs Moduli (GPa) = 40.23258 50.68138 113.48724
#
# Poissons Ratio (x) = -0.18946 -0.01351
# Poissons Ratio (y) = -0.15040 0.40875
# Poissons Ratio (z) = -0.00479 0.18254
#
# Static dielectric constant tensor:
#      x y z
#    x 2.170780 0.144270 -0.082950 
#    y 0.144270 1.963200 0.019340 
#    z -0.082950 0.019340 1.943560 
# 
# From -- ./inp_files/446267.got.cif
#   From: 2010.05.17/outbox.cif.g08.bks.cpg/sg2_224_cif.got.tgz:446267.got - 2010.06.03 11:33:40.
