data_PCOD9024819
_publ_section_title
;
Structure prediction by ZEFSAII (Michael W. Deem and Ramdas Pophale) SiO2 
 PCOD9024819
Probable space group: P -1
;
_chemical_formula_sum "Si O2"
_cell_formula_units_Z 13
_cell_length_a 8.705976
_cell_length_b 12.734240
_cell_length_c 8.749025
_cell_angle_alpha 124.903948
_cell_angle_beta 50.066774
_cell_angle_gamma 131.784512
_cell_volume 536.583390
_symmetry_space_group_name_H-M "P -1"
_symmetry_group_IT_number 2
_symmetry_cell_setting 'triclinic'
loop_
_space_group_symop_operation_xyz
x,y,z
-x,-y,-z
loop_
_atom_site_type_symbol
_atom_site_label
_atom_site_fract_x
_atom_site_fract_y
_atom_site_fract_z
Si Si1 0.451065 0.117547 0.040225
Si Si2 0.600016 0.906305 0.286662
Si Si3 0.374312 0.329273 0.485282
Si Si4 0.120032 0.323064 0.107527
Si Si5 0.410612 0.614755 0.296345
Si Si6 0.947880 0.334166 0.910513
Si Si7 0.000000 0.000000 0.000000
O O1 0.363456 0.210693 0.272055
O O2 0.309454 0.057929 0.920990
O O3 0.699602 0.232648 0.920561
O O4 0.500000 0.000000 0.000000
O O5 0.418483 0.741812 0.293130
O O6 0.500000 0.000000 0.500000
O O7 0.851436 0.952903 0.224595
O O8 0.500000 0.500000 0.500000
O O9 0.531600 0.326625 0.520969
O O10 0.130941 0.301811 0.680482
O O11 0.192095 0.460306 0.287437
O O12 0.054517 0.178463 0.123005
O O13 0.356436 0.382941 0.908411
O O14 0.944755 0.301139 0.066331
O O15 0.000000 0.500000 0.000000
#
# Coordination Sequence:
#
# PCOD9024819 Si02
#       7
#     2   2   2   2   2   2   1
#     4  12  26  43  68 100 137 174 222 277 338 400
#     4  11  24  44  66  93 133 172 216 275 330 392
#     4  11  24  42  69  97 134 176 222 277 334 391
#     4   9  19  37  65  94 125 172 215 271 320 390
#     4   9  20  39  64  91 128 168 219 265 325 384
#     4  11  22  42  66  98 136 174 223 272 334 400
#     4  10  22  40  66  92 128 162 226 264 330 388
#
# _framework density 24.227363
#
# number of rings (size 3 to 8) (size 9 to 14) (size 15 to 20)
#    0.000    1.538    1.538    2.769    6.462    1.846 
#    0.000    1.538    0.000    0.000    0.000    0.000 
#    0.000    0.000    0.000    0.000    0.000    0.000 
#
# Total GULP energy -72432.921497 kJ/mol
# GULP energy per Si atom -5571.763192 kJ/mol
# Density = 2.417222 g / cm^3
# Si number density = 24.227363 Si / 1000 Ang^3
#
#
#
# Elastic Constant Matrix: (Units=GPa)
#
#
# Indices 1 2 3 4 5 6 
#
# 1 102.8633 45.7938 44.7531 9.0142 18.2033 -4.7915
# 2 45.7938 172.9271 43.8474 6.6937 -2.6206 1.3252
# 3 44.7531 43.8474 163.0466 28.5876 -16.5033 6.0539
# 4 9.0142 6.6937 28.5876 28.5657 -2.1183 -3.4322
# 5 18.2033 -2.6206 -16.5033 -2.1183 40.8496 -2.9469
# 6 -4.7915 1.3252 6.0539 -3.4322 -2.9469 45.6774
#
#
#
# Elastic Compliance Matrix: (Units=1/GPa)
#
#
# Indices 1 2 3 4 5 6 
#
# 1 0.014250 -0.002894 -0.003958 -0.000265 -0.008036 0.001565
# 2 -0.002894 0.006799 -0.000947 0.000336 0.001341 -0.000263
# 3 -0.003958 -0.000947 0.009418 -0.007814 0.004965 -0.001903
# 4 -0.000265 0.000336 -0.007814 0.043305 -0.000467 0.004222
# 5 -0.008036 0.001341 0.004965 -0.000467 0.030155 0.000370
# 6 0.001565 -0.000263 -0.001903 0.004222 0.000370 0.022658
#
#
# Mechanical properties :
#
#
# Convention : Reuss Voigt Hill
#
# Bulk Modulus (GPa) = 67.25762 78.62504 72.94133
# Shear Modulus (GPa) = 33.98143 43.31474 38.64808
#
# Velocity S-wave (km/s) = 3.74920 4.23288 3.99836
# Velocity P-wave (km/s) = 6.82373 7.51087 7.17553
#
# Compressibility (1/GPa) = 0.01486820
#
# Stress axis : x y z
#
# Youngs Moduli (GPa) = 70.17494 147.08883 106.18155
#
# Poissons Ratio (x) = 0.42560 0.42029
# Poissons Ratio (y) = 0.20305 0.10061
# Poissons Ratio (z) = 0.27776 0.13936
#
# Static dielectric constant tensor:
#      x y z
#    x 2.303140 -0.045960 -0.098810 
#    y -0.045960 1.957400 0.013600 
#    z -0.098810 0.013600 2.080480 
# 
# From -- ./inp_files/182177.got.cif
#   From: 2010.05.17/outbox.cif.g08.bks.cpg/sg2_92_cif.got.tgz:182177.got - 2010.06.03 11:33:40.
