data_PCOD9024653
_publ_section_title
;
Structure prediction by ZEFSAII (Michael W. Deem and Ramdas Pophale) SiO2 
 PCOD9024653
Probable space group: P -1
;
_chemical_formula_sum "Si O2"
_cell_formula_units_Z 12
_cell_length_a 13.572888
_cell_length_b 10.702805
_cell_length_c 9.406582
_cell_angle_alpha 121.725789
_cell_angle_beta 60.493563
_cell_angle_gamma 157.536293
_cell_volume 444.017734
_symmetry_space_group_name_H-M "P -1"
_symmetry_group_IT_number 2
_symmetry_cell_setting 'triclinic'
loop_
_space_group_symop_operation_xyz
x,y,z
-x,-y,-z
loop_
_atom_site_type_symbol
_atom_site_label
_atom_site_fract_x
_atom_site_fract_y
_atom_site_fract_z
Si Si1 0.156408 0.677263 0.849645
Si Si2 0.195901 0.604675 0.491322
Si Si3 0.252339 0.373622 0.600567
Si Si4 0.413100 0.648339 0.928566
Si Si5 0.025686 0.813343 0.849125
Si Si6 0.521485 0.571396 0.287065
O O1 0.127330 0.515894 0.655256
O O2 0.049412 0.690838 0.845114
O O3 0.000000 0.500000 0.000000
O O4 0.448957 0.058886 0.913648
O O5 0.128822 0.389371 0.309986
O O6 0.000000 0.500000 0.500000
O O7 0.500000 0.000000 0.500000
O O8 0.324280 0.582009 0.790729
O O9 0.404713 0.565674 0.459039
O O10 0.324491 0.326756 0.633058
O O11 0.000000 0.000000 0.500000
O O12 0.614104 0.742344 0.846789
O O13 0.155874 0.301128 0.989169
O O14 0.312581 0.184081 0.815915
#
# Coordination Sequence:
#
# PCOD9024653 Si02
#       6
#     2   2   2   2   2   2
#     4  11  26  43  65  93 131 177 229 281 330 402
#     4  10  22  46  65  95 135 177 232 277 342 398
#     4   9  21  40  59  95 136 168 206 264 334 406
#     4  10  22  40  65  96 129 164 222 267 338 408
#     4  11  23  42  67  94 132 175 215 281 336 405
#     4   9  22  39  64  96 130 165 216 259 341 407
#
# _framework density 27.025946999999999
#
# number of rings (size 3 to 8) (size 9 to 14) (size 15 to 20)
#    1.000    1.000    1.667    0.500    4.667    2.667 
#    0.000    0.000    0.000    0.000    0.000    0.000 
#    0.000    0.000    0.000    0.000    0.000    0.000 
#
# Total GULP energy -66815.897044 kJ/mol
# GULP energy per Si atom -5567.991420 kJ/mol
# Density = 2.696444 g / cm^3
# Si number density = 27.025947 Si / 1000 Ang^3
#
#
#
# Elastic Constant Matrix: (Units=GPa)
#
#
# Indices 1 2 3 4 5 6 
#
# 1 46.5336 -12.1732 28.4553 -6.5458 14.7710 5.0395
# 2 -12.1732 66.4260 27.4223 0.0830 11.5274 2.2758
# 3 28.4553 27.4223 227.0762 -4.6138 15.1633 -4.7548
# 4 -6.5458 0.0830 -4.6138 53.1399 -1.7650 11.3563
# 5 14.7710 11.5274 15.1633 -1.7650 54.0619 -1.7667
# 6 5.0395 2.2758 -4.7548 11.3563 -1.7667 31.3359
#
#
#
# Elastic Compliance Matrix: (Units=1/GPa)
#
#
# Indices 1 2 3 4 5 6 
#
# 1 0.031447 0.009581 -0.004547 0.005030 -0.009483 -0.008801
# 2 0.009581 0.019304 -0.003194 0.001604 -0.005927 -0.004343
# 3 -0.004547 -0.003194 0.005359 -0.000498 0.000469 0.001983
# 4 0.005030 0.001604 -0.000498 0.021225 -0.001170 -0.008759
# 5 -0.009483 -0.005927 0.000469 -0.001170 0.022304 0.003708
# 6 -0.008801 -0.004343 0.001983 -0.008759 0.003708 0.037327
#
#
# Mechanical properties :
#
#
# Convention : Reuss Voigt Hill
#
# Bulk Modulus (GPa) = 16.72501 47.49385 32.10943
# Shear Modulus (GPa) = 32.63338 47.46298 40.04818
#
# Velocity S-wave (km/s) = 3.47866 4.19525 3.85365
# Velocity P-wave (km/s) = 4.72617 6.40924 5.63094
#
# Compressibility (1/GPa) = 0.05979071
#
# Stress axis : x y z
#
# Youngs Moduli (GPa) = 31.79934 51.80208 186.58766
#
# Poissons Ratio (x) = -0.49631 0.84833
# Poissons Ratio (y) = -0.30466 0.59603
# Poissons Ratio (z) = 0.14458 0.16547
#
# Static dielectric constant tensor:
#      x y z
#    x 2.429480 0.266050 -0.330030 
#    y 0.266050 2.062330 -0.111220 
#    z -0.330030 -0.111220 2.473860 
# 
# From -- ./inp_files/23511.got.cif
#   From: 2010.05.17/outbox.cif.g08.bks.cpg/sg2_12_cif.got.tgz:23511.got - 2010.06.03 11:33:40.
