data_PCOD9024588
_publ_section_title
;
Structure prediction by ZEFSAII (Michael W. Deem and Ramdas Pophale) SiO2 
 PCOD9024588
Probable space group: P -1
;
_chemical_formula_sum "Si O2"
_cell_formula_units_Z 14
_cell_length_a 13.213839
_cell_length_b 18.146888
_cell_length_c 7.263686
_cell_angle_alpha 143.765679
_cell_angle_beta 69.897869
_cell_angle_gamma 134.253638
_cell_volume 630.897151
_symmetry_space_group_name_H-M "P -1"
_symmetry_group_IT_number 2
_symmetry_cell_setting 'triclinic'
loop_
_space_group_symop_operation_xyz
x,y,z
-x,-y,-z
loop_
_atom_site_type_symbol
_atom_site_label
_atom_site_fract_x
_atom_site_fract_y
_atom_site_fract_z
Si Si1 0.485029 0.120165 0.652977
Si Si2 0.851501 0.956347 0.058949
Si Si3 0.196556 0.458121 0.312851
Si Si4 0.502899 0.389493 0.418300
Si Si5 0.667788 0.218727 0.386484
Si Si6 0.922716 0.221594 0.284795
Si Si7 0.851274 0.070281 0.651338
O O1 0.616804 0.245355 0.658050
O O2 0.500000 0.000000 0.500000
O O3 0.299197 0.970347 0.386933
O O4 0.507126 0.257262 0.049857
O O5 0.899532 0.136467 0.322458
O O6 0.829976 0.938826 0.258281
O O7 0.678253 0.766329 0.693942
O O8 0.000000 0.000000 0.000000
O O9 0.334821 0.473364 0.281497
O O10 0.281225 0.648404 0.545014
O O11 0.106555 0.404734 0.458901
O O12 0.037550 0.283132 0.936820
O O13 0.500000 0.500000 0.500000
O O14 0.814438 0.250309 0.396671
O O15 0.500000 0.000000 0.000000
O O16 0.850030 0.059242 0.850811
#
# Coordination Sequence:
#
# PCOD9024588 Si02
#       7
#     2   2   2   2   2   2   2
#     4  11  23  42  70  99 134 178 231 277 336 410
#     4  11  23  44  70  91 129 179 229 275 342 407
#     4  10  23  41  65  93 136 172 221 283 333 405
#     4  11  25  45  65  99 141 175 225 286 341 407
#     4  12  20  37  65  97 131 174 219 276 346 401
#     4  10  22  40  65  93 134 166 227 276 337 391
#     4   9  23  43  64  96 130 170 228 273 344 387
#
# _framework density 22.190622000000001
#
# number of rings (size 3 to 8) (size 9 to 14) (size 15 to 20)
#    0.857    0.571    1.429    4.714    0.000    2.857 
#    2.571    3.571    0.000    0.000    0.000    0.000 
#    0.000    0.000    0.000    0.000    0.000    0.000 
#
# Total GULP energy -78091.960081 kJ/mol
# GULP energy per Si atom -5577.997149 kJ/mol
# Density = 2.214011 g / cm^3
# Si number density = 22.190622 Si / 1000 Ang^3
#
#
#
# Elastic Constant Matrix: (Units=GPa)
#
#
# Indices 1 2 3 4 5 6 
#
# 1 139.1083 54.9137 23.9549 26.0128 2.9900 18.4849
# 2 54.9137 107.0485 15.5968 25.6871 8.7069 11.6205
# 3 23.9549 15.5968 47.6060 13.1860 13.9028 -2.0001
# 4 26.0128 25.6871 13.1860 46.5466 3.2998 -1.7520
# 5 2.9900 8.7069 13.9028 3.2998 33.1937 13.7226
# 6 18.4849 11.6205 -2.0001 -1.7520 13.7226 48.3969
#
#
#
# Elastic Compliance Matrix: (Units=1/GPa)
#
#
# Indices 1 2 3 4 5 6 
#
# 1 0.010601 -0.003899 -0.004674 -0.002921 0.004221 -0.004608
# 2 -0.003899 0.012817 -0.000458 -0.004682 -0.001834 -0.001257
# 3 -0.004674 -0.000458 0.029050 -0.004105 -0.014088 0.006942
# 4 -0.002921 -0.004682 -0.004105 0.027046 -0.000837 0.003287
# 5 0.004221 -0.001834 -0.014088 -0.000837 0.041855 -0.013652
# 6 -0.004608 -0.001257 0.006942 0.003287 -0.013652 0.027001
#
#
# Mechanical properties :
#
#
# Convention : Reuss Voigt Hill
#
# Bulk Modulus (GPa) = 29.06350 53.63259 41.34805
# Shear Modulus (GPa) = 28.10558 38.91394 33.50976
#
# Velocity S-wave (km/s) = 3.56273 4.19217 3.89020
# Velocity P-wave (km/s) = 5.48176 6.90318 6.23312
#
# Compressibility (1/GPa) = 0.03440742
#
# Stress axis : x y z
#
# Youngs Moduli (GPa) = 94.33498 78.01867 34.42282
#
# Poissons Ratio (x) = 0.30419 0.16089
# Poissons Ratio (y) = 0.36781 0.01575
# Poissons Ratio (z) = 0.44091 0.03570
#
# Static dielectric constant tensor:
#      x y z
#    x 1.797740 0.008770 0.032820 
#    y 0.008770 1.808280 -0.020500 
#    z 0.032820 -0.020500 1.924660 
# 
# From -- ./inp_files/282552.got.cif
#   From: 2010.05.17/outbox.cif.g08.bks.cpg/sg2_142_cif.got.tgz:282552.got - 2010.06.03 11:33:40.
