data_PCOD9024091
_publ_section_title
;
Structure prediction by ZEFSAII (Michael W. Deem and Ramdas Pophale) SiO2 
 PCOD9024091
Probable space group: P -1
;
_chemical_formula_sum "Si O2"
_cell_formula_units_Z 16
_cell_length_a 16.195028
_cell_length_b 8.707214
_cell_length_c 8.770709
_cell_angle_alpha 46.514283
_cell_angle_beta 114.191889
_cell_angle_gamma 86.968905
_cell_volume 706.016616
_symmetry_space_group_name_H-M "P -1"
_symmetry_group_IT_number 2
_symmetry_cell_setting 'triclinic'
loop_
_space_group_symop_operation_xyz
x,y,z
-x,-y,-z
loop_
_atom_site_type_symbol
_atom_site_label
_atom_site_fract_x
_atom_site_fract_y
_atom_site_fract_z
Si Si1 0.130255 0.940593 0.302970
Si Si2 0.348242 0.956335 0.081849
Si Si3 0.216541 0.390859 0.494253
Si Si4 0.347819 0.583383 0.580712
Si Si5 0.389204 0.214809 0.206317
Si Si6 0.009477 0.721696 0.290752
Si Si7 0.582381 0.330984 0.985881
Si Si8 0.751409 0.846097 0.621292
O O1 0.247630 0.710058 0.529545
O O2 0.048270 0.856696 0.344964
O O3 0.151631 0.112168 0.308589
O O4 0.089477 0.084973 0.013098
O O5 0.341547 0.789320 0.321882
O O6 0.409303 0.768412 0.115549
O O7 0.385141 0.122799 0.092488
O O8 0.242796 0.155107 0.779190
O O9 0.320250 0.411754 0.577872
O O10 0.108323 0.607290 0.327528
O O11 0.210061 0.362586 0.331367
O O12 0.458089 0.461801 0.831711
O O13 0.385009 0.465249 0.090202
O O14 0.293406 0.210013 0.223589
O O15 0.500000 0.000000 0.500000
O O16 0.000000 0.500000 0.500000
O O17 0.654257 0.089610 0.304901
#
# Coordination Sequence:
#
# PCOD9024091 Si02
#       8
#     2   2   2   2   2   2   2   2
#     4  10  22  40  63  92 122 158 208 266 317 382
#     4  11  23  40  60  92 131 170 218 259 312 374
#     4  10  25  40  67  91 125 171 211 262 331 378
#     4  11  21  40  63  87 130 172 209 259 310 372
#     4  12  25  38  64  93 131 179 222 253 312 372
#     4  10  22  42  67  92 117 160 211 262 330 387
#     4  11  26  39  61  95 135 175 216 260 308 375
#     4  11  25  43  60  98 132 164 215 263 311 382
#
# _framework density 22.662355999999999
#
# number of rings (size 3 to 8) (size 9 to 14) (size 15 to 20)
#    0.000    1.250    2.500    1.875    7.000    2.500 
#    0.000    0.625    0.000    0.000    0.000    0.000 
#    0.000    0.000    0.000    0.000    0.000    0.000 
#
# Total GULP energy -89268.438785 kJ/mol
# GULP energy per Si atom -5579.277424 kJ/mol
# Density = 2.261078 g / cm^3
# Si number density = 22.662356 Si / 1000 Ang^3
#
#
#
# Elastic Constant Matrix: (Units=GPa)
#
#
# Indices 1 2 3 4 5 6 
#
# 1 70.2125 45.9033 28.5855 6.8766 -1.5879 30.2323
# 2 45.9033 151.5184 21.5384 22.4000 -10.2629 17.6117
# 3 28.5855 21.5384 52.9980 -0.2044 10.1325 10.0191
# 4 6.8766 22.4000 -0.2044 37.4106 6.2304 3.9121
# 5 -1.5879 -10.2629 10.1325 6.2304 33.3918 -7.5301
# 6 30.2323 17.6117 10.0191 3.9121 -7.5301 42.1800
#
#
#
# Elastic Compliance Matrix: (Units=1/GPa)
#
#
# Indices 1 2 3 4 5 6 
#
# 1 0.028907 -0.005446 -0.010174 -0.000287 -0.000799 -0.016144
# 2 -0.005446 0.009522 -0.002226 -0.005709 0.004825 0.001847
# 3 -0.010174 -0.002226 0.027437 0.005191 -0.010614 -0.000671
# 4 -0.000287 -0.005709 0.005191 0.032280 -0.010144 -0.003448
# 5 -0.000799 0.004825 -0.010614 -0.010144 0.038512 0.008895
# 6 -0.016144 0.001847 -0.000671 -0.003448 0.008895 0.036575
#
#
# Mechanical properties :
#
#
# Convention : Reuss Voigt Hill
#
# Bulk Modulus (GPa) = 33.14246 51.86480 42.50363
# Shear Modulus (GPa) = 22.83265 34.50994 28.67130
#
# Velocity S-wave (km/s) = 3.17758 3.90652 3.56075
# Velocity P-wave (km/s) = 5.30273 6.57902 5.97505
#
# Compressibility (1/GPa) = 0.03017278
#
# Stress axis : x y z
#
# Youngs Moduli (GPa) = 34.59383 105.01478 36.44693
#
# Poissons Ratio (x) = 0.57196 0.37083
# Poissons Ratio (y) = 0.18841 0.08113
# Poissons Ratio (z) = 0.35197 0.23377
#
# Static dielectric constant tensor:
#      x y z
#    x 1.857460 0.029940 -0.023350 
#    y 0.029940 1.975610 -0.018180 
#    z -0.023350 -0.018180 1.849530 
# 
# From -- ./inp_files/327159.got.cif
#   From: 2010.05.17/outbox.cif.g08.bks.cpg/sg2_164_cif.got.tgz:327159.got - 2010.06.03 11:33:40.
