data_PCOD9024548
_publ_section_title
;
Structure prediction by ZEFSAII (Michael W. Deem and Ramdas Pophale) SiO2 
 PCOD9024548
Probable space group: P -1
;
_chemical_formula_sum "Si O2"
_cell_formula_units_Z 14
_cell_length_a 19.643711
_cell_length_b 12.987029
_cell_length_c 9.703763
_cell_angle_alpha 59.393839
_cell_angle_beta 119.491302
_cell_angle_gamma 161.184163
_cell_volume 686.724394
_symmetry_space_group_name_H-M "P -1"
_symmetry_group_IT_number 2
_symmetry_cell_setting 'triclinic'
loop_
_space_group_symop_operation_xyz
x,y,z
-x,-y,-z
loop_
_atom_site_type_symbol
_atom_site_label
_atom_site_fract_x
_atom_site_fract_y
_atom_site_fract_z
Si Si1 0.894818 0.834081 0.729391
Si Si2 0.039535 0.262736 0.745936
Si Si3 0.355374 0.206468 0.151478
Si Si4 0.268306 0.646097 0.447909
Si Si5 0.602455 0.254541 0.008918
Si Si6 0.218677 0.797975 0.094758
Si Si7 0.291427 0.396766 0.572547
O O1 0.746003 0.686437 0.567751
O O2 0.759055 0.543079 0.866361
O O3 0.992300 0.061846 0.783148
O O4 0.090948 0.061104 0.684824
O O5 0.093364 0.407543 0.557934
O O6 0.253664 0.576814 0.832966
O O7 0.842727 0.017943 0.812242
O O8 0.504085 0.360858 0.312646
O O9 0.263220 0.969845 0.125926
O O10 0.500000 0.500000 0.000000
O O11 0.224123 0.680368 0.263309
O O12 0.274720 0.517637 0.489588
O O13 0.500000 0.000000 0.500000
O O14 0.415000 0.072463 0.998593
O O15 0.500000 0.000000 0.000000
O O16 0.000000 0.500000 0.000000
#
# Coordination Sequence:
#
# PCOD9024548 Si02
#       7
#     2   2   2   2   2   2   2
#     4  10  22  40  65  91 126 170 224 264 324 399
#     4  11  24  40  66  95 127 178 216 267 329 390
#     4  12  25  42  65  96 137 170 218 272 327 388
#     4  11  21  45  69  91 132 171 221 268 325 393
#     4  12  23  40  66  95 130 172 221 269 329 393
#     4  12  26  43  66  98 134 170 215 280 330 379
#     4  10  22  42  69  94 125 179 216 270 329 387
#
# _framework density 20.386637
#
# number of rings (size 3 to 8) (size 9 to 14) (size 15 to 20)
#    0.000    0.857    2.857    4.714    0.000    5.714 
#    0.000    0.000    0.000    0.000    0.000    0.000 
#    0.000    0.000    0.000    0.000    0.000    0.000 
#
# Total GULP energy -78259.880599 kJ/mol
# GULP energy per Si atom -5589.991471 kJ/mol
# Density = 2.034024 g / cm^3
# Si number density = 20.386637 Si / 1000 Ang^3
#
#
#
# Elastic Constant Matrix: (Units=GPa)
#
#
# Indices 1 2 3 4 5 6 
#
# 1 38.5032 6.4831 5.3336 6.6313 -5.2004 -6.6873
# 2 6.4831 101.4368 29.7115 14.4686 9.8007 -13.0415
# 3 5.3336 29.7115 78.5622 8.2260 10.1184 -6.2704
# 4 6.6313 14.4686 8.2260 62.3386 0.3219 -0.2728
# 5 -5.2004 9.8007 10.1184 0.3219 26.3979 7.8841
# 6 -6.6873 -13.0415 -6.2704 -0.2728 7.8841 32.6679
#
#
#
# Elastic Compliance Matrix: (Units=1/GPa)
#
#
# Indices 1 2 3 4 5 6 
#
# 1 0.028199 -0.001000 -0.001681 -0.002558 0.005496 0.003703
# 2 -0.001000 0.012390 -0.003298 -0.002285 -0.005094 0.005319
# 3 -0.001681 -0.003298 0.015135 -0.001012 -0.005674 0.002605
# 4 -0.002558 -0.002285 -0.001012 0.016964 0.001045 -0.001741
# 5 0.005496 -0.005094 -0.005674 0.001045 0.046999 -0.013331
# 6 0.003703 0.005319 0.002605 -0.001741 -0.013331 0.037195
#
#
# Mechanical properties :
#
#
# Convention : Reuss Voigt Hill
#
# Bulk Modulus (GPa) = 22.84874 33.50649 28.17762
# Shear Modulus (GPa) = 27.25843 36.07915 31.66879
#
# Velocity S-wave (km/s) = 3.66057 4.21140 3.94561
# Velocity P-wave (km/s) = 5.39429 6.33396 5.88292
#
# Compressibility (1/GPa) = 0.04376609
#
# Stress axis : x y z
#
# Youngs Moduli (GPa) = 35.46213 80.70932 66.07274
#
# Poissons Ratio (x) = 0.08072 0.11105
# Poissons Ratio (y) = 0.03547 0.21792
# Poissons Ratio (z) = 0.05960 0.26620
#
# Static dielectric constant tensor:
#      x y z
#    x 1.754700 -0.015160 -0.020630 
#    y -0.015160 1.714090 0.010500 
#    z -0.020630 0.010500 1.764470 
# 
# From -- ./inp_files/159525.got.cif
#   From: 2010.05.17/outbox.cif.g08.bks.cpg/sg2_80_cif.got.tgz:159525.got - 2010.06.03 11:33:40.
