data_PCOD9024781
_publ_section_title
;
Structure prediction by ZEFSAII (Michael W. Deem and Ramdas Pophale) SiO2 
 PCOD9024781
Probable space group: P -1
;
_chemical_formula_sum "Si O2"
_cell_formula_units_Z 16
_cell_length_a 5.650905
_cell_length_b 25.136753
_cell_length_c 5.066857
_cell_angle_alpha 67.960111
_cell_angle_beta 85.524714
_cell_angle_gamma 77.515543
_cell_volume 651.350113
_symmetry_space_group_name_H-M "P -1"
_symmetry_group_IT_number 2
_symmetry_cell_setting 'triclinic'
loop_
_space_group_symop_operation_xyz
x,y,z
-x,-y,-z
loop_
_atom_site_type_symbol
_atom_site_label
_atom_site_fract_x
_atom_site_fract_y
_atom_site_fract_z
Si Si1 0.660339 0.734313 0.078353
Si Si2 0.803912 0.036096 0.248389
Si Si3 0.069045 0.323395 0.322742
Si Si4 0.353848 0.649055 0.323296
Si Si5 0.633650 0.869937 0.808968
Si Si6 0.734070 0.567605 0.759530
Si Si7 0.176109 0.080328 0.775956
Si Si8 0.676980 0.457704 0.764341
O O1 0.755399 0.713080 0.401457
O O2 0.434672 0.703992 0.080278
O O3 0.868043 0.708637 0.897891
O O4 0.601753 0.803792 0.940592
O O5 0.611814 0.084444 0.324770
O O6 0.697712 0.984648 0.213887
O O7 0.000000 0.000000 0.500000
O O8 0.930738 0.068662 0.952760
O O9 0.115360 0.389938 0.192562
O O10 0.800661 0.327960 0.449267
O O11 0.609423 0.606928 0.453459
O O12 0.216317 0.603618 0.272665
O O13 0.831124 0.879313 0.556517
O O14 0.699042 0.890956 0.052733
O O15 0.843441 0.501520 0.777152
O O16 0.503264 0.559226 0.968943
O O17 0.500000 0.500000 0.500000
#
# Coordination Sequence:
#
# PCOD9024781 Si02
#       8
#     2   2   2   2   2   2   2   2
#     4  11  26  45  62  95 129 173 228 271 314 389
#     4  11  25  44  73 107 138 173 219 273 334 403
#     4  11  24  43  68  91 127 176 226 270 329 392
#     4  10  22  40  66  87 129 174 213 276 334 379
#     4  12  26  43  70  96 140 180 219 275 335 387
#     4   9  19  37  61  93 129 160 216 274 333 397
#     4  11  25  44  69 104 135 173 217 268 333 400
#     4   9  17  35  61  92 128 162 208 278 330 393
#
# _framework density 24.564361000000002
#
# number of rings (size 3 to 8) (size 9 to 14) (size 15 to 20)
#    0.000    1.500    2.500    1.500    5.250    2.500 
#    0.000    5.625    0.000    0.000    0.000    0.000 
#    0.000    0.000    0.000    0.000    0.000    0.000 
#
# Total GULP energy -89496.902502 kJ/mol
# GULP energy per Si atom -5593.556406 kJ/mol
# Density = 2.450845 g / cm^3
# Si number density = 24.564361 Si / 1000 Ang^3
#
#
#
# Elastic Constant Matrix: (Units=GPa)
#
#
# Indices 1 2 3 4 5 6 
#
# 1 56.6455 58.0962 26.6107 -11.5009 -3.7861 10.1999
# 2 58.0962 188.3413 57.4712 -16.8251 -15.7048 29.2801
# 3 26.6107 57.4712 105.3220 -2.1454 -13.2382 12.7599
# 4 -11.5009 -16.8251 -2.1454 35.5855 12.8482 -10.2369
# 5 -3.7861 -15.7048 -13.2382 12.8482 43.6082 7.1259
# 6 10.1999 29.2801 12.7599 -10.2369 7.1259 32.4165
#
#
#
# Elastic Compliance Matrix: (Units=1/GPa)
#
#
# Indices 1 2 3 4 5 6 
#
# 1 0.027888 -0.007609 -0.003586 0.007456 -0.004054 0.002755
# 2 -0.007609 0.009481 -0.002031 -0.001282 0.003588 -0.006564
# 3 -0.003586 -0.002031 0.012553 -0.004350 0.004768 -0.004400
# 4 0.007456 -0.001282 -0.004350 0.040079 -0.015660 0.016623
# 5 -0.004054 0.003588 0.004768 -0.015660 0.032538 -0.015940
# 6 0.002755 -0.006564 -0.004400 0.016623 -0.015940 0.046396
#
#
# Mechanical properties :
#
#
# Convention : Reuss Voigt Hill
#
# Bulk Modulus (GPa) = 42.60539 70.51834 56.56186
# Shear Modulus (GPa) = 24.60508 36.19743 30.40126
#
# Velocity S-wave (km/s) = 3.16833 3.84288 3.52179
# Velocity P-wave (km/s) = 5.54675 6.96134 6.29391
#
# Compressibility (1/GPa) = 0.02347121
#
# Stress axis : x y z
#
# Youngs Moduli (GPa) = 35.85712 105.47014 79.66259
#
# Poissons Ratio (x) = 0.80247 0.28567
# Poissons Ratio (y) = 0.27282 0.16181
# Poissons Ratio (z) = 0.12858 0.21424
#
# Static dielectric constant tensor:
#      x y z
#    x 2.010670 0.029130 0.064540 
#    y 0.029130 1.931350 0.035730 
#    z 0.064540 0.035730 1.988170 
# 
# From -- ./inp_files/12959.got.cif
#   From: 2010.05.17/outbox.cif.g08.bks.cpg/sg2_7_cif.got.tgz:12959.got - 2010.06.03 11:33:40.
