data_PCOD9024274
_publ_section_title
;
Structure prediction by ZEFSAII (Michael W. Deem and Ramdas Pophale) SiO2 
 PCOD9024274
Probable space group: P -1
;
_chemical_formula_sum "Si O2"
_cell_formula_units_Z 16
_cell_length_a 14.384933
_cell_length_b 13.907280
_cell_length_c 14.098733
_cell_angle_alpha 150.438035
_cell_angle_beta 143.693733
_cell_angle_gamma 29.344094
_cell_volume 668.560083
_symmetry_space_group_name_H-M "P -1"
_symmetry_group_IT_number 2
_symmetry_cell_setting 'triclinic'
loop_
_space_group_symop_operation_xyz
x,y,z
-x,-y,-z
loop_
_atom_site_type_symbol
_atom_site_label
_atom_site_fract_x
_atom_site_fract_y
_atom_site_fract_z
Si Si1 0.097098 0.170887 0.972528
Si Si2 0.576060 0.291603 0.232920
Si Si3 0.299174 0.390341 0.426653
Si Si4 0.287265 0.097899 0.659829
Si Si5 0.000215 0.821321 0.651176
Si Si6 0.443137 0.378369 0.976144
Si Si7 0.784235 0.110936 0.878359
Si Si8 0.807070 0.594121 0.979429
O O1 0.178262 0.302907 0.205180
O O2 0.893989 0.369483 0.929671
O O3 0.259200 0.991877 0.875388
O O4 0.067695 0.996801 0.859614
O O5 0.668627 0.432426 0.453735
O O6 0.511711 0.353012 0.120295
O O7 0.382955 0.359855 0.184932
O O8 0.182605 0.545408 0.557526
O O9 0.515249 0.156819 0.416897
O O10 0.307212 0.288558 0.786014
O O11 0.260670 0.174713 0.813533
O O12 0.104832 0.122907 0.488490
O O13 0.842067 0.900846 0.670597
O O14 0.629779 0.193405 0.905697
O O15 0.323331 0.644229 0.062443
O O16 0.000000 0.000000 0.000000
O O17 0.000000 0.500000 0.000000
#
# Coordination Sequence:
#
# PCOD9024274 Si02
#       8
#     2   2   2   2   2   2   2   2
#     4  11  21  41  66  91 127 166 213 253 312 378
#     4  10  22  43  67  90 126 174 206 260 315 378
#     4  11  21  38  68  93 119 166 217 249 310 379
#     4  11  22  42  66  89 126 170 209 256 318 382
#     4  11  24  39  67  93 123 172 215 256 307 376
#     4  10  22  40  64  89 129 172 209 256 322 369
#     4  11  23  38  61  94 131 164 212 268 308 359
#     4  11  23  41  67  97 128 164 207 262 319 374
#
# _framework density 23.932030000000001
#
# number of rings (size 3 to 8) (size 9 to 14) (size 15 to 20)
#    0.000    1.250    3.750    4.500    0.000    2.000 
#    0.000    4.375    0.000    0.000    0.000    0.000 
#    0.000    0.000    0.000    0.000    0.000    0.000 
#
# Total GULP energy -89351.528511 kJ/mol
# GULP energy per Si atom -5584.470532 kJ/mol
# Density = 2.387756 g / cm^3
# Si number density = 23.932030 Si / 1000 Ang^3
#
#
#
# Elastic Constant Matrix: (Units=GPa)
#
#
# Indices 1 2 3 4 5 6 
#
# 1 102.5789 22.6547 32.1015 12.4997 -12.3165 -41.4752
# 2 22.6547 114.9309 19.3480 20.8639 -15.4023 -43.1845
# 3 32.1015 19.3480 115.0797 8.3657 9.3336 -12.1653
# 4 12.4997 20.8639 8.3657 40.9440 -14.4179 -4.1759
# 5 -12.3165 -15.4023 9.3336 -14.4179 28.4905 -0.3055
# 6 -41.4752 -43.1845 -12.1653 -4.1759 -0.3055 42.5816
#
#
#
# Elastic Compliance Matrix: (Units=1/GPa)
#
#
# Indices 1 2 3 4 5 6 
#
# 1 0.027000 0.013146 -0.007246 -0.002495 0.020292 0.037461
# 2 0.013146 0.023226 -0.004982 -0.005084 0.017669 0.034564
# 3 -0.007246 -0.004982 0.011652 -0.002419 -0.010964 -0.009097
# 4 -0.002495 -0.005084 -0.002419 0.032457 0.013337 -0.004998
# 5 0.020292 0.017669 -0.010964 0.013337 0.064155 0.036320
# 6 0.037461 0.034564 -0.009097 -0.004998 0.036320 0.092197
#
#
# Mechanical properties :
#
#
# Convention : Reuss Voigt Hill
#
# Bulk Modulus (GPa) = 15.69522 53.42197 34.55859
# Shear Modulus (GPa) = 18.51249 39.63558 29.07403
#
# Velocity S-wave (km/s) = 2.78428 4.07403 3.48926
# Velocity P-wave (km/s) = 4.11203 6.67091 5.54120
#
# Compressibility (1/GPa) = 0.06371366
#
# Stress axis : x y z
#
# Youngs Moduli (GPa) = 37.03759 43.05454 85.82271
#
# Poissons Ratio (x) = -0.56598 0.62188
# Poissons Ratio (y) = -0.48688 0.42753
# Poissons Ratio (z) = 0.26838 0.21448
#
# Static dielectric constant tensor:
#      x y z
#    x 2.045920 -0.003120 -0.046310 
#    y -0.003120 1.899650 -0.007580 
#    z -0.046310 -0.007580 1.979850 
# 
# From -- ./inp_files/534166.got.cif
#   From: 2010.05.17/outbox.cif.g08.bks.cpg/sg2_268_cif.got.tgz:534166.got - 2010.06.03 11:33:40.
