data_PCOD9024589
_publ_section_title
;
Structure prediction by ZEFSAII (Michael W. Deem and Ramdas Pophale) SiO2 
 PCOD9024589
Probable space group: P -1
;
_chemical_formula_sum "Si O2"
_cell_formula_units_Z 14
_cell_length_a 15.744054
_cell_length_b 5.392245
_cell_length_c 28.941131
_cell_angle_alpha 100.000886
_cell_angle_beta 160.949567
_cell_angle_gamma 70.963950
_cell_volume 682.123344
_symmetry_space_group_name_H-M "P -1"
_symmetry_group_IT_number 2
_symmetry_cell_setting 'triclinic'
loop_
_space_group_symop_operation_xyz
x,y,z
-x,-y,-z
loop_
_atom_site_type_symbol
_atom_site_label
_atom_site_fract_x
_atom_site_fract_y
_atom_site_fract_z
Si Si1 0.339950 0.845585 0.938585
Si Si2 0.339121 0.845442 0.437627
Si Si3 0.743055 0.048732 0.406326
Si Si4 0.359382 0.873517 0.138154
Si Si5 0.042919 0.102910 0.385770
Si Si6 0.760180 0.404542 0.861132
Si Si7 0.344042 0.214504 0.810022
O O1 0.500000 0.500000 0.000000
O O2 0.392806 0.871974 0.020531
O O3 0.998470 0.003269 0.751400
O O4 0.500000 0.000000 0.000000
O O5 0.500000 0.500000 0.500000
O O6 0.500000 0.000000 0.500000
O O7 0.302990 0.916150 0.476215
O O8 0.509521 0.393775 0.304626
O O9 0.529434 0.952426 0.267547
O O10 0.858719 0.903573 0.510675
O O11 0.000000 0.000000 0.500000
O O12 0.393802 0.581514 0.168260
O O13 0.516201 0.861051 0.171254
O O14 0.996624 0.081894 0.954522
O O15 0.872862 0.434964 0.290659
O O16 0.831453 0.957078 0.274017
O O17 0.000000 0.500000 0.000000
#
# Coordination Sequence:
#
# PCOD9024589 Si02
#       7
#     2   2   2   2   2   2   2
#     4  12  23  47  74  98 135 184 229 286 350 417
#     4  12  26  48  72 105 142 178 231 302 360 412
#     4  11  22  39  66  98 137 180 222 279 346 407
#     4  10  22  40  65  93 134 184 224 283 334 414
#     4  12  26  43  70 103 140 177 231 291 346 417
#     4   9  21  41  58  87 138 174 226 277 333 396
#     4  12  24  43  72 101 131 180 238 278 342 421
#
# _framework density 20.524149000000001
#
# number of rings (size 3 to 8) (size 9 to 14) (size 15 to 20)
#    0.000    0.857    4.286    2.571    4.000    2.286 
#    7.714    0.000    0.000    0.000    0.000    0.000 
#    0.000    0.000    0.000    0.000    0.000    0.000 
#
# Total GULP energy -78116.188756 kJ/mol
# GULP energy per Si atom -5579.727768 kJ/mol
# Density = 2.047743 g / cm^3
# Si number density = 20.524149 Si / 1000 Ang^3
#
#
#
# Elastic Constant Matrix: (Units=GPa)
#
#
# Indices 1 2 3 4 5 6 
#
# 1 123.9047 28.7816 32.6823 18.2461 2.4986 -3.3192
# 2 28.7816 99.8573 38.6243 -4.3855 9.3029 13.5142
# 3 32.6823 38.6243 121.4683 -2.5132 -1.5146 3.8147
# 4 18.2461 -4.3855 -2.5132 37.2863 2.8506 3.8095
# 5 2.4986 9.3029 -1.5146 2.8506 43.7053 9.7453
# 6 -3.3192 13.5142 3.8147 3.8095 9.7453 37.1175
#
#
#
# Elastic Compliance Matrix: (Units=1/GPa)
#
#
# Indices 1 2 3 4 5 6 
#
# 1 0.010173 -0.002725 -0.002080 -0.005698 -0.000323 0.002785
# 2 -0.002725 0.012966 -0.003207 0.003246 -0.001932 -0.004461
# 3 -0.002080 -0.003207 0.009867 0.001265 0.001165 -0.000468
# 4 -0.005698 0.003246 0.001265 0.030646 -0.001288 -0.004628
# 5 -0.000323 -0.001932 0.001165 -0.001288 0.024729 -0.005806
# 6 0.002785 -0.004461 -0.000468 -0.004628 -0.005806 0.030862
#
#
# Mechanical properties :
#
#
# Convention : Reuss Voigt Hill
#
# Bulk Modulus (GPa) = 58.88127 60.60077 59.74102
# Shear Modulus (GPa) = 35.47921 39.96462 37.72192
#
# Velocity S-wave (km/s) = 4.16222 4.41750 4.29176
# Velocity P-wave (km/s) = 7.20068 7.45719 7.33006
#
# Compressibility (1/GPa) = 0.01698333
#
# Stress axis : x y z
#
# Youngs Moduli (GPa) = 98.30395 77.12375 101.34432
#
# Poissons Ratio (x) = 0.21013 0.21080
# Poissons Ratio (y) = 0.26783 0.32499
# Poissons Ratio (z) = 0.20448 0.24732
#
# Static dielectric constant tensor:
#      x y z
#    x 1.749910 0.026180 -0.011260 
#    y 0.026180 1.923550 -0.065890 
#    z -0.011260 -0.065890 1.736440 
# 
# From -- ./inp_files/88914.got.cif
#   From: 2010.05.17/outbox.cif.g08.bks.cpg/sg2_45_cif.got.tgz:88914.got - 2010.06.03 11:33:40.
