data_PCOD9024464
_publ_section_title
;
Structure prediction by ZEFSAII (Michael W. Deem and Ramdas Pophale) SiO2 
 PCOD9024464
Probable space group: P -1
;
_chemical_formula_sum "Si O2"
_cell_formula_units_Z 14
_cell_length_a 24.451148
_cell_length_b 14.846652
_cell_length_c 5.219865
_cell_angle_alpha 91.860295
_cell_angle_beta 103.054867
_cell_angle_gamma 20.920455
_cell_volume 565.689414
_symmetry_space_group_name_H-M "P -1"
_symmetry_group_IT_number 2
_symmetry_cell_setting 'triclinic'
loop_
_space_group_symop_operation_xyz
x,y,z
-x,-y,-z
loop_
_atom_site_type_symbol
_atom_site_label
_atom_site_fract_x
_atom_site_fract_y
_atom_site_fract_z
Si Si1 0.630751 0.738928 0.444691
Si Si2 0.207470 0.649821 0.035797
Si Si3 0.507955 0.749257 0.077372
Si Si4 0.893609 0.845924 0.716715
Si Si5 0.144131 0.888999 0.379572
Si Si6 0.133651 0.463091 0.446910
Si Si7 0.220828 0.155797 0.233865
O O1 0.519536 0.836285 0.176969
O O2 0.745238 0.633965 0.390408
O O3 0.500000 0.000000 0.500000
O O4 0.754957 0.487563 0.736630
O O5 0.408449 0.372688 0.128880
O O6 0.132732 0.858001 0.087637
O O7 0.056133 0.836888 0.702228
O O8 0.677820 0.430861 0.344815
O O9 0.327314 0.993974 0.061303
O O10 0.745720 0.992361 0.613130
O O11 0.022648 0.614889 0.601221
O O12 0.833352 0.038621 0.597501
O O13 0.001820 0.687484 0.086344
O O14 0.247002 0.202999 0.447124
O O15 0.000000 0.500000 0.000000
#
# Coordination Sequence:
#
# PCOD9024464 Si02
#       7
#     2   2   2   2   2   2   2
#     4  11  22  37  63  99 134 167 221 281 345 406
#     4  10  22  40  64  98 138 170 219 282 347 401
#     4  11  23  41  66 100 134 178 224 279 340 409
#     4  11  24  43  72  94 134 184 230 276 339 406
#     4  10  22  40  65  98 134 175 224 274 344 404
#     4  11  23  44  68 101 131 180 228 284 345 404
#     4  10  24  46  65  96 135 181 230 284 336 399
#
# _framework density 24.748563999999998
#
# number of rings (size 3 to 8) (size 9 to 14) (size 15 to 20)
#    0.000    1.429    2.857    1.714    2.000    3.429 
#   10.286    0.714    0.000    0.000    0.000    0.000 
#    0.000    0.000    0.000    0.000    0.000    0.000 
#
# Total GULP energy -78178.803390 kJ/mol
# GULP energy per Si atom -5584.200242 kJ/mol
# Density = 2.469224 g / cm^3
# Si number density = 24.748564 Si / 1000 Ang^3
#
#
#
# Elastic Constant Matrix: (Units=GPa)
#
#
# Indices 1 2 3 4 5 6 
#
# 1 179.8595 49.8384 12.8549 -6.2268 -9.4187 2.3424
# 2 49.8384 134.3277 20.0610 -10.3838 -5.2811 -7.3623
# 3 12.8549 20.0610 41.2651 -9.1738 -15.5106 0.2504
# 4 -6.2268 -10.3838 -9.1738 34.2113 -0.1510 -4.2150
# 5 -9.4187 -5.2811 -15.5106 -0.1510 25.0279 0.1013
# 6 2.3424 -7.3623 0.2504 -4.2150 0.1013 64.9547
#
#
#
# Elastic Compliance Matrix: (Units=1/GPa)
#
#
# Indices 1 2 3 4 5 6 
#
# 1 0.006306 -0.002249 -0.000085 0.000394 0.001850 -0.000459
# 2 -0.002249 0.008979 -0.003859 0.001424 -0.001339 0.001208
# 3 -0.000085 -0.003859 0.036178 0.008604 0.021626 -0.000049
# 4 0.000394 0.001424 0.008604 0.032339 0.005967 0.002203
# 5 0.001850 -0.001339 0.021626 0.005967 0.053808 0.000001
# 6 -0.000459 0.001208 -0.000049 0.002203 0.000001 0.015692
#
#
# Mechanical properties :
#
#
# Convention : Reuss Voigt Hill
#
# Bulk Modulus (GPa) = 25.59073 57.88451 41.73762
# Shear Modulus (GPa) = 27.97798 43.01864 35.49831
#
# Velocity S-wave (km/s) = 3.36592 4.17373 3.79140
# Velocity P-wave (km/s) = 5.04665 6.83129 6.00563
#
# Compressibility (1/GPa) = 0.03907664
#
# Stress axis : x y z
#
# Youngs Moduli (GPa) = 158.58901 111.37435 27.64116
#
# Poissons Ratio (x) = 0.25045 0.00236
# Poissons Ratio (y) = 0.35663 0.10666
# Poissons Ratio (z) = 0.01356 0.42975
#
# Static dielectric constant tensor:
#      x y z
#    x 1.980940 -0.125080 0.010900 
#    y -0.125080 2.225190 0.019500 
#    z 0.010900 0.019500 2.168200 
# 
# From -- ./inp_files/66577.got.cif
#   From: 2010.05.17/outbox.cif.g08.bks.cpg/sg2_34_cif.got.tgz:66577.got - 2010.06.03 11:33:40.
