data_PCOD9024309
_publ_section_title
;
Structure prediction by ZEFSAII (Michael W. Deem and Ramdas Pophale) SiO2 
 PCOD9024309
Probable space group: P -1
;
_chemical_formula_sum "Si O2"
_cell_formula_units_Z 16
_cell_length_a 9.795086
_cell_length_b 9.214877
_cell_length_c 15.492709
_cell_angle_alpha 68.206033
_cell_angle_beta 37.892994
_cell_angle_gamma 76.970841
_cell_volume 791.868215
_symmetry_space_group_name_H-M "P -1"
_symmetry_group_IT_number 2
_symmetry_cell_setting 'triclinic'
loop_
_space_group_symop_operation_xyz
x,y,z
-x,-y,-z
loop_
_atom_site_type_symbol
_atom_site_label
_atom_site_fract_x
_atom_site_fract_y
_atom_site_fract_z
Si Si1 0.222156 0.046079 0.776653
Si Si2 0.368568 0.625385 0.085862
Si Si3 0.606317 0.340440 0.505606
Si Si4 0.001531 0.426407 0.420220
Si Si5 0.739236 0.099909 0.047587
Si Si6 0.977042 0.889582 0.453671
Si Si7 0.253889 0.918613 0.614899
Si Si8 0.542617 0.130376 0.874541
O O1 0.408488 0.196468 0.644309
O O2 0.318230 0.919223 0.819063
O O3 0.131138 0.954018 0.756302
O O4 0.005655 0.114311 0.906680
O O5 0.135497 0.540492 0.258933
O O6 0.480144 0.709435 0.097839
O O7 0.500000 0.500000 0.000000
O O8 0.339291 0.760786 0.000497
O O9 0.500000 0.500000 0.500000
O O10 0.750332 0.260051 0.377272
O O11 0.762568 0.370870 0.505858
O O12 0.000000 0.500000 0.500000
O O13 0.121062 0.273963 0.417834
O O14 0.632071 0.933983 0.096840
O O15 0.210900 0.866802 0.292700
O O16 0.000000 0.000000 0.500000
O O17 0.833277 0.973651 0.438974
O O18 0.500000 0.000000 0.500000
O O19 0.500000 0.000000 0.000000
#
# Coordination Sequence:
#
# PCOD9024309 Si02
#       8
#     2   2   2   2   2   2   2   2
#     4  10  22  42  67  92 123 176 222 266 325 399
#     4  11  25  41  62  97 134 173 214 276 336 391
#     4  11  24  42  64  95 138 169 214 274 339 389
#     4  12  26  42  68 101 137 177 220 279 340 391
#     4  10  22  42  67  89 127 171 224 268 324 397
#     4  12  24  42  69 102 133 174 232 278 326 401
#     4  10  23  39  63  93 128 170 216 266 324 391
#     4  10  22  40  64  91 131 172 217 271 326 387
#
# _framework density 20.205380999999999
#
# number of rings (size 3 to 8) (size 9 to 14) (size 15 to 20)
#    0.000    1.250    2.500    3.000    8.750    1.000 
#    0.000    0.000    0.000    3.750    0.000    0.000 
#    0.000    0.000    0.000    0.000    0.000    0.000 
#
# Total GULP energy -89136.418871 kJ/mol
# GULP energy per Si atom -5571.026179 kJ/mol
# Density = 2.015939 g / cm^3
# Si number density = 20.205381 Si / 1000 Ang^3
#
#
#
# Elastic Constant Matrix: (Units=GPa)
#
#
# Indices 1 2 3 4 5 6 
#
# 1 154.1104 63.1168 22.3262 -1.5526 20.1623 7.4483
# 2 63.1168 145.6966 25.6674 -1.4778 15.6596 7.7258
# 3 22.3262 25.6674 55.3060 -2.0979 2.8324 -1.6548
# 4 -1.5526 -1.4778 -2.0979 24.1681 0.5755 7.7772
# 5 20.1623 15.6596 2.8324 0.5755 35.5758 -6.4024
# 6 7.4483 7.7258 -1.6548 7.7772 -6.4024 34.8578
#
#
#
# Elastic Compliance Matrix: (Units=1/GPa)
#
#
# Indices 1 2 3 4 5 6 
#
# 1 0.008551 -0.002811 -0.001977 0.001017 -0.003870 -0.002236
# 2 -0.002811 0.008999 -0.002944 0.000882 -0.002543 -0.002197
# 3 -0.001977 -0.002944 0.020277 0.000755 0.001165 0.002083
# 4 0.001017 0.000882 0.000755 0.045243 -0.003766 -0.011163
# 5 -0.003870 -0.002543 0.001165 -0.003766 0.032889 0.008327
# 6 -0.002236 -0.002197 0.002083 -0.011163 0.008327 0.033772
#
#
# Mechanical properties :
#
#
# Convention : Reuss Voigt Hill
#
# Bulk Modulus (GPa) = 44.71751 64.14821 54.43286
# Shear Modulus (GPa) = 28.96039 35.18717 32.07378
#
# Velocity S-wave (km/s) = 3.79000 4.17763 3.98853
# Velocity P-wave (km/s) = 6.42897 7.42207 6.94330
#
# Compressibility (1/GPa) = 0.02236260
#
# Stress axis : x y z
#
# Youngs Moduli (GPa) = 116.94006 111.12589 49.31722
#
# Poissons Ratio (x) = 0.31241 0.09752
# Poissons Ratio (y) = 0.32875 0.14517
# Poissons Ratio (z) = 0.23124 0.32710
#
# Static dielectric constant tensor:
#      x y z
#    x 1.742060 0.015900 0.030000 
#    y 0.015900 1.696920 0.052000 
#    z 0.030000 0.052000 1.866420 
# 
# From -- ./inp_files/494581.got.cif
#   From: 2010.05.17/outbox.cif.g08.bks.cpg/sg2_248_cif.got.tgz:494581.got - 2010.06.03 11:33:40.
