data_PCOD9024188
_publ_section_title
;
Structure prediction by ZEFSAII (Michael W. Deem and Ramdas Pophale) SiO2 
 PCOD9024188
Probable space group: P -1
;
_chemical_formula_sum "Si O2"
_cell_formula_units_Z 14
_cell_length_a 12.085568
_cell_length_b 10.706089
_cell_length_c 19.016220
_cell_angle_alpha 155.334298
_cell_angle_beta 141.408430
_cell_angle_gamma 50.206494
_cell_volume 616.713643
_symmetry_space_group_name_H-M "P -1"
_symmetry_group_IT_number 2
_symmetry_cell_setting 'triclinic'
loop_
_space_group_symop_operation_xyz
x,y,z
-x,-y,-z
loop_
_atom_site_type_symbol
_atom_site_label
_atom_site_fract_x
_atom_site_fract_y
_atom_site_fract_z
Si Si1 0.396292 0.149625 0.120594
Si Si2 0.398560 0.313760 0.951573
Si Si3 0.230866 0.213618 0.673433
Si Si4 0.083635 0.543676 0.659026
Si Si5 0.162803 0.582187 0.232943
Si Si6 0.716769 0.606325 0.445639
Si Si7 0.229185 0.712276 0.166736
O O1 0.313134 0.411840 0.247413
O O2 0.534940 0.324798 0.218628
O O3 0.511336 0.964878 0.129082
O O4 0.210304 0.883640 0.874322
O O5 0.244665 0.209143 0.761763
O O6 0.561511 0.605730 0.154990
O O7 0.321904 0.453650 0.052099
O O8 0.112645 0.431965 0.694035
O O9 0.171122 0.878741 0.436568
O O10 0.177763 0.342504 0.550755
O O11 0.874019 0.524763 0.529885
O O12 0.203549 0.669072 0.215345
O O13 0.958403 0.353087 0.005518
O O14 0.671324 0.924011 0.607771
#
# Coordination Sequence:
#
# PCOD9024188 Si02
#       7
#     2   2   2   2   2   2   2
#     4  11  24  39  64  98 127 169 209 272 319 376
#     4  10  25  42  66  92 130 165 227 251 323 388
#     4  10  22  45  65  89 129 179 204 268 317 387
#     4  10  22  40  63  97 129 168 209 270 317 383
#     4  11  24  40  67  93 135 164 217 264 328 365
#     4  11  22  38  65  97 131 162 214 268 321 378
#     4  11  24  41  62 102 127 168 214 270 310 398
#
# _framework density 22.700975
#
# number of rings (size 3 to 8) (size 9 to 14) (size 15 to 20)
#    0.000    1.429    2.857    1.286    8.000    2.286 
#    0.000    2.143    0.000    0.000    0.000    0.000 
#    0.000    0.000    0.000    0.000    0.000    0.000 
#
# Total GULP energy -78199.373336 kJ/mol
# GULP energy per Si atom -5585.669524 kJ/mol
# Density = 2.264931 g / cm^3
# Si number density = 22.700975 Si / 1000 Ang^3
#
#
#
# Elastic Constant Matrix: (Units=GPa)
#
#
# Indices 1 2 3 4 5 6 
#
# 1 39.5748 24.1790 36.0789 -0.2288 -2.9323 -4.3611
# 2 24.1790 103.5778 51.1083 -1.6954 -1.4382 -10.6448
# 3 36.0789 51.1083 125.7901 9.7705 -8.2446 2.8134
# 4 -0.2288 -1.6954 9.7705 32.5501 -0.2699 -6.8784
# 5 -2.9323 -1.4382 -8.2446 -0.2699 26.5504 -9.9551
# 6 -4.3611 -10.6448 2.8134 -6.8784 -9.9551 23.7749
#
#
#
# Elastic Compliance Matrix: (Units=1/GPa)
#
#
# Indices 1 2 3 4 5 6 
#
# 1 0.037574 -0.002558 -0.010074 0.005427 0.004897 0.010560
# 2 -0.002558 0.013787 -0.005237 0.004050 0.002004 0.008334
# 3 -0.010074 -0.005237 0.013600 -0.006028 -0.000076 -0.007578
# 4 0.005427 0.004050 -0.006028 0.036267 0.005422 0.016285
# 5 0.004897 0.002004 -0.000076 0.005422 0.046987 0.023048
# 6 0.010560 0.008334 -0.007578 0.016285 0.023048 0.062988
#
#
# Mechanical properties :
#
#
# Convention : Reuss Voigt Hill
#
# Bulk Modulus (GPa) = 34.22221 54.63055 44.42638
# Shear Modulus (GPa) = 19.47940 27.08018 23.27979
#
# Velocity S-wave (km/s) = 2.93249 3.45760 3.20581
# Velocity P-wave (km/s) = 5.15499 6.32910 5.77198
#
# Compressibility (1/GPa) = 0.02922079
#
# Stress axis : x y z
#
# Youngs Moduli (GPa) = 26.61437 72.53396 73.53029
#
# Poissons Ratio (x) = 0.18556 0.74075
# Poissons Ratio (y) = 0.06808 0.38511
# Poissons Ratio (z) = 0.26812 0.37989
#
# Static dielectric constant tensor:
#      x y z
#    x 1.890060 -0.004500 0.006820 
#    y -0.004500 1.852190 -0.008660 
#    z 0.006820 -0.008660 1.854180 
# 
# From -- ./inp_files/172488.got.cif
#   From: 2010.05.17/outbox.cif.g08.bks.cpg/sg2_87_cif.got.tgz:172488.got - 2010.06.03 11:33:40.
