data_PCOD9024333
_publ_section_title
;
Structure prediction by ZEFSAII (Michael W. Deem and Ramdas Pophale) SiO2 
 PCOD9024333
Probable space group: P -1
;
_chemical_formula_sum "Si O2"
_cell_formula_units_Z 16
_cell_length_a 7.933249
_cell_length_b 15.759742
_cell_length_c 12.152455
_cell_angle_alpha 126.932679
_cell_angle_beta 139.251851
_cell_angle_gamma 76.620622
_cell_volume 716.103005
_symmetry_space_group_name_H-M "P -1"
_symmetry_group_IT_number 2
_symmetry_cell_setting 'triclinic'
loop_
_space_group_symop_operation_xyz
x,y,z
-x,-y,-z
loop_
_atom_site_type_symbol
_atom_site_label
_atom_site_fract_x
_atom_site_fract_y
_atom_site_fract_z
Si Si1 0.986217 0.259264 0.450737
Si Si2 0.256984 0.746452 0.897257
Si Si3 0.286910 0.521442 0.288713
Si Si4 0.094803 0.859635 0.250957
Si Si5 0.000489 0.682780 0.263532
Si Si6 0.637763 0.870199 0.387531
Si Si7 0.201734 0.309344 0.196792
Si Si8 0.618697 0.475308 0.216759
O O1 0.858811 0.254362 0.504884
O O2 0.200148 0.197873 0.526237
O O3 0.170481 0.397702 0.623295
O O4 0.767903 0.209053 0.202025
O O5 0.243960 0.616599 0.777109
O O6 0.978880 0.737642 0.819247
O O7 0.514712 0.819150 0.165600
O O8 0.087622 0.396448 0.146817
O O9 0.480368 0.605143 0.546087
O O10 0.488059 0.495477 0.282463
O O11 0.136606 0.597052 0.222701
O O12 0.370499 0.860625 0.323300
O O13 0.031395 0.778612 0.263061
O O14 0.156505 0.991825 0.411399
O O15 0.838998 0.793163 0.987110
O O16 0.667884 0.596238 0.051703
#
# Coordination Sequence:
#
# PCOD9024333 Si02
#       8
#     2   2   2   2   2   2   2   2
#     4  12  25  41  66  97 133 175 212 260 328 393
#     4  11  24  43  65  97 131 173 212 266 325 382
#     4  11  23  37  62 102 128 168 214 264 328 384
#     4  10  23  45  69  89 127 174 218 273 317 372
#     4  12  25  39  64  98 131 173 213 264 323 389
#     4  10  24  48  67  92 128 174 223 267 317 378
#     4  10  22  40  64  92 133 167 211 275 316 383
#     4  12  23  41  64  98 137 169 208 266 328 390
#
# _framework density 22.343156
#
# number of rings (size 3 to 8) (size 9 to 14) (size 15 to 20)
#    0.000    1.000    3.750    2.625    7.000    0.500 
#    2.250    2.500    0.000    0.000    0.000    0.000 
#    0.000    0.000    0.000    0.000    0.000    0.000 
#
# Total GULP energy -89451.910170 kJ/mol
# GULP energy per Si atom -5590.744386 kJ/mol
# Density = 2.229230 g / cm^3
# Si number density = 22.343156 Si / 1000 Ang^3
#
#
#
# Elastic Constant Matrix: (Units=GPa)
#
#
# Indices 1 2 3 4 5 6 
#
# 1 57.7386 12.7802 21.9131 -6.6509 -27.6752 11.3383
# 2 12.7802 99.5717 62.6980 0.8933 -13.5580 -11.8868
# 3 21.9131 62.6980 130.5213 6.9956 -26.3079 -1.8896
# 4 -6.6509 0.8933 6.9956 35.6804 7.3486 -1.2926
# 5 -27.6752 -13.5580 -26.3079 7.3486 34.4555 -3.1632
# 6 11.3383 -11.8868 -1.8896 -1.2926 -3.1632 22.8266
#
#
#
# Elastic Compliance Matrix: (Units=1/GPa)
#
#
# Indices 1 2 3 4 5 6 
#
# 1 0.031781 -0.002912 0.000545 0.000565 0.023393 -0.013983
# 2 -0.002912 0.015948 -0.007303 0.001030 -0.001027 0.009063
# 3 0.000545 -0.007303 0.012885 -0.003978 0.008056 -0.002116
# 4 0.000565 0.001030 -0.003978 0.030691 -0.008681 0.000461
# 5 0.023393 -0.001027 0.008056 -0.008681 0.055011 -0.004356
# 6 -0.013983 0.009063 -0.002116 0.000461 -0.004356 0.054721
#
#
# Mechanical properties :
#
#
# Convention : Reuss Voigt Hill
#
# Bulk Modulus (GPa) = 24.22789 53.62382 38.92585
# Shear Modulus (GPa) = 21.35540 31.28853 26.32196
#
# Velocity S-wave (km/s) = 3.09494 3.74620 3.43604
# Velocity P-wave (km/s) = 4.86196 6.53944 5.76207
#
# Compressibility (1/GPa) = 0.04127475
#
# Stress axis : x y z
#
# Youngs Moduli (GPa) = 31.46554 62.70338 77.61263
#
# Poissons Ratio (x) = 0.18257 -0.04233
# Poissons Ratio (y) = 0.09162 0.56681
# Poissons Ratio (z) = -0.01716 0.45793
#
# Static dielectric constant tensor:
#      x y z
#    x 1.840310 -0.028940 -0.000600 
#    y -0.028940 1.830380 -0.058850 
#    z -0.000600 -0.058850 1.882560 
# 
# From -- ./inp_files/260968.got.cif
#   From: 2010.05.17/outbox.cif.g08.bks.cpg/sg2_131_cif.got.tgz:260968.got - 2010.06.03 11:33:40.
