data_PCOD9024386
_publ_section_title
;
Structure prediction by ZEFSAII (Michael W. Deem and Ramdas Pophale) SiO2 
 PCOD9024386
Probable space group: P -1
;
_chemical_formula_sum "Si O2"
_cell_formula_units_Z 16
_cell_length_a 9.208368
_cell_length_b 9.593578
_cell_length_c 11.939459
_cell_angle_alpha 45.659167
_cell_angle_beta 124.549265
_cell_angle_gamma 98.932364
_cell_volume 566.884593
_symmetry_space_group_name_H-M "P -1"
_symmetry_group_IT_number 2
_symmetry_cell_setting 'triclinic'
loop_
_space_group_symop_operation_xyz
x,y,z
-x,-y,-z
loop_
_atom_site_type_symbol
_atom_site_label
_atom_site_fract_x
_atom_site_fract_y
_atom_site_fract_z
Si Si1 0.335448 0.135086 0.024188
Si Si2 0.141927 0.676964 0.100672
Si Si3 0.126818 0.510146 0.882108
Si Si4 0.616099 0.335028 0.993710
Si Si5 0.261421 0.746485 0.575160
Si Si6 0.126405 0.265118 0.635174
Si Si7 0.720171 0.919788 0.727921
Si Si8 0.311240 0.544653 0.464959
O O1 0.535164 0.155445 0.073570
O O2 0.236693 0.117901 0.873219
O O3 0.188968 0.371216 0.874598
O O4 0.360594 0.002251 0.225353
O O5 0.314927 0.656161 0.107818
O O6 0.158286 0.708067 0.221102
O O7 0.085178 0.470295 0.191751
O O8 0.949401 0.866607 0.867108
O O9 0.197800 0.693129 0.834205
O O10 0.262467 0.321703 0.132860
O O11 0.430590 0.552764 0.820507
O O12 0.294164 0.657182 0.512091
O O13 0.034148 0.793476 0.467645
O O14 0.330063 0.940194 0.484110
O O15 0.274839 0.330123 0.590945
O O16 0.000000 0.500000 0.500000
O O17 0.500000 0.500000 0.500000
#
# Coordination Sequence:
#
# PCOD9024386 Si02
#       8
#     2   2   2   2   2   2   2   2
#     4   9  18  34  51  80 105 134 179 217 255 311
#     4   9  20  35  52  76 110 136 176 213 263 308
#     4   8  20  34  55  75 107 138 182 210 261 305
#     4  12  18  33  60  79 100 142 182 220 248 306
#     4  11  21  32  58  80 105 141 174 212 271 307
#     4  10  17  31  53  79 106 133 175 216 257 312
#     4   8  21  37  49  78 110 142 167 214 268 318
#     4  11  19  34  54  85 106 131 177 228 252 305
#
# _framework density 28.224440999999999
#
# number of rings (size 3 to 8) (size 9 to 14) (size 15 to 20)
#    1.500    0.500    3.750    3.750    0.000    2.500 
#    0.000    1.250    0.000    3.000    0.000    4.375 
#    0.000    0.000    0.000    0.000    0.000    0.000 
#
# Total GULP energy -89169.966028 kJ/mol
# GULP energy per Si atom -5573.122877 kJ/mol
# Density = 2.816020 g / cm^3
# Si number density = 28.224441 Si / 1000 Ang^3
#
#
#
# Elastic Constant Matrix: (Units=GPa)
#
#
# Indices 1 2 3 4 5 6 
#
# 1 188.1264 32.1509 -2.5892 10.1917 -2.6910 30.9020
# 2 32.1509 71.1607 4.2247 7.3876 2.1969 9.4330
# 3 -2.5892 4.2247 65.2737 12.5514 -22.5224 -4.9066
# 4 10.1917 7.3876 12.5514 36.0714 -0.1387 -5.8320
# 5 -2.6910 2.1969 -22.5224 -0.1387 28.5424 8.8549
# 6 30.9020 9.4330 -4.9066 -5.8320 8.8549 51.3776
#
#
#
# Elastic Compliance Matrix: (Units=1/GPa)
#
#
# Indices 1 2 3 4 5 6 
#
# 1 0.006656 -0.002373 0.001862 -0.002727 0.003606 -0.004321
# 2 -0.002373 0.015716 -0.001551 -0.002257 -0.002208 -0.001482
# 3 0.001862 -0.001551 0.023905 -0.008938 0.020052 -0.003022
# 4 -0.002727 -0.002257 -0.008938 0.033083 -0.008994 0.006506
# 5 0.003606 -0.002208 0.020052 -0.008994 0.054509 -0.010264
# 6 -0.004321 -0.001482 -0.003022 0.006506 -0.010264 0.024554
#
#
# Mechanical properties :
#
#
# Convention : Reuss Voigt Hill
#
# Bulk Modulus (GPa) = 23.72397 43.57042 33.64719
# Shear Modulus (GPa) = 28.31310 42.58322 35.44816
#
# Velocity S-wave (km/s) = 3.17068 3.88846 3.54777
# Velocity P-wave (km/s) = 4.67204 5.96915 5.35998
#
# Compressibility (1/GPa) = 0.04215147
#
# Stress axis : x y z
#
# Youngs Moduli (GPa) = 150.24395 63.63007 41.83305
#
# Poissons Ratio (x) = 0.15100 -0.07787
# Poissons Ratio (y) = 0.35655 0.06487
# Poissons Ratio (z) = -0.27968 0.09868
#
# Static dielectric constant tensor:
#      x y z
#    x 2.275430 0.109290 -0.033070 
#    y 0.109290 2.261550 -0.011830 
#    z -0.033070 -0.011830 2.379570 
# 
# From -- ./inp_files/502716.got.cif
#   From: 2010.05.17/outbox.cif.g08.bks.cpg/sg2_252_cif.got.tgz:502716.got - 2010.06.03 11:33:40.
