data_PCOD9024841
_publ_section_title
;
Structure prediction by ZEFSAII (Michael W. Deem and Ramdas Pophale) SiO2 
 PCOD9024841
Probable space group: P -1
;
_chemical_formula_sum "Si O2"
_cell_formula_units_Z 11
_cell_length_a 6.581419
_cell_length_b 13.711864
_cell_length_c 11.062755
_cell_angle_alpha 30.878947
_cell_angle_beta 97.004401
_cell_angle_gamma 82.607269
_cell_volume 452.063749
_symmetry_space_group_name_H-M "P -1"
_symmetry_group_IT_number 2
_symmetry_cell_setting 'triclinic'
loop_
_space_group_symop_operation_xyz
x,y,z
-x,-y,-z
loop_
_atom_site_type_symbol
_atom_site_label
_atom_site_fract_x
_atom_site_fract_y
_atom_site_fract_z
Si Si1 0.809801 0.451908 0.967659
Si Si2 0.816093 0.321453 0.494457
Si Si3 0.686590 0.162909 0.429894
Si Si4 0.266698 0.200674 0.808903
Si Si5 0.162546 0.269502 0.002162
Si Si6 0.500000 0.500000 0.500000
O O1 0.570118 0.661636 0.742575
O O2 0.774640 0.254849 0.228279
O O3 0.000000 0.500000 0.000000
O O4 0.901984 0.391676 0.902104
O O5 0.838047 0.168073 0.548975
O O6 0.626558 0.348005 0.551149
O O7 0.061463 0.236968 0.666150
O O8 0.746129 0.553521 0.181271
O O9 0.712687 0.925284 0.688021
O O10 0.315983 0.403757 0.598424
O O11 0.194637 0.184955 0.958098
O O12 0.500000 0.000000 0.000000
#
# Coordination Sequence:
#
# PCOD9024841 Si02
#       6
#     2   2   2   2   2   1
#     4  11  25  49  70 103 140 175 243 293 338 423
#     4  11  25  44  68 105 141 182 232 287 339 426
#     4  11  26  46  72 100 139 185 228 292 355 402
#     4  11  26  44  68 107 143 183 233 282 346 423
#     4  11  24  45  73 100 139 186 226 286 351 409
#     4  10  22  40  66  92 140 178 222 276 338 402
#
# _framework density 24.332851999999999
#
# number of rings (size 3 to 8) (size 9 to 14) (size 15 to 20)
#    0.000    1.091    1.818    3.818    7.636    5.091 
#    6.545    0.000    0.000    0.000    0.000    0.000 
#    0.000    0.000    0.000    0.000    0.000    0.000 
#
# Total GULP energy -61353.690720 kJ/mol
# GULP energy per Si atom -5577.608247 kJ/mol
# Density = 2.427747 g / cm^3
# Si number density = 24.332852 Si / 1000 Ang^3
#
#
#
# Elastic Constant Matrix: (Units=GPa)
#
#
# Indices 1 2 3 4 5 6 
#
# 1 120.5056 31.0213 51.6833 19.5543 -2.5906 -23.4042
# 2 31.0213 105.3084 9.3321 9.7695 -0.0353 -29.9488
# 3 51.6833 9.3321 119.1088 -5.8494 -16.2340 -5.8457
# 4 19.5543 9.7695 -5.8494 26.7963 -7.0321 -3.3385
# 5 -2.5906 -0.0353 -16.2340 -7.0321 34.0401 6.9320
# 6 -23.4042 -29.9488 -5.8457 -3.3385 6.9320 52.6232
#
#
#
# Elastic Compliance Matrix: (Units=1/GPa)
#
#
# Indices 1 2 3 4 5 6 
#
# 1 0.014802 -0.001009 -0.007585 -0.013086 -0.006246 0.005159
# 2 -0.001009 0.012014 -0.000703 -0.003644 -0.002456 0.006403
# 3 -0.007585 -0.000703 0.013286 0.010580 0.008503 -0.002746
# 4 -0.013086 -0.003644 0.010580 0.054115 0.016333 -0.005437
# 5 -0.006246 -0.002456 0.008503 0.016333 0.037789 -0.007173
# 6 0.005159 0.006403 -0.002746 -0.005437 -0.007173 0.025236
#
#
# Mechanical properties :
#
#
# Convention : Reuss Voigt Hill
#
# Bulk Modulus (GPa) = 46.49396 58.77736 52.63566
# Shear Modulus (GPa) = 27.32184 39.55097 33.43641
#
# Velocity S-wave (km/s) = 3.35451 4.03602 3.71094
# Velocity P-wave (km/s) = 5.84403 6.77696 6.32771
#
# Compressibility (1/GPa) = 0.02150817
#
# Stress axis : x y z
#
# Youngs Moduli (GPa) = 67.55762 83.23937 75.26966
#
# Poissons Ratio (x) = 0.08401 0.57089
# Poissons Ratio (y) = 0.06818 0.05290
# Poissons Ratio (z) = 0.51239 0.05850
#
# Static dielectric constant tensor:
#      x y z
#    x 1.890610 0.019940 0.002900 
#    y 0.019940 1.950310 0.004320 
#    z 0.002900 0.004320 1.991950 
# 
# From -- ./inp_files/74737.got.cif
#   From: 2010.05.17/outbox.cif.g08.bks.cpg/sg2_38_cif.got.tgz:74737.got - 2010.06.03 11:33:40.
