data_PCOD9024160
_publ_section_title
;
Structure prediction by ZEFSAII (Michael W. Deem and Ramdas Pophale) SiO2 
 PCOD9024160
Probable space group: P -1
;
_chemical_formula_sum "Si O2"
_cell_formula_units_Z 12
_cell_length_a 15.328924
_cell_length_b 5.123098
_cell_length_c 9.174856
_cell_angle_alpha 100.470465
_cell_angle_beta 131.346971
_cell_angle_gamma 64.549785
_cell_volume 482.839478
_symmetry_space_group_name_H-M "P -1"
_symmetry_group_IT_number 2
_symmetry_cell_setting 'triclinic'
loop_
_space_group_symop_operation_xyz
x,y,z
-x,-y,-z
loop_
_atom_site_type_symbol
_atom_site_label
_atom_site_fract_x
_atom_site_fract_y
_atom_site_fract_z
Si Si1 0.296816 0.193398 0.204454
Si Si2 0.144583 0.598469 0.651541
Si Si3 0.932487 0.647284 0.207456
Si Si4 0.101177 0.756504 0.187402
Si Si5 0.745224 0.076867 0.384772
Si Si6 0.548213 0.220775 0.417868
O O1 0.215908 0.528467 0.196196
O O2 0.426435 0.145153 0.259720
O O3 0.342224 0.024253 0.389284
O O4 0.197808 0.127123 0.988803
O O5 0.108982 0.582924 0.779033
O O6 0.231655 0.756526 0.711364
O O7 0.008961 0.726007 0.427727
O O8 0.218767 0.258595 0.648449
O O9 0.035405 0.576801 0.185276
O O10 0.157246 0.900072 0.384646
O O11 0.000000 0.000000 0.000000
O O12 0.609147 0.234966 0.331908
O O13 0.500000 0.500000 0.500000
#
# Coordination Sequence:
#
# PCOD9024160 Si02
#       6
#     2   2   2   2   2   2
#     4  11  23  40  64  98 130 165 218 267 329 386
#     4  10  24  42  66  92 132 174 212 261 321 388
#     4  10  22  40  63  95 130 170 211 262 324 393
#     4  11  21  36  67 100 130 161 209 275 336 386
#     4  11  22  42  64  91 127 171 217 262 318 384
#     4  11  23  41  65  92 126 173 214 273 327 372
#
# _framework density 24.852978
#
# number of rings (size 3 to 8) (size 9 to 14) (size 15 to 20)
#    0.000    1.333    1.667    4.500    2.333    7.333 
#    0.000    1.667    0.000    0.000    0.000    0.000 
#    0.000    0.000    0.000    0.000    0.000    0.000 
#
# Total GULP energy -67147.082079 kJ/mol
# GULP energy per Si atom -5595.590173 kJ/mol
# Density = 2.479641 g / cm^3
# Si number density = 24.852978 Si / 1000 Ang^3
#
#
#
# Elastic Constant Matrix: (Units=GPa)
#
#
# Indices 1 2 3 4 5 6 
#
# 1 210.8501 32.0120 27.4277 -10.6432 -10.0475 14.8768
# 2 32.0120 120.3513 13.2726 0.8203 -4.4165 -7.0321
# 3 27.4277 13.2726 72.5142 -11.5422 1.0902 -3.0599
# 4 -10.6432 0.8203 -11.5422 34.8590 -4.8601 -1.7079
# 5 -10.0475 -4.4165 1.0902 -4.8601 33.3216 -0.7744
# 6 14.8768 -7.0321 -3.0599 -1.7079 -0.7744 36.5116
#
#
#
# Elastic Compliance Matrix: (Units=1/GPa)
#
#
# Indices 1 2 3 4 5 6 
#
# 1 0.005502 -0.001366 -0.001768 0.001232 0.001656 -0.002560
# 2 -0.001366 0.008961 -0.001172 -0.000806 0.000747 0.002162
# 3 -0.001768 -0.001172 0.015506 0.004655 -0.000470 0.002002
# 4 0.001232 -0.000806 0.004655 0.031344 0.004714 0.001299
# 5 0.001656 0.000747 -0.000470 0.004714 0.031319 0.000315
# 6 -0.002560 0.002162 0.002002 0.001299 0.000315 0.029083
#
#
# Mechanical properties :
#
#
# Convention : Reuss Voigt Hill
#
# Bulk Modulus (GPa) = 46.82124 61.01556 53.91840
# Shear Modulus (GPa) = 36.37815 43.00531 39.69173
#
# Velocity S-wave (km/s) = 3.83003 4.16431 4.00066
# Velocity P-wave (km/s) = 6.19992 6.90839 6.56372
#
# Compressibility (1/GPa) = 0.02135783
#
# Stress axis : x y z
#
# Youngs Moduli (GPa) = 181.76068 111.59806 64.49127
#
# Poissons Ratio (x) = 0.15240 0.11401
# Poissons Ratio (y) = 0.24822 0.07557
# Poissons Ratio (z) = 0.32132 0.13077
#
# Static dielectric constant tensor:
#      x y z
#    x 1.979610 0.032290 0.001080 
#    y 0.032290 2.068020 0.034520 
#    z 0.001080 0.034520 1.947750 
# 
# From -- ./inp_files/287143.got.cif
#   From: 2010.05.17/outbox.cif.g08.bks.cpg/sg2_144_cif.got.tgz:287143.got - 2010.06.03 11:33:40.
