data_PCOD9024510
_publ_section_title
;
Structure prediction by ZEFSAII (Michael W. Deem and Ramdas Pophale) SiO2 
 PCOD9024510
Probable space group: P -1
;
_chemical_formula_sum "Si O2"
_cell_formula_units_Z 14
_cell_length_a 10.014447
_cell_length_b 14.753056
_cell_length_c 8.924136
_cell_angle_alpha 81.103552
_cell_angle_beta 91.084699
_cell_angle_gamma 155.524866
_cell_volume 515.217870
_symmetry_space_group_name_H-M "P -1"
_symmetry_group_IT_number 2
_symmetry_cell_setting 'triclinic'
loop_
_space_group_symop_operation_xyz
x,y,z
-x,-y,-z
loop_
_atom_site_type_symbol
_atom_site_label
_atom_site_fract_x
_atom_site_fract_y
_atom_site_fract_z
Si Si1 0.542706 0.618586 0.875761
Si Si2 0.264185 0.922904 0.609279
Si Si3 0.191449 0.865619 0.974659
Si Si4 0.512840 0.610253 0.540993
Si Si5 0.711311 0.346351 0.353817
Si Si6 0.379912 0.155188 0.072358
Si Si7 0.687909 0.412956 0.704278
O O1 0.657433 0.680790 0.691582
O O2 0.773102 0.842621 0.891624
O O3 0.500000 0.500000 0.000000
O O4 0.155196 0.407707 0.945454
O O5 0.386359 0.094497 0.492857
O O6 0.500000 0.000000 0.500000
O O7 0.278148 0.944553 0.784130
O O8 0.910826 0.646626 0.656225
O O9 0.500000 0.000000 0.000000
O O10 0.157729 0.929167 0.073736
O O11 0.500000 0.500000 0.500000
O O12 0.244213 0.520334 0.620683
O O13 0.611855 0.737544 0.370270
O O14 0.596233 0.264824 0.197380
O O15 0.043386 0.496870 0.356388
O O16 0.577734 0.304760 0.887974
#
# Coordination Sequence:
#
# PCOD9024510 Si02
#       7
#     2   2   2   2   2   2   2
#     4  11  27  49  70 102 149 193 237 295 361 433
#     4  10  22  40  65 104 148 175 228 301 361 410
#     4  12  26  41  75 108 141 186 241 300 359 422
#     4  11  25  42  68  97 137 191 242 286 356 431
#     4  10  23  40  67 104 141 185 233 302 358 421
#     4  11  24  43  72 106 142 186 240 295 363 423
#     4  11  21  40  71  98 143 183 233 297 361 421
#
# _framework density 27.172969999999999
#
# number of rings (size 3 to 8) (size 9 to 14) (size 15 to 20)
#    0.000    1.143    1.429    4.286   10.000    0.571 
#    0.000    0.714    0.000    0.000    0.000    0.000 
#    0.000    0.000    0.000    0.000    0.000    0.000 
#
# Total GULP energy -77994.851939 kJ/mol
# GULP energy per Si atom -5571.060853 kJ/mol
# Density = 2.711112 g / cm^3
# Si number density = 27.172970 Si / 1000 Ang^3
#
#
#
# Elastic Constant Matrix: (Units=GPa)
#
#
# Indices 1 2 3 4 5 6 
#
# 1 129.3752 43.7245 40.1581 18.0136 14.9819 -34.1227
# 2 43.7245 109.5807 52.4339 10.3531 -14.0328 -28.9134
# 3 40.1581 52.4339 230.6015 14.1768 12.5923 1.6034
# 4 18.0136 10.3531 14.1768 54.1625 -10.1477 -23.7895
# 5 14.9819 -14.0328 12.5923 -10.1477 48.5694 7.7266
# 6 -34.1227 -28.9134 1.6034 -23.7895 7.7266 53.3254
#
#
#
# Elastic Compliance Matrix: (Units=1/GPa)
#
#
# Indices 1 2 3 4 5 6 
#
# 1 0.011435 -0.003149 -0.000932 -0.001431 -0.005414 0.005784
# 2 -0.003149 0.013926 -0.003138 0.002926 0.005442 0.006147
# 3 -0.000932 -0.003138 0.005487 -0.002310 -0.002015 -0.003201
# 4 -0.001431 0.002926 -0.002310 0.024833 0.005317 0.011048
# 5 -0.005414 0.005442 -0.002015 0.005317 0.025753 -0.001813
# 6 0.005784 0.006147 -0.003201 0.011048 -0.001813 0.031075
#
#
# Mechanical properties :
#
#
# Convention : Reuss Voigt Hill
#
# Bulk Modulus (GPa) = 60.93848 82.46558 71.70203
# Shear Modulus (GPa) = 37.76001 53.42752 45.59376
#
# Velocity S-wave (km/s) = 3.73180 4.43900 4.10067
# Velocity P-wave (km/s) = 6.40650 7.52909 6.99037
#
# Compressibility (1/GPa) = 0.01640999
#
# Stress axis : x y z
#
# Youngs Moduli (GPa) = 87.45354 71.80835 182.26366
#
# Poissons Ratio (x) = 0.22611 0.16985
# Poissons Ratio (y) = 0.27537 0.57193
# Poissons Ratio (z) = 0.08150 0.22533
#
# Static dielectric constant tensor:
#      x y z
#    x 2.336570 0.073790 -0.003410 
#    y 0.073790 2.240990 0.146370 
#    z -0.003410 0.146370 2.249710 
# 
# From -- ./inp_files/272914.got.cif
#   From: 2010.05.17/outbox.cif.g08.bks.cpg/sg2_137_cif.got.tgz:272914.got - 2010.06.03 11:33:40.
