data_PCOD9024821
_publ_section_title
;
Structure prediction by ZEFSAII (Michael W. Deem and Ramdas Pophale) SiO2 
 PCOD9024821
Probable space group: P -1
;
_chemical_formula_sum "Si O2"
_cell_formula_units_Z 16
_cell_length_a 7.647453
_cell_length_b 18.387762
_cell_length_c 9.510393
_cell_angle_alpha 149.394422
_cell_angle_beta 77.299148
_cell_angle_gamma 113.672644
_cell_volume 600.492224
_symmetry_space_group_name_H-M "P -1"
_symmetry_group_IT_number 2
_symmetry_cell_setting 'triclinic'
loop_
_space_group_symop_operation_xyz
x,y,z
-x,-y,-z
loop_
_atom_site_type_symbol
_atom_site_label
_atom_site_fract_x
_atom_site_fract_y
_atom_site_fract_z
Si Si1 0.098494 0.422006 0.950362
Si Si2 0.787524 0.860017 0.849263
Si Si3 0.832852 0.538399 0.704280
Si Si4 0.121026 0.901539 0.267328
Si Si5 0.403315 0.118838 0.373946
Si Si6 0.695968 0.515800 0.406858
Si Si7 0.252941 0.909509 0.554385
Si Si8 0.488699 0.585481 0.987616
O O1 0.968805 0.234983 0.645471
O O2 0.086073 0.500077 0.231843
O O3 0.321272 0.480720 0.952153
O O4 0.000000 0.500000 0.000000
O O5 0.637184 0.852913 0.734461
O O6 0.786516 0.690888 0.609017
O O7 0.734978 0.927496 0.113207
O O8 0.000000 0.000000 0.000000
O O9 0.810543 0.475530 0.446605
O O10 0.619170 0.512156 0.764131
O O11 0.958203 0.725341 0.981494
O O12 0.275994 0.922065 0.401320
O O13 0.236516 0.956458 0.191665
O O14 0.000000 0.000000 0.500000
O O15 0.611334 0.130822 0.422554
O O16 0.377111 0.249836 0.692348
O O17 0.500000 0.500000 0.500000
O O18 0.632984 0.391332 0.084742
#
# Coordination Sequence:
#
# PCOD9024821 Si02
#       8
#     2   2   2   2   2   2   2   2
#     4  11  23  41  66  97 135 173 219 271 332 404
#     4  12  26  44  70  98 132 175 231 281 332 400
#     4  10  22  40  66  92 128 173 225 274 326 389
#     4  11  21  40  67  95 127 175 227 275 323 397
#     4  12  25  41  67  99 134 177 217 279 341 399
#     4  10  24  41  63  99 129 167 221 277 325 388
#     4  11  25  43  66  97 137 175 220 276 339 397
#     4  11  23  39  68  94 130 171 223 264 336 391
#
# _framework density 26.644808000000001
#
# number of rings (size 3 to 8) (size 9 to 14) (size 15 to 20)
#    0.000    1.000    2.500    4.125    8.750    0.000 
#    0.000    0.625    0.000    0.000    0.000    0.000 
#    0.000    0.000    0.000    0.000    0.000    0.000 
#
# Total GULP energy -89384.869644 kJ/mol
# GULP energy per Si atom -5586.554353 kJ/mol
# Density = 2.658416 g / cm^3
# Si number density = 26.644808 Si / 1000 Ang^3
#
#
#
# Elastic Constant Matrix: (Units=GPa)
#
#
# Indices 1 2 3 4 5 6 
#
# 1 108.7193 26.4048 3.9202 4.3541 25.9925 -11.6776
# 2 26.4048 144.6866 32.7830 -18.2967 19.1865 -11.9904
# 3 3.9202 32.7830 82.3220 -24.4298 11.4093 -11.1701
# 4 4.3541 -18.2967 -24.4298 63.2993 -6.9205 16.3978
# 5 25.9925 19.1865 11.4093 -6.9205 36.0544 -3.1605
# 6 -11.6776 -11.9904 -11.1701 16.3978 -3.1605 53.5617
#
#
#
# Elastic Compliance Matrix: (Units=1/GPa)
#
#
# Indices 1 2 3 4 5 6 
#
# 1 0.011882 -0.001323 0.000735 -0.002536 -0.008342 0.002732
# 2 -0.001323 0.008215 -0.002476 0.001107 -0.002373 0.000555
# 3 0.000735 -0.002476 0.014977 0.004371 -0.003007 0.001214
# 4 -0.002536 0.001107 0.004371 0.019682 0.003175 -0.005232
# 5 -0.008342 -0.002373 -0.003007 0.003175 0.036416 -0.001800
# 6 0.002732 0.000555 0.001214 -0.005232 -0.001800 0.021139
#
#
# Mechanical properties :
#
#
# Convention : Reuss Voigt Hill
#
# Bulk Modulus (GPa) = 34.54605 51.32710 42.93657
# Shear Modulus (GPa) = 39.03657 48.75773 43.89715
#
# Velocity S-wave (km/s) = 3.83178 4.28239 4.06334
# Velocity P-wave (km/s) = 5.70703 6.61492 6.17768
#
# Compressibility (1/GPa) = 0.02894687
#
# Stress axis : x y z
#
# Youngs Moduli (GPa) = 84.15933 121.73545 66.77010
#
# Poissons Ratio (x) = 0.16107 -0.04910
# Poissons Ratio (y) = 0.11135 0.16530
# Poissons Ratio (z) = -0.06189 0.30137
#
# Static dielectric constant tensor:
#      x y z
#    x 2.460640 -0.099400 0.076520 
#    y -0.099400 2.159460 0.015270 
#    z 0.076520 0.015270 2.127750 
# 
# From -- ./inp_files/218889.got.cif
#   From: 2010.05.17/outbox.cif.g08.bks.cpg/sg2_110_cif.got.tgz:218889.got - 2010.06.03 11:33:40.
