data_PCOD9024401
_publ_section_title
;
Structure prediction by ZEFSAII (Michael W. Deem and Ramdas Pophale) SiO2 
 PCOD9024401
Probable space group: P -1
;
_chemical_formula_sum "Si O2"
_cell_formula_units_Z 16
_cell_length_a 5.908457
_cell_length_b 6.109305
_cell_length_c 22.056625
_cell_angle_alpha 58.237205
_cell_angle_beta 85.860004
_cell_angle_gamma 80.193713
_cell_volume 666.894631
_symmetry_space_group_name_H-M "P -1"
_symmetry_group_IT_number 2
_symmetry_cell_setting 'triclinic'
loop_
_space_group_symop_operation_xyz
x,y,z
-x,-y,-z
loop_
_atom_site_type_symbol
_atom_site_label
_atom_site_fract_x
_atom_site_fract_y
_atom_site_fract_z
Si Si1 0.686328 0.239560 0.522564
Si Si2 0.219346 0.240815 0.092485
Si Si3 0.409490 0.749558 0.604518
Si Si4 0.091146 0.270114 0.953668
Si Si5 0.536812 0.239706 0.264036
Si Si6 0.413404 0.235151 0.838883
Si Si7 0.234008 0.781169 0.344930
Si Si8 0.904944 0.925290 0.220838
O O1 0.500000 0.500000 0.500000
O O2 0.765248 0.245975 0.449792
O O3 0.843818 0.225347 0.581827
O O4 0.555876 0.988431 0.562122
O O5 0.129699 0.512301 0.086971
O O6 0.459226 0.060358 0.125189
O O7 0.044779 0.056738 0.148315
O O8 0.197256 0.307862 0.012136
O O9 0.333731 0.776782 0.671350
O O10 0.579818 0.475918 0.633444
O O11 0.284159 0.267681 0.900076
O O12 0.000000 0.000000 0.000000
O O13 0.433676 0.539340 0.208518
O O14 0.356121 0.038364 0.297721
O O15 0.721657 0.147216 0.222753
O O16 0.228117 0.270011 0.783938
O O17 0.049721 0.795244 0.293401
#
# Coordination Sequence:
#
# PCOD9024401 Si02
#       8
#     2   2   2   2   2   2   2   2
#     4   8  16  33  63  92 127 172 225 276 335 394
#     4  11  25  45  69  99 133 171 225 276 332 405
#     4   9  17  36  62  94 126 173 227 277 336 388
#     4  11  24  48  71  99 131 175 223 275 337 404
#     4  11  23  40  64  95 134 175 225 274 336 401
#     4  12  26  45  70 100 134 180 220 277 342 394
#     4  10  22  40  64  95 130 178 222 279 336 395
#     4  12  24  42  62  99 136 171 226 271 333 410
#
# _framework density 23.991796000000001
#
# number of rings (size 3 to 8) (size 9 to 14) (size 15 to 20)
#    0.000    1.500    2.500    2.625    0.000    5.500 
#    2.250    0.625    0.000   30.750    0.000    0.000 
#    0.000    0.000    0.000    0.000    0.000    0.000 
#
# Total GULP energy -89395.816849 kJ/mol
# GULP energy per Si atom -5587.238553 kJ/mol
# Density = 2.393719 g / cm^3
# Si number density = 23.991796 Si / 1000 Ang^3
#
#
#
# Elastic Constant Matrix: (Units=GPa)
#
#
# Indices 1 2 3 4 5 6 
#
# 1 28.9108 25.7715 42.9287 10.3366 18.5367 -1.9442
# 2 25.7715 89.4409 55.4616 -10.3588 -1.2914 0.6822
# 3 42.9287 55.4616 119.7189 10.3211 15.7907 2.6548
# 4 10.3366 -10.3588 10.3211 68.8479 0.9080 -2.8345
# 5 18.5367 -1.2914 15.7907 0.9080 32.0787 3.5780
# 6 -1.9442 0.6822 2.6548 -2.8345 3.5780 25.6580
#
#
#
# Elastic Compliance Matrix: (Units=1/GPa)
#
#
# Indices 1 2 3 4 5 6 
#
# 1 0.219397 -0.041972 -0.042848 -0.029966 -0.110349 0.034252
# 2 -0.041972 0.025318 -0.000811 0.009627 0.026108 -0.006347
# 3 -0.042848 -0.000811 0.022115 0.002504 0.014581 -0.007270
# 4 -0.029966 0.009627 0.002504 0.019765 0.016231 -0.002866
# 5 -0.110349 0.026108 0.014581 0.016231 0.090742 -0.021425
# 6 0.034252 -0.006347 -0.007270 -0.002866 -0.021425 0.045162
#
#
# Mechanical properties :
#
#
# Convention : Reuss Voigt Hill
#
# Bulk Modulus (GPa) = 10.46388 54.04380 32.25384
# Shear Modulus (GPa) = 7.99209 32.91083 20.45146
#
# Velocity S-wave (km/s) = 1.82713 3.70774 2.92282
# Velocity P-wave (km/s) = 2.97021 6.39567 4.98632
#
# Compressibility (1/GPa) = 0.09556681
#
# Stress axis : x y z
#
# Youngs Moduli (GPa) = 4.55794 39.49787 45.21736
#
# Poissons Ratio (x) = 1.65781 1.93749
# Poissons Ratio (y) = 0.19131 0.03668
# Poissons Ratio (z) = 0.19530 0.03204
#
# Static dielectric constant tensor:
#      x y z
#    x 1.912490 -0.005710 0.040440 
#    y -0.005710 1.933380 0.012810 
#    z 0.040440 0.012810 1.948660 
# 
# From -- ./inp_files/603105.got.cif
#   From: 2010.05.17/outbox.cif.g08.bks.cpg/sg2_302_cif.got.tgz:603105.got - 2010.06.03 11:33:40.
