data_PCOD9024325
_publ_section_title
;
Structure prediction by ZEFSAII (Michael W. Deem and Ramdas Pophale) SiO2 
 PCOD9024325
Probable space group: P -1
;
_chemical_formula_sum "Si O2"
_cell_formula_units_Z 16
_cell_length_a 13.158299
_cell_length_b 22.167678
_cell_length_c 8.943525
_cell_angle_alpha 130.507968
_cell_angle_beta 38.363852
_cell_angle_gamma 150.803507
_cell_volume 784.544813
_symmetry_space_group_name_H-M "P -1"
_symmetry_group_IT_number 2
_symmetry_cell_setting 'triclinic'
loop_
_space_group_symop_operation_xyz
x,y,z
-x,-y,-z
loop_
_atom_site_type_symbol
_atom_site_label
_atom_site_fract_x
_atom_site_fract_y
_atom_site_fract_z
Si Si1 0.350685 0.964299 0.268100
Si Si2 0.581740 0.478678 0.510507
Si Si3 0.856326 0.266534 0.693806
Si Si4 0.421339 0.705230 0.783240
Si Si5 0.382591 0.225168 0.674850
Si Si6 0.705930 0.218016 0.452460
Si Si7 0.727887 0.635808 0.025959
Si Si8 0.962693 0.954982 0.638663
O O1 0.248566 0.849499 0.286879
O O2 0.108541 0.927059 0.442754
O O3 0.529038 0.084868 0.363841
O O4 0.500000 0.000000 0.000000
O O5 0.500000 0.500000 0.500000
O O6 0.634876 0.406696 0.296023
O O7 0.348285 0.387205 0.749414
O O8 0.838976 0.615541 0.499475
O O9 0.710928 0.218717 0.626882
O O10 0.802935 0.319826 0.952156
O O11 0.501026 0.740134 0.572360
O O12 0.663649 0.828134 0.796725
O O13 0.592965 0.260269 0.592979
O O14 0.302917 0.287104 0.882975
O O15 0.118538 0.076252 0.752733
O O16 0.997345 0.303422 0.209109
O O17 0.500000 0.500000 0.000000
O O18 0.000000 0.000000 0.500000
#
# Coordination Sequence:
#
# PCOD9024325 Si02
#       8
#     2   2   2   2   2   2   2   2
#     4  11  24  40  71  96 126 173 218 273 329 391
#     4  11  25  42  65  96 131 173 225 272 322 392
#     4  12  24  43  62  98 135 168 218 273 335 386
#     4  10  22  40  64  92 131 169 218 275 324 389
#     4   9  22  41  67  95 125 172 225 267 325 394
#     4  11  25  44  66  99 135 172 219 271 335 392
#     4  11  24  45  67  96 133 179 218 268 331 399
#     4   9  18  38  61  96 121 158 217 268 324 377
#
# _framework density 20.393989999999999
#
# number of rings (size 3 to 8) (size 9 to 14) (size 15 to 20)
#    0.000    1.500    1.250    3.750   10.500    1.500 
#    2.250    1.250    0.000    0.000    0.000    0.000 
#    0.000    0.000    0.000    0.000    0.000    0.000 
#
# Total GULP energy -89332.487796 kJ/mol
# GULP energy per Si atom -5583.280487 kJ/mol
# Density = 2.034757 g / cm^3
# Si number density = 20.393990 Si / 1000 Ang^3
#
#
#
# Elastic Constant Matrix: (Units=GPa)
#
#
# Indices 1 2 3 4 5 6 
#
# 1 148.9949 49.8106 16.2607 3.5567 -17.3421 -15.2860
# 2 49.8106 89.1248 13.4240 -8.9830 -7.3209 -10.5982
# 3 16.2607 13.4240 14.5043 -9.7290 -3.8120 0.2757
# 4 3.5567 -8.9830 -9.7290 30.4586 4.6735 -5.7916
# 5 -17.3421 -7.3209 -3.8120 4.6735 24.2985 1.2912
# 6 -15.2860 -10.5982 0.2757 -5.7916 1.2912 34.1764
#
#
#
# Elastic Compliance Matrix: (Units=1/GPa)
#
#
# Indices 1 2 3 4 5 6 
#
# 1 0.010210 -0.004050 -0.010419 -0.006151 0.005501 0.002144
# 2 -0.004050 0.015366 -0.007610 0.003298 -0.000280 0.003584
# 3 -0.010419 -0.007610 0.110644 0.033691 0.001269 -0.002251
# 4 -0.006151 0.003298 0.033691 0.047663 -0.007616 0.006365
# 5 0.005501 -0.000280 0.001269 -0.007616 0.046697 -0.000691
# 6 0.002144 0.003584 -0.002251 0.006365 -0.000691 0.032453
#
#
# Mechanical properties :
#
#
# Convention : Reuss Voigt Hill
#
# Bulk Modulus (GPa) = 10.86224 45.73492 28.29858
# Shear Modulus (GPa) = 14.79828 29.32864 22.06346
#
# Velocity S-wave (km/s) = 2.69665 3.79635 3.29273
# Velocity P-wave (km/s) = 3.87733 6.45683 5.32562
#
# Compressibility (1/GPa) = 0.09206202
#
# Stress axis : x y z
#
# Youngs Moduli (GPa) = 97.94556 65.08052 9.03802
#
# Poissons Ratio (x) = 0.26357 0.09416
# Poissons Ratio (y) = 0.39667 0.06878
# Poissons Ratio (z) = 1.02045 0.49526
#
# Static dielectric constant tensor:
#      x y z
#    x 1.701950 0.011560 0.012940 
#    y 0.011560 1.691480 0.048240 
#    z 0.012940 0.048240 1.699850 
# 
# From -- ./inp_files/283201.got.cif
#   From: 2010.05.17/outbox.cif.g08.bks.cpg/sg2_142_cif.got.tgz:283201.got - 2010.06.03 11:33:40.
