data_PCOD9024905
_publ_section_title
;
Structure prediction by ZEFSAII (Michael W. Deem and Ramdas Pophale) SiO2 
 PCOD9024905
Probable space group: P -1
;
_chemical_formula_sum "Si O2"
_cell_formula_units_Z 14
_cell_length_a 11.417105
_cell_length_b 9.549403
_cell_length_c 19.432466
_cell_angle_alpha 150.937206
_cell_angle_beta 136.657352
_cell_angle_gamma 62.987931
_cell_volume 592.528230
_symmetry_space_group_name_H-M "P -1"
_symmetry_group_IT_number 2
_symmetry_cell_setting 'triclinic'
loop_
_space_group_symop_operation_xyz
x,y,z
-x,-y,-z
loop_
_atom_site_type_symbol
_atom_site_label
_atom_site_fract_x
_atom_site_fract_y
_atom_site_fract_z
Si Si1 0.550391 0.818697 0.004500
Si Si2 0.783829 0.653999 0.748393
Si Si3 0.794266 0.150457 0.633415
Si Si4 0.324460 0.632873 0.198392
Si Si5 0.905931 0.774159 0.430019
Si Si6 0.865719 0.445097 0.484483
Si Si7 0.345818 0.265758 0.422672
O O1 0.696998 0.699983 0.986945
O O2 0.335288 0.489994 0.794318
O O3 0.500000 0.000000 0.000000
O O4 0.659053 0.079147 0.225429
O O5 0.802929 0.347150 0.651830
O O6 0.581384 0.565399 0.666024
O O7 0.717113 0.655535 0.642914
O O8 0.000000 0.000000 0.000000
O O9 0.822845 0.398264 0.815868
O O10 0.561322 0.835133 0.411633
O O11 0.928761 0.002511 0.605214
O O12 0.323985 0.901367 0.260497
O O13 0.013427 0.571791 0.406668
O O14 0.000000 0.000000 0.500000
O O15 0.803398 0.718782 0.581330
O O16 0.000000 0.500000 0.500000
#
# Coordination Sequence:
#
# PCOD9024905 Si02
#       7
#     2   2   2   2   2   2   2
#     4  11  25  44  71  96 132 180 231 277 339 404
#     4  10  22  40  66  95 131 170 216 271 338 393
#     4   9  19  38  65  92 125 171 214 270 326 387
#     4   9  20  40  67  91 123 167 224 270 321 385
#     4  11  24  44  67  98 140 175 222 279 345 404
#     4  12  25  42  68  99 138 180 224 278 340 402
#     4  10  23  42  65  97 132 168 219 276 330 395
#
# _framework density 23.627568
#
# number of rings (size 3 to 8) (size 9 to 14) (size 15 to 20)
#    0.000    1.714    1.429    1.714    6.000    6.286 
#    0.000    2.143    0.000    0.000    0.000    0.000 
#    0.000    0.000    0.000    0.000    0.000    0.000 
#
# Total GULP energy -78199.039890 kJ/mol
# GULP energy per Si atom -5585.645706 kJ/mol
# Density = 2.357379 g / cm^3
# Si number density = 23.627568 Si / 1000 Ang^3
#
#
#
# Elastic Constant Matrix: (Units=GPa)
#
#
# Indices 1 2 3 4 5 6 
#
# 1 106.6192 26.4099 21.3789 17.6769 16.2810 -20.4789
# 2 26.4099 87.2062 10.3387 14.0519 11.3947 -9.3420
# 3 21.3789 10.3387 79.8696 -8.5649 17.5927 -8.3497
# 4 17.6769 14.0519 -8.5649 33.8749 -3.1196 0.2610
# 5 16.2810 11.3947 17.5927 -3.1196 33.1092 13.9763
# 6 -20.4789 -9.3420 -8.3497 0.2610 13.9763 47.9236
#
#
#
# Elastic Compliance Matrix: (Units=1/GPa)
#
#
# Indices 1 2 3 4 5 6 
#
# 1 0.014723 -0.000404 -0.001444 -0.008972 -0.011080 0.009241
# 2 -0.000404 0.014066 -0.000386 -0.006399 -0.006969 0.004569
# 3 -0.001444 -0.000386 0.015925 0.004052 -0.009245 0.004756
# 4 -0.008972 -0.006399 0.004052 0.039000 0.011486 -0.007938
# 5 -0.011080 -0.006969 -0.009245 0.011486 0.053966 -0.023505
# 6 0.009241 0.004569 0.004756 -0.007938 -0.023505 0.033433
#
#
# Mechanical properties :
#
#
# Convention : Reuss Voigt Hill
#
# Bulk Modulus (GPa) = 24.84739 43.32779 34.08759
# Shear Modulus (GPa) = 26.45523 37.35272 31.90398
#
# Velocity S-wave (km/s) = 3.34979 3.98036 3.67861
# Velocity P-wave (km/s) = 5.04981 6.28506 5.70099
#
# Compressibility (1/GPa) = 0.04024567
#
# Stress axis : x y z
#
# Youngs Moduli (GPa) = 67.91919 71.09166 62.79425
#
# Poissons Ratio (x) = 0.02874 0.09069
# Poissons Ratio (y) = 0.02745 0.02425
# Poissons Ratio (z) = 0.09809 0.02745
#
# Static dielectric constant tensor:
#      x y z
#    x 1.953670 0.003350 -0.061020 
#    y 0.003350 1.880030 -0.030450 
#    z -0.061020 -0.030450 1.962610 
# 
# From -- ./inp_files/594325.got.cif
#   From: 2010.05.17/outbox.cif.g08.bks.cpg/sg2_298_cif.got.tgz:594325.got - 2010.06.03 11:33:40.
