data_PCOD9024235
_publ_section_title
;
Structure prediction by ZEFSAII (Michael W. Deem and Ramdas Pophale) SiO2 
 PCOD9024235
Probable space group: P -1
;
_chemical_formula_sum "Si O2"
_cell_formula_units_Z 15
_cell_length_a 17.954538
_cell_length_b 12.016461
_cell_length_c 7.403159
_cell_angle_alpha 97.647301
_cell_angle_beta 115.090555
_cell_angle_gamma 28.462381
_cell_volume 573.274637
_symmetry_space_group_name_H-M "P -1"
_symmetry_group_IT_number 2
_symmetry_cell_setting 'triclinic'
loop_
_space_group_symop_operation_xyz
x,y,z
-x,-y,-z
loop_
_atom_site_type_symbol
_atom_site_label
_atom_site_fract_x
_atom_site_fract_y
_atom_site_fract_z
Si Si1 0.448113 0.396996 0.553076
Si Si2 0.938760 0.216191 0.654961
Si Si3 0.629057 0.001454 0.900164
Si Si4 0.500000 0.000000 0.000000
Si Si5 0.763669 0.020227 0.313909
Si Si6 0.816825 0.748880 0.504673
Si Si7 0.655009 0.366947 0.861987
Si Si8 0.255612 0.318628 0.274436
O O1 0.573507 0.130038 0.683090
O O2 0.594295 0.319811 0.715905
O O3 0.350714 0.536258 0.286045
O O4 0.249905 0.633168 0.532019
O O5 0.843391 0.437662 0.729913
O O6 0.046946 0.138443 0.577346
O O7 0.126144 0.918904 0.882287
O O8 0.435276 0.193247 0.849403
O O9 0.747912 0.731694 0.942306
O O10 0.738371 0.960439 0.116231
O O11 0.377299 0.068111 0.750910
O O12 0.543390 0.354977 0.162578
O O13 0.788368 0.918782 0.502482
O O14 0.854018 0.635217 0.701004
O O15 0.000000 0.500000 0.500000
O O16 0.500000 0.000000 0.500000
#
# Coordination Sequence:
#
# PCOD9024235 Si02
#       8
#     2   2   2   1   2   2   2   2
#     4  11  24  46  74  99 137 179 240 278 348 403
#     4  12  24  43  72 103 132 181 231 283 342 416
#     4  11  23  43  70 100 135 187 216 285 347 406
#     4  10  22  40  64 104 140 168 230 274 354 406
#     4  11  25  45  69  98 145 177 232 284 344 405
#     4  11  22  43  66 102 135 180 225 285 344 418
#     4  11  26  49  68 101 138 187 229 292 335 406
#     4  12  23  43  73 102 144 178 229 284 353 412
#
# _framework density 26.165468000000001
#
# number of rings (size 3 to 8) (size 9 to 14) (size 15 to 20)
#    0.000    0.800    5.333    1.600    0.000    1.067 
#    0.000    0.000    0.000    0.000    0.000    0.000 
#    0.000    0.000    0.000    0.000    0.000    0.000 
#
# Total GULP energy -83592.387039 kJ/mol
# GULP energy per Si atom -5572.825803 kJ/mol
# Density = 2.610591 g / cm^3
# Si number density = 26.165468 Si / 1000 Ang^3
#
#
#
# Elastic Constant Matrix: (Units=GPa)
#
#
# Indices 1 2 3 4 5 6 
#
# 1 139.6869 -10.8988 14.7955 -10.5552 -20.3192 -8.5231
# 2 -10.8988 107.9997 7.2267 -25.6937 -0.2350 13.2068
# 3 14.7955 7.2267 33.9626 -6.9855 -15.5743 4.7632
# 4 -10.5552 -25.6937 -6.9855 32.2545 5.9517 4.3346
# 5 -20.3192 -0.2350 -15.5743 5.9517 42.2073 -13.7088
# 6 -8.5231 13.2068 4.7632 4.3346 -13.7088 32.0346
#
#
#
# Elastic Compliance Matrix: (Units=1/GPa)
#
#
# Indices 1 2 3 4 5 6 
#
# 1 0.008438 0.000971 -0.002084 0.001796 0.004258 0.003734
# 2 0.000971 0.013605 -0.001601 0.012880 -0.004751 -0.008888
# 3 -0.002084 -0.001601 0.037057 0.004010 0.011805 -0.000895
# 4 0.001796 0.012880 0.004010 0.046531 -0.009237 -0.015678
# 5 0.004258 -0.004751 0.011805 -0.009237 0.037415 0.018597
# 6 0.003734 -0.008888 -0.000895 -0.015678 0.018597 0.046087
#
#
# Mechanical properties :
#
#
# Convention : Reuss Voigt Hill
#
# Bulk Modulus (GPa) = 18.63164 33.76622 26.19893
# Shear Modulus (GPa) = 23.53472 39.33432 31.43452
#
# Velocity S-wave (km/s) = 3.00235 3.88144 3.46984
# Velocity P-wave (km/s) = 4.37664 5.74633 5.10760
#
# Compressibility (1/GPa) = 0.05367213
#
# Stress axis : x y z
#
# Youngs Moduli (GPa) = 118.50678 73.50166 26.98565
#
# Poissons Ratio (x) = -0.07137 0.05625
# Poissons Ratio (y) = -0.11506 0.04320
# Poissons Ratio (z) = 0.24700 0.11765
#
# Static dielectric constant tensor:
#      x y z
#    x 2.236430 -0.157970 -0.021480 
#    y -0.157970 2.283720 -0.015000 
#    z -0.021480 -0.015000 2.181420 
# 
# From -- ./inp_files/332083.got.cif
#   From: 2010.05.17/outbox.cif.g08.bks.cpg/sg2_167_cif.got.tgz:332083.got - 2010.06.03 11:33:40.
