data_PCOD9024970
_publ_section_title
;
Structure prediction by ZEFSAII (Michael W. Deem and Ramdas Pophale) SiO2 
 PCOD9024970
Probable space group: P -1
;
_chemical_formula_sum "Si O2"
_cell_formula_units_Z 16
_cell_length_a 13.511884
_cell_length_b 9.801587
_cell_length_c 10.065447
_cell_angle_alpha 151.109815
_cell_angle_beta 94.793572
_cell_angle_gamma 82.573264
_cell_volume 637.414604
_symmetry_space_group_name_H-M "P -1"
_symmetry_group_IT_number 2
_symmetry_cell_setting 'triclinic'
loop_
_space_group_symop_operation_xyz
x,y,z
-x,-y,-z
loop_
_atom_site_type_symbol
_atom_site_label
_atom_site_fract_x
_atom_site_fract_y
_atom_site_fract_z
Si Si1 0.012289 0.059685 0.211024
Si Si2 0.615212 0.050488 0.350958
Si Si3 0.909636 0.180008 0.726855
Si Si4 0.212688 0.847828 0.727903
Si Si5 0.775948 0.698608 0.229229
Si Si6 0.340957 0.097789 0.142886
Si Si7 0.797806 0.616789 0.444668
Si Si8 0.483502 0.362904 0.211321
O O1 0.900492 0.136595 0.317320
O O2 0.091665 0.286131 0.436485
O O3 0.052952 0.814706 0.110967
O O4 0.000000 0.000000 0.000000
O O5 0.709999 0.184564 0.410897
O O6 0.535544 0.329187 0.595769
O O7 0.668977 0.828733 0.273235
O O8 0.564329 0.854735 0.076616
O O9 0.147939 0.500602 0.029340
O O10 0.000000 0.000000 0.500000
O O11 0.825826 0.971330 0.518275
O O12 0.215263 0.618836 0.648886
O O13 0.250310 0.113738 0.038867
O O14 0.771355 0.526082 0.217755
O O15 0.287745 0.137308 0.310816
O O16 0.417999 0.321297 0.301994
O O17 0.406683 0.793620 0.884660
#
# Coordination Sequence:
#
# PCOD9024970 Si02
#       8
#     2   2   2   2   2   2   2   2
#     4  11  22  39  63 101 135 170 226 278 328 399
#     4  11  23  43  67  98 129 171 229 281 330 393
#     4  11  24  44  66  94 134 185 227 270 332 403
#     4  11  22  38  66  92 129 172 222 270 334 397
#     4  11  25  43  67  93 136 176 221 278 337 397
#     4  10  22  40  66  98 131 173 220 278 348 394
#     4  11  23  41  65  96 137 182 216 277 343 401
#     4  10  23  41  68  99 131 168 225 288 332 399
#
# _framework density 25.101402
#
# number of rings (size 3 to 8) (size 9 to 14) (size 15 to 20)
#    0.000    1.250    2.500    3.000    3.500    2.500 
#    0.000    1.250    0.000    0.000    0.000    0.000 
#    0.000    0.000    0.000    0.000    0.000    0.000 
#
# Total GULP energy -89289.104580 kJ/mol
# GULP energy per Si atom -5580.569036 kJ/mol
# Density = 2.504427 g / cm^3
# Si number density = 25.101402 Si / 1000 Ang^3
#
#
#
# Elastic Constant Matrix: (Units=GPa)
#
#
# Indices 1 2 3 4 5 6 
#
# 1 99.9201 12.4196 22.7361 -0.3628 0.3527 -18.6576
# 2 12.4196 96.4573 29.6734 0.5818 -8.0725 -33.4747
# 3 22.7361 29.6734 97.2265 13.6370 -19.2627 -15.0528
# 4 -0.3628 0.5818 13.6370 31.9989 -6.0490 -0.3661
# 5 0.3527 -8.0725 -19.2627 -6.0490 37.8483 5.9269
# 6 -18.6576 -33.4747 -15.0528 -0.3661 5.9269 36.9930
#
#
#
# Elastic Compliance Matrix: (Units=1/GPa)
#
#
# Indices 1 2 3 4 5 6 
#
# 1 0.011646 0.001351 -0.002689 0.000942 -0.002031 0.006337
# 2 0.001351 0.015983 -0.003268 0.001230 -0.000241 0.013865
# 3 -0.002689 -0.003268 0.013723 -0.004777 0.005495 0.000343
# 4 0.000942 0.001230 -0.004777 0.033898 0.003327 -0.000553
# 5 -0.002031 -0.000241 0.005495 0.003327 0.030317 -0.003831
# 6 0.006337 0.013865 0.000343 -0.000553 -0.003831 0.043523
#
#
# Mechanical properties :
#
#
# Convention : Reuss Voigt Hill
#
# Bulk Modulus (GPa) = 31.11298 47.02910 39.07104
# Shear Modulus (GPa) = 29.58333 36.61969 33.10151
#
# Velocity S-wave (km/s) = 3.43673 3.82366 3.63535
# Velocity P-wave (km/s) = 5.30754 6.18629 5.76369
#
# Compressibility (1/GPa) = 0.03214092
#
# Stress axis : x y z
#
# Youngs Moduli (GPa) = 85.86816 62.56725 72.86898
#
# Poissons Ratio (x) = -0.08455 0.19595
# Poissons Ratio (y) = -0.11603 0.23811
# Poissons Ratio (z) = 0.23091 0.20445
#
# Static dielectric constant tensor:
#      x y z
#    x 2.019930 0.005800 -0.081210 
#    y 0.005800 2.078100 0.014330 
#    z -0.081210 0.014330 2.100250 
# 
# From -- ./inp_files/427129.got.cif
#   From: 2010.05.17/outbox.cif.g08.bks.cpg/sg2_214_cif.got.tgz:427129.got - 2010.06.03 11:33:40.
