data_PCOD9024935
_publ_section_title
;
Structure prediction by ZEFSAII (Michael W. Deem and Ramdas Pophale) SiO2 
 PCOD9024935
Probable space group: P -1
;
_chemical_formula_sum "Si O2"
_cell_formula_units_Z 14
_cell_length_a 12.107899
_cell_length_b 11.303232
_cell_length_c 8.712512
_cell_angle_alpha 75.200573
_cell_angle_beta 62.398698
_cell_angle_gamma 36.643288
_cell_volume 615.220379
_symmetry_space_group_name_H-M "P -1"
_symmetry_group_IT_number 2
_symmetry_cell_setting 'triclinic'
loop_
_space_group_symop_operation_xyz
x,y,z
-x,-y,-z
loop_
_atom_site_type_symbol
_atom_site_label
_atom_site_fract_x
_atom_site_fract_y
_atom_site_fract_z
Si Si1 0.712763 0.744938 0.636151
Si Si2 0.697852 0.993842 0.340721
Si Si3 0.507630 0.455499 0.834379
Si Si4 0.566040 0.581199 0.505198
Si Si5 0.867124 0.003748 0.674667
Si Si6 0.027834 0.628057 0.621451
Si Si7 0.968378 0.159902 0.033811
O O1 0.716197 0.860246 0.480233
O O2 0.848725 0.531266 0.543981
O O3 0.829001 0.691242 0.737166
O O4 0.475588 0.889939 0.720612
O O5 0.615686 0.176653 0.431162
O O6 0.907158 0.853988 0.160366
O O7 0.612173 0.489499 0.673453
O O8 0.272446 0.622932 0.880852
O O9 0.639024 0.235373 0.771189
O O10 0.500000 0.500000 0.000000
O O11 0.500000 0.500000 0.500000
O O12 0.775739 0.490745 0.354613
O O13 0.908485 0.848384 0.607522
O O14 0.946433 0.913438 0.824857
O O15 0.000000 0.000000 0.500000
O O16 0.000000 0.000000 0.000000
#
# Coordination Sequence:
#
# PCOD9024935 Si02
#       7
#     2   2   2   2   2   2   2
#     4   9  22  43  68  97 125 199 233 279 336 406
#     4  10  22  43  68  93 140 180 235 277 350 417
#     4  12  25  39  62 105 142 183 212 267 379 419
#     4  11  22  36  65 104 137 167 223 294 344 414
#     4  12  26  43  70 106 139 183 229 291 357 410
#     4  10  22  40  66  96 134 170 247 283 322 419
#     4  12  25  43  67 102 148 179 220 293 362 424
#
# _framework density 22.756074000000002
#
# number of rings (size 3 to 8) (size 9 to 14) (size 15 to 20)
#    0.000    1.143    4.286    0.857    6.000    0.000 
#    5.143    1.429    0.000    0.000    0.000    0.000 
#    0.000    0.000    0.000    0.000    0.000    0.000 
#
# Total GULP energy -77996.223936 kJ/mol
# GULP energy per Si atom -5571.158853 kJ/mol
# Density = 2.270428 g / cm^3
# Si number density = 22.756074 Si / 1000 Ang^3
#
#
#
# Elastic Constant Matrix: (Units=GPa)
#
#
# Indices 1 2 3 4 5 6 
#
# 1 138.2365 38.2890 21.6835 21.9567 5.3873 1.2767
# 2 38.2890 156.0779 34.2728 50.1322 5.1044 1.0004
# 3 21.6835 34.2728 61.8719 17.8938 -1.6977 3.4265
# 4 21.9567 50.1322 17.8938 43.7980 -8.2536 -0.6589
# 5 5.3873 5.1044 -1.6977 -8.2536 22.9913 14.1721
# 6 1.2767 1.0004 3.4265 -0.6589 14.1721 50.0791
#
#
#
# Elastic Compliance Matrix: (Units=1/GPa)
#
#
# Indices 1 2 3 4 5 6 
#
# 1 0.008361 -0.000282 -0.001821 -0.003872 -0.004044 0.001011
# 2 -0.000282 0.011893 -0.002818 -0.014039 -0.009309 0.002412
# 3 -0.001821 -0.002818 0.019522 -0.003396 0.002498 -0.001985
# 4 -0.003872 -0.014039 -0.003396 0.046658 0.023945 -0.005551
# 5 -0.004044 -0.009309 0.002498 0.023945 0.066649 -0.018428
# 6 0.001011 0.002412 -0.001985 -0.005551 -0.018428 0.025172
#
#
# Mechanical properties :
#
#
# Convention : Reuss Voigt Hill
#
# Bulk Modulus (GPa) = 33.40684 60.51966 46.96325
# Shear Modulus (GPa) = 25.24276 40.83639 33.03957
#
# Velocity S-wave (km/s) = 3.33419 4.24078 3.81452
# Velocity P-wave (km/s) = 5.43459 7.11559 6.33113
#
# Compressibility (1/GPa) = 0.02993399
#
# Stress axis : x y z
#
# Youngs Moduli (GPa) = 119.60392 84.08143 51.22299
#
# Poissons Ratio (x) = 0.02370 0.09329
# Poissons Ratio (y) = 0.03371 0.14436
# Poissons Ratio (z) = 0.21783 0.23696
#
# Static dielectric constant tensor:
#      x y z
#    x 2.010630 -0.071470 0.051970 
#    y -0.071470 1.865230 -0.016290 
#    z 0.051970 -0.016290 1.830860 
# 
# From -- ./inp_files/258468.got.cif
#   From: 2010.05.17/outbox.cif.g08.bks.cpg/sg2_130_cif.got.tgz:258468.got - 2010.06.03 11:33:40.
