data_PCOD9024384
_publ_section_title
;
Structure prediction by ZEFSAII (Michael W. Deem and Ramdas Pophale) SiO2 
 PCOD9024384
Probable space group: P -1
;
_chemical_formula_sum "Si O2"
_cell_formula_units_Z 15
_cell_length_a 10.846385
_cell_length_b 4.766890
_cell_length_c 12.068774
_cell_angle_alpha 97.214527
_cell_angle_beta 87.653465
_cell_angle_gamma 96.749779
_cell_volume 614.550003
_symmetry_space_group_name_H-M "P -1"
_symmetry_group_IT_number 2
_symmetry_cell_setting 'triclinic'
loop_
_space_group_symop_operation_xyz
x,y,z
-x,-y,-z
loop_
_atom_site_type_symbol
_atom_site_label
_atom_site_fract_x
_atom_site_fract_y
_atom_site_fract_z
Si Si1 0.510350 0.455270 0.766765
Si Si2 0.244645 0.223378 0.857669
Si Si3 0.897663 0.350932 0.226052
Si Si4 0.683342 0.981417 0.790963
Si Si5 0.112171 0.171318 0.072586
Si Si6 0.500000 0.500000 0.500000
Si Si7 0.113810 0.846087 0.532510
Si Si8 0.761480 0.645948 0.556750
O O1 0.385605 0.320516 0.825132
O O2 0.569071 0.758870 0.827402
O O3 0.481703 0.494332 0.639309
O O4 0.620445 0.253841 0.768212
O O5 0.152911 0.351767 0.780235
O O6 0.204372 0.884845 0.838489
O O7 0.201422 0.328848 0.984275
O O8 0.897654 0.263776 0.348724
O O9 0.033783 0.346344 0.167660
O O10 0.798174 0.014749 0.872191
O O11 0.735207 0.818746 0.675735
O O12 0.000000 0.000000 0.000000
O O13 0.641900 0.443200 0.511397
O O14 0.135873 0.568233 0.446697
O O15 0.220912 0.105468 0.522998
O O16 0.000000 0.000000 0.500000
#
# Coordination Sequence:
#
# PCOD9024384 Si02
#       8
#     2   2   2   2   2   1   2   2
#     4  11  24  41  67  99 135 175 217 268 325 391
#     4  11  24  43  67  95 127 172 223 272 326 384
#     4  11  23  41  66  95 129 170 222 272 322 392
#     4  11  25  43  67  99 134 172 220 274 326 387
#     4  10  25  47  71  95 129 174 224 278 334 387
#     4  10  22  40  64  94 134 176 212 254 320 390
#     4  12  24  40  64  96 134 173 214 267 329 392
#     4  11  24  41  65  98 135 176 217 262 323 396
#
# _framework density 24.408107000000001
#
# number of rings (size 3 to 8) (size 9 to 14) (size 15 to 20)
#    0.000    1.067    0.000    6.400    0.000   12.267 
#    0.000    0.000    0.000    0.000    0.000    0.000 
#    0.000    0.000    0.000    0.000    0.000    0.000 
#
# Total GULP energy -83631.027927 kJ/mol
# GULP energy per Si atom -5575.401862 kJ/mol
# Density = 2.435255 g / cm^3
# Si number density = 24.408107 Si / 1000 Ang^3
#
#
#
# Elastic Constant Matrix: (Units=GPa)
#
#
# Indices 1 2 3 4 5 6 
#
# 1 103.0574 2.3103 43.8484 -7.6179 6.6153 -5.3572
# 2 2.3103 66.0765 -7.2581 -6.1038 -2.4169 -17.3407
# 3 43.8484 -7.2581 83.0436 -20.7552 -4.1080 -6.5728
# 4 -7.6179 -6.1038 -20.7552 22.2228 -0.1881 4.3067
# 5 6.6153 -2.4169 -4.1080 -0.1881 51.8719 -10.7875
# 6 -5.3572 -17.3407 -6.5728 4.3067 -10.7875 37.9515
#
#
#
# Elastic Compliance Matrix: (Units=1/GPa)
#
#
# Indices 1 2 3 4 5 6 
#
# 1 0.013082 -0.001988 -0.008160 -0.003548 -0.002588 -0.000808
# 2 -0.001988 0.019228 0.005690 0.008084 0.003627 0.009604
# 3 -0.008160 0.005690 0.022018 0.018530 0.004011 0.004299
# 4 -0.003548 0.008084 0.018530 0.063345 0.002511 -0.000072
# 5 -0.002588 0.003627 0.004011 0.002511 0.021743 0.007882
# 6 -0.000808 0.009604 0.004299 -0.000072 0.007882 0.033617
#
#
# Mechanical properties :
#
#
# Convention : Reuss Voigt Hill
#
# Bulk Modulus (GPa) = 22.02043 36.66428 29.34236
# Shear Modulus (GPa) = 25.36980 36.62770 30.99875
#
# Velocity S-wave (km/s) = 3.22747 3.87801 3.56760
# Velocity P-wave (km/s) = 4.78854 5.92502 5.38684
#
# Compressibility (1/GPa) = 0.04541237
#
# Stress axis : x y z
#
# Youngs Moduli (GPa) = 76.44361 52.00644 45.41814
#
# Poissons Ratio (x) = 0.10340 0.37060
# Poissons Ratio (y) = 0.15198 -0.25844
# Poissons Ratio (z) = 0.62376 -0.29593
#
# Static dielectric constant tensor:
#      x y z
#    x 1.979250 0.102670 -0.060920 
#    y 0.102670 1.985540 0.014430 
#    z -0.060920 0.014430 1.975020 
# 
# From -- ./inp_files/409330.got.cif
#   From: 2010.05.17/outbox.cif.g08.bks.cpg/sg2_205_cif.got.tgz:409330.got - 2010.06.03 11:33:40.
