data_PCOD9024499
_publ_section_title
;
Structure prediction by ZEFSAII (Michael W. Deem and Ramdas Pophale) SiO2 
 PCOD9024499
Probable space group: P -1
;
_chemical_formula_sum "Si O2"
_cell_formula_units_Z 14
_cell_length_a 10.752068
_cell_length_b 11.990655
_cell_length_c 5.302352
_cell_angle_alpha 108.488594
_cell_angle_beta 103.653811
_cell_angle_gamma 103.887393
_cell_volume 592.086073
_symmetry_space_group_name_H-M "P -1"
_symmetry_group_IT_number 2
_symmetry_cell_setting 'triclinic'
loop_
_space_group_symop_operation_xyz
x,y,z
-x,-y,-z
loop_
_atom_site_type_symbol
_atom_site_label
_atom_site_fract_x
_atom_site_fract_y
_atom_site_fract_z
Si Si1 0.860911 0.032614 0.459719
Si Si2 0.409079 0.477847 0.190285
Si Si3 0.585308 0.906842 0.982949
Si Si4 0.789269 0.662604 0.640933
Si Si5 0.035312 0.703001 0.076277
Si Si6 0.178794 0.523284 0.871727
Si Si7 0.360016 0.177426 0.551728
O O1 0.893919 0.177802 0.633940
O O2 0.749101 0.981226 0.146170
O O3 0.764941 0.952972 0.579154
O O4 0.000000 0.000000 0.500000
O O5 0.500000 0.500000 0.500000
O O6 0.293335 0.351640 0.145877
O O7 0.500000 0.500000 0.000000
O O8 0.312790 0.557501 0.134209
O O9 0.554688 0.818775 0.152648
O O10 0.557309 0.826872 0.659859
O O11 0.500000 0.000000 0.000000
O O12 0.793023 0.534566 0.421090
O O13 0.714258 0.722361 0.451092
O O14 0.941643 0.739459 0.850541
O O15 0.936961 0.592229 0.127217
O O16 0.128401 0.640034 0.926270
#
# Coordination Sequence:
#
# PCOD9024499 Si02
#       7
#     2   2   2   2   2   2   2
#     4  10  22  40  69 100 138 178 232 284 336 415
#     4  11  23  43  67  94 133 177 237 282 334 412
#     4  10  23  45  67  98 140 178 229 283 344 411
#     4  11  22  40  72  96 138 179 231 287 347 408
#     4  10  22  40  65 102 137 180 229 286 348 402
#     4  10  22  41  66  99 137 184 224 289 346 405
#     4  10  24  40  72 100 133 180 228 277 347 410
#
# _framework density 23.645212000000001
#
# number of rings (size 3 to 8) (size 9 to 14) (size 15 to 20)
#    0.857    0.857    1.429    2.571    4.000    3.429 
#    2.571    1.429    0.000    0.000    0.000    0.000 
#    0.000    0.000    0.000    0.000    0.000    0.000 
#
# Total GULP energy -78058.510091 kJ/mol
# GULP energy per Si atom -5575.607864 kJ/mol
# Density = 2.359139 g / cm^3
# Si number density = 23.645212 Si / 1000 Ang^3
#
#
#
# Elastic Constant Matrix: (Units=GPa)
#
#
# Indices 1 2 3 4 5 6 
#
# 1 75.7003 27.7527 33.8844 -14.8792 -6.6846 -14.2425
# 2 27.7527 78.4248 22.6807 -5.4995 -11.6158 -10.9769
# 3 33.8844 22.6807 143.7240 -25.8976 -26.8421 1.7703
# 4 -14.8792 -5.4995 -25.8976 39.3049 -0.1078 7.1304
# 5 -6.6846 -11.6158 -26.8421 -0.1078 39.4982 5.0544
# 6 -14.2425 -10.9769 1.7703 7.1304 5.0544 28.0737
#
#
#
# Elastic Compliance Matrix: (Units=1/GPa)
#
#
# Indices 1 2 3 4 5 6 
#
# 1 0.018149 -0.004436 -0.003480 0.002629 -0.001525 0.007299
# 2 -0.004436 0.015472 -0.001125 -0.000909 0.002567 0.003639
# 3 -0.003480 -0.001125 0.010503 0.006513 0.006975 -0.005778
# 4 0.002629 -0.000909 0.006513 0.032187 0.005799 -0.008652
# 5 -0.001525 0.002567 0.006975 0.005799 0.031512 -0.007356
# 6 0.007299 0.003639 -0.005778 -0.008652 -0.007356 0.044632
#
#
# Mechanical properties :
#
#
# Convention : Reuss Voigt Hill
#
# Bulk Modulus (GPa) = 38.39858 51.83164 45.11511
# Shear Modulus (GPa) = 27.89903 35.61078 31.75491
#
# Velocity S-wave (km/s) = 3.43870 3.88499 3.66864
# Velocity P-wave (km/s) = 5.66047 6.48786 6.08824
#
# Compressibility (1/GPa) = 0.02604263
#
# Stress axis : x y z
#
# Youngs Moduli (GPa) = 55.09857 64.63305 95.20998
#
# Poissons Ratio (x) = 0.28671 0.33132
# Poissons Ratio (y) = 0.24442 0.10711
# Poissons Ratio (z) = 0.19174 0.07271
#
# Static dielectric constant tensor:
#      x y z
#    x 1.869500 -0.010140 -0.123590 
#    y -0.010140 1.921010 -0.047140 
#    z -0.123590 -0.047140 1.819110 
# 
# From -- ./inp_files/67304.got.cif
#   From: 2010.05.17/outbox.cif.g08.bks.cpg/sg2_34_cif.got.tgz:67304.got - 2010.06.03 11:33:40.
