data_PCOD9024211
_publ_section_title
;
Structure prediction by ZEFSAII (Michael W. Deem and Ramdas Pophale) SiO2 
 PCOD9024211
Probable space group: P -1
;
_chemical_formula_sum "Si O2"
_cell_formula_units_Z 15
_cell_length_a 11.181581
_cell_length_b 6.722796
_cell_length_c 22.425640
_cell_angle_alpha 64.983669
_cell_angle_beta 28.819922
_cell_angle_gamma 76.048647
_cell_volume 703.352318
_symmetry_space_group_name_H-M "P -1"
_symmetry_group_IT_number 2
_symmetry_cell_setting 'triclinic'
loop_
_space_group_symop_operation_xyz
x,y,z
-x,-y,-z
loop_
_atom_site_type_symbol
_atom_site_label
_atom_site_fract_x
_atom_site_fract_y
_atom_site_fract_z
Si Si1 0.054518 0.410657 0.823056
Si Si2 0.370928 0.034861 0.910873
Si Si3 0.733858 0.178627 0.410919
Si Si4 0.000000 0.000000 0.500000
Si Si5 0.369628 0.084376 0.767801
Si Si6 0.014517 0.842329 0.380354
Si Si7 0.857749 0.329607 0.467500
Si Si8 0.030969 0.328763 0.059019
O O1 0.158709 0.585609 0.702034
O O2 0.279411 0.307345 0.763388
O O3 0.972234 0.557655 0.891187
O O4 0.803695 0.190627 0.950115
O O5 0.292920 0.006600 0.878330
O O6 0.676470 0.091905 0.769829
O O7 0.279366 0.244266 0.949085
O O8 0.707289 0.264205 0.479402
O O9 0.500000 0.000000 0.500000
O O10 0.927783 0.027164 0.355762
O O11 0.922738 0.852085 0.487369
O O12 0.892671 0.756931 0.620448
O O13 0.679434 0.136573 0.616582
O O14 0.217103 0.893521 0.812804
O O15 0.895380 0.584999 0.439275
O O16 0.000000 0.500000 0.000000
#
# Coordination Sequence:
#
# PCOD9024211 Si02
#       8
#     2   2   2   1   2   2   2   2
#     4  11  23  42  63  94 134 172 220 270 321 390
#     4  11  23  39  63  99 131 163 218 271 329 391
#     4  11  26  47  67  95 131 179 229 265 324 399
#     4  10  22  40  64 100 132 168 212 268 334 392
#     4  11  21  37  64  98 130 161 219 272 328 384
#     4  11  25  44  66  99 136 173 220 270 332 391
#     4  11  24  42  68  97 133 174 214 279 330 391
#     4  11  20  37  63  96 128 172 210 265 332 381
#
# _framework density 21.326438
#
# number of rings (size 3 to 8) (size 9 to 14) (size 15 to 20)
#    0.000    1.067    4.000    2.800    0.000    9.067 
#    0.000    1.333    0.000    0.000    0.000    0.000 
#    0.000    0.000    0.000    0.000    0.000    0.000 
#
# Total GULP energy -83555.227004 kJ/mol
# GULP energy per Si atom -5570.348467 kJ/mol
# Density = 2.127790 g / cm^3
# Si number density = 21.326438 Si / 1000 Ang^3
#
#
#
# Elastic Constant Matrix: (Units=GPa)
#
#
# Indices 1 2 3 4 5 6 
#
# 1 100.7018 41.3919 38.9322 -9.0859 2.6658 -3.5437
# 2 41.3919 132.0861 26.7748 -13.0932 -3.0172 12.0418
# 3 38.9322 26.7748 87.7995 -15.5535 -1.1365 -5.5429
# 4 -9.0859 -13.0932 -15.5535 27.5541 -9.3071 6.4169
# 5 2.6658 -3.0172 -1.1365 -9.3071 38.6075 -1.7632
# 6 -3.5437 12.0418 -5.5429 6.4169 -1.7632 32.2667
#
#
#
# Elastic Compliance Matrix: (Units=1/GPa)
#
#
# Indices 1 2 3 4 5 6 
#
# 1 0.013276 -0.003489 -0.004894 -0.001020 -0.001486 0.002041
# 2 -0.003489 0.009830 -0.000886 0.004848 0.001921 -0.005063
# 3 -0.004894 -0.000886 0.015194 0.007119 0.002483 0.001123
# 4 -0.001020 0.004848 0.007119 0.048565 0.011923 -0.009705
# 5 -0.001486 0.001921 0.002483 0.011923 0.029045 -0.001237
# 6 0.002041 -0.005063 0.001123 -0.009705 -0.001237 0.035161
#
#
# Mechanical properties :
#
#
# Convention : Reuss Voigt Hill
#
# Bulk Modulus (GPa) = 50.60558 59.42058 55.01308
# Shear Modulus (GPa) = 28.37731 33.91824 31.14777
#
# Velocity S-wave (km/s) = 3.65172 3.99235 3.82583
# Velocity P-wave (km/s) = 6.44675 7.01247 6.73555
#
# Compressibility (1/GPa) = 0.01976067
#
# Stress axis : x y z
#
# Youngs Moduli (GPa) = 75.32596 101.72958 65.81526
#
# Poissons Ratio (x) = 0.35497 0.32208
# Poissons Ratio (y) = 0.26284 0.05834
# Poissons Ratio (z) = 0.36862 0.09018
#
# Static dielectric constant tensor:
#      x y z
#    x 1.633500 0.191150 0.129160 
#    y 0.191150 1.595880 -0.137160 
#    z 0.129160 -0.137160 1.721150 
# 
# From -- ./inp_files/65890.got.cif
#   From: 2010.05.17/outbox.cif.g08.bks.cpg/sg2_33_cif.got.tgz:65890.got - 2010.06.03 11:33:40.
