data_PCOD9024350
_publ_section_title
;
Structure prediction by ZEFSAII (Michael W. Deem and Ramdas Pophale) SiO2 
 PCOD9024350
Probable space group: P -1
;
_chemical_formula_sum "Si O2"
_cell_formula_units_Z 13
_cell_length_a 5.082933
_cell_length_b 23.710135
_cell_length_c 24.599957
_cell_angle_alpha 11.880276
_cell_angle_beta 114.041706
_cell_angle_gamma 113.863557
_cell_volume 557.117220
_symmetry_space_group_name_H-M "P -1"
_symmetry_group_IT_number 2
_symmetry_cell_setting 'triclinic'
loop_
_space_group_symop_operation_xyz
x,y,z
-x,-y,-z
loop_
_atom_site_type_symbol
_atom_site_label
_atom_site_fract_x
_atom_site_fract_y
_atom_site_fract_z
Si Si1 0.324793 0.303299 0.745572
Si Si2 0.678695 0.109067 0.485270
Si Si3 0.531673 0.189857 0.045690
Si Si4 0.808971 0.717078 0.964270
Si Si5 0.000000 0.000000 0.500000
Si Si6 0.730088 0.815402 0.264015
Si Si7 0.251133 0.638256 0.524410
O O1 0.531393 0.550752 0.509178
O O2 0.157658 0.196631 0.778464
O O3 0.170027 0.433991 0.660151
O O4 0.526366 0.071473 0.003947
O O5 0.870431 0.079033 0.475433
O O6 0.339280 0.046069 0.505691
O O7 0.792423 0.902575 0.734577
O O8 0.714471 0.412980 0.225321
O O9 0.406559 0.173763 0.111332
O O10 0.865904 0.277299 0.991510
O O11 0.488926 0.882855 0.307516
O O12 0.351539 0.428540 0.776192
O O13 0.970050 0.821767 0.324591
#
# Coordination Sequence:
#
# PCOD9024350 Si02
#       7
#     2   2   2   2   1   2   2
#     4  10  22  40  64  93 128 168 215 289 379 434
#     4  11  24  44  74 102 154 170 239 268 350 386
#     4  12  28  42  71  95 136 186 252 270 354 388
#     4  12  26  49  66 102 141 200 218 294 324 416
#     4  10  24  42  76 120 130 192 216 292 324 414
#     4  10  22  40  64  93 128 168 215 289 379 434
#     4  12  25  41  66  96 129 175 234 312 324 440
#
# _framework density 23.334409000000001
#
# number of rings (size 3 to 8) (size 9 to 14) (size 15 to 20)
#    0.000    0.923    0.000    6.000    6.462    3.692 
#    0.000    6.154    0.000    0.000    0.000    0.000 
#    0.000    0.000    0.000    0.000    0.000    0.000 
#
# Total GULP energy -72429.685374 kJ/mol
# GULP energy per Si atom -5571.514260 kJ/mol
# Density = 2.328130 g / cm^3
# Si number density = 23.334409 Si / 1000 Ang^3
#
#
#
# Elastic Constant Matrix: (Units=GPa)
#
#
# Indices 1 2 3 4 5 6 
#
# 1 129.9499 35.2991 -0.4537 14.8969 8.4465 -7.8032
# 2 35.2991 82.4390 37.1940 7.5557 10.9021 5.8102
# 3 -0.4537 37.1940 138.9920 -45.8004 11.9085 5.6428
# 4 14.8969 7.5557 -45.8004 -135.1404 -7.0448 6.9354
# 5 8.4465 10.9021 11.9085 -7.0448 21.8730 -5.0653
# 6 -7.8032 5.8102 5.6428 6.9354 -5.0653 46.9786
#
#
#
# Elastic Compliance Matrix: (Units=1/GPa)
#
#
# Indices 1 2 3 4 5 6 
#
# 1 0.009068 -0.004484 0.001434 0.000428 -0.001525 0.001661
# 2 -0.004484 0.016237 -0.003292 0.001618 -0.004768 -0.003111
# 3 0.001434 -0.003292 0.007631 -0.002425 -0.003927 -0.000337
# 4 0.000428 0.001618 -0.002425 -0.006316 -0.001469 0.000936
# 5 -0.001525 -0.004768 -0.003927 -0.001469 0.051882 0.006619
# 6 0.001661 -0.003111 -0.000337 0.000936 0.006619 0.022563
#
#
# Mechanical properties :
#
#
# Convention : Reuss Voigt Hill
#
# Bulk Modulus (GPa) = 49.37802 55.05109 52.21456
# Shear Modulus (GPa) = 41.49370 5.36500 23.42935
#
# Velocity S-wave (km/s) = 4.22147 1.51795 3.17214
# Velocity P-wave (km/s) = 6.70582 5.16872 5.98681
#
# Compressibility (1/GPa) = 0.02025192
#
# Stress axis : x y z
#
# Youngs Moduli (GPa) = 110.27518 61.58789 131.04032
#
# Poissons Ratio (x) = 0.27618 -0.18788
# Poissons Ratio (y) = 0.49451 0.43134
# Poissons Ratio (z) = -0.15811 0.20272
#
# Static dielectric constant tensor:
#      x y z
#    x 1.920210 -0.037490 0.006090 
#    y -0.037490 1.916280 -0.019540 
#    z 0.006090 -0.019540 1.855670 
# 
# From -- ./inp_files/615943.got.cif
#   From: 2010.05.17/outbox.cif.g08.bks.cpg/sg2_308_cif.got.tgz:615943.got - 2010.06.03 11:33:40.
