data_PCOD9024778
_publ_section_title
;
Structure prediction by ZEFSAII (Michael W. Deem and Ramdas Pophale) SiO2 
 PCOD9024778
Probable space group: P -1
;
_chemical_formula_sum "Si O2"
_cell_formula_units_Z 16
_cell_length_a 8.513196
_cell_length_b 9.191610
_cell_length_c 14.255475
_cell_angle_alpha 129.293287
_cell_angle_beta 90.025994
_cell_angle_gamma 61.831418
_cell_volume 684.339539
_symmetry_space_group_name_H-M "P -1"
_symmetry_group_IT_number 2
_symmetry_cell_setting 'triclinic'
loop_
_space_group_symop_operation_xyz
x,y,z
-x,-y,-z
loop_
_atom_site_type_symbol
_atom_site_label
_atom_site_fract_x
_atom_site_fract_y
_atom_site_fract_z
Si Si1 0.857311 0.398537 0.075469
Si Si2 0.085625 0.894705 0.200408
Si Si3 0.547132 0.148273 0.817310
Si Si4 0.351040 0.954393 0.438467
Si Si5 0.335748 0.570891 0.731373
Si Si6 0.092141 0.214585 0.709872
Si Si7 0.850244 0.446098 0.446997
Si Si8 0.561025 0.166734 0.297419
O O1 0.658455 0.601262 0.101863
O O2 0.790870 0.318993 0.129617
O O3 0.931681 0.546243 0.173385
O O4 0.989077 0.190422 0.916375
O O5 0.288261 0.833874 0.136204
O O6 0.094472 0.760640 0.238398
O O7 0.955726 0.167817 0.341142
O O8 0.639824 0.024710 0.664535
O O9 0.501673 0.990674 0.807502
O O10 0.456072 0.678640 0.345690
O O11 0.500000 0.000000 0.500000
O O12 0.150553 0.124133 0.566580
O O13 0.214085 0.508466 0.643082
O O14 0.370036 0.730813 0.735814
O O15 0.278626 0.002083 0.688711
O O16 0.641929 0.604370 0.565160
O O17 0.000000 0.500000 0.500000
#
# Coordination Sequence:
#
# PCOD9024778 Si02
#       8
#     2   2   2   2   2   2   2   2
#     4  10  24  42  65  84 124 168 204 243 290 367
#     4  12  24  40  61  94 123 161 204 245 306 356
#     4  10  22  40  66  87 125 158 201 255 301 351
#     4  11  18  37  65  91 117 157 200 254 304 350
#     4  11  21  39  64  91 120 162 207 241 299 366
#     4  11  21  39  67  91 117 159 207 249 296 365
#     4  12  23  36  63  94 125 151 193 261 309 352
#     4  11  20  39  63  92 116 163 202 241 305 367
#
# _framework density 23.380206999999999
#
# number of rings (size 3 to 8) (size 9 to 14) (size 15 to 20)
#    0.000    1.000    7.500    1.875    0.000    1.000 
#    0.000    3.125    0.000    0.000    0.000    0.000 
#    0.000    0.000    0.000    0.000    0.000    0.000 
#
# Total GULP energy -89415.869916 kJ/mol
# GULP energy per Si atom -5588.491870 kJ/mol
# Density = 2.332699 g / cm^3
# Si number density = 23.380207 Si / 1000 Ang^3
#
#
#
# Elastic Constant Matrix: (Units=GPa)
#
#
# Indices 1 2 3 4 5 6 
#
# 1 74.8854 36.4600 20.2558 11.7902 3.4778 18.8733
# 2 36.4600 108.0863 40.6345 6.1526 1.2114 38.3386
# 3 20.2558 40.6345 126.1261 4.1344 1.9338 18.2623
# 4 11.7902 6.1526 4.1344 26.6220 3.5734 -1.6552
# 5 3.4778 1.2114 1.9338 3.5734 25.9775 2.0706
# 6 18.8733 38.3386 18.2623 -1.6552 2.0706 36.5903
#
#
#
# Elastic Compliance Matrix: (Units=1/GPa)
#
#
# Indices 1 2 3 4 5 6 
#
# 1 0.017746 -0.003300 -0.000725 -0.007236 -0.000725 -0.005620
# 2 -0.003300 0.016757 -0.002653 -0.003113 0.001462 -0.014755
# 3 -0.000725 -0.002653 0.009125 -0.000534 -0.000273 -0.001410
# 4 -0.007236 -0.003113 -0.000534 0.042901 -0.005506 0.009513
# 5 -0.000725 0.001462 -0.000273 -0.005506 0.039581 -0.003511
# 6 -0.005620 -0.014755 -0.001410 0.009513 -0.003511 0.047021
#
#
# Mechanical properties :
#
#
# Convention : Reuss Voigt Hill
#
# Bulk Modulus (GPa) = 33.03250 55.97762 44.50506
# Shear Modulus (GPa) = 25.43536 31.95444 28.69490
#
# Velocity S-wave (km/s) = 3.30191 3.70094 3.50711
# Velocity P-wave (km/s) = 5.35686 6.50053 5.95621
#
# Compressibility (1/GPa) = 0.03027321
#
# Stress axis : x y z
#
# Youngs Moduli (GPa) = 56.35104 59.67776 109.58404
#
# Poissons Ratio (x) = 0.19695 0.07941
# Poissons Ratio (y) = 0.18597 0.29068
# Poissons Ratio (z) = 0.04084 0.15830
#
# Static dielectric constant tensor:
#      x y z
#    x 1.977230 -0.027140 -0.006500 
#    y -0.027140 1.913830 0.043830 
#    z -0.006500 0.043830 1.906920 
# 
# From -- ./inp_files/243517.got.cif
#   From: 2010.05.17/outbox.cif.g08.bks.cpg/sg2_122_cif.got.tgz:243517.got - 2010.06.03 11:33:40.
