data_PCOD9024802
_publ_section_title
;
Structure prediction by ZEFSAII (Michael W. Deem and Ramdas Pophale) SiO2 
 PCOD9024802
Probable space group: P -1
;
_chemical_formula_sum "Si O2"
_cell_formula_units_Z 14
_cell_length_a 21.863803
_cell_length_b 5.124138
_cell_length_c 18.809350
_cell_angle_alpha 123.349115
_cell_angle_beta 22.177789
_cell_angle_gamma 114.912902
_cell_volume 638.178587
_symmetry_space_group_name_H-M "P -1"
_symmetry_group_IT_number 2
_symmetry_cell_setting 'triclinic'
loop_
_space_group_symop_operation_xyz
x,y,z
-x,-y,-z
loop_
_atom_site_type_symbol
_atom_site_label
_atom_site_fract_x
_atom_site_fract_y
_atom_site_fract_z
Si Si1 0.376675 0.134564 0.432424
Si Si2 0.096277 0.772594 0.425575
Si Si3 0.684264 0.591976 0.975654
Si Si4 0.983912 0.467229 0.159782
Si Si5 0.559740 0.324524 0.483990
Si Si6 0.868473 0.140426 0.834702
Si Si7 0.158780 0.075719 0.789981
O O1 0.203249 0.286046 0.600272
O O2 0.487798 0.390834 0.362658
O O3 0.305952 0.097761 0.581952
O O4 0.494716 0.806414 0.224641
O O5 0.276480 0.591111 0.170159
O O6 0.000000 0.500000 0.500000
O O7 0.000000 0.000000 0.500000
O O8 0.051932 0.986517 0.576269
O O9 0.745331 0.331967 0.933892
O O10 0.799964 0.844710 0.891823
O O11 0.950873 0.122663 0.163754
O O12 0.106904 0.604914 0.095540
O O13 0.063073 0.394952 0.984496
O O14 0.500000 0.500000 0.500000
O O15 0.753901 0.170643 0.276326
O O16 0.500000 0.000000 0.500000
#
# Coordination Sequence:
#
# PCOD9024802 Si02
#       7
#     2   2   2   2   2   2   2
#     4  11  24  40  61  86 127 158 198 251 307 344
#     4   8  16  37  60  89 121 149 186 246 304 353
#     4  10  23  37  65  95 120 150 197 255 304 344
#     4  10  24  40  60  85 119 168 205 239 296 360
#     4  11  23  38  59  86 116 150 204 253 293 342
#     4  10  22  40  66  91 117 157 205 241 293 369
#     4  10  23  42  58  81 124 169 197 247 295 353
#
# _framework density 21.937431
#
# number of rings (size 3 to 8) (size 9 to 14) (size 15 to 20)
#    0.000    2.000    1.429    0.429   10.000    0.000 
#    0.000    0.714    0.000    0.857    0.000    0.000 
#    0.000    0.000    0.000    0.000    0.000    0.000 
#
# Total GULP energy -77984.719605 kJ/mol
# GULP energy per Si atom -5570.337115 kJ/mol
# Density = 2.188750 g / cm^3
# Si number density = 21.937431 Si / 1000 Ang^3
#
#
#
# Elastic Constant Matrix: (Units=GPa)
#
#
# Indices 1 2 3 4 5 6 
#
# 1 28.6162 12.0930 -6.3789 -2.7390 9.7844 -2.3412
# 2 12.0930 85.1240 -3.2142 1.6701 5.7465 -18.6454
# 3 -6.3789 -3.2142 135.4515 18.9882 27.3216 4.5837
# 4 -2.7390 1.6701 18.9882 29.9625 0.1301 1.2317
# 5 9.7844 5.7465 27.3216 0.1301 30.9808 5.7812
# 6 -2.3412 -18.6454 4.5837 1.2317 5.7812 27.5468
#
#
#
# Elastic Compliance Matrix: (Units=1/GPa)
#
#
# Indices 1 2 3 4 5 6 
#
# 1 0.044851 -0.003955 0.005661 0.000644 -0.019209 0.004196
# 2 -0.003955 0.015035 0.001019 -0.002266 -0.004426 0.010701
# 3 0.005661 0.001019 0.010931 -0.006503 -0.011992 0.002159
# 4 0.000644 -0.002266 -0.006503 0.037795 0.006435 -0.003437
# 5 -0.019209 -0.004426 -0.011992 0.006435 0.052308 -0.013898
# 6 0.004196 0.010701 0.002159 -0.003437 -0.013898 0.046613
#
#
# Mechanical properties :
#
#
# Convention : Reuss Voigt Hill
#
# Bulk Modulus (GPa) = 13.11187 28.24348 20.67767
# Shear Modulus (GPa) = 21.97745 34.14415 28.06080
#
# Velocity S-wave (km/s) = 3.16859 3.94945 3.58037
# Velocity P-wave (km/s) = 4.40188 5.80517 5.15153
#
# Compressibility (1/GPa) = 0.07626679
#
# Stress axis : x y z
#
# Youngs Moduli (GPa) = 22.29589 66.51140 91.48264
#
# Poissons Ratio (x) = 0.26304 -0.51786
# Poissons Ratio (y) = 0.08818 -0.09319
# Poissons Ratio (z) = -0.12621 -0.06776
#
# Static dielectric constant tensor:
#      x y z
#    x 1.809600 -0.026770 0.015760 
#    y -0.026770 1.893770 -0.001260 
#    z 0.015760 -0.001260 1.916940 
# 
# From -- ./inp_files/54608.got.cif
#   From: 2010.05.17/outbox.cif.g08.bks.cpg/sg2_28_cif.got.tgz:54608.got - 2010.06.03 11:33:40.
