data_PCOD9024557
_publ_section_title
;
Structure prediction by ZEFSAII (Michael W. Deem and Ramdas Pophale) SiO2 
 PCOD9024557
Probable space group: P -1
;
_chemical_formula_sum "Si O2"
_cell_formula_units_Z 12
_cell_length_a 9.167157
_cell_length_b 11.211431
_cell_length_c 7.694239
_cell_angle_alpha 40.865454
_cell_angle_beta 108.782546
_cell_angle_gamma 89.418431
_cell_volume 446.900417
_symmetry_space_group_name_H-M "P -1"
_symmetry_group_IT_number 2
_symmetry_cell_setting 'triclinic'
loop_
_space_group_symop_operation_xyz
x,y,z
-x,-y,-z
loop_
_atom_site_type_symbol
_atom_site_label
_atom_site_fract_x
_atom_site_fract_y
_atom_site_fract_z
Si Si1 0.764077 0.243370 0.833076
Si Si2 0.837417 0.825098 0.504599
Si Si3 0.742022 0.048491 0.541171
Si Si4 0.392967 0.359345 0.482831
Si Si5 0.384113 0.221067 0.022122
Si Si6 0.129404 0.647644 0.576295
O O1 0.585965 0.323990 0.567746
O O2 0.720393 0.406096 0.791284
O O3 0.900429 0.257935 0.734286
O O4 0.799304 0.026097 0.156818
O O5 0.874970 0.884910 0.643871
O O6 0.685291 0.754048 0.546282
O O7 0.973577 0.656820 0.622687
O O8 0.695217 0.937542 0.801724
O O9 0.569020 0.146822 0.256990
O O10 0.802507 0.213959 0.442179
O O11 0.393340 0.262287 0.778210
O O12 0.262368 0.424248 0.844197
#
# Coordination Sequence:
#
# PCOD9024557 Si02
#       6
#     2   2   2   2   2   2
#     4  10  22  40  65  92 120 161 204 252 299 364
#     4  12  24  39  65  94 125 157 199 260 305 356
#     4  11  24  40  63  90 124 165 204 245 302 364
#     4  10  22  41  65  93 119 159 209 249 302 357
#     4  10  23  42  64  89 119 167 206 249 294 367
#     4  11  25  41  62  92 127 160 200 252 308 358
#
# _framework density 26.851623
#
# number of rings (size 3 to 8) (size 9 to 14) (size 15 to 20)
#    0.000    1.333    1.667    3.000    4.667    6.000 
#    0.000    0.000    0.000    0.000    0.000    0.000 
#    0.000    0.000    0.000    0.000    0.000    0.000 
#
# Total GULP energy -67359.504898 kJ/mol
# GULP energy per Si atom -5613.292075 kJ/mol
# Density = 2.679051 g / cm^3
# Si number density = 26.851623 Si / 1000 Ang^3
#
#
#
# Elastic Constant Matrix: (Units=GPa)
#
#
# Indices 1 2 3 4 5 6 
#
# 1 78.4560 4.3246 10.0369 4.0729 3.3110 -12.5996
# 2 4.3246 113.5297 17.0198 -20.6850 1.0797 1.1217
# 3 10.0369 17.0198 52.9466 -4.1290 -1.3187 -4.9164
# 4 4.0729 -20.6850 -4.1290 32.3819 -11.3345 -5.1967
# 5 3.3110 1.0797 -1.3187 -11.3345 35.6247 -4.2989
# 6 -12.5996 1.1217 -4.9164 -5.1967 -4.2989 61.4288
#
#
#
# Elastic Compliance Matrix: (Units=1/GPa)
#
#
# Indices 1 2 3 4 5 6 
#
# 1 0.013683 -0.000666 -0.002436 -0.002780 -0.001954 0.002252
# 2 -0.000666 0.010516 -0.002626 0.007184 0.001957 0.000206
# 3 -0.002436 -0.002626 0.020551 0.002171 0.001940 0.001513
# 4 -0.002780 0.007184 0.002171 0.041571 0.013825 0.003957
# 5 -0.001954 0.001957 0.001940 0.013825 0.033049 0.003201
# 6 0.002252 0.000206 0.001513 0.003957 0.003201 0.017417
#
#
# Mechanical properties :
#
#
# Convention : Reuss Voigt Hill
#
# Bulk Modulus (GPa) = 30.03626 34.18834 32.11230
# Shear Modulus (GPa) = 31.37936 40.12381 35.75158
#
# Velocity S-wave (km/s) = 3.42222 3.86978 3.65286
# Velocity P-wave (km/s) = 5.17936 5.72075 5.45677
#
# Compressibility (1/GPa) = 0.03329310
#
# Stress axis : x y z
#
# Youngs Moduli (GPa) = 73.08466 95.09702 48.65959
#
# Poissons Ratio (x) = 0.06335 0.11854
# Poissons Ratio (y) = 0.04869 0.12777
# Poissons Ratio (z) = 0.17804 0.24971
#
# Static dielectric constant tensor:
#      x y z
#    x 2.122160 -0.034630 0.080370 
#    y -0.034630 2.029710 0.008690 
#    z 0.080370 0.008690 2.100560 
# 
# From -- ./inp_files/148795.got.cif
#   From: 2010.05.17/outbox.cif.g08.bks.cpg/sg2_75_cif.got.tgz:148795.got - 2010.06.03 11:33:40.
