data_PCOD9024135
_publ_section_title
;
Structure prediction by ZEFSAII (Michael W. Deem and Ramdas Pophale) SiO2 
 PCOD9024135
Probable space group: P -1
;
_chemical_formula_sum "Si O2"
_cell_formula_units_Z 16
_cell_length_a 6.213855
_cell_length_b 8.630198
_cell_length_c 19.396563
_cell_angle_alpha 66.351602
_cell_angle_beta 114.140297
_cell_angle_gamma 126.462993
_cell_volume 745.475933
_symmetry_space_group_name_H-M "P -1"
_symmetry_group_IT_number 2
_symmetry_cell_setting 'triclinic'
loop_
_space_group_symop_operation_xyz
x,y,z
-x,-y,-z
loop_
_atom_site_type_symbol
_atom_site_label
_atom_site_fract_x
_atom_site_fract_y
_atom_site_fract_z
Si Si1 0.214673 0.094907 0.715733
Si Si2 0.826755 0.609175 0.531802
Si Si3 0.273650 0.948465 0.609884
Si Si4 0.075772 0.223971 0.965988
Si Si5 0.262326 0.623057 0.178683
Si Si6 0.737636 0.267967 0.227659
Si Si7 0.385712 0.436250 0.099083
Si Si8 0.847230 0.240513 0.595747
O O1 0.271127 0.093404 0.641455
O O2 0.191608 0.888365 0.769659
O O3 0.464355 0.259196 0.762434
O O4 0.966457 0.135628 0.678037
O O5 0.500000 0.500000 0.500000
O O6 0.878017 0.438070 0.596791
O O7 0.976979 0.802998 0.564523
O O8 0.984685 0.684116 0.466522
O O9 0.338811 0.808220 0.690675
O O10 0.526091 0.081705 0.569664
O O11 0.360286 0.364901 0.936678
O O12 0.834876 0.239572 0.894602
O O13 0.142247 0.325717 0.031820
O O14 0.000000 0.000000 0.000000
O O15 0.014496 0.476740 0.221758
O O16 0.298227 0.498772 0.145448
O O17 0.504863 0.293286 0.156548
#
# Coordination Sequence:
#
# PCOD9024135 Si02
#       8
#     2   2   2   2   2   2   2   2
#     4  10  25  38  64  95 127 165 214 258 317 381
#     4  11  26  45  68  93 129 165 213 271 320 380
#     4  10  25  43  66  91 132 165 210 263 322 382
#     4  10  22  41  64  90 130 168 211 261 315 365
#     4  11  23  40  64  96 127 168 214 259 317 376
#     4   9  24  39  62  92 128 166 207 264 319 369
#     4  10  22  40  63  94 126 166 213 262 312 375
#     4  11  25  42  67  96 122 171 215 260 323 384
#
# _framework density 21.462800000000001
#
# number of rings (size 3 to 8) (size 9 to 14) (size 15 to 20)
#    0.750    1.000    0.000    2.250    7.000    6.500 
#    0.000    0.000    0.000    0.000    0.000    0.000 
#    0.000    0.000    0.000    0.000    0.000    0.000 
#
# Total GULP energy -89271.117639 kJ/mol
# GULP energy per Si atom -5579.444852 kJ/mol
# Density = 2.141395 g / cm^3
# Si number density = 21.462800 Si / 1000 Ang^3
#
#
#
# Elastic Constant Matrix: (Units=GPa)
#
#
# Indices 1 2 3 4 5 6 
#
# 1 71.0786 49.6754 43.1553 1.0460 8.8171 2.6748
# 2 49.6754 111.4697 56.6451 7.4241 -0.4522 6.2295
# 3 43.1553 56.6451 56.9038 -3.1747 8.0384 1.0759
# 4 1.0460 7.4241 -3.1747 49.6065 -11.2527 10.7178
# 5 8.8171 -0.4522 8.0384 -11.2527 32.2750 -2.3130
# 6 2.6748 6.2295 1.0759 10.7178 -2.3130 32.9760
#
#
#
# Elastic Compliance Matrix: (Units=1/GPa)
#
#
# Indices 1 2 3 4 5 6 
#
# 1 0.027178 -0.003508 -0.016642 -0.001883 -0.004034 -0.000670
# 2 -0.003508 0.019967 -0.017991 -0.002634 0.004678 -0.001716
# 3 -0.016642 -0.017991 0.049223 0.004495 -0.006309 0.001239
# 4 -0.001883 -0.002634 0.004495 0.023987 0.007235 -0.006785
# 5 -0.004034 0.004678 -0.006309 0.007235 0.036234 -0.000161
# 6 -0.000670 -0.001716 0.001239 -0.006785 -0.000161 0.032857
#
#
# Mechanical properties :
#
#
# Convention : Reuss Voigt Hill
#
# Bulk Modulus (GPa) = 49.78770 59.82261 54.80516
# Shear Modulus (GPa) = 18.35372 28.96992 23.66182
#
# Velocity S-wave (km/s) = 2.92745 3.67791 3.32393
# Velocity P-wave (km/s) = 5.88848 6.78006 6.34994
#
# Compressibility (1/GPa) = 0.02008528
#
# Stress axis : x y z
#
# Youngs Moduli (GPa) = 36.79407 50.08194 20.31590
#
# Poissons Ratio (x) = 0.17571 0.33810
# Poissons Ratio (y) = 0.12909 0.36551
# Poissons Ratio (z) = 0.61232 0.90103
#
# Static dielectric constant tensor:
#      x y z
#    x 1.785330 -0.023900 0.004900 
#    y -0.023900 1.769540 -0.025430 
#    z 0.004900 -0.025430 1.806670 
# 
# From -- ./inp_files/582365.got.cif
#   From: 2010.05.17/outbox.cif.g08.bks.cpg/sg2_292_cif.got.tgz:582365.got - 2010.06.03 11:33:40.
