data_PCOD9024519
_publ_section_title
;
Structure prediction by ZEFSAII (Michael W. Deem and Ramdas Pophale) SiO2 
 PCOD9024519
Probable space group: P -1
;
_chemical_formula_sum "Si O2"
_cell_formula_units_Z 16
_cell_length_a 16.493616
_cell_length_b 11.425304
_cell_length_c 10.384050
_cell_angle_alpha 129.401626
_cell_angle_beta 47.377984
_cell_angle_gamma 154.174655
_cell_volume 625.317139
_symmetry_space_group_name_H-M "P -1"
_symmetry_group_IT_number 2
_symmetry_cell_setting 'triclinic'
loop_
_space_group_symop_operation_xyz
x,y,z
-x,-y,-z
loop_
_atom_site_type_symbol
_atom_site_label
_atom_site_fract_x
_atom_site_fract_y
_atom_site_fract_z
Si Si1 0.524899 0.345114 0.583926
Si Si2 0.243778 0.628336 0.995605
Si Si3 0.127865 0.906480 0.133227
Si Si4 0.073208 0.160493 0.232954
Si Si5 0.690926 0.614697 0.115337
Si Si6 0.608113 0.979831 0.244038
Si Si7 0.899970 0.590858 0.397475
Si Si8 0.393757 0.947287 0.280773
O O1 0.492345 0.485468 0.731524
O O2 0.744745 0.535762 0.463178
O O3 0.404693 0.129643 0.447409
O O4 0.447456 0.181177 0.684681
O O5 0.046755 0.376512 0.954855
O O6 0.317663 0.553474 0.921330
O O7 0.409916 0.865338 0.882370
O O8 0.223161 0.710445 0.200864
O O9 0.087775 0.818745 0.262310
O O10 0.101873 0.051632 0.223132
O O11 0.320300 0.053131 0.966436
O O12 0.065698 0.303850 0.424376
O O13 0.247521 0.344212 0.069551
O O14 0.875535 0.912567 0.190138
O O15 0.779778 0.297220 0.312571
O O16 0.426230 0.873820 0.315566
#
# Coordination Sequence:
#
# PCOD9024519 Si02
#       8
#     2   2   2   2   2   2   2   2
#     4  11  23  42  62  95 122 159 205 256 301 362
#     4  10  22  40  65  86 127 163 198 250 305 363
#     4  11  21  44  61  91 123 165 202 252 303 361
#     4  10  23  42  60  90 123 165 205 250 300 364
#     4  10  23  42  62  86 129 164 200 249 308 360
#     4  11  23  40  65  92 126 155 205 256 305 358
#     4  11  23  39  65  90 123 160 208 251 305 357
#     4  10  22  41  61  96 122 160 202 253 304 363
#
# _framework density 25.587015999999998
#
# number of rings (size 3 to 8) (size 9 to 14) (size 15 to 20)
#    0.000    1.500    3.750    2.250    3.500    3.000 
#    2.250    1.250    0.000    0.000    0.000    0.000 
#    0.000    0.000    0.000    0.000    0.000    0.000 
#
# Total GULP energy -89685.425529 kJ/mol
# GULP energy per Si atom -5605.339096 kJ/mol
# Density = 2.552878 g / cm^3
# Si number density = 25.587016 Si / 1000 Ang^3
#
#
#
# Elastic Constant Matrix: (Units=GPa)
#
#
# Indices 1 2 3 4 5 6 
#
# 1 57.4024 8.9728 17.0632 -3.0894 4.9365 -8.3390
# 2 8.9728 66.6376 26.1954 2.0999 11.2605 -2.2118
# 3 17.0632 26.1954 167.4227 17.5104 5.9146 -7.2960
# 4 -3.0894 2.0999 17.5104 43.4733 6.5780 3.5853
# 5 4.9365 11.2605 5.9146 6.5780 34.9319 -3.3721
# 6 -8.3390 -2.2118 -7.2960 3.5853 -3.3721 29.4239
#
#
#
# Elastic Compliance Matrix: (Units=1/GPa)
#
#
# Indices 1 2 3 4 5 6 
#
# 1 0.019062 -0.001515 -0.001658 0.002015 -0.001878 0.004417
# 2 -0.001515 0.016978 -0.002432 0.000852 -0.005050 -0.000439
# 3 -0.001658 -0.002432 0.006879 -0.002977 0.000557 0.001480
# 4 0.002015 0.000852 -0.002977 0.025405 -0.005206 -0.003795
# 5 -0.001878 -0.005050 0.000557 -0.005206 0.031744 0.003499
# 6 0.004417 -0.000439 0.001480 -0.003795 0.003499 0.036435
#
#
# Mechanical properties :
#
#
# Convention : Reuss Voigt Hill
#
# Bulk Modulus (GPa) = 31.53540 43.99173 37.76357
# Shear Modulus (GPa) = 31.58931 37.51457 34.55194
#
# Velocity S-wave (km/s) = 3.51748 3.83320 3.67872
# Velocity P-wave (km/s) = 5.37107 6.06807 5.73018
#
# Compressibility (1/GPa) = 0.03171039
#
# Stress axis : x y z
#
# Youngs Moduli (GPa) = 52.46042 58.89812 145.37952
#
# Poissons Ratio (x) = 0.08921 0.24100
# Poissons Ratio (y) = 0.07946 0.35356
# Poissons Ratio (z) = 0.08697 0.14324
#
# Static dielectric constant tensor:
#      x y z
#    x 2.002610 0.066230 0.025050 
#    y 0.066230 2.031840 0.050290 
#    z 0.025050 0.050290 2.021950 
# 
# From -- ./inp_files/333708.got.cif
#   From: 2010.05.17/outbox.cif.g08.bks.cpg/sg2_167_cif.got.tgz:333708.got - 2010.06.03 11:33:40.
