data_PCOD9024722
_publ_section_title
;
Structure prediction by ZEFSAII (Michael W. Deem and Ramdas Pophale) SiO2 
 PCOD9024722
Probable space group: P -1
;
_chemical_formula_sum "Si O2"
_cell_formula_units_Z 16
_cell_length_a 8.952976
_cell_length_b 9.187480
_cell_length_c 10.664772
_cell_angle_alpha 69.636620
_cell_angle_beta 120.586201
_cell_angle_gamma 117.983768
_cell_volume 659.966278
_symmetry_space_group_name_H-M "P -1"
_symmetry_group_IT_number 2
_symmetry_cell_setting 'triclinic'
loop_
_space_group_symop_operation_xyz
x,y,z
-x,-y,-z
loop_
_atom_site_type_symbol
_atom_site_label
_atom_site_fract_x
_atom_site_fract_y
_atom_site_fract_z
Si Si1 0.095373 0.545475 0.663242
Si Si2 0.521882 0.331382 0.101269
Si Si3 0.108263 0.879994 0.549067
Si Si4 0.918971 0.802960 0.228214
Si Si5 0.445565 0.379556 0.390222
Si Si6 0.504788 0.293120 0.839004
Si Si7 0.217504 0.103422 0.205681
Si Si8 0.462973 0.880862 0.345159
O O1 0.040174 0.698812 0.643343
O O2 0.320487 0.635110 0.735952
O O3 0.000000 0.500000 0.500000
O O4 0.069103 0.368960 0.771752
O O5 0.461805 0.520139 0.250715
O O6 0.320793 0.216161 0.098697
O O7 0.500000 0.500000 0.000000
O O8 0.586973 0.274136 0.015745
O O9 0.051554 0.833013 0.396536
O O10 0.326116 0.987773 0.616998
O O11 0.000000 0.000000 0.500000
O O12 0.716298 0.776229 0.205130
O O13 0.007141 0.978987 0.144205
O O14 0.500000 0.500000 0.500000
O O15 0.260659 0.229420 0.304941
O O16 0.557513 0.260180 0.516526
O O17 0.570883 0.205033 0.780859
O O18 0.334402 0.981401 0.295643
#
# Coordination Sequence:
#
# PCOD9024722 Si02
#       8
#     2   2   2   2   2   2   2   2
#     4  10  23  43  68 101 137 184 241 293 352 427
#     4  12  23  44  75 100 143 196 240 291 362 446
#     4  11  21  39  66 100 141 179 233 300 361 415
#     4  11  23  39  66 104 138 180 236 300 353 419
#     4  10  22  40  66 100 139 184 239 297 349 426
#     4  11  24  44  68 101 142 195 236 286 371 432
#     4  12  24  41  68 105 140 189 242 297 352 430
#     4  11  23  41  67 103 142 183 244 299 356 424
#
# _framework density 24.243663999999999
#
# number of rings (size 3 to 8) (size 9 to 14) (size 15 to 20)
#    0.000    1.000    6.250    0.375    0.000    3.000 
#    2.250    0.000    0.000    0.750    0.000    0.000 
#    0.000    0.000    0.000    0.000    0.000    0.000 
#
# Total GULP energy -89128.925588 kJ/mol
# GULP energy per Si atom -5570.557849 kJ/mol
# Density = 2.418848 g / cm^3
# Si number density = 24.243664 Si / 1000 Ang^3
#
#
#
# Elastic Constant Matrix: (Units=GPa)
#
#
# Indices 1 2 3 4 5 6 
#
# 1 72.4205 63.2130 12.7315 10.6737 2.2533 0.6855
# 2 63.2130 187.9306 29.0495 1.7501 -8.5694 5.2395
# 3 12.7315 29.0495 95.5501 13.0586 -10.2627 10.1670
# 4 10.6737 1.7501 13.0586 37.3108 5.2712 -4.3973
# 5 2.2533 -8.5694 -10.2627 5.2712 31.9638 1.3278
# 6 0.6855 5.2395 10.1670 -4.3973 1.3278 44.9724
#
#
#
# Elastic Compliance Matrix: (Units=1/GPa)
#
#
# Indices 1 2 3 4 5 6 
#
# 1 0.020842 -0.007050 -0.000216 -0.005177 -0.002580 0.000123
# 2 -0.007050 0.008004 -0.001511 0.001865 0.001865 -0.000356
# 3 -0.000216 -0.001511 0.012529 -0.005298 0.004644 -0.003308
# 4 -0.005177 0.001865 -0.005298 0.031434 -0.006199 0.004316
# 5 -0.002580 0.001865 0.004644 -0.006199 0.034599 -0.002856
# 6 0.000123 -0.000356 -0.003308 0.004316 -0.002856 0.023530
#
#
# Mechanical properties :
#
#
# Convention : Reuss Voigt Hill
#
# Bulk Modulus (GPa) = 41.98028 62.87656 52.42842
# Shear Modulus (GPa) = 31.96287 39.57655 35.76971
#
# Velocity S-wave (km/s) = 3.63492 4.04474 3.84529
# Velocity P-wave (km/s) = 5.91358 6.91410 6.43332
#
# Compressibility (1/GPa) = 0.02382071
#
# Stress axis : x y z
#
# Youngs Moduli (GPa) = 47.98004 124.94470 79.81667
#
# Poissons Ratio (x) = 0.88085 0.01727
# Poissons Ratio (y) = 0.33825 0.12056
# Poissons Ratio (z) = 0.01038 0.18873
#
# Static dielectric constant tensor:
#      x y z
#    x 2.055370 0.070520 -0.060390 
#    y 0.070520 2.065340 0.000880 
#    z -0.060390 0.000880 2.040260 
# 
# From -- ./inp_files/382406.got.cif
#   From: 2010.05.17/outbox.cif.g08.bks.cpg/sg2_192_cif.got.tgz:382406.got - 2010.06.03 11:33:40.
