data_PCOD9024768
_publ_section_title
;
Structure prediction by ZEFSAII (Michael W. Deem and Ramdas Pophale) SiO2 
 PCOD9024768
Probable space group: P -1
;
_chemical_formula_sum "Si O2"
_cell_formula_units_Z 16
_cell_length_a 14.032822
_cell_length_b 17.547226
_cell_length_c 5.428439
_cell_angle_alpha 118.016214
_cell_angle_beta 138.239863
_cell_angle_gamma 43.285294
_cell_volume 602.471184
_symmetry_space_group_name_H-M "P -1"
_symmetry_group_IT_number 2
_symmetry_cell_setting 'triclinic'
loop_
_space_group_symop_operation_xyz
x,y,z
-x,-y,-z
loop_
_atom_site_type_symbol
_atom_site_label
_atom_site_fract_x
_atom_site_fract_y
_atom_site_fract_z
Si Si1 0.810881 0.542305 0.332557
Si Si2 0.178505 0.137325 0.545181
Si Si3 0.488185 0.923428 0.606274
Si Si4 0.089496 0.722161 0.375627
Si Si5 0.615380 0.215371 0.655119
Si Si6 0.757985 0.753150 0.533936
Si Si7 0.320993 0.479915 0.448466
Si Si8 0.844333 0.129882 0.472018
O O1 0.706189 0.674107 0.324684
O O2 0.804310 0.511316 0.552527
O O3 0.000000 0.500000 0.500000
O O4 0.731868 0.507936 0.924968
O O5 0.161608 0.238098 0.545384
O O6 0.991072 0.194936 0.419361
O O7 0.272844 0.033771 0.381222
O O8 0.353559 0.075479 0.975952
O O9 0.509743 0.822882 0.632197
O O10 0.567959 0.876836 0.418016
O O11 0.282889 0.596481 0.594930
O O12 0.095505 0.792389 0.285329
O O13 0.926214 0.715266 0.987275
O O14 0.501077 0.348567 0.608028
O O15 0.750260 0.147620 0.579570
O O16 0.707908 0.181609 0.051567
O O17 0.000000 0.000000 0.500000
#
# Coordination Sequence:
#
# PCOD9024768 Si02
#       8
#     2   2   2   2   2   2   2   2
#     4  12  23  40  69 108 152 192 233 282 362 434
#     4  10  22  40  67 102 144 184 234 296 360 430
#     4  10  22  40  66 105 140 183 239 292 365 428
#     4  11  27  44  69 105 140 193 241 293 359 420
#     4  12  27  48  76 103 142 192 238 306 355 424
#     4  11  22  38  68 103 144 188 226 298 356 435
#     4  12  26  45  71 109 148 187 240 295 357 439
#     4  12  30  52  77 102 137 192 251 302 356 423
#
# _framework density 26.557285
#
# number of rings (size 3 to 8) (size 9 to 14) (size 15 to 20)
#    0.000    0.750    2.500    4.125    7.000    1.000 
#    0.000    0.000    0.000    0.000    0.000    0.000 
#    0.000    0.000    0.000    0.000    0.000    0.000 
#
# Total GULP energy -89397.578178 kJ/mol
# GULP energy per Si atom -5587.348636 kJ/mol
# Density = 2.649684 g / cm^3
# Si number density = 26.557285 Si / 1000 Ang^3
#
#
#
# Elastic Constant Matrix: (Units=GPa)
#
#
# Indices 1 2 3 4 5 6 
#
# 1 114.7956 13.3074 5.7855 12.3540 -22.6814 -12.8476
# 2 13.3074 133.5376 21.9965 -21.0682 8.4976 -14.9048
# 3 5.7855 21.9965 76.0735 0.5047 -11.8052 -9.7687
# 4 12.3540 -21.0682 0.5047 42.4788 4.8368 -1.4220
# 5 -22.6814 8.4976 -11.8052 4.8368 29.6269 3.2266
# 6 -12.8476 -14.9048 -9.7687 -1.4220 3.2266 53.5885
#
#
#
# Elastic Compliance Matrix: (Units=1/GPa)
#
#
# Indices 1 2 3 4 5 6 
#
# 1 0.012205 -0.003169 0.002086 -0.006458 0.011972 0.001533
# 2 -0.003169 0.010312 -0.003804 0.007096 -0.008287 0.002102
# 3 0.002086 -0.003804 0.015782 -0.003696 0.009399 0.001655
# 4 -0.006458 0.007096 -0.003696 0.030577 -0.013594 0.001381
# 5 0.011972 -0.008287 0.009399 -0.013594 0.051388 -0.001176
# 6 0.001533 0.002102 0.001655 0.001381 -0.001176 0.020022
#
#
# Mechanical properties :
#
#
# Convention : Reuss Voigt Hill
#
# Bulk Modulus (GPa) = 35.05785 45.17614 40.11700
# Shear Modulus (GPa) = 31.33420 44.02668 37.68044
#
# Velocity S-wave (km/s) = 3.43865 4.07603 3.77083
# Velocity P-wave (km/s) = 5.38473 6.26097 5.83931
#
# Compressibility (1/GPa) = 0.02852429
#
# Stress axis : x y z
#
# Youngs Moduli (GPa) = 81.93139 96.97022 63.36292
#
# Poissons Ratio (x) = 0.30735 -0.13215
# Poissons Ratio (y) = 0.25968 0.24103
# Poissons Ratio (z) = -0.17088 0.36887
#
# Static dielectric constant tensor:
#      x y z
#    x 2.042130 -0.045540 0.066940 
#    y -0.045540 2.271020 0.036400 
#    z 0.066940 0.036400 2.262260 
# 
# From -- ./inp_files/99931.got.cif
#   From: 2010.05.17/outbox.cif.g08.bks.cpg/sg2_50_cif.got.tgz:99931.got - 2010.06.03 11:33:40.
