data_PCOD9024793
_publ_section_title
;
Structure prediction by ZEFSAII (Michael W. Deem and Ramdas Pophale) SiO2 
 PCOD9024793
Probable space group: P -1
;
_chemical_formula_sum "Si O2"
_cell_formula_units_Z 14
_cell_length_a 8.721101
_cell_length_b 11.799354
_cell_length_c 11.741414
_cell_angle_alpha 51.869300
_cell_angle_beta 122.105505
_cell_angle_gamma 136.863681
_cell_volume 642.428785
_symmetry_space_group_name_H-M "P -1"
_symmetry_group_IT_number 2
_symmetry_cell_setting 'triclinic'
loop_
_space_group_symop_operation_xyz
x,y,z
-x,-y,-z
loop_
_atom_site_type_symbol
_atom_site_label
_atom_site_fract_x
_atom_site_fract_y
_atom_site_fract_z
Si Si1 0.010847 0.439430 0.666265
Si Si2 0.534739 0.606630 0.792117
Si Si3 0.118223 0.720552 0.702819
Si Si4 0.696495 0.090321 0.879238
Si Si5 0.824901 0.096621 0.165208
Si Si6 0.125972 0.025102 0.416104
Si Si7 0.528087 0.723565 0.954398
O O1 0.265250 0.503089 0.745316
O O2 0.963286 0.538636 0.682183
O O3 0.000000 0.500000 0.500000
O O4 0.829043 0.227659 0.744707
O O5 0.630389 0.697098 0.898917
O O6 0.655482 0.771786 0.648966
O O7 0.564239 0.448731 0.895846
O O8 0.048590 0.754889 0.775997
O O9 0.177887 0.881483 0.541063
O O10 0.333657 0.730224 0.819215
O O11 0.442093 0.032432 0.827335
O O12 0.678456 0.910500 0.964271
O O13 0.829223 0.176526 0.996368
O O14 0.940207 0.994953 0.271517
O O15 0.000000 0.000000 0.500000
#
# Coordination Sequence:
#
# PCOD9024793 Si02
#       7
#     2   2   2   2   2   2   2
#     4  11  26  38  63  96 131 161 206 263 312 374
#     4  10  23  41  64  94 122 163 216 250 310 377
#     4   9  21  42  63  92 119 175 204 247 319 360
#     4  10  22  42  63  95 128 163 206 263 316 352
#     4   9  21  42  66  87 123 169 213 249 308 374
#     4  10  22  40  66  90 122 165 210 255 301 376
#     4   9  21  40  66  91 122 165 208 261 304 372
#
# _framework density 21.792300000000001
#
# number of rings (size 3 to 8) (size 9 to 14) (size 15 to 20)
#    0.000    2.286    0.000    0.000   14.000    3.429 
#   12.857    0.714    0.000    0.000    0.000    0.000 
#    0.000    0.000    0.000    0.000    0.000    0.000 
#
# Total GULP energy -78025.768912 kJ/mol
# GULP energy per Si atom -5573.269208 kJ/mol
# Density = 2.174270 g / cm^3
# Si number density = 21.792300 Si / 1000 Ang^3
#
#
#
# Elastic Constant Matrix: (Units=GPa)
#
#
# Indices 1 2 3 4 5 6 
#
# 1 37.8916 21.8190 27.2947 -13.6922 12.7678 8.1714
# 2 21.8190 56.3719 30.4540 -14.8095 5.1074 -13.0947
# 3 27.2947 30.4540 119.1757 -20.4929 15.3798 -0.4510
# 4 -13.6922 -14.8095 -20.4929 51.0389 -2.6855 -3.3898
# 5 12.7678 5.1074 15.3798 -2.6855 39.1527 -3.9650
# 6 8.1714 -13.0947 -0.4510 -3.3898 -3.9650 36.2468
#
#
#
# Elastic Compliance Matrix: (Units=1/GPa)
#
#
# Indices 1 2 3 4 5 6 
#
# 1 0.051595 -0.019927 -0.004218 0.004281 -0.014305 -0.020047
# 2 -0.019927 0.031816 -0.003575 0.003876 0.005733 0.016931
# 3 -0.004218 -0.003575 0.010928 0.002078 -0.002335 -0.000266
# 4 0.004281 0.003876 0.002078 0.022819 -0.000900 0.002497
# 5 -0.014305 0.005733 -0.002335 -0.000900 0.031184 0.008594
# 6 -0.020047 0.016931 -0.000266 0.002497 0.008594 0.039395
#
#
# Mechanical properties :
#
#
# Convention : Reuss Voigt Hill
#
# Bulk Modulus (GPa) = 25.70857 41.39718 33.55288
# Shear Modulus (GPa) = 19.52026 34.21244 26.86635
#
# Velocity S-wave (km/s) = 2.99614 3.96654 3.51499
# Velocity P-wave (km/s) = 4.87769 6.32577 5.64833
#
# Compressibility (1/GPa) = 0.03889754
#
# Stress axis : x y z
#
# Youngs Moduli (GPa) = 19.38191 31.43096 91.50422
#
# Poissons Ratio (x) = 0.62633 0.38597
# Poissons Ratio (y) = 0.38622 0.32717
# Poissons Ratio (z) = 0.08175 0.11238
#
# Static dielectric constant tensor:
#      x y z
#    x 1.886810 -0.047180 0.024520 
#    y -0.047180 1.826320 0.008170 
#    z 0.024520 0.008170 1.816900 
# 
# From -- ./inp_files/392202.got.cif
#   From: 2010.05.17/outbox.cif.g08.bks.cpg/sg2_197_cif.got.tgz:392202.got - 2010.06.03 11:33:40.
