data_PCOD9024626
_publ_section_title
;
Structure prediction by ZEFSAII (Michael W. Deem and Ramdas Pophale) SiO2 
 PCOD9024626
Probable space group: P -1
;
_chemical_formula_sum "Si O2"
_cell_formula_units_Z 14
_cell_length_a 13.185866
_cell_length_b 16.948279
_cell_length_c 9.578967
_cell_angle_alpha 55.645501
_cell_angle_beta 152.267041
_cell_angle_gamma 135.025129
_cell_volume 691.532849
_symmetry_space_group_name_H-M "P -1"
_symmetry_group_IT_number 2
_symmetry_cell_setting 'triclinic'
loop_
_space_group_symop_operation_xyz
x,y,z
-x,-y,-z
loop_
_atom_site_type_symbol
_atom_site_label
_atom_site_fract_x
_atom_site_fract_y
_atom_site_fract_z
Si Si1 0.284545 0.186222 0.252124
Si Si2 0.544968 0.554378 0.845507
Si Si3 0.345255 0.835088 0.066321
Si Si4 0.726032 0.972510 0.143163
Si Si5 0.992627 0.394316 0.186520
Si Si6 0.714281 0.973036 0.825464
Si Si7 0.736579 0.502475 0.862409
O O1 0.343878 0.310597 0.159554
O O2 0.496484 0.201611 0.608180
O O3 0.299218 0.116900 0.209666
O O4 0.994347 0.093255 0.046936
O O5 0.258545 0.481182 0.500834
O O6 0.724722 0.535483 0.974143
O O7 0.500000 0.500000 0.000000
O O8 0.525418 0.901345 0.089708
O O9 0.283842 0.915355 0.996813
O O10 0.081066 0.733278 0.779657
O O11 0.000000 0.000000 0.500000
O O12 0.663453 0.917557 0.970849
O O13 0.027220 0.421080 0.034674
O O14 0.753852 0.392528 0.972990
O O15 0.500000 0.000000 0.500000
O O16 0.500000 0.500000 0.500000
#
# Coordination Sequence:
#
# PCOD9024626 Si02
#       7
#     2   2   2   2   2   2   2
#     4  11  24  42  68  95 133 176 228 270 333 408
#     4  11  26  43  63 100 137 178 223 277 336 400
#     4  11  23  40  68 100 129 171 224 277 333 402
#     4  11  24  41  65 100 135 168 224 280 335 391
#     4  10  22  40  65  95 128 171 223 266 329 402
#     4  11  24  43  67  98 132 180 222 275 341 394
#     4   9  19  38  62  89 124 164 218 264 318 387
#
# _framework density 20.244879999999998
#
# number of rings (size 3 to 8) (size 9 to 14) (size 15 to 20)
#    0.000    1.429    2.857    2.571    2.000    7.429 
#    0.000    0.000    0.000    0.000    0.000    0.000 
#    0.000    0.000    0.000    0.000    0.000    0.000 
#
# Total GULP energy -77978.354022 kJ/mol
# GULP energy per Si atom -5569.882430 kJ/mol
# Density = 2.019880 g / cm^3
# Si number density = 20.244880 Si / 1000 Ang^3
#
#
#
# Elastic Constant Matrix: (Units=GPa)
#
#
# Indices 1 2 3 4 5 6 
#
# 1 167.6403 44.5414 42.4478 -11.9003 -10.6549 -14.5006
# 2 44.5414 99.4974 17.4426 7.9970 -8.1769 -5.1169
# 3 42.4478 17.4426 81.8146 2.7574 -6.1976 1.5364
# 4 -11.9003 7.9970 2.7574 29.7412 1.4814 -4.1686
# 5 -10.6549 -8.1769 -6.1976 1.4814 28.5355 -4.4538
# 6 -14.5006 -5.1169 1.5364 -4.1686 -4.4538 13.7095
#
#
#
# Elastic Compliance Matrix: (Units=1/GPa)
#
#
# Indices 1 2 3 4 5 6 
#
# 1 0.009795 -0.003184 -0.004618 0.006839 0.003396 0.012872
# 2 -0.003184 0.012190 -0.000617 -0.004522 0.002513 0.000692
# 3 -0.004618 -0.000617 0.015068 -0.004214 0.000346 -0.007973
# 4 0.006839 -0.004522 -0.004214 0.040532 0.001160 0.018719
# 5 0.003396 0.002513 0.000346 0.001160 0.039822 0.017781
# 6 0.012872 0.000692 -0.007973 0.018719 0.017781 0.099178
#
#
# Mechanical properties :
#
#
# Convention : Reuss Voigt Hill
#
# Bulk Modulus (GPa) = 49.46884 61.97953 55.72419
# Shear Modulus (GPa) = 20.81927 30.69861 25.75894
#
# Velocity S-wave (km/s) = 3.21030 3.89828 3.57090
# Velocity P-wave (km/s) = 6.18302 7.13747 6.67732
#
# Compressibility (1/GPa) = 0.02021474
#
# Stress axis : x y z
#
# Youngs Moduli (GPa) = 102.09064 82.03688 66.36444
#
# Poissons Ratio (x) = 0.26120 0.30648
# Poissons Ratio (y) = 0.32505 0.04095
# Poissons Ratio (z) = 0.47147 0.05062
#
# Static dielectric constant tensor:
#      x y z
#    x 1.759280 0.005630 0.034750 
#    y 0.005630 1.827940 -0.019590 
#    z 0.034750 -0.019590 1.763190 
# 
# From -- ./inp_files/272286.got.cif
#   From: 2010.05.17/outbox.cif.g08.bks.cpg/sg2_137_cif.got.tgz:272286.got - 2010.06.03 11:33:40.
