data_PCOD9024330
_publ_section_title
;
Structure prediction by ZEFSAII (Michael W. Deem and Ramdas Pophale) SiO2 
 PCOD9024330
Probable space group: P -1
;
_chemical_formula_sum "Si O2"
_cell_formula_units_Z 15
_cell_length_a 11.971918
_cell_length_b 8.447842
_cell_length_c 9.514947
_cell_angle_alpha 86.375579
_cell_angle_beta 136.864400
_cell_angle_gamma 92.388897
_cell_volume 656.629028
_symmetry_space_group_name_H-M "P -1"
_symmetry_group_IT_number 2
_symmetry_cell_setting 'triclinic'
loop_
_space_group_symop_operation_xyz
x,y,z
-x,-y,-z
loop_
_atom_site_type_symbol
_atom_site_label
_atom_site_fract_x
_atom_site_fract_y
_atom_site_fract_z
Si Si1 0.397631 0.885143 0.507117
Si Si2 0.491180 0.457502 0.331488
Si Si3 0.855068 0.940527 0.187523
Si Si4 0.166570 0.413568 0.888124
Si Si5 0.674464 0.458087 0.235411
Si Si6 0.096420 0.849296 0.035591
Si Si7 0.233388 0.911910 0.628849
Si Si8 0.000000 0.500000 0.000000
O O1 0.498372 0.732050 0.653024
O O2 0.332525 0.969787 0.581901
O O3 0.500000 0.000000 0.500000
O O4 0.247584 0.821591 0.280320
O O5 0.500000 0.500000 0.500000
O O6 0.636170 0.513112 0.357664
O O7 0.313424 0.499465 0.104423
O O8 0.810780 0.775735 0.084149
O O9 0.042953 0.917110 0.410112
O O10 0.844730 0.089265 0.065008
O O11 0.748309 0.980834 0.223508
O O12 0.188287 0.465660 0.743063
O O13 0.013784 0.456068 0.842619
O O14 0.713411 0.270252 0.284697
O O15 0.500000 0.500000 0.000000
O O16 0.994206 0.689845 0.947158
O O17 0.000000 0.000000 0.000000
#
# Coordination Sequence:
#
# PCOD9024330 Si02
#       8
#     2   2   2   2   2   2   2   1
#     4  11  23  41  66  97 134 175 227 284 341 410
#     4  10  22  40  64  92 132 171 223 280 339 410
#     4  11  23  41  67  94 136 173 229 285 341 412
#     4  11  22  41  64  99 128 180 223 279 347 406
#     4   9  21  42  63  89 132 173 222 278 341 409
#     4  12  23  44  67 100 136 180 229 279 345 413
#     4  10  22  42  63  95 129 181 224 281 346 405
#     4  12  24  38  72  96 134 178 232 278 336 412
#
# _framework density 22.843948999999999
#
# number of rings (size 3 to 8) (size 9 to 14) (size 15 to 20)
#    0.000    1.333    2.667    2.400    0.000    3.733 
#    0.000   17.333    0.000    0.000    0.000    0.000 
#    0.000    0.000    0.000    0.000    0.000    0.000 
#
# Total GULP energy -83544.715030 kJ/mol
# GULP energy per Si atom -5569.647669 kJ/mol
# Density = 2.279196 g / cm^3
# Si number density = 22.843949 Si / 1000 Ang^3
#
#
#
# Elastic Constant Matrix: (Units=GPa)
#
#
# Indices 1 2 3 4 5 6 
#
# 1 147.5497 43.1178 38.3175 -0.0418 -55.6832 -2.0957
# 2 43.1178 105.4851 6.1310 -4.6562 -20.4694 1.2280
# 3 38.3175 6.1310 61.6786 0.5396 -17.7761 -5.1655
# 4 -0.0418 -4.6562 0.5396 28.6543 -2.5114 -15.4211
# 5 -55.6832 -20.4694 -17.7761 -2.5114 43.3155 -2.0584
# 6 -2.0957 1.2280 -5.1655 -15.4211 -2.0584 36.8422
#
#
#
# Elastic Compliance Matrix: (Units=1/GPa)
#
#
# Indices 1 2 3 4 5 6 
#
# 1 0.014793 -0.002554 -0.004044 0.002331 0.016392 0.002251
# 2 -0.002554 0.011064 0.001304 0.002459 0.002663 0.000847
# 3 -0.004044 0.001304 0.020014 0.002136 0.003929 0.003646
# 4 0.002331 0.002459 0.002136 0.047085 0.008741 0.020547
# 5 0.016392 0.002663 0.003929 0.008741 0.047904 0.007730
# 6 0.002251 0.000847 0.003646 0.020547 0.007730 0.036786
#
#
# Mechanical properties :
#
#
# Convention : Reuss Voigt Hill
#
# Bulk Modulus (GPa) = 28.34220 54.42731 41.38476
# Shear Modulus (GPa) = 25.00071 36.90555 30.95313
#
# Velocity S-wave (km/s) = 3.31178 4.02375 3.68500
# Velocity P-wave (km/s) = 5.20170 6.74276 6.02173
#
# Compressibility (1/GPa) = 0.03528308
#
# Stress axis : x y z
#
# Youngs Moduli (GPa) = 67.60166 90.38657 49.96388
#
# Poissons Ratio (x) = 0.23085 0.20203
# Poissons Ratio (y) = 0.17265 -0.06514
# Poissons Ratio (z) = 0.27335 -0.11784
#
# Static dielectric constant tensor:
#      x y z
#    x 1.928910 -0.002430 -0.012930 
#    y -0.002430 1.775950 -0.011550 
#    z -0.012930 -0.011550 1.900430 
# 
# From -- ./inp_files/243720.got.cif
#   From: 2010.05.17/outbox.cif.g08.bks.cpg/sg2_122_cif.got.tgz:243720.got - 2010.06.03 11:33:40.
