data_PCOD9024741
_publ_section_title
;
Structure prediction by ZEFSAII (Michael W. Deem and Ramdas Pophale) SiO2 
 PCOD9024741
Probable space group: P -1
;
_chemical_formula_sum "Si O2"
_cell_formula_units_Z 14
_cell_length_a 6.287129
_cell_length_b 15.979436
_cell_length_c 11.055133
_cell_angle_alpha 124.155110
_cell_angle_beta 84.258465
_cell_angle_gamma 131.773238
_cell_volume 614.196761
_symmetry_space_group_name_H-M "P -1"
_symmetry_group_IT_number 2
_symmetry_cell_setting 'triclinic'
loop_
_space_group_symop_operation_xyz
x,y,z
-x,-y,-z
loop_
_atom_site_type_symbol
_atom_site_label
_atom_site_fract_x
_atom_site_fract_y
_atom_site_fract_z
Si Si1 0.641755 0.740273 0.924400
Si Si2 0.782192 0.338234 0.319023
Si Si3 0.615642 0.773703 0.361155
Si Si4 0.390737 0.014426 0.143973
Si Si5 0.818209 0.335125 0.914403
Si Si6 0.732811 0.553608 0.826865
Si Si7 0.706388 0.024433 0.618168
O O1 0.514726 0.716007 0.778123
O O2 0.551574 0.592689 0.840887
O O3 0.438323 0.734893 0.023955
O O4 0.011757 0.894814 0.046679
O O5 0.623855 0.192935 0.285732
O O6 0.000000 0.500000 0.500000
O O7 0.004897 0.364650 0.226492
O O8 0.382855 0.751759 0.264278
O O9 0.445516 0.616382 0.299497
O O10 0.703906 0.900952 0.540397
O O11 0.924964 0.836207 0.328490
O O12 0.400496 0.966959 0.239074
O O13 0.500000 0.000000 0.000000
O O14 0.000000 0.500000 0.000000
O O15 0.096676 0.370347 0.991508
O O16 0.500000 0.000000 0.500000
#
# Coordination Sequence:
#
# PCOD9024741 Si02
#       7
#     2   2   2   2   2   2   2
#     4  11  23  43  70 102 138 187 235 292 356 420
#     4  11  25  45  69 100 140 185 240 293 353 420
#     4  10  22  42  64  99 140 185 226 295 358 412
#     4  12  25  49  73 105 144 194 240 287 355 435
#     4   9  20  37  66  95 133 175 229 283 346 419
#     4  10  22  40  66 102 133 177 237 290 350 423
#     4  11  26  44  70 101 141 185 237 292 356 418
#
# _framework density 22.793998999999999
#
# number of rings (size 3 to 8) (size 9 to 14) (size 15 to 20)
#    0.000    1.429    2.857    1.286    2.000    7.429 
#    7.714    0.000    0.000    0.000    0.000    0.000 
#    0.000    0.000    0.000    0.000    0.000    0.000 
#
# Total GULP energy -78048.096056 kJ/mol
# GULP energy per Si atom -5574.864004 kJ/mol
# Density = 2.274212 g / cm^3
# Si number density = 22.793999 Si / 1000 Ang^3
#
#
#
# Elastic Constant Matrix: (Units=GPa)
#
#
# Indices 1 2 3 4 5 6 
#
# 1 47.2390 21.7202 8.7544 4.4631 -9.6654 -5.4949
# 2 21.7202 144.8374 41.6227 11.0121 -4.6079 5.9168
# 3 8.7544 41.6227 66.4972 14.4355 -4.2430 2.9687
# 4 4.4631 11.0121 14.4355 47.2612 -7.7492 -1.9427
# 5 -9.6654 -4.6079 -4.2430 -7.7492 39.7935 6.0836
# 6 -5.4949 5.9168 2.9687 -1.9427 6.0836 32.9678
#
#
#
# Elastic Compliance Matrix: (Units=1/GPa)
#
#
# Indices 1 2 3 4 5 6 
#
# 1 0.024340 -0.003376 -0.000894 -0.000297 0.004780 0.003844
# 2 -0.003376 0.008942 -0.005014 -0.000323 -0.000120 -0.001713
# 3 -0.000894 -0.005014 0.019398 -0.004634 0.000579 -0.001376
# 4 -0.000297 -0.000323 -0.004634 0.023342 0.003773 0.001105
# 5 0.004780 -0.000120 0.000579 0.003773 0.027704 -0.004124
# 6 0.003844 -0.001713 -0.001376 0.001105 -0.004124 0.032231
#
#
# Mechanical properties :
#
#
# Convention : Reuss Voigt Hill
#
# Bulk Modulus (GPa) = 29.31285 44.75203 37.03244
# Shear Modulus (GPa) = 30.13974 36.43626 33.28800
#
# Velocity S-wave (km/s) = 3.64024 4.00246 3.82564
# Velocity P-wave (km/s) = 5.52778 6.40590 5.98297
#
# Compressibility (1/GPa) = 0.03411473
#
# Stress axis : x y z
#
# Youngs Moduli (GPa) = 41.08484 111.83083 51.55050
#
# Poissons Ratio (x) = 0.37750 0.04606
# Poissons Ratio (y) = 0.13869 0.25846
# Poissons Ratio (z) = 0.03671 0.56069
#
# Static dielectric constant tensor:
#      x y z
#    x 1.841290 -0.013640 -0.037970 
#    y -0.013640 1.833940 -0.003050 
#    z -0.037970 -0.003050 1.981950 
# 
# From -- ./inp_files/94864.got.cif
#   From: 2010.05.17/outbox.cif.g08.bks.cpg/sg2_48_cif.got.tgz:94864.got - 2010.06.03 11:33:40.
