data_PCOD9024410
_publ_section_title
;
Structure prediction by ZEFSAII (Michael W. Deem and Ramdas Pophale) SiO2 
 PCOD9024410
Probable space group: P -1
;
_chemical_formula_sum "Si O2"
_cell_formula_units_Z 16
_cell_length_a 17.334877
_cell_length_b 9.114110
_cell_length_c 9.463391
_cell_angle_alpha 137.296138
_cell_angle_beta 136.383057
_cell_angle_gamma 65.414500
_cell_volume 677.672580
_symmetry_space_group_name_H-M "P -1"
_symmetry_group_IT_number 2
_symmetry_cell_setting 'triclinic'
loop_
_space_group_symop_operation_xyz
x,y,z
-x,-y,-z
loop_
_atom_site_type_symbol
_atom_site_label
_atom_site_fract_x
_atom_site_fract_y
_atom_site_fract_z
Si Si1 0.465682 0.869433 0.545239
Si Si2 0.119817 0.370445 0.927283
Si Si3 0.770439 0.591194 0.365042
Si Si4 0.309780 0.904676 0.123001
Si Si5 0.621452 0.614866 0.432597
Si Si6 0.178698 0.068124 0.571265
Si Si7 0.969905 0.691395 0.916288
Si Si8 0.336172 0.737550 0.547644
O O1 0.354076 0.910786 0.348153
O O2 0.503784 0.669287 0.370560
O O3 0.443043 0.823561 0.645926
O O4 0.426509 0.924824 0.200199
O O5 0.128156 0.147702 0.702507
O O6 0.023895 0.480526 0.809371
O O7 0.090608 0.351778 0.041188
O O8 0.242326 0.550505 0.204314
O O9 0.654411 0.595174 0.300441
O O10 0.773854 0.716369 0.310872
O O11 0.879561 0.709892 0.689733
O O12 0.775165 0.332524 0.178582
O O13 0.288517 0.146491 0.233427
O O14 0.636857 0.398836 0.380531
O O15 0.274453 0.934018 0.638127
O O16 0.077164 0.902337 0.231883
#
# Coordination Sequence:
#
# PCOD9024410 Si02
#       8
#     2   2   2   2   2   2   2   2
#     4   9  20  44  64  96 132 172 219 276 322 382
#     4  10  22  44  67  96 130 178 207 276 331 390
#     4  12  23  42  66 103 130 174 215 274 325 396
#     4   9  22  40  64  92 130 173 215 267 331 379
#     4  10  22  40  64  95 135 174 216 273 320 383
#     4  11  25  39  70  99 132 174 218 266 331 392
#     4  10  23  44  67  95 135 165 223 271 331 386
#     4  11  21  42  65  97 135 170 222 268 321 391
#
# _framework density 23.610220999999999
#
# number of rings (size 3 to 8) (size 9 to 14) (size 15 to 20)
#    0.750    1.000    1.250    2.625    0.000    4.000 
#    2.250    0.625    0.000    0.000    0.000    0.000 
#    0.000    0.000    0.000    0.000    0.000    0.000 
#
# Total GULP energy -89364.148675 kJ/mol
# GULP energy per Si atom -5585.259292 kJ/mol
# Density = 2.355648 g / cm^3
# Si number density = 23.610221 Si / 1000 Ang^3
#
#
#
# Elastic Constant Matrix: (Units=GPa)
#
#
# Indices 1 2 3 4 5 6 
#
# 1 49.6767 35.4631 5.4527 7.9000 -7.3091 6.8773
# 2 35.4631 103.6628 18.5575 7.0225 -11.7294 9.9613
# 3 5.4527 18.5575 49.8828 14.6217 -7.9843 -3.3688
# 4 7.9000 7.0225 14.6217 27.0582 -0.7556 6.3670
# 5 -7.3091 -11.7294 -7.9843 -0.7556 21.8201 8.3764
# 6 6.8773 9.9613 -3.3688 6.3670 8.3764 36.3979
#
#
#
# Elastic Compliance Matrix: (Units=1/GPa)
#
#
# Indices 1 2 3 4 5 6 
#
# 1 0.028597 -0.008780 0.003025 -0.006775 0.006933 -0.003131
# 2 -0.008780 0.014241 -0.004586 0.002461 0.004727 -0.004181
# 3 0.003025 -0.004586 0.027197 -0.015256 0.006273 0.004426
# 4 -0.006775 0.002461 -0.015256 0.048617 -0.001394 -0.008989
# 5 0.006933 0.004727 0.006273 -0.001394 0.058819 -0.015315
# 6 -0.003131 -0.004181 0.004426 -0.008989 -0.015315 0.034717
#
#
# Mechanical properties :
#
#
# Convention : Reuss Voigt Hill
#
# Bulk Modulus (GPa) = 20.26219 35.79654 28.02936
# Shear Modulus (GPa) = 20.05446 26.63851 23.34649
#
# Velocity S-wave (km/s) = 2.91760 3.36260 3.14798
# Velocity P-wave (km/s) = 4.46660 5.50187 5.01104
#
# Compressibility (1/GPa) = 0.04935301
#
# Stress axis : x y z
#
# Youngs Moduli (GPa) = 34.96851 70.21905 36.76874
#
# Poissons Ratio (x) = 0.61654 -0.11121
# Poissons Ratio (y) = 0.30703 0.16860
# Poissons Ratio (z) = -0.10577 0.32199
#
# Static dielectric constant tensor:
#      x y z
#    x 1.903030 -0.024390 0.017970 
#    y -0.024390 1.879350 0.013090 
#    z 0.017970 0.013090 1.933520 
# 
# From -- ./inp_files/329669.got.cif
#   From: 2010.05.17/outbox.cif.g08.bks.cpg/sg2_165_cif.got.tgz:329669.got - 2010.06.03 11:33:40.
