data_PCOD9024739
_publ_section_title
;
Structure prediction by ZEFSAII (Michael W. Deem and Ramdas Pophale) SiO2 
 PCOD9024739
Probable space group: P -1
;
_chemical_formula_sum "Si O2"
_cell_formula_units_Z 11
_cell_length_a 9.030124
_cell_length_b 11.613789
_cell_length_c 8.204882
_cell_angle_alpha 42.749329
_cell_angle_beta 97.171832
_cell_angle_gamma 114.876625
_cell_volume 505.668675
_symmetry_space_group_name_H-M "P -1"
_symmetry_group_IT_number 2
_symmetry_cell_setting 'triclinic'
loop_
_space_group_symop_operation_xyz
x,y,z
-x,-y,-z
loop_
_atom_site_type_symbol
_atom_site_label
_atom_site_fract_x
_atom_site_fract_y
_atom_site_fract_z
Si Si1 0.383792 0.769078 0.073404
Si Si2 0.275988 0.950925 0.349645
Si Si3 0.241331 0.307617 0.962123
Si Si4 0.930299 0.269399 0.753528
Si Si5 0.500000 0.500000 0.500000
Si Si6 0.797187 0.413078 0.078396
O O1 0.241828 0.816909 0.074063
O O2 0.436148 0.664257 0.326966
O O3 0.285343 0.607919 0.087197
O O4 0.546873 0.949180 0.829717
O O5 0.123347 0.830540 0.325508
O O6 0.275641 0.802187 0.634826
O O7 0.247990 0.124748 0.232238
O O8 0.395998 0.400773 0.758562
O O9 0.243427 0.456134 0.941595
O O10 0.072552 0.241872 0.896537
O O11 0.000000 0.500000 0.500000
O O12 0.000000 0.500000 0.000000
#
# Coordination Sequence:
#
# PCOD9024739 Si02
#       6
#     2   2   2   2   1   2
#     4  11  23  42  69 100 136 180 217 276 334 396
#     4  11  25  41  66 100 134 175 228 272 330 395
#     4  11  24  43  69 102 132 176 225 271 336 392
#     4  12  20  43  70  95 137 178 224 272 332 392
#     4  10  22  40  66 102 130 168 224 274 322 390
#     4  12  24  46  70  95 141 177 219 275 338 398
#
# _framework density 21.753371999999999
#
# number of rings (size 3 to 8) (size 9 to 14) (size 15 to 20)
#    0.000    0.727    5.455    1.636    0.000    5.091 
#    0.000    1.818    0.000    0.000    0.000    0.000 
#    0.000    0.000    0.000    0.000    0.000    0.000 
#
# Total GULP energy -61301.076607 kJ/mol
# GULP energy per Si atom -5572.825146 kJ/mol
# Density = 2.170386 g / cm^3
# Si number density = 21.753372 Si / 1000 Ang^3
#
#
#
# Elastic Constant Matrix: (Units=GPa)
#
#
# Indices 1 2 3 4 5 6 
#
# 1 90.5965 12.8665 26.6555 -9.8070 6.6088 -13.1035
# 2 12.8665 67.1313 -9.7548 -11.9979 0.1973 -15.2684
# 3 26.6555 -9.7548 100.4681 -26.9700 7.1786 -6.3521
# 4 -9.8070 -11.9979 -26.9700 18.7325 -2.8548 0.7708
# 5 6.6088 0.1973 7.1786 -2.8548 27.6966 -7.1229
# 6 -13.1035 -15.2684 -6.3521 0.7708 -7.1229 35.2519
#
#
#
# Elastic Compliance Matrix: (Units=1/GPa)
#
#
# Indices 1 2 3 4 5 6 
#
# 1 0.012874 -0.002222 -0.003272 0.000268 -0.001424 0.002940
# 2 -0.002222 0.026216 0.012851 0.034187 0.003847 0.012875
# 3 -0.003272 0.012851 0.023150 0.039646 0.000785 0.007813
# 4 0.000268 0.034187 0.039646 0.132935 0.008483 0.020858
# 5 -0.001424 0.003847 0.000785 0.008483 0.039418 0.009058
# 6 0.002940 0.012875 0.007813 0.020858 0.009058 0.037818
#
#
# Mechanical properties :
#
#
# Convention : Reuss Voigt Hill
#
# Bulk Modulus (GPa) = 12.99455 35.30339 24.14897
# Shear Modulus (GPa) = 17.64604 31.56476 24.60540
#
# Velocity S-wave (km/s) = 2.85122 3.81337 3.36684
# Velocity P-wave (km/s) = 4.10193 5.97103 5.12245
#
# Compressibility (1/GPa) = 0.07695533
#
# Stress axis : x y z
#
# Youngs Moduli (GPa) = 77.67380 38.14402 43.19660
#
# Poissons Ratio (x) = 0.08477 0.14133
# Poissons Ratio (y) = 0.17261 -0.55514
# Poissons Ratio (z) = 0.25414 -0.49021
#
# Static dielectric constant tensor:
#      x y z
#    x 1.829640 0.023300 0.047350 
#    y 0.023300 1.802560 -0.020940 
#    z 0.047350 -0.020940 1.825780 
# 
# From -- ./inp_files/144820.got.cif
#   From: 2010.05.17/outbox.cif.g08.bks.cpg/sg2_73_cif.got.tgz:144820.got - 2010.06.03 11:33:40.
