data_PCOD9024929
_publ_section_title
;
Structure prediction by ZEFSAII (Michael W. Deem and Ramdas Pophale) SiO2 
 PCOD9024929
Probable space group: P -1
;
_chemical_formula_sum "Si O2"
_cell_formula_units_Z 15
_cell_length_a 9.576599
_cell_length_b 13.040417
_cell_length_c 9.152018
_cell_angle_alpha 135.965093
_cell_angle_beta 59.502564
_cell_angle_gamma 96.518827
_cell_volume 621.355362
_symmetry_space_group_name_H-M "P -1"
_symmetry_group_IT_number 2
_symmetry_cell_setting 'triclinic'
loop_
_space_group_symop_operation_xyz
x,y,z
-x,-y,-z
loop_
_atom_site_type_symbol
_atom_site_label
_atom_site_fract_x
_atom_site_fract_y
_atom_site_fract_z
Si Si1 0.026291 0.962589 0.618667
Si Si2 0.827022 0.383195 0.908432
Si Si3 0.653174 0.747809 0.734563
Si Si4 0.313722 0.361210 0.076186
Si Si5 0.319085 0.916438 0.905245
Si Si6 0.500000 0.500000 0.000000
Si Si7 0.009043 0.575812 0.863315
Si Si8 0.388620 0.900052 0.508757
O O1 0.056609 0.775049 0.409426
O O2 0.210534 0.962435 0.573982
O O3 0.867108 0.070092 0.919529
O O4 0.000000 0.000000 0.500000
O O5 0.876409 0.531397 0.991033
O O6 0.624264 0.437383 0.026465
O O7 0.895746 0.343003 0.998561
O O8 0.614383 0.731070 0.907626
O O9 0.679325 0.912332 0.871480
O O10 0.829165 0.586684 0.443754
O O11 0.486609 0.772951 0.745723
O O12 0.306929 0.538473 0.241732
O O13 0.133969 0.343144 0.108176
O O14 0.480810 0.288337 0.793619
O O15 0.344110 0.909064 0.710980
O O16 0.500000 0.000000 0.500000
#
# Coordination Sequence:
#
# PCOD9024929 Si02
#       8
#     2   2   2   2   2   1   2   2
#     4  12  26  45  70 102 143 181 229 291 347 409
#     4  10  22  40  66  96 129 176 223 275 343 402
#     4  11  23  43  68 102 139 178 233 283 348 408
#     4  11  23  43  69  99 134 183 228 285 344 413
#     4  11  26  42  69 102 143 180 233 291 341 410
#     4  10  22  42  64  94 132 180 222 280 340 402
#     4  10  23  39  69  97 134 172 230 279 339 410
#     4  12  26  45  72 102 137 184 236 285 350 414
#
# _framework density 24.140775000000001
#
# number of rings (size 3 to 8) (size 9 to 14) (size 15 to 20)
#    0.000    1.067    4.000    1.600    9.333    0.000 
#    0.000    2.000    0.000    0.000    0.000    0.000 
#    0.000    0.000    0.000    0.000    0.000    0.000 
#
# Total GULP energy -83611.266872 kJ/mol
# GULP energy per Si atom -5574.084458 kJ/mol
# Density = 2.408583 g / cm^3
# Si number density = 24.140775 Si / 1000 Ang^3
#
#
#
# Elastic Constant Matrix: (Units=GPa)
#
#
# Indices 1 2 3 4 5 6 
#
# 1 197.9297 60.7792 63.6108 -13.7747 -22.5959 -45.3981
# 2 60.7792 107.6921 21.8041 -13.3227 -17.3505 -26.6878
# 3 63.6108 21.8041 112.4217 -19.4355 -19.5318 -16.9714
# 4 -13.7747 -13.3227 -19.4355 25.6698 3.1872 6.6867
# 5 -22.5959 -17.3505 -19.5318 3.1872 34.7604 7.5637
# 6 -45.3981 -26.6878 -16.9714 6.6867 7.5637 49.9529
#
#
#
# Elastic Compliance Matrix: (Units=1/GPa)
#
#
# Indices 1 2 3 4 5 6 
#
# 1 0.008084 -0.002645 -0.003305 -0.000918 0.001125 0.004763
# 2 -0.002645 0.012636 0.001051 0.004528 0.004004 0.003492
# 3 -0.003305 0.001051 0.012765 0.007808 0.004806 0.000122
# 4 -0.000918 0.004528 0.007808 0.047072 0.002258 -0.002405
# 5 0.001125 0.004004 0.004806 0.002258 0.034139 -0.000677
# 6 0.004763 0.003492 0.000122 -0.002405 -0.000677 0.026679
#
#
# Mechanical properties :
#
#
# Convention : Reuss Voigt Hill
#
# Bulk Modulus (GPa) = 42.21699 78.93687 60.57693
# Shear Modulus (GPa) = 31.43310 40.19991 35.81650
#
# Velocity S-wave (km/s) = 3.61234 4.08515 3.85600
# Velocity P-wave (km/s) = 5.90969 7.41760 6.70616
#
# Compressibility (1/GPa) = 0.02368715
#
# Stress axis : x y z
#
# Youngs Moduli (GPa) = 123.70414 79.13726 78.34188
#
# Poissons Ratio (x) = 0.20932 0.25893
# Poissons Ratio (y) = 0.32720 -0.08237
# Poissons Ratio (z) = 0.40886 -0.08321
#
# Static dielectric constant tensor:
#      x y z
#    x 2.312450 0.325060 0.300830 
#    y 0.325060 2.430460 0.339390 
#    z 0.300830 0.339390 2.224240 
# 
# From -- ./inp_files/208905.got.cif
#   From: 2010.05.17/outbox.cif.g08.bks.cpg/sg2_105_cif.got.tgz:208905.got - 2010.06.03 11:33:40.
