data_PCOD9024452
_publ_section_title
;
Structure prediction by ZEFSAII (Michael W. Deem and Ramdas Pophale) SiO2 
 PCOD9024452
Probable space group: P -1
;
_chemical_formula_sum "Si O2"
_cell_formula_units_Z 16
_cell_length_a 8.891444
_cell_length_b 11.839382
_cell_length_c 9.455842
_cell_angle_alpha 58.997835
_cell_angle_beta 54.073689
_cell_angle_gamma 74.691778
_cell_volume 689.860611
_symmetry_space_group_name_H-M "P -1"
_symmetry_group_IT_number 2
_symmetry_cell_setting 'triclinic'
loop_
_space_group_symop_operation_xyz
x,y,z
-x,-y,-z
loop_
_atom_site_type_symbol
_atom_site_label
_atom_site_fract_x
_atom_site_fract_y
_atom_site_fract_z
Si Si1 0.052034 0.291144 0.274510
Si Si2 0.380021 0.707194 0.938442
Si Si3 0.261297 0.436836 0.269057
Si Si4 0.358232 0.657168 0.482512
Si Si5 0.013049 0.059436 0.615317
Si Si6 0.613274 0.132411 0.901420
Si Si7 0.979063 0.206377 0.070247
Si Si8 0.744900 0.637608 0.379668
O O1 0.135160 0.426604 0.204204
O O2 0.829544 0.279613 0.405996
O O3 0.123813 0.193687 0.419833
O O4 0.092998 0.261879 0.109985
O O5 0.309335 0.591383 0.159152
O O6 0.420257 0.832029 0.939322
O O7 0.554196 0.641437 0.813372
O O8 0.215035 0.734861 0.903824
O O9 0.172994 0.388959 0.495162
O O10 0.430152 0.741389 0.252356
O O11 0.529825 0.674290 0.483659
O O12 0.290185 0.504389 0.589254
O O13 0.825655 0.103529 0.765053
O O14 0.000000 0.000000 0.500000
O O15 0.073074 0.945281 0.759735
O O16 0.500000 0.000000 0.000000
O O17 0.123768 0.250119 0.839077
#
# Coordination Sequence:
#
# PCOD9024452 Si02
#       8
#     2   2   2   2   2   2   2   2
#     4  10  23  43  70  92 135 181 222 272 340 402
#     4  11  26  43  68  98 141 174 229 278 333 401
#     4  11  25  44  67  99 140 180 221 280 339 392
#     4  10  22  40  64  97 134 175 222 276 336 393
#     4   9  22  43  67  93 132 175 221 276 328 404
#     4  11  23  42  68  97 133 179 225 276 337 399
#     4  11  24  43  68 102 132 179 226 275 339 402
#     4  11  23  38  68  99 137 170 226 279 334 396
#
# _framework density 23.193093000000001
#
# number of rings (size 3 to 8) (size 9 to 14) (size 15 to 20)
#    0.000    1.500    1.250    2.250    8.750    4.500 
#    2.250    0.625    0.000    0.000    0.000    0.000 
#    0.000    0.000    0.000    0.000    0.000    0.000 
#
# Total GULP energy -89197.926301 kJ/mol
# GULP energy per Si atom -5574.870394 kJ/mol
# Density = 2.314030 g / cm^3
# Si number density = 23.193093 Si / 1000 Ang^3
#
#
#
# Elastic Constant Matrix: (Units=GPa)
#
#
# Indices 1 2 3 4 5 6 
#
# 1 92.6079 25.6133 23.5065 -4.4683 4.5566 -10.4448
# 2 25.6133 62.1538 17.3528 -16.6568 8.0108 4.1932
# 3 23.5065 17.3528 100.8569 -8.4935 21.7808 -9.8109
# 4 -4.4683 -16.6568 -8.4935 22.4932 0.0677 2.7215
# 5 4.5566 8.0108 21.7808 0.0677 27.0715 3.5354
# 6 -10.4448 4.1932 -9.8109 2.7215 3.5354 41.1993
#
#
#
# Elastic Compliance Matrix: (Units=1/GPa)
#
#
# Indices 1 2 3 4 5 6 
#
# 1 0.013222 -0.006025 -0.002129 -0.003076 0.000809 0.003592
# 2 -0.006025 0.024352 -0.000734 0.017165 -0.005006 -0.004885
# 3 -0.002129 -0.000734 0.013508 0.003752 -0.010750 0.003426
# 4 -0.003076 0.017165 0.003752 0.058588 -0.007088 -0.004895
# 5 0.000809 -0.005006 -0.010750 -0.007088 0.047665 -0.005467
# 6 0.003592 -0.004885 0.003426 -0.004895 -0.005467 0.027289
#
#
# Mechanical properties :
#
#
# Convention : Reuss Voigt Hill
#
# Bulk Modulus (GPa) = 30.02564 43.17374 36.59969
# Shear Modulus (GPa) = 23.41883 30.76254 27.09068
#
# Velocity S-wave (km/s) = 3.18108 3.64588 3.42138
# Velocity P-wave (km/s) = 5.14455 6.03147 5.60558
#
# Compressibility (1/GPa) = 0.03330487
#
# Stress axis : x y z
#
# Youngs Moduli (GPa) = 75.63123 41.06427 74.02838
#
# Poissons Ratio (x) = 0.24743 0.15764
# Poissons Ratio (y) = 0.45570 0.05434
# Poissons Ratio (z) = 0.16105 0.03014
#
# Static dielectric constant tensor:
#      x y z
#    x 1.879600 -0.017110 0.005820 
#    y -0.017110 1.972130 -0.062350 
#    z 0.005820 -0.062350 1.888260 
# 
# From -- ./inp_files/184847.got.cif
#   From: 2010.05.17/outbox.cif.g08.bks.cpg/sg2_93_cif.got.tgz:184847.got - 2010.06.03 11:33:40.
