data_PCOD9024615
_publ_section_title
;
Structure prediction by ZEFSAII (Michael W. Deem and Ramdas Pophale) SiO2 
 PCOD9024615
Probable space group: P -1
;
_chemical_formula_sum "Si O2"
_cell_formula_units_Z 16
_cell_length_a 15.774964
_cell_length_b 11.841617
_cell_length_c 6.987696
_cell_angle_alpha 130.396035
_cell_angle_beta 53.417893
_cell_angle_gamma 122.289835
_cell_volume 774.547741
_symmetry_space_group_name_H-M "P -1"
_symmetry_group_IT_number 2
_symmetry_cell_setting 'triclinic'
loop_
_space_group_symop_operation_xyz
x,y,z
-x,-y,-z
loop_
_atom_site_type_symbol
_atom_site_label
_atom_site_fract_x
_atom_site_fract_y
_atom_site_fract_z
Si Si1 0.503348 0.821646 0.670256
Si Si2 0.945691 0.831977 0.807944
Si Si3 0.835409 0.246814 0.513097
Si Si4 0.561542 0.410509 0.182620
Si Si5 0.215730 0.031119 0.032324
Si Si6 0.770156 0.551850 0.858582
Si Si7 0.602109 0.687061 0.041105
Si Si8 0.309762 0.911537 0.121867
O O1 0.458836 0.747940 0.852210
O O2 0.548934 0.718508 0.347479
O O3 0.606019 0.958048 0.730322
O O4 0.390874 0.860903 0.801005
O O5 0.857581 0.714325 0.928834
O O6 0.044040 0.749790 0.567230
O O7 0.877201 0.874685 0.769321
O O8 0.000000 0.000000 0.000000
O O9 0.822884 0.406748 0.614567
O O10 0.757574 0.201005 0.752170
O O11 0.806855 0.112061 0.243011
O O12 0.500000 0.500000 0.500000
O O13 0.685136 0.503164 0.092967
O O14 0.496137 0.378125 0.039191
O O15 0.327156 0.151285 0.954437
O O16 0.227438 0.977061 0.172526
O O17 0.687851 0.581411 0.835312
#
# Coordination Sequence:
#
# PCOD9024615 Si02
#       8
#     2   2   2   2   2   2   2   2
#     4  11  23  38  59  96 136 174 210 255 311 386
#     4   9  22  44  70  89 119 168 220 271 328 381
#     4  11  22  41  67  93 128 164 216 278 320 367
#     4  12  24  38  61  96 133 173 210 256 315 386
#     4  10  22  40  65  95 124 171 217 261 319 381
#     4  11  23  40  64  96 126 170 207 267 328 371
#     4  11  23  41  63  92 135 177 212 249 314 396
#     4  11  23  37  64  97 131 168 219 260 311 380
#
# _framework density 20.657215999999998
#
# number of rings (size 3 to 8) (size 9 to 14) (size 15 to 20)
#    0.000    1.250    5.000    0.750    1.750    1.000 
#    0.000    0.000    2.750    3.750    0.000    0.000 
#    0.000    0.000    0.000    0.000    0.000    0.000 
#
# Total GULP energy -89127.766131 kJ/mol
# GULP energy per Si atom -5570.485383 kJ/mol
# Density = 2.061020 g / cm^3
# Si number density = 20.657216 Si / 1000 Ang^3
#
#
#
# Elastic Constant Matrix: (Units=GPa)
#
#
# Indices 1 2 3 4 5 6 
#
# 1 109.5327 47.3409 39.5876 1.6707 -17.5842 -4.1175
# 2 47.3409 141.6746 21.5855 -3.0773 -1.7961 2.7534
# 3 39.5876 21.5855 56.6436 6.2328 -10.0920 -3.4380
# 4 1.6707 -3.0773 6.2328 27.5892 -6.5274 -7.8116
# 5 -17.5842 -1.7961 -10.0920 -6.5274 27.6828 -3.1951
# 6 -4.1175 2.7534 -3.4380 -7.8116 -3.1951 42.4446
#
#
#
# Elastic Compliance Matrix: (Units=1/GPa)
#
#
# Indices 1 2 3 4 5 6 
#
# 1 0.014690 -0.003611 -0.007794 0.002744 0.007141 0.002071
# 2 -0.003611 0.008457 -0.001217 0.000630 -0.002161 -0.001044
# 3 -0.007794 -0.001217 0.024622 -0.004298 0.003020 0.000753
# 4 0.002744 0.000630 -0.004298 0.042155 0.011135 0.008474
# 5 0.007141 -0.002161 0.003020 0.011135 0.044998 0.006514
# 6 0.002071 -0.001044 0.000753 0.008474 0.006514 0.025940
#
#
# Mechanical properties :
#
#
# Convention : Reuss Voigt Hill
#
# Bulk Modulus (GPa) = 44.39604 58.31985 51.35795
# Shear Modulus (GPa) = 25.82455 32.83245 29.32850
#
# Velocity S-wave (km/s) = 3.53958 3.99105 3.77207
# Velocity P-wave (km/s) = 6.18411 7.03786 6.62475
#
# Compressibility (1/GPa) = 0.02252453
#
# Stress axis : x y z
#
# Youngs Moduli (GPa) = 68.07328 118.24414 40.61402
#
# Poissons Ratio (x) = 0.42701 0.31657
# Poissons Ratio (y) = 0.24583 0.04941
# Poissons Ratio (z) = 0.53060 0.14385
#
# Static dielectric constant tensor:
#      x y z
#    x 1.849480 -0.117520 -0.045890 
#    y -0.117520 1.848580 0.023520 
#    z -0.045890 0.023520 1.763040 
# 
# From -- ./inp_files/95462.got.cif
#   From: 2010.05.17/outbox.cif.g08.bks.cpg/sg2_48_cif.got.tgz:95462.got - 2010.06.03 11:33:40.
