data_PCOD9024242
_publ_section_title
;
Structure prediction by ZEFSAII (Michael W. Deem and Ramdas Pophale) SiO2 
 PCOD9024242
Probable space group: P -1
;
_chemical_formula_sum "Si O2"
_cell_formula_units_Z 14
_cell_length_a 11.146591
_cell_length_b 10.931357
_cell_length_c 5.287649
_cell_angle_alpha 102.378593
_cell_angle_beta 71.290139
_cell_angle_gamma 111.533737
_cell_volume 564.220754
_symmetry_space_group_name_H-M "P -1"
_symmetry_group_IT_number 2
_symmetry_cell_setting 'triclinic'
loop_
_space_group_symop_operation_xyz
x,y,z
-x,-y,-z
loop_
_atom_site_type_symbol
_atom_site_label
_atom_site_fract_x
_atom_site_fract_y
_atom_site_fract_z
Si Si1 0.797385 0.119788 0.555175
Si Si2 0.176571 0.431327 0.282974
Si Si3 0.096931 0.182570 0.513864
Si Si4 0.814899 0.928386 0.086473
Si Si5 0.081282 0.612681 0.805141
Si Si6 0.418350 0.103541 0.105895
Si Si7 0.678739 0.314987 0.968057
O O1 0.713470 0.220925 0.687064
O O2 0.941728 0.177488 0.619969
O O3 0.829324 0.076343 0.236223
O O4 0.701424 0.979695 0.667633
O O5 0.197641 0.325355 0.417423
O O6 0.129542 0.536556 0.518251
O O7 0.287784 0.532081 0.075245
O O8 0.041776 0.343235 0.190059
O O9 0.142130 0.143924 0.737462
O O10 0.105834 0.088421 0.227568
O O11 0.659731 0.875232 0.081686
O O12 0.214198 0.691491 0.896130
O O13 0.000000 0.500000 0.000000
O O14 0.530521 0.243562 0.140930
O O15 0.500000 0.000000 0.000000
#
# Coordination Sequence:
#
# PCOD9024242 Si02
#       7
#     2   2   2   2   2   2   2
#     4  11  24  44  72 108 138 186 234 298 351 408
#     4  10  22  40  64 107 135 186 228 295 353 411
#     4  12  27  43  76 103 148 182 233 293 352 430
#     4  12  27  48  70 107 141 191 235 286 357 420
#     4   9  18  36  64  97 137 171 236 283 346 399
#     4  10  25  46  70 101 140 187 240 289 346 416
#     4  10  23  42  72 105 138 184 237 294 348 415
#
# _framework density 24.812982999999999
#
# number of rings (size 3 to 8) (size 9 to 14) (size 15 to 20)
#    0.000    1.429    1.429    3.429    8.000    6.857 
#    0.000    1.429    0.000    0.000    0.000    0.000 
#    0.000    0.000    0.000    0.000    0.000    0.000 
#
# Total GULP energy -78045.928897 kJ/mol
# GULP energy per Si atom -5574.709207 kJ/mol
# Density = 2.475651 g / cm^3
# Si number density = 24.812983 Si / 1000 Ang^3
#
#
#
# Elastic Constant Matrix: (Units=GPa)
#
#
# Indices 1 2 3 4 5 6 
#
# 1 103.0082 36.7500 26.4892 -15.0427 13.5764 29.4171
# 2 36.7500 175.0332 29.9699 -41.4619 17.9423 28.4601
# 3 26.4892 29.9699 87.8056 -15.1946 8.1879 5.5456
# 4 -15.0427 -41.4619 -15.1946 44.1522 -11.5585 4.4833
# 5 13.5764 17.9423 8.1879 -11.5585 35.0196 9.7722
# 6 29.4171 28.4601 5.5456 4.4833 9.7722 39.2329
#
#
#
# Elastic Compliance Matrix: (Units=1/GPa)
#
#
# Indices 1 2 3 4 5 6 
#
# 1 0.014305 0.000705 -0.002835 0.005675 -0.000179 -0.011440
# 2 0.000705 0.009362 -0.001277 0.009649 0.000767 -0.008433
# 3 -0.002835 -0.001277 0.013029 0.001931 -0.001002 0.001239
# 4 0.005675 0.009649 0.001931 0.038926 0.010436 -0.018575
# 5 -0.000179 0.000767 -0.001002 0.010436 0.034736 -0.010126
# 6 -0.011440 -0.008433 0.001239 -0.018575 -0.010126 0.044654
#
#
# Mechanical properties :
#
#
# Convention : Reuss Voigt Hill
#
# Bulk Modulus (GPa) = 33.46528 61.36279 47.41403
# Shear Modulus (GPa) = 29.10561 41.85680 35.48120
#
# Velocity S-wave (km/s) = 3.42862 4.11163 3.78556
# Velocity P-wave (km/s) = 5.40280 6.87928 6.18525
#
# Compressibility (1/GPa) = 0.02988172
#
# Stress axis : x y z
#
# Youngs Moduli (GPa) = 69.90572 106.81154 76.75087
#
# Poissons Ratio (x) = -0.07527 0.21758
# Poissons Ratio (y) = -0.04926 0.09803
# Poissons Ratio (z) = 0.19817 0.13642
#
# Static dielectric constant tensor:
#      x y z
#    x 1.984150 0.031400 0.003410 
#    y 0.031400 3.005630 -0.481370 
#    z 0.003410 -0.481370 2.299640 
# 
# From -- ./inp_files/67264.got.cif
#   From: 2010.05.17/outbox.cif.g08.bks.cpg/sg2_34_cif.got.tgz:67264.got - 2010.06.03 11:33:40.
