data_PCOD9024617
_publ_section_title
;
Structure prediction by ZEFSAII (Michael W. Deem and Ramdas Pophale) SiO2 
 PCOD9024617
Probable space group: P -1
;
_chemical_formula_sum "Si O2"
_cell_formula_units_Z 16
_cell_length_a 20.700168
_cell_length_b 8.174870
_cell_length_c 7.761442
_cell_angle_alpha 86.936646
_cell_angle_beta 121.710152
_cell_angle_gamma 46.650066
_cell_volume 603.427699
_symmetry_space_group_name_H-M "P -1"
_symmetry_group_IT_number 2
_symmetry_cell_setting 'triclinic'
loop_
_space_group_symop_operation_xyz
x,y,z
-x,-y,-z
loop_
_atom_site_type_symbol
_atom_site_label
_atom_site_fract_x
_atom_site_fract_y
_atom_site_fract_z
Si Si1 0.687276 0.157106 0.430861
Si Si2 0.771416 0.992344 0.171740
Si Si3 0.457361 0.383930 0.291020
Si Si4 0.718305 0.581800 0.091250
Si Si5 0.197646 0.564690 0.179234
Si Si6 0.455673 0.253944 0.681873
Si Si7 0.952523 0.364351 0.501887
Si Si8 0.043227 0.191279 0.006024
O O1 0.598154 0.186302 0.408992
O O2 0.605213 0.477572 0.325364
O O3 0.700590 0.099464 0.251325
O O4 0.841972 0.904900 0.738330
O O5 0.850488 0.681597 0.253305
O O6 0.896176 0.902211 0.360269
O O7 0.650851 0.267567 0.856101
O O8 0.366488 0.433593 0.032762
O O9 0.476010 0.263929 0.507316
O O10 0.756349 0.538866 0.946349
O O11 0.601753 0.921300 0.972864
O O12 0.866912 0.350595 0.401699
O O13 0.335904 0.330904 0.504428
O O14 0.086668 0.629606 0.071439
O O15 0.123175 0.877639 0.079144
O O16 0.984828 0.369552 0.737817
#
# Coordination Sequence:
#
# PCOD9024617 Si02
#       8
#     2   2   2   2   2   2   2   2
#     4  11  23  42  66  91 127 165 208 255 308 372
#     4  11  25  43  62  92 127 166 208 257 312 367
#     4  11  23  41  67  94 126 165 206 253 313 373
#     4  11  23  40  66  95 127 164 204 258 311 369
#     4   9  19  38  64  96 126 157 209 258 312 369
#     4  10  22  41  66  93 124 163 207 258 310 371
#     4  11  25  43  63  92 129 164 211 257 307 370
#     4  10  22  40  65  95 125 166 207 257 311 366
#
# _framework density 26.515191999999999
#
# number of rings (size 3 to 8) (size 9 to 14) (size 15 to 20)
#    0.000    1.500    0.000    6.000    0.000    9.500 
#    0.000    1.875    0.000    0.000    0.000    0.000 
#    0.000    0.000    0.000    0.000    0.000    0.000 
#
# Total GULP energy -89750.319153 kJ/mol
# GULP energy per Si atom -5609.394947 kJ/mol
# Density = 2.645484 g / cm^3
# Si number density = 26.515192 Si / 1000 Ang^3
#
#
#
# Elastic Constant Matrix: (Units=GPa)
#
#
# Indices 1 2 3 4 5 6 
#
# 1 149.4277 36.3142 51.2607 -0.6581 46.9187 -15.7052
# 2 36.3142 81.5718 11.4771 -0.1101 16.7978 -6.1712
# 3 51.2607 11.4771 99.3095 -4.5430 38.7585 0.0371
# 4 -0.6581 -0.1101 -4.5430 33.2198 2.0446 7.2300
# 5 46.9187 16.7978 38.7585 2.0446 59.9345 -0.8806
# 6 -15.7052 -6.1712 0.0371 7.2300 -0.8806 35.7351
#
#
#
# Elastic Compliance Matrix: (Units=1/GPa)
#
#
# Indices 1 2 3 4 5 6 
#
# 1 0.010565 -0.002844 -0.003050 -0.000794 -0.005413 0.004183
# 2 -0.002844 0.013947 0.000675 -0.000031 -0.002101 0.001112
# 3 -0.003050 0.000675 0.014562 0.002818 -0.007343 -0.001990
# 4 -0.000794 -0.000031 0.002818 0.032124 -0.002390 -0.006916
# 5 -0.005413 -0.002101 -0.007343 -0.002390 0.026318 -0.001602
# 6 0.004183 0.001112 -0.001990 -0.006916 -0.001602 0.031376
#
#
# Mechanical properties :
#
#
# Convention : Reuss Voigt Hill
#
# Bulk Modulus (GPa) = 34.92348 58.71257 46.81802
# Shear Modulus (GPa) = 33.58469 41.19502 37.38985
#
# Velocity S-wave (km/s) = 3.56282 3.94590 3.75924
# Velocity P-wave (km/s) = 5.48859 6.55372 6.04466
#
# Compressibility (1/GPa) = 0.02863403
#
# Stress axis : x y z
#
# Youngs Moduli (GPa) = 94.64773 71.69852 68.67344
#
# Poissons Ratio (x) = 0.20394 0.20948
# Poissons Ratio (y) = 0.26922 -0.04632
# Poissons Ratio (z) = 0.28871 -0.04836
#
# Static dielectric constant tensor:
#      x y z
#    x 2.111110 0.081030 0.032790 
#    y 0.081030 2.070890 -0.020300 
#    z 0.032790 -0.020300 2.052000 
# 
# From -- ./inp_files/263449.got.cif
#   From: 2010.05.17/outbox.cif.g08.bks.cpg/sg2_132_cif.got.tgz:263449.got - 2010.06.03 11:33:40.
