data_PCOD9024758
_publ_section_title
;
Structure prediction by ZEFSAII (Michael W. Deem and Ramdas Pophale) SiO2 
 PCOD9024758
Probable space group: P -1
;
_chemical_formula_sum "Si O2"
_cell_formula_units_Z 14
_cell_length_a 8.871688
_cell_length_b 9.016068
_cell_length_c 7.779329
_cell_angle_alpha 78.819409
_cell_angle_beta 111.696737
_cell_angle_gamma 111.128558
_cell_volume 537.977158
_symmetry_space_group_name_H-M "P -1"
_symmetry_group_IT_number 2
_symmetry_cell_setting 'triclinic'
loop_
_space_group_symop_operation_xyz
x,y,z
-x,-y,-z
loop_
_atom_site_type_symbol
_atom_site_label
_atom_site_fract_x
_atom_site_fract_y
_atom_site_fract_z
Si Si1 0.931412 0.003822 0.165320
Si Si2 0.502377 0.103793 0.309120
Si Si3 0.742142 0.761930 0.635386
Si Si4 0.761771 0.424713 0.293629
Si Si5 0.114923 0.517894 0.275366
Si Si6 0.374231 0.300124 0.786941
Si Si7 0.685028 0.189138 0.935127
O O1 0.800509 0.832396 0.195572
O O2 0.096846 0.075779 0.339462
O O3 0.822318 0.125612 0.103064
O O4 0.000000 0.000000 0.000000
O O5 0.376103 0.204690 0.274613
O O6 0.680423 0.235605 0.317600
O O7 0.500000 0.000000 0.500000
O O8 0.434719 0.973454 0.165312
O O9 0.814920 0.618149 0.740517
O O10 0.636463 0.719262 0.422322
O O11 0.836580 0.475036 0.505071
O O12 0.636978 0.530251 0.200188
O O13 0.910095 0.471809 0.202547
O O14 0.207026 0.685443 0.188376
O O15 0.546162 0.268183 0.929468
#
# Coordination Sequence:
#
# PCOD9024758 Si02
#       7
#     2   2   2   2   2   2   2
#     4  12  26  44  66 101 143 179 217 284 344 400
#     4  12  22  39  70 104 135 175 226 281 331 400
#     4  11  24  42  72  98 134 175 237 269 336 393
#     4  10  22  40  66 103 136 173 229 283 331 387
#     4  10  22  41  67 100 137 178 223 283 333 398
#     4  11  24  44  71  99 132 182 232 275 327 407
#     4  12  24  43  69  98 142 177 224 275 345 397
#
# _framework density 26.023409999999998
#
# number of rings (size 3 to 8) (size 9 to 14) (size 15 to 20)
#    0.000    0.857    4.286    2.571    2.000    4.000 
#    0.000    0.714    0.000    0.000    0.000    0.000 
#    0.000    0.000    0.000    0.000    0.000    0.000 
#
# Total GULP energy -78521.570688 kJ/mol
# GULP energy per Si atom -5608.683621 kJ/mol
# Density = 2.596418 g / cm^3
# Si number density = 26.023410 Si / 1000 Ang^3
#
#
#
# Elastic Constant Matrix: (Units=GPa)
#
#
# Indices 1 2 3 4 5 6 
#
# 1 149.9732 75.0074 9.8173 -10.3227 -5.8148 -17.2423
# 2 75.0074 152.2257 11.6800 -24.4231 -11.0881 -10.5191
# 3 9.8173 11.6800 57.8158 2.4655 8.7131 -16.1113
# 4 -10.3227 -24.4231 2.4655 38.6755 4.0466 -11.3926
# 5 -5.8148 -11.0881 8.7131 4.0466 33.3481 4.7011
# 6 -17.2423 -10.5191 -16.1113 -11.3926 4.7011 52.3402
#
#
#
# Elastic Compliance Matrix: (Units=1/GPa)
#
#
# Indices 1 2 3 4 5 6 
#
# 1 0.009081 -0.004265 -0.000050 0.000408 -0.000185 0.002224
# 2 -0.004265 0.009864 -0.001519 0.005277 0.002142 0.001066
# 3 -0.000050 -0.001519 0.020493 0.000410 -0.006861 0.006692
# 4 0.000408 0.005277 0.000410 0.032169 -0.003401 0.008629
# 5 -0.000185 0.002142 -0.006861 -0.003401 0.033648 -0.005505
# 6 0.002224 0.001066 0.006692 0.008629 -0.005505 0.024485
#
#
# Mechanical properties :
#
#
# Convention : Reuss Voigt Hill
#
# Bulk Modulus (GPa) = 36.01141 61.44712 48.72926
# Shear Modulus (GPa) = 33.18621 42.44008 37.81315
#
# Velocity S-wave (km/s) = 3.57493 4.04275 3.81602
# Velocity P-wave (km/s) = 5.55952 6.74205 6.17914
#
# Compressibility (1/GPa) = 0.02776898
#
# Stress axis : x y z
#
# Youngs Moduli (GPa) = 110.12199 101.38299 48.79695
#
# Poissons Ratio (x) = 0.43239 0.00244
# Poissons Ratio (y) = 0.46966 0.07414
# Poissons Ratio (z) = 0.00552 0.15403
#
# Static dielectric constant tensor:
#      x y z
#    x 2.038550 0.004580 -0.019910 
#    y 0.004580 1.992280 0.045430 
#    z -0.019910 0.045430 2.066290 
# 
# From -- ./inp_files/157710.got.cif
#   From: 2010.05.17/outbox.cif.g08.bks.cpg/sg2_79_cif.got.tgz:157710.got - 2010.06.03 11:33:40.
