data_PCOD9024806
_publ_section_title
;
Structure prediction by ZEFSAII (Michael W. Deem and Ramdas Pophale) SiO2 
 PCOD9024806
Probable space group: P -1
;
_chemical_formula_sum "Si O2"
_cell_formula_units_Z 16
_cell_length_a 8.984367
_cell_length_b 13.962618
_cell_length_c 10.921086
_cell_angle_alpha 63.009710
_cell_angle_beta 65.498325
_cell_angle_gamma 114.995511
_cell_volume 730.648046
_symmetry_space_group_name_H-M "P -1"
_symmetry_group_IT_number 2
_symmetry_cell_setting 'triclinic'
loop_
_space_group_symop_operation_xyz
x,y,z
-x,-y,-z
loop_
_atom_site_type_symbol
_atom_site_label
_atom_site_fract_x
_atom_site_fract_y
_atom_site_fract_z
Si Si1 0.007572 0.221825 0.527025
Si Si2 0.220961 0.083864 0.780137
Si Si3 0.271474 0.308639 0.158446
Si Si4 0.613788 0.874636 0.802480
Si Si5 0.252788 0.953634 0.602929
Si Si6 0.743409 0.654050 0.398286
Si Si7 0.106821 0.671347 0.205456
Si Si8 0.256445 0.704214 0.414870
O O1 0.869803 0.256961 0.497658
O O2 0.167827 0.233807 0.372178
O O3 0.194915 0.364858 0.479443
O O4 0.782079 0.029894 0.748123
O O5 0.210866 0.002355 0.712480
O O6 0.272278 0.229804 0.632338
O O7 0.457539 0.162166 0.730074
O O8 0.000000 0.000000 0.000000
O O9 0.349635 0.233093 0.120356
O O10 0.500000 0.500000 0.000000
O O11 0.026814 0.233425 0.215965
O O12 0.695348 0.948726 0.593921
O O13 0.326327 0.760975 0.984381
O O14 0.500000 0.000000 0.500000
O O15 0.500000 0.500000 0.500000
O O16 0.981590 0.726501 0.201466
O O17 0.222763 0.711542 0.277964
O O18 0.887474 0.474464 0.391754
#
# Coordination Sequence:
#
# PCOD9024806 Si02
#       8
#     2   2   2   2   2   2   2   2
#     4  10  22  40  66  91 131 172 226 274 329 399
#     4  12  26  40  69  99 136 174 223 280 347 395
#     4  11  23  43  70  95 129 180 232 278 337 413
#     4  11  23  43  71  94 131 180 234 275 339 410
#     4  11  26  48  69 103 141 177 231 293 343 406
#     4  11  23  41  61  95 136 174 218 278 336 397
#     4  10  23  41  65  95 131 181 221 274 332 407
#     4  10  22  42  63  96 136 170 221 276 333 404
#
# _framework density 21.898368999999999
#
# number of rings (size 3 to 8) (size 9 to 14) (size 15 to 20)
#    0.000    1.250    1.250    5.250    7.000    2.000 
#    0.000    1.250    0.000    0.000    0.000    0.000 
#    0.000    0.000    0.000    0.000    0.000    0.000 
#
# Total GULP energy -89186.111721 kJ/mol
# GULP energy per Si atom -5574.131983 kJ/mol
# Density = 2.184853 g / cm^3
# Si number density = 21.898369 Si / 1000 Ang^3
#
#
#
# Elastic Constant Matrix: (Units=GPa)
#
#
# Indices 1 2 3 4 5 6 
#
# 1 97.2763 47.0635 31.4620 -14.0191 -36.7376 -2.8219
# 2 47.0635 138.7321 63.2930 -13.1686 -27.5174 -0.4395
# 3 31.4620 63.2930 98.0987 -4.9074 -30.5411 17.2080
# 4 -14.0191 -13.1686 -4.9074 39.4616 1.1923 -8.8395
# 5 -36.7376 -27.5174 -30.5411 1.1923 39.7552 -2.3545
# 6 -2.8219 -0.4395 17.2080 -8.8395 -2.3545 38.8696
#
#
#
# Elastic Compliance Matrix: (Units=1/GPa)
#
#
# Indices 1 2 3 4 5 6 
#
# 1 0.018180 -0.002757 0.000386 0.005883 0.015212 0.003377
# 2 -0.002757 0.011724 -0.007123 0.002881 0.000232 0.003755
# 3 0.000386 -0.007123 0.019019 -0.002036 0.009604 -0.008354
# 4 0.005883 0.002881 -0.002036 0.029875 0.005474 0.008487
# 5 0.015212 0.000232 0.009604 0.005474 0.046640 0.000925
# 6 0.003377 0.003755 -0.008354 0.008487 0.000925 0.031699
#
#
# Mechanical properties :
#
#
# Convention : Reuss Voigt Hill
#
# Bulk Modulus (GPa) = 33.40496 68.63822 51.02159
# Shear Modulus (GPa) = 26.86682 36.43652 31.65167
#
# Velocity S-wave (km/s) = 3.50649 4.08351 3.80595
# Velocity P-wave (km/s) = 5.62865 7.32430 6.53173
#
# Compressibility (1/GPa) = 0.02993568
#
# Stress axis : x y z
#
# Youngs Moduli (GPa) = 55.00625 85.29276 52.57885
#
# Poissons Ratio (x) = 0.23516 -0.02030
# Poissons Ratio (y) = 0.15166 0.37450
# Poissons Ratio (z) = -0.02123 0.60752
#
# Static dielectric constant tensor:
#      x y z
#    x 1.934300 0.027890 0.070650 
#    y 0.027890 1.909290 0.039390 
#    z 0.070650 0.039390 1.925690 
# 
# From -- ./inp_files/398918.got.cif
#   From: 2010.05.17/outbox.cif.g08.bks.cpg/sg2_200_cif.got.tgz:398918.got - 2010.06.03 11:33:40.
