data_PCOD9024873
_publ_section_title
;
Structure prediction by ZEFSAII (Michael W. Deem and Ramdas Pophale) SiO2 
 PCOD9024873
Probable space group: P -1
;
_chemical_formula_sum "Si O2"
_cell_formula_units_Z 16
_cell_length_a 11.971567
_cell_length_b 11.783408
_cell_length_c 14.230603
_cell_angle_alpha 114.207834
_cell_angle_beta 148.586125
_cell_angle_gamma 87.720763
_cell_volume 723.184683
_symmetry_space_group_name_H-M "P -1"
_symmetry_group_IT_number 2
_symmetry_cell_setting 'triclinic'
loop_
_space_group_symop_operation_xyz
x,y,z
-x,-y,-z
loop_
_atom_site_type_symbol
_atom_site_label
_atom_site_fract_x
_atom_site_fract_y
_atom_site_fract_z
Si Si1 0.513585 0.925265 0.390174
Si Si2 0.405562 0.004097 0.153734
Si Si3 0.396713 0.520873 0.640493
Si Si4 0.752914 0.437058 0.873544
Si Si5 0.756859 0.492520 0.274809
Si Si6 0.682563 0.890358 0.195438
Si Si7 0.943904 0.389710 0.657735
Si Si8 0.141180 0.087840 0.871142
O O1 0.393850 0.745191 0.263967
O O2 0.500000 0.000000 0.500000
O O3 0.348261 0.931067 0.190636
O O4 0.832454 0.026795 0.616063
O O5 0.671253 0.199730 0.410669
O O6 0.501238 0.925694 0.130229
O O7 0.149967 0.988640 0.924916
O O8 0.531091 0.447973 0.670834
O O9 0.318461 0.454955 0.670076
O O10 0.153653 0.506296 0.406901
O O11 0.647361 0.717852 0.892733
O O12 0.886315 0.544445 0.101260
O O13 0.000000 0.500000 0.000000
O O14 0.882250 0.593500 0.302724
O O15 0.000000 0.500000 0.500000
O O16 0.494578 0.305008 0.994874
O O17 0.731008 0.933174 0.134760
O O18 0.000000 0.000000 0.500000
#
# Coordination Sequence:
#
# PCOD9024873 Si02
#       8
#     2   2   2   2   2   2   2   2
#     4  12  26  44  65  91 126 165 218 271 321 388
#     4  11  23  42  66  94 133 171 212 262 325 393
#     4   9  21  42  64  92 126 164 210 258 313 380
#     4  12  26  42  65  90 120 165 212 268 320 376
#     4   9  20  39  62  94 133 171 211 260 319 383
#     4  11  21  37  66  98 137 175 216 269 320 387
#     4  10  22  40  66  94 128 166 207 261 317 379
#     4  10  22  41  66  94 129 171 209 262 322 383
#
# _framework density 22.124362000000001
#
# number of rings (size 3 to 8) (size 9 to 14) (size 15 to 20)
#    0.000    1.500    1.250    4.125    1.750    5.500 
#    0.000    0.000    0.000    0.000    0.000    0.000 
#    0.000    0.000    0.000    0.000    0.000    0.000 
#
# Total GULP energy -89454.665040 kJ/mol
# GULP energy per Si atom -5590.916565 kJ/mol
# Density = 2.207401 g / cm^3
# Si number density = 22.124362 Si / 1000 Ang^3
#
#
#
# Elastic Constant Matrix: (Units=GPa)
#
#
# Indices 1 2 3 4 5 6 
#
# 1 76.2477 20.7802 -20.8494 -9.9570 4.3326 1.6011
# 2 20.7802 88.6087 1.5000 -24.8491 -9.5496 3.8220
# 3 -20.8494 1.5000 46.5653 -0.4107 2.7232 4.6173
# 4 -9.9570 -24.8491 -0.4107 28.3068 0.2978 -1.2551
# 5 4.3326 -9.5496 2.7232 0.2978 24.6341 -1.3680
# 6 1.6011 3.8220 4.6173 -1.2551 -1.3680 28.6359
#
#
#
# Elastic Compliance Matrix: (Units=1/GPa)
#
#
# Indices 1 2 3 4 5 6 
#
# 1 0.017187 -0.003943 0.008366 0.002679 -0.005616 -0.001935
# 2 -0.003943 0.016765 -0.002547 0.013187 0.007277 -0.000681
# 3 0.008366 -0.002547 0.026092 0.000942 -0.005608 -0.004562
# 4 0.002679 0.013187 0.000942 0.047827 0.003971 0.000224
# 5 -0.005616 0.007277 -0.005608 0.003971 0.045118 0.002576
# 6 -0.001935 -0.000681 -0.004562 0.000224 0.002576 0.035989
#
#
# Mechanical properties :
#
#
# Convention : Reuss Voigt Hill
#
# Bulk Modulus (GPa) = 15.67480 23.80924 19.74202
# Shear Modulus (GPa) = 24.21422 30.31475 27.26448
#
# Velocity S-wave (km/s) = 3.31185 3.70563 3.51426
# Velocity P-wave (km/s) = 4.66098 5.39387 5.04076
#
# Compressibility (1/GPa) = 0.06379667
#
# Stress axis : x y z
#
# Youngs Moduli (GPa) = 58.18352 59.64836 38.32619
#
# Poissons Ratio (x) = 0.23518 -0.32065
# Poissons Ratio (y) = 0.22940 0.09762
# Poissons Ratio (z) = -0.48678 0.15193
#
# Static dielectric constant tensor:
#      x y z
#    x 1.787380 0.004350 0.009250 
#    y 0.004350 1.798270 -0.017580 
#    z 0.009250 -0.017580 1.805420 
# 
# From -- ./inp_files/390212.got.cif
#   From: 2010.05.17/outbox.cif.g08.bks.cpg/sg2_196_cif.got.tgz:390212.got - 2010.06.03 11:33:40.
