data_PCOD9024429
_publ_section_title
;
Structure prediction by ZEFSAII (Michael W. Deem and Ramdas Pophale) SiO2 
 PCOD9024429
Probable space group: P -1
;
_chemical_formula_sum "Si O2"
_cell_formula_units_Z 15
_cell_length_a 15.277959
_cell_length_b 17.761693
_cell_length_c 8.594940
_cell_angle_alpha 46.471930
_cell_angle_beta 58.472225
_cell_angle_gamma 23.985439
_cell_volume 641.122167
_symmetry_space_group_name_H-M "P -1"
_symmetry_group_IT_number 2
_symmetry_cell_setting 'triclinic'
loop_
_space_group_symop_operation_xyz
x,y,z
-x,-y,-z
loop_
_atom_site_type_symbol
_atom_site_label
_atom_site_fract_x
_atom_site_fract_y
_atom_site_fract_z
Si Si1 0.321089 0.443518 0.800127
Si Si2 0.878768 0.203313 0.035892
Si Si3 0.608600 0.295585 0.345383
Si Si4 0.991616 0.768730 0.361284
Si Si5 0.046377 0.571806 0.297039
Si Si6 0.501980 0.124150 0.321486
Si Si7 0.500000 0.500000 0.500000
Si Si8 0.883998 0.874501 0.812717
O O1 0.198797 0.555517 0.587605
O O2 0.489552 0.389110 0.722531
O O3 0.101124 0.669171 0.790051
O O4 0.441099 0.231924 0.057025
O O5 0.623723 0.482792 0.853493
O O6 0.990822 0.129247 0.868393
O O7 0.819994 0.146457 0.252003
O O8 0.032146 0.122900 0.134385
O O9 0.573213 0.394119 0.397546
O O10 0.669610 0.122985 0.578912
O O11 0.028713 0.662772 0.329247
O O12 0.743533 0.956916 0.386154
O O13 0.295776 0.347350 0.305877
O O14 0.000000 0.500000 0.500000
O O15 0.862918 0.781420 0.043517
O O16 0.500000 0.000000 0.500000
#
# Coordination Sequence:
#
# PCOD9024429 Si02
#       8
#     2   2   2   2   2   2   1   2
#     4  11  26  44  66 103 140 177 238 286 334 428
#     4  10  22  40  64  96 131 177 228 276 328 420
#     4  11  23  42  67  95 139 184 229 282 344 404
#     4  11  24  44  71 101 137 184 226 288 350 409
#     4  10  22  45  73 101 134 177 234 290 346 418
#     4  11  25  48  74 100 140 185 228 290 357 408
#     4  12  24  42  66 102 140 182 228 288 342 408
#     4  10  23  42  66  90 135 180 219 284 348 400
#
# _framework density 23.396477000000001
#
# number of rings (size 3 to 8) (size 9 to 14) (size 15 to 20)
#    0.000    1.333    4.000    0.400    3.733    3.733 
#    0.000    2.667    0.000    0.000    0.000    0.000 
#    0.000    0.000    0.000    0.000    0.000    0.000 
#
# Total GULP energy -83523.023415 kJ/mol
# GULP energy per Si atom -5568.201561 kJ/mol
# Density = 2.334323 g / cm^3
# Si number density = 23.396477 Si / 1000 Ang^3
#
#
#
# Elastic Constant Matrix: (Units=GPa)
#
#
# Indices 1 2 3 4 5 6 
#
# 1 40.2741 22.8012 40.9668 3.7840 -14.0404 -0.7961
# 2 22.8012 95.0243 34.4360 9.1524 -14.7421 -0.1596
# 3 40.9668 34.4360 177.0276 5.1872 -23.8562 -5.4218
# 4 3.7840 9.1524 5.1872 42.6775 -8.4933 -2.8982
# 5 -14.0404 -14.7421 -23.8562 -8.4933 29.8173 9.0884
# 6 -0.7961 -0.1596 -5.4218 -2.8982 9.0884 32.9642
#
#
#
# Elastic Compliance Matrix: (Units=1/GPa)
#
#
# Indices 1 2 3 4 5 6 
#
# 1 0.038105 -0.005107 -0.006398 0.000551 0.011452 -0.003266
# 2 -0.005107 0.012694 -0.000861 -0.001633 0.003083 -0.001197
# 3 -0.006398 -0.000861 0.007659 0.000381 0.002677 0.000396
# 4 0.000551 -0.001633 0.000381 0.025062 0.006772 0.000404
# 5 0.011452 0.003083 0.002677 0.006772 0.048168 -0.011953
# 6 -0.003266 -0.001197 0.000396 0.000404 -0.011953 0.033648
#
#
# Mechanical properties :
#
#
# Convention : Reuss Voigt Hill
#
# Bulk Modulus (GPa) = 29.64985 56.52600 43.08793
# Shear Modulus (GPa) = 24.83756 35.36661 30.10209
#
# Velocity S-wave (km/s) = 3.26175 3.89218 3.59082
# Velocity P-wave (km/s) = 5.18513 6.66417 5.97063
#
# Compressibility (1/GPa) = 0.03372698
#
# Stress axis : x y z
#
# Youngs Moduli (GPa) = 26.24358 78.77431 130.57353
#
# Poissons Ratio (x) = 0.40228 0.83535
# Poissons Ratio (y) = 0.13402 0.11242
# Poissons Ratio (z) = 0.16789 0.06782
#
# Static dielectric constant tensor:
#      x y z
#    x 1.900310 -0.003990 -0.041300 
#    y -0.003990 1.938240 0.075830 
#    z -0.041300 0.075830 1.970840 
# 
# From -- ./inp_files/337452.got.cif
#   From: 2010.05.17/outbox.cif.g08.bks.cpg/sg2_169_cif.got.tgz:337452.got - 2010.06.03 11:33:40.
