data_PCOD9024139
_publ_section_title
;
Structure prediction by ZEFSAII (Michael W. Deem and Ramdas Pophale) SiO2 
 PCOD9024139
Probable space group: P -1
;
_chemical_formula_sum "Si O2"
_cell_formula_units_Z 16
_cell_length_a 16.252304
_cell_length_b 9.690219
_cell_length_c 6.868274
_cell_angle_alpha 49.034383
_cell_angle_beta 74.715325
_cell_angle_gamma 58.642641
_cell_volume 692.413406
_symmetry_space_group_name_H-M "P -1"
_symmetry_group_IT_number 2
_symmetry_cell_setting 'triclinic'
loop_
_space_group_symop_operation_xyz
x,y,z
-x,-y,-z
loop_
_atom_site_type_symbol
_atom_site_label
_atom_site_fract_x
_atom_site_fract_y
_atom_site_fract_z
Si Si1 0.273565 0.427862 0.863493
Si Si2 0.734767 0.914773 0.227665
Si Si3 0.595970 0.570495 0.548074
Si Si4 0.750444 0.157921 0.324498
Si Si5 0.098168 0.402322 0.824121
Si Si6 0.600877 0.801241 0.670728
Si Si7 0.961969 0.835541 0.629226
Si Si8 0.397659 0.828103 0.267505
O O1 0.309111 0.461535 0.599243
O O2 0.245542 0.632283 0.821795
O O3 0.181640 0.392232 0.928745
O O4 0.366086 0.249504 0.082064
O O5 0.840543 0.736791 0.265721
O O6 0.685011 0.829497 0.487828
O O7 0.736038 0.107970 0.158156
O O8 0.667163 0.988423 0.009395
O O9 0.598221 0.610983 0.736591
O O10 0.503049 0.773782 0.330507
O O11 0.582355 0.374269 0.686126
O O12 0.666487 0.163501 0.512914
O O13 0.852824 0.968343 0.500008
O O14 0.028806 0.648451 0.614049
O O15 0.042530 0.290110 0.061358
O O16 0.500000 0.000000 0.500000
O O17 0.000000 0.000000 0.500000
#
# Coordination Sequence:
#
# PCOD9024139 Si02
#       8
#     2   2   2   2   2   2   2   2
#     4  11  23  44  65  96 136 183 223 272 338 398
#     4  12  24  40  66 100 132 175 220 277 334 404
#     4  10  22  40  63  94 129 182 224 277 322 408
#     4  11  23  43  71  94 135 176 222 284 339 400
#     4  11  24  43  73 100 135 175 225 284 338 409
#     4  12  25  36  62  98 139 176 228 272 325 394
#     4  11  23  46  74 100 130 175 227 280 352 400
#     4  10  22  41  66  91 133 176 227 271 341 388
#
# _framework density 23.107581
#
# number of rings (size 3 to 8) (size 9 to 14) (size 15 to 20)
#    0.000    1.000    3.750    3.000    1.750    1.500 
#    2.250    5.625    0.000    0.000    0.000    0.000 
#    0.000    0.000    0.000    0.000    0.000    0.000 
#
# Total GULP energy -89493.616308 kJ/mol
# GULP energy per Si atom -5593.351019 kJ/mol
# Density = 2.305499 g / cm^3
# Si number density = 23.107581 Si / 1000 Ang^3
#
#
#
# Elastic Constant Matrix: (Units=GPa)
#
#
# Indices 1 2 3 4 5 6 
#
# 1 75.8614 34.8637 4.3713 4.1445 -5.6352 -0.3765
# 2 34.8637 150.8921 7.5030 -0.2955 7.4215 3.5488
# 3 4.3713 7.5030 32.0983 0.2140 4.6425 2.4608
# 4 4.1445 -0.2955 0.2140 39.7455 -1.0827 6.8908
# 5 -5.6352 7.4215 4.6425 -1.0827 30.7675 -7.6579
# 6 -0.3765 3.5488 2.4608 6.8908 -7.6579 45.6964
#
#
#
# Elastic Compliance Matrix: (Units=1/GPa)
#
#
# Indices 1 2 3 4 5 6 
#
# 1 0.015431 -0.003720 -0.001963 -0.001771 0.004335 0.001515
# 2 -0.003720 0.007686 -0.000822 0.000570 -0.002669 -0.001117
# 3 -0.001963 -0.000822 0.032653 0.000339 -0.005755 -0.002726
# 4 -0.001771 0.000570 0.000339 0.026042 -0.000619 -0.004108
# 5 0.004335 -0.002669 -0.005755 -0.000619 0.036468 0.006758
# 6 0.001515 -0.001117 -0.002726 -0.004108 0.006758 0.023882
#
#
# Mechanical properties :
#
#
# Convention : Reuss Voigt Hill
#
# Bulk Modulus (GPa) = 23.38672 39.14754 31.26713
# Shear Modulus (GPa) = 29.51138 37.38279 33.44709
#
# Velocity S-wave (km/s) = 3.57757 4.02652 3.80867
# Velocity P-wave (km/s) = 5.21614 6.21251 5.73600
#
# Compressibility (1/GPa) = 0.04275930
#
# Stress axis : x y z
#
# Youngs Moduli (GPa) = 64.80496 130.10148 30.62515
#
# Poissons Ratio (x) = 0.48398 0.06012
# Poissons Ratio (y) = 0.24107 0.02518
# Poissons Ratio (z) = 0.12722 0.10697
#
# Static dielectric constant tensor:
#      x y z
#    x 1.852870 0.033660 0.016860 
#    y 0.033660 1.932160 -0.027000 
#    z 0.016860 -0.027000 1.862010 
# 
# From -- ./inp_files/106274.got.cif
#   From: 2010.05.17/outbox.cif.g08.bks.cpg/sg2_54_cif.got.tgz:106274.got - 2010.06.03 11:33:40.
