data_PCOD9024931
_publ_section_title
;
Structure prediction by ZEFSAII (Michael W. Deem and Ramdas Pophale) SiO2 
 PCOD9024931
Probable space group: P -1
;
_chemical_formula_sum "Si O2"
_cell_formula_units_Z 14
_cell_length_a 9.931946
_cell_length_b 7.905866
_cell_length_c 8.621109
_cell_angle_alpha 99.583039
_cell_angle_beta 90.884208
_cell_angle_gamma 117.532183
_cell_volume 588.583234
_symmetry_space_group_name_H-M "P -1"
_symmetry_group_IT_number 2
_symmetry_cell_setting 'triclinic'
loop_
_space_group_symop_operation_xyz
x,y,z
-x,-y,-z
loop_
_atom_site_type_symbol
_atom_site_label
_atom_site_fract_x
_atom_site_fract_y
_atom_site_fract_z
Si Si1 0.674187 0.830974 0.652474
Si Si2 0.125032 0.720866 0.734712
Si Si3 0.678087 0.654985 0.061745
Si Si4 0.330588 0.968266 0.023038
Si Si5 0.210131 0.453849 0.242853
Si Si6 0.609193 0.223022 0.486604
Si Si7 0.147080 0.082474 0.628183
O O1 0.752617 0.703573 0.691663
O O2 0.491763 0.713814 0.616472
O O3 0.728064 0.898199 0.490829
O O4 0.707487 0.006802 0.797144
O O5 0.239082 0.722346 0.603999
O O6 0.951544 0.556742 0.720027
O O7 0.213558 0.771801 0.906595
O O8 0.104200 0.908619 0.720241
O O9 0.679210 0.851407 0.030593
O O10 0.767587 0.718486 0.238577
O O11 0.500000 0.500000 0.000000
O O12 0.775280 0.590619 0.941567
O O13 0.500000 0.000000 0.000000
O O14 0.342327 0.656410 0.336388
O O15 0.500000 0.000000 0.500000
O O16 0.000000 0.000000 0.500000
#
# Coordination Sequence:
#
# PCOD9024931 Si02
#       7
#     2   2   2   2   2   2   2
#     4  11  22  40  68  95 125 174 221 262 319 397
#     4  11  23  42  66  97 136 171 214 275 334 384
#     4  10  24  42  66  94 132 176 221 270 322 395
#     4  10  22  40  66  96 130 171 215 266 330 392
#     4  11  25  42  66  97 132 169 224 271 328 387
#     4  12  24  41  68  95 130 176 218 272 329 393
#     4  11  22  40  68  97 134 171 220 271 332 387
#
# _framework density 23.785931000000001
#
# number of rings (size 3 to 8) (size 9 to 14) (size 15 to 20)
#    0.000    1.143    4.286    1.714    4.000    2.857 
#    0.000    0.000    0.000    2.571    0.000    0.000 
#    0.000    0.000    0.000    0.000    0.000    0.000 
#
# Total GULP energy -78101.661145 kJ/mol
# GULP energy per Si atom -5578.690082 kJ/mol
# Density = 2.373179 g / cm^3
# Si number density = 23.785931 Si / 1000 Ang^3
#
#
#
# Elastic Constant Matrix: (Units=GPa)
#
#
# Indices 1 2 3 4 5 6 
#
# 1 148.5926 12.4859 51.2221 13.2442 4.9034 16.8894
# 2 12.4859 30.3568 28.2053 6.1276 -0.7113 6.9238
# 3 51.2221 28.2053 179.2187 35.4299 7.8741 16.5635
# 4 13.2442 6.1276 35.4299 25.7207 4.6742 4.3623
# 5 4.9034 -0.7113 7.8741 4.6742 41.4863 2.1112
# 6 16.8894 6.9238 16.5635 4.3623 2.1112 24.2319
#
#
#
# Elastic Compliance Matrix: (Units=1/GPa)
#
#
# Indices 1 2 3 4 5 6 
#
# 1 0.007883 -0.000679 -0.001561 -0.001005 -0.000329 -0.004024
# 2 -0.000679 0.040117 -0.005338 -0.001020 0.002270 -0.007355
# 3 -0.001561 -0.005338 0.009015 -0.009977 -0.000407 -0.001717
# 4 -0.001005 -0.001020 -0.009977 0.054396 -0.004051 -0.001628
# 5 -0.000329 0.002270 -0.000407 -0.004051 0.024796 -0.001573
# 6 -0.004024 -0.007355 -0.001717 -0.001628 -0.001573 0.047778
#
#
# Mechanical properties :
#
#
# Convention : Reuss Voigt Hill
#
# Bulk Modulus (GPa) = 23.88983 60.22163 42.05573
# Shear Modulus (GPa) = 23.46395 36.03810 29.75103
#
# Velocity S-wave (km/s) = 3.14421 3.89665 3.54048
# Velocity P-wave (km/s) = 4.82150 6.75414 5.86793
#
# Compressibility (1/GPa) = 0.04185881
#
# Stress axis : x y z
#
# Youngs Moduli (GPa) = 126.85935 24.92709 110.92542
#
# Poissons Ratio (x) = 0.01692 0.17318
# Poissons Ratio (y) = 0.08613 0.59211
# Poissons Ratio (z) = 0.19805 0.13306
#
# Static dielectric constant tensor:
#      x y z
#    x 2.068230 0.062310 0.048330 
#    y 0.062310 1.992130 0.007050 
#    z 0.048330 0.007050 1.967380 
# 
# From -- ./inp_files/157968.got.cif
#   From: 2010.05.17/outbox.cif.g08.bks.cpg/sg2_79_cif.got.tgz:157968.got - 2010.06.03 11:33:40.
