data_PCOD9024288
_publ_section_title
;
Structure prediction by ZEFSAII (Michael W. Deem and Ramdas Pophale) SiO2 
 PCOD9024288
Probable space group: P -1
;
_chemical_formula_sum "Si O2"
_cell_formula_units_Z 16
_cell_length_a 12.176598
_cell_length_b 6.658180
_cell_length_c 10.818025
_cell_angle_alpha 68.765769
_cell_angle_beta 71.097244
_cell_angle_gamma 63.653231
_cell_volume 718.471121
_symmetry_space_group_name_H-M "P -1"
_symmetry_group_IT_number 2
_symmetry_cell_setting 'triclinic'
loop_
_space_group_symop_operation_xyz
x,y,z
-x,-y,-z
loop_
_atom_site_type_symbol
_atom_site_label
_atom_site_fract_x
_atom_site_fract_y
_atom_site_fract_z
Si Si1 0.099274 0.214709 0.180963
Si Si2 0.279998 0.675840 0.537016
Si Si3 0.450345 0.739683 0.886433
Si Si4 0.104539 0.414413 0.649328
Si Si5 0.404489 0.447908 0.770713
Si Si6 0.778273 0.803918 0.097008
Si Si7 0.367129 0.985873 0.247736
Si Si8 0.958539 0.950780 0.388061
O O1 0.007109 0.403512 0.267040
O O2 0.240698 0.139071 0.192574
O O3 0.106466 0.259586 0.023860
O O4 0.059268 0.993451 0.255625
O O5 0.199913 0.533934 0.537399
O O6 0.388185 0.496508 0.619595
O O7 0.322680 0.848476 0.401190
O O8 0.175785 0.847020 0.628216
O O9 0.408040 0.669383 0.787943
O O10 0.328304 0.942481 0.940797
O O11 0.555617 0.847432 0.796016
O O12 0.500000 0.500000 0.000000
O O13 0.180197 0.230812 0.767872
O O14 0.058392 0.284441 0.589243
O O15 0.289037 0.377304 0.864613
O O16 0.529066 0.232017 0.808758
O O17 0.000000 0.000000 0.500000
#
# Coordination Sequence:
#
# PCOD9024288 Si02
#       8
#     2   2   2   2   2   2   2   2
#     4  11  23  39  63  93 131 171 212 265 315 376
#     4  10  22  42  63  92 126 167 215 264 319 377
#     4  11  23  39  64  94 126 173 208 262 326 372
#     4  10  24  41  68  92 127 175 208 265 328 371
#     4  10  22  40  64  90 129 169 211 266 319 372
#     4  10  22  43  64  95 132 163 220 263 311 390
#     4  11  23  40  60  95 129 166 216 264 308 387
#     4  11  23  43  61  94 129 163 217 266 311 382
#
# _framework density 22.269511999999999
#
# number of rings (size 3 to 8) (size 9 to 14) (size 15 to 20)
#    0.000    1.500    1.250    3.000    0.000    9.000 
#    0.000    0.000    0.000    0.000    0.000    0.000 
#    0.000    0.000    0.000    0.000    0.000    0.000 
#
# Total GULP energy -89234.276639 kJ/mol
# GULP energy per Si atom -5577.142290 kJ/mol
# Density = 2.221883 g / cm^3
# Si number density = 22.269512 Si / 1000 Ang^3
#
#
#
# Elastic Constant Matrix: (Units=GPa)
#
#
# Indices 1 2 3 4 5 6 
#
# 1 100.9249 62.7619 36.1469 -2.4234 -4.7212 17.7922
# 2 62.7619 115.6045 30.1599 -18.0574 -4.9766 26.0308
# 3 36.1469 30.1599 100.0137 -19.7054 -20.3466 18.7243
# 4 -2.4234 -18.0574 -19.7054 26.2490 -4.4024 3.8430
# 5 -4.7212 -4.9766 -20.3466 -4.4024 30.6511 -13.0814
# 6 17.7922 26.0308 18.7243 3.8430 -13.0814 45.6326
#
#
#
# Elastic Compliance Matrix: (Units=1/GPa)
#
#
# Indices 1 2 3 4 5 6 
#
# 1 0.018050 -0.010304 -0.006857 -0.011524 -0.004535 0.001324
# 2 -0.010304 0.017672 0.003392 0.015320 0.002281 -0.008092
# 3 -0.006857 0.003392 0.018490 0.018361 0.012332 -0.004859
# 4 -0.011524 0.015320 0.018361 0.066041 0.017074 -0.012447
# 5 -0.004535 0.002281 0.012332 0.017074 0.045988 0.007152
# 6 0.001324 -0.008092 -0.004859 -0.012447 0.007152 0.031106
#
#
# Mechanical properties :
#
#
# Convention : Reuss Voigt Hill
#
# Bulk Modulus (GPa) = 37.48957 63.85340 50.67149
# Shear Modulus (GPa) = 21.38800 33.00484 27.19642
#
# Velocity S-wave (km/s) = 3.10242 3.85393 3.49842
# Velocity P-wave (km/s) = 5.45017 6.96699 6.25473
#
# Compressibility (1/GPa) = 0.02667408
#
# Stress axis : x y z
#
# Youngs Moduli (GPa) = 55.40314 56.58599 54.08259
#
# Poissons Ratio (x) = 0.58304 0.37086
# Poissons Ratio (y) = 0.57085 -0.18345
# Poissons Ratio (z) = 0.37992 -0.19194
#
# Static dielectric constant tensor:
#      x y z
#    x 1.840970 -0.020130 0.024130 
#    y -0.020130 1.827530 -0.023340 
#    z 0.024130 -0.023340 1.885580 
# 
# From -- ./inp_files/410014.got.cif
#   From: 2010.05.17/outbox.cif.g08.bks.cpg/sg2_206_cif.got.tgz:410014.got - 2010.06.03 11:33:40.
