data_PCOD9024545
_publ_section_title
;
Structure prediction by ZEFSAII (Michael W. Deem and Ramdas Pophale) SiO2 
 PCOD9024545
Probable space group: P -1
;
_chemical_formula_sum "Si O2"
_cell_formula_units_Z 16
_cell_length_a 6.691939
_cell_length_b 8.154987
_cell_length_c 18.640592
_cell_angle_alpha 48.932582
_cell_angle_beta 107.823679
_cell_angle_gamma 122.140662
_cell_volume 647.912350
_symmetry_space_group_name_H-M "P -1"
_symmetry_group_IT_number 2
_symmetry_cell_setting 'triclinic'
loop_
_space_group_symop_operation_xyz
x,y,z
-x,-y,-z
loop_
_atom_site_type_symbol
_atom_site_label
_atom_site_fract_x
_atom_site_fract_y
_atom_site_fract_z
Si Si1 0.428735 0.716383 0.921057
Si Si2 0.914985 0.612476 0.620669
Si Si3 0.050973 0.965157 0.119669
Si Si4 0.091029 0.553213 0.801615
Si Si5 0.406168 0.472829 0.577844
Si Si6 0.258981 0.879541 0.463754
Si Si7 0.759856 0.228430 0.971003
Si Si8 0.049327 0.865885 0.303164
O O1 0.307794 0.702261 0.835464
O O2 0.255404 0.681766 0.977157
O O3 0.676364 0.959924 0.887640
O O4 0.500000 0.500000 0.000000
O O5 0.651356 0.570745 0.619542
O O6 0.909049 0.358352 0.662744
O O7 0.059849 0.684647 0.689989
O O8 0.044791 0.810059 0.515639
O O9 0.053649 0.014368 0.190747
O O10 0.892544 0.682397 0.162709
O O11 0.950596 0.125187 0.022474
O O12 0.857075 0.435536 0.860743
O O13 0.500000 0.500000 0.500000
O O14 0.263172 0.628179 0.516439
O O15 0.208653 0.227348 0.662072
O O16 0.229444 0.986362 0.354280
O O17 0.500000 0.000000 0.500000
O O18 0.500000 0.000000 0.000000
#
# Coordination Sequence:
#
# PCOD9024545 Si02
#       8
#     2   2   2   2   2   2   2   2
#     4  12  25  45  68  90 132 172 212 267 318 376
#     4  10  22  42  64  93 122 165 213 250 313 378
#     4  11  25  44  65  98 130 170 214 261 322 378
#     4  11  24  44  67  96 130 167 212 269 317 377
#     4  11  19  41  68  83 119 172 210 247 308 377
#     4  11  23  40  60  94 130 160 202 264 312 363
#     4  12  24  44  68  96 129 170 215 260 321 385
#     4  10  22  40  65  91 125 164 209 256 309 375
#
# _framework density 24.694699
#
# number of rings (size 3 to 8) (size 9 to 14) (size 15 to 20)
#    0.000    1.000    5.000    2.250    3.500    0.500 
#    4.500    0.000    0.000    0.000    0.000    0.000 
#    0.000    0.000    0.000    0.000    0.000    0.000 
#
# Total GULP energy -89447.353563 kJ/mol
# GULP energy per Si atom -5590.459598 kJ/mol
# Density = 2.463849 g / cm^3
# Si number density = 24.694699 Si / 1000 Ang^3
#
#
#
# Elastic Constant Matrix: (Units=GPa)
#
#
# Indices 1 2 3 4 5 6 
#
# 1 108.5771 27.0194 16.4533 15.3960 -12.7311 11.4212
# 2 27.0194 71.1457 10.6957 34.0104 7.2639 16.5638
# 3 16.4533 10.6957 120.6335 45.3366 -10.9633 -0.3184
# 4 15.3960 34.0104 45.3366 43.2782 4.3291 4.1698
# 5 -12.7311 7.2639 -10.9633 4.3291 36.3388 4.0368
# 6 11.4212 16.5638 -0.3184 4.1698 4.0368 46.5146
#
#
#
# Elastic Compliance Matrix: (Units=1/GPa)
#
#
# Indices 1 2 3 4 5 6 
#
# 1 0.011092 -0.003902 -0.000472 -0.000702 0.004795 -0.001691
# 2 -0.003902 0.031858 0.010468 -0.033939 0.000277 -0.007297
# 3 -0.000472 0.010468 0.018599 -0.028079 0.006872 -0.001564
# 4 -0.000702 -0.033939 -0.028079 0.080083 -0.012134 0.005940
# 5 0.004795 0.000277 0.006872 -0.012134 0.032996 -0.003005
# 6 -0.001691 -0.007297 -0.001564 0.005940 -0.003005 0.024230
#
#
# Mechanical properties :
#
#
# Convention : Reuss Voigt Hill
#
# Bulk Modulus (GPa) = 13.56128 45.41036 29.48582
# Shear Modulus (GPa) = 23.66881 41.63885 32.65383
#
# Velocity S-wave (km/s) = 3.09925 4.11072 3.64029
# Velocity P-wave (km/s) = 4.27910 6.39995 5.44381
#
# Compressibility (1/GPa) = 0.07373935
#
# Stress axis : x y z
#
# Youngs Moduli (GPa) = 90.15364 31.38893 53.76659
#
# Poissons Ratio (x) = 0.12248 0.02536
# Poissons Ratio (y) = 0.35177 -0.56285
# Poissons Ratio (z) = 0.04252 -0.32859
#
# Static dielectric constant tensor:
#      x y z
#    x 1.954210 -0.031770 -0.003130 
#    y -0.031770 2.150150 -0.030960 
#    z -0.003130 -0.030960 1.971950 
# 
# From -- ./inp_files/47190.got.cif
#   From: 2010.05.17/outbox.cif.g08.bks.cpg/sg2_24_cif.got.tgz:47190.got - 2010.06.03 11:33:40.
