data_PCOD9024241
_publ_section_title
;
Structure prediction by ZEFSAII (Michael W. Deem and Ramdas Pophale) SiO2 
 PCOD9024241
Probable space group: P -1
;
_chemical_formula_sum "Si O2"
_cell_formula_units_Z 13
_cell_length_a 9.527265
_cell_length_b 11.407637
_cell_length_c 8.704809
_cell_angle_alpha 121.677487
_cell_angle_beta 132.102948
_cell_angle_gamma 47.913171
_cell_volume 515.968339
_symmetry_space_group_name_H-M "P -1"
_symmetry_group_IT_number 2
_symmetry_cell_setting 'triclinic'
loop_
_space_group_symop_operation_xyz
x,y,z
-x,-y,-z
loop_
_atom_site_type_symbol
_atom_site_label
_atom_site_fract_x
_atom_site_fract_y
_atom_site_fract_z
Si Si1 0.630011 0.883215 0.306385
Si Si2 0.762274 0.177292 0.061990
Si Si3 0.048695 0.855906 0.166616
Si Si4 0.240533 0.361874 0.549985
Si Si5 0.500000 0.500000 0.000000
Si Si6 0.183582 0.316756 0.986196
Si Si7 0.459345 0.769156 0.595501
O O1 0.722402 0.810417 0.491165
O O2 0.608384 0.048646 0.360860
O O3 0.393343 0.898056 0.128896
O O4 0.790647 0.748385 0.211552
O O5 0.861474 0.183471 0.970060
O O6 0.643596 0.362359 0.143854
O O7 0.936597 0.047982 0.219542
O O8 0.248765 0.766696 0.373156
O O9 0.887716 0.789246 0.038234
O O10 0.392994 0.395138 0.796713
O O11 0.335433 0.344640 0.439880
O O12 0.000000 0.500000 0.500000
O O13 0.426889 0.277915 0.188139
O O14 0.000000 0.500000 0.000000
#
# Coordination Sequence:
#
# PCOD9024241 Si02
#       7
#     2   2   2   2   1   2   2
#     4  11  24  47  70 105 142 190 229 297 357 422
#     4  10  23  43  74 103 146 181 234 297 353 407
#     4  11  25  45  72 106 137 194 230 293 357 419
#     4  11  25  40  72 106 136 184 237 291 345 416
#     4  10  22  40  64 106 144 168 228 294 348 394
#     4  12  29  49  71 100 153 186 231 300 371 416
#     4  12  25  45  75 103 140 187 249 284 349 441
#
# _framework density 25.195345
#
# number of rings (size 3 to 8) (size 9 to 14) (size 15 to 20)
#    0.000    0.923    4.615    1.846    8.615    1.231 
#    0.000    0.000    0.000    0.000    0.000    0.000 
#    0.000    0.000    0.000    0.000    0.000    0.000 
#
# Total GULP energy -72463.471582 kJ/mol
# GULP energy per Si atom -5574.113199 kJ/mol
# Density = 2.513800 g / cm^3
# Si number density = 25.195345 Si / 1000 Ang^3
#
#
#
# Elastic Constant Matrix: (Units=GPa)
#
#
# Indices 1 2 3 4 5 6 
#
# 1 85.0172 14.5721 2.6378 8.0772 2.6999 6.8246
# 2 14.5721 123.0749 12.5850 -13.1671 7.3667 14.1741
# 3 2.6378 12.5850 71.5143 -8.3404 7.7057 -2.5034
# 4 8.0772 -13.1671 -8.3404 37.9342 -2.1410 -1.2907
# 5 2.6999 7.3667 7.7057 -2.1410 14.5155 4.0994
# 6 6.8246 14.1741 -2.5034 -1.2907 4.0994 32.6993
#
#
#
# Elastic Compliance Matrix: (Units=1/GPa)
#
#
# Indices 1 2 3 4 5 6 
#
# 1 0.012563 -0.001498 -0.000539 -0.003451 -0.001236 -0.001995
# 2 -0.001498 0.009273 -0.001074 0.003048 -0.002459 -0.003360
# 3 -0.000539 -0.001074 0.015477 0.002793 -0.007970 0.002872
# 4 -0.003451 0.003048 0.002793 0.028884 0.001721 0.000537
# 5 -0.001236 -0.002459 -0.007970 0.001721 0.077373 -0.008919
# 6 -0.001995 -0.003360 0.002872 0.000537 -0.008919 0.033814
#
#
# Mechanical properties :
#
#
# Convention : Reuss Voigt Hill
#
# Bulk Modulus (GPa) = 32.16284 37.68844 34.92564
# Shear Modulus (GPa) = 25.77738 33.68390 29.73064
#
# Velocity S-wave (km/s) = 3.20206 3.66034 3.43885
# Velocity P-wave (km/s) = 5.14432 5.73194 5.44606
#
# Compressibility (1/GPa) = 0.03109178
#
# Stress axis : x y z
#
# Youngs Moduli (GPa) = 79.59841 107.84512 64.61155
#
# Poissons Ratio (x) = 0.16153 0.03482
# Poissons Ratio (y) = 0.11922 0.06938
# Poissons Ratio (z) = 0.04290 0.11580
#
# Static dielectric constant tensor:
#      x y z
#    x 2.044200 -0.118660 0.039760 
#    y -0.118660 2.339170 -0.327350 
#    z 0.039760 -0.327350 2.307410 
# 
# From -- ./inp_files/182906.got.cif
#   From: 2010.05.17/outbox.cif.g08.bks.cpg/sg2_92_cif.got.tgz:182906.got - 2010.06.03 11:33:40.
