data_PCOD9024209
_publ_section_title
;
Structure prediction by ZEFSAII (Michael W. Deem and Ramdas Pophale) SiO2 
 PCOD9024209
Probable space group: P -1
;
_chemical_formula_sum "Si O2"
_cell_formula_units_Z 14
_cell_length_a 9.220320
_cell_length_b 8.494475
_cell_length_c 9.366388
_cell_angle_alpha 72.280485
_cell_angle_beta 64.671479
_cell_angle_gamma 56.612240
_cell_volume 551.327656
_symmetry_space_group_name_H-M "P -1"
_symmetry_group_IT_number 2
_symmetry_cell_setting 'triclinic'
loop_
_space_group_symop_operation_xyz
x,y,z
-x,-y,-z
loop_
_atom_site_type_symbol
_atom_site_label
_atom_site_fract_x
_atom_site_fract_y
_atom_site_fract_z
Si Si1 0.847248 0.720559 0.506260
Si Si2 0.429354 0.623601 0.144961
Si Si3 0.031421 0.333792 0.220520
Si Si4 0.113739 0.938148 0.615823
Si Si5 0.789548 0.052534 0.054066
Si Si6 0.515973 0.273932 0.370710
Si Si7 0.738147 0.690858 0.131992
O O1 0.844641 0.750685 0.669848
O O2 0.642408 0.780038 0.527596
O O3 0.000000 0.500000 0.500000
O O4 0.905671 0.864965 0.372025
O O5 0.400980 0.491335 0.306734
O O6 0.559697 0.682699 0.161350
O O7 0.500000 0.500000 0.000000
O O8 0.271269 0.818898 0.097504
O O9 0.962462 0.188444 0.241186
O O10 0.846673 0.537010 0.252224
O O11 0.148676 0.372642 0.046044
O O12 0.334446 0.795141 0.546569
O O13 0.000000 0.000000 0.500000
O O14 0.741537 0.882874 0.108902
O O15 0.658518 0.174638 0.206762
O O16 0.000000 0.000000 0.000000
#
# Coordination Sequence:
#
# PCOD9024209 Si02
#       7
#     2   2   2   2   2   2   2
#     4  11  26  44  71  96 132 183 241 284 339 398
#     4  10  22  40  63  99 141 176 220 272 349 422
#     4  10  22  41  67 100 133 177 221 289 343 415
#     4  10  22  45  67  94 135 184 235 282 338 402
#     4  11  25  38  69 108 141 180 220 277 362 426
#     4  11  23  44  68  98 140 178 229 289 340 411
#     4  11  22  40  69 102 141 172 224 278 364 414
#
# _framework density 25.393249000000001
#
# number of rings (size 3 to 8) (size 9 to 14) (size 15 to 20)
#    0.000    1.429    1.429    3.429   10.000    1.143 
#    0.000    5.714    0.000    0.000    0.000    0.000 
#    0.000    0.000    0.000    0.000    0.000    0.000 
#
# Total GULP energy -78206.197032 kJ/mol
# GULP energy per Si atom -5586.156931 kJ/mol
# Density = 2.533545 g / cm^3
# Si number density = 25.393249 Si / 1000 Ang^3
#
#
#
# Elastic Constant Matrix: (Units=GPa)
#
#
# Indices 1 2 3 4 5 6 
#
# 1 147.0664 33.2095 30.8196 -5.1776 -10.5625 -19.5670
# 2 33.2095 109.9491 22.0724 -38.7279 -8.3428 -4.3666
# 3 30.8196 22.0724 70.6804 -16.3420 -8.8620 -8.8993
# 4 -5.1776 -38.7279 -16.3420 50.0085 -1.9083 2.2786
# 5 -10.5625 -8.3428 -8.8620 -1.9083 45.0025 -13.1535
# 6 -19.5670 -4.3666 -8.8993 2.2786 -13.1535 39.7493
#
#
#
# Elastic Compliance Matrix: (Units=1/GPa)
#
#
# Indices 1 2 3 4 5 6 
#
# 1 0.008537 -0.002405 -0.002620 -0.001942 0.002183 0.004185
# 2 -0.002405 0.013759 -0.000500 0.010317 0.002453 0.000436
# 3 -0.002620 -0.000500 0.017584 0.005075 0.004033 0.003636
# 4 -0.001942 0.010317 0.005075 0.029553 0.003984 0.000938
# 5 0.002183 0.002453 0.004033 0.003984 0.027390 0.011082
# 6 0.004185 0.000436 0.003636 0.000938 0.011082 0.031693
#
#
# Mechanical properties :
#
#
# Convention : Reuss Voigt Hill
#
# Bulk Modulus (GPa) = 34.68633 55.54431 45.11532
# Shear Modulus (GPa) = 33.51730 43.05837 38.28784
#
# Velocity S-wave (km/s) = 3.63702 4.12231 3.88725
# Velocity P-wave (km/s) = 5.59702 6.67675 6.16059
#
# Compressibility (1/GPa) = 0.02882980
#
# Stress axis : x y z
#
# Youngs Moduli (GPa) = 117.13767 72.67824 56.87071
#
# Poissons Ratio (x) = 0.17477 0.14899
# Poissons Ratio (y) = 0.28169 0.02846
# Poissons Ratio (z) = 0.30688 0.03638
#
# Static dielectric constant tensor:
#      x y z
#    x 2.072330 0.009580 0.128790 
#    y 0.009580 2.089670 0.051720 
#    z 0.128790 0.051720 2.034690 
# 
# From -- ./inp_files/202203.got.cif
#   From: 2010.05.17/outbox.cif.g08.bks.cpg/sg2_102_cif.got.tgz:202203.got - 2010.06.03 11:33:40.
