data_PCOD9024964
_publ_section_title
;
Structure prediction by ZEFSAII (Michael W. Deem and Ramdas Pophale) SiO2 
 PCOD9024964
Probable space group: P -1
;
_chemical_formula_sum "Si O2"
_cell_formula_units_Z 15
_cell_length_a 20.595750
_cell_length_b 6.625660
_cell_length_c 6.493737
_cell_angle_alpha 70.636728
_cell_angle_beta 66.937820
_cell_angle_gamma 103.642219
_cell_volume 697.589528
_symmetry_space_group_name_H-M "P -1"
_symmetry_group_IT_number 2
_symmetry_cell_setting 'triclinic'
loop_
_space_group_symop_operation_xyz
x,y,z
-x,-y,-z
loop_
_atom_site_type_symbol
_atom_site_label
_atom_site_fract_x
_atom_site_fract_y
_atom_site_fract_z
Si Si1 0.620770 0.752048 0.249175
Si Si2 0.730761 0.597285 0.410054
Si Si3 0.927273 0.835452 0.781211
Si Si4 0.363446 0.769890 0.020635
Si Si5 0.781695 0.414733 0.035869
Si Si6 0.140585 0.929761 0.880613
Si Si7 0.000000 0.500000 0.000000
Si Si8 0.493848 0.653006 0.763954
O O1 0.693236 0.710739 0.253219
O O2 0.574990 0.777871 0.500963
O O3 0.565026 0.527153 0.266080
O O4 0.638905 0.982081 0.012313
O O5 0.664887 0.418571 0.697711
O O6 0.797104 0.818910 0.366204
O O7 0.766803 0.451096 0.281775
O O8 0.851205 0.665324 0.803899
O O9 0.951175 0.651505 0.935390
O O10 0.000000 0.000000 0.500000
O O11 0.903339 0.996503 0.908684
O O12 0.298269 0.657125 0.963074
O O13 0.450450 0.811701 0.836934
O O14 0.812310 0.213467 0.041420
O O15 0.076519 0.751666 0.869320
O O16 0.500000 0.500000 0.000000
#
# Coordination Sequence:
#
# PCOD9024964 Si02
#       8
#     2   2   2   2   2   2   1   2
#     4  11  24  43  66  96 133 166 224 274 317 399
#     4  11  23  42  65  96 133 175 220 273 326 390
#     4  10  23  43  67  93 133 167 213 269 327 390
#     4  12  24  41  70  93 129 179 218 267 337 385
#     4  10  23  43  63  99 131 171 221 270 324 397
#     4  10  22  45  65  95 137 166 219 274 321 389
#     4  10  22  40  66  98 124 172 210 262 324 384
#     4  11  24  44  67  96 131 174 216 274 334 382
#
# _framework density 21.502617999999998
#
# number of rings (size 3 to 8) (size 9 to 14) (size 15 to 20)
#    0.000    1.333    4.000    0.800    1.867    4.800 
#    7.200    0.000    0.000    0.000    0.000    0.000 
#    0.000    0.000    0.000    0.000    0.000    0.000 
#
# Total GULP energy -83511.799774 kJ/mol
# GULP energy per Si atom -5567.453318 kJ/mol
# Density = 2.145368 g / cm^3
# Si number density = 21.502618 Si / 1000 Ang^3
#
#
#
# Elastic Constant Matrix: (Units=GPa)
#
#
# Indices 1 2 3 4 5 6 
#
# 1 86.9073 11.8632 -7.0718 7.8822 2.1540 -23.6018
# 2 11.8632 85.1149 10.0838 -10.0972 -6.1596 -24.1687
# 3 -7.0718 10.0838 38.8952 -3.8358 -14.3607 -20.4096
# 4 7.8822 -10.0972 -3.8358 14.7750 -0.0183 -3.7686
# 5 2.1540 -6.1596 -14.3607 -0.0183 30.8017 -3.7914
# 6 -23.6018 -24.1687 -20.4096 -3.7686 -3.7914 39.6697
#
#
#
# Elastic Compliance Matrix: (Units=1/GPa)
#
#
# Indices 1 2 3 4 5 6 
#
# 1 0.019196 0.003766 0.021570 0.004702 0.012729 0.026476
# 2 0.003766 0.021269 0.018663 0.024712 0.016239 0.028700
# 3 0.021570 0.018663 0.092606 0.046154 0.055463 0.081534
# 4 0.004702 0.024712 0.046154 0.108118 0.032968 0.055021
# 5 0.012729 0.016239 0.055463 0.032968 0.067544 0.055589
# 6 0.026476 0.028700 0.081534 0.055021 0.055589 0.110934
#
#
# Mechanical properties :
#
#
# Convention : Reuss Voigt Hill
#
# Bulk Modulus (GPa) = 4.52347 26.74088 15.63217
# Shear Modulus (GPa) = 12.33473 30.11876 21.22674
#
# Velocity S-wave (km/s) = 2.39767 3.74666 3.14533
# Velocity P-wave (km/s) = 3.12624 5.58388 4.52510
#
# Compressibility (1/GPa) = 0.22106924
#
# Stress axis : x y z
#
# Youngs Moduli (GPa) = 52.09453 47.01644 10.79839
#
# Poissons Ratio (x) = -0.17706 -0.23292
# Poissons Ratio (y) = -0.19618 -0.20153
# Poissons Ratio (z) = -1.12367 -0.87748
#
# Static dielectric constant tensor:
#      x y z
#    x 1.770260 0.004360 -0.021620 
#    y 0.004360 1.782520 0.003900 
#    z -0.021620 0.003900 1.785540 
# 
# From -- ./inp_files/10031.got.cif
#   From: 2010.05.17/outbox.cif.g08.bks.cpg/sg2_6_cif.got.tgz:10031.got - 2010.06.03 11:33:40.
