data_PCOD9024815
_publ_section_title
;
Structure prediction by ZEFSAII (Michael W. Deem and Ramdas Pophale) SiO2 
 PCOD9024815
Probable space group: P -1
;
_chemical_formula_sum "Si O2"
_cell_formula_units_Z 16
_cell_length_a 17.493088
_cell_length_b 15.503893
_cell_length_c 8.920290
_cell_angle_alpha 109.777728
_cell_angle_beta 126.511122
_cell_angle_gamma 26.275088
_cell_volume 719.782717
_symmetry_space_group_name_H-M "P -1"
_symmetry_group_IT_number 2
_symmetry_cell_setting 'triclinic'
loop_
_space_group_symop_operation_xyz
x,y,z
-x,-y,-z
loop_
_atom_site_type_symbol
_atom_site_label
_atom_site_fract_x
_atom_site_fract_y
_atom_site_fract_z
Si Si1 0.107244 0.079261 0.303303
Si Si2 0.135529 0.436317 0.749622
Si Si3 0.697713 0.267477 0.505059
Si Si4 0.652778 0.965516 0.549920
Si Si5 0.427881 0.885008 0.131737
Si Si6 0.228013 0.247298 0.041207
Si Si7 0.369631 0.575694 0.033767
Si Si8 0.846391 0.042787 0.032305
O O1 0.273889 0.019478 0.470772
O O2 0.243000 0.878230 0.427725
O O3 0.833885 0.317488 0.182366
O O4 0.067469 0.094933 0.088476
O O5 0.344374 0.306473 0.827364
O O6 0.000000 0.500000 0.500000
O O7 0.917149 0.686533 0.720707
O O8 0.241988 0.275300 0.906333
O O9 0.500000 0.500000 0.500000
O O10 0.570743 0.363411 0.256271
O O11 0.941781 0.110997 0.701677
O O12 0.536674 0.110346 0.651330
O O13 0.463080 0.068371 0.307120
O O14 0.231393 0.133354 0.984927
O O15 0.333947 0.864496 0.034088
O O16 0.000000 0.500000 0.000000
O O17 0.500000 0.500000 0.000000
O O18 0.241994 0.785635 0.054543
#
# Coordination Sequence:
#
# PCOD9024815 Si02
#       8
#     2   2   2   2   2   2   2   2
#     4  10  22  40  66  92 126 164 215 262 309 388
#     4  12  25  45  70  92 133 178 216 271 326 382
#     4  11  19  40  68  87 124 174 211 253 320 383
#     4  11  25  45  66 100 132 171 220 267 328 386
#     4  11  24  45  67  97 135 169 217 274 323 388
#     4  12  24  45  69  98 133 174 216 267 328 391
#     4  11  23  40  61  93 129 164 207 266 317 365
#     4  10  22  41  62  96 123 163 219 257 313 387
#
# _framework density 22.228929999999998
#
# number of rings (size 3 to 8) (size 9 to 14) (size 15 to 20)
#    0.000    1.000    5.000    2.250    1.750    4.000 
#    4.500    0.000    0.000    0.000    0.000    0.000 
#    0.000    0.000    0.000    0.000    0.000    0.000 
#
# Total GULP energy -89301.012392 kJ/mol
# GULP energy per Si atom -5581.313275 kJ/mol
# Density = 2.217834 g / cm^3
# Si number density = 22.228930 Si / 1000 Ang^3
#
#
#
# Elastic Constant Matrix: (Units=GPa)
#
#
# Indices 1 2 3 4 5 6 
#
# 1 157.1081 10.3729 50.0032 -15.0166 3.0853 -5.5790
# 2 10.3729 59.7743 12.8136 -15.3798 -1.4953 -10.0911
# 3 50.0032 12.8136 92.4760 -20.7673 -17.3165 3.6213
# 4 -15.0166 -15.3798 -20.7673 27.0432 -2.6660 0.5804
# 5 3.0853 -1.4953 -17.3165 -2.6660 36.1960 0.3149
# 6 -5.5790 -10.0911 3.6213 0.5804 0.3149 37.8647
#
#
#
# Elastic Compliance Matrix: (Units=1/GPa)
#
#
# Indices 1 2 3 4 5 6 
#
# 1 0.008087 -0.000054 -0.004921 0.000346 -0.003035 0.001668
# 2 -0.000054 0.020717 -0.000118 0.011707 0.001620 0.005332
# 3 -0.004921 -0.000118 0.018237 0.012257 0.010066 -0.002772
# 4 0.000346 0.011707 0.012257 0.054233 0.010303 0.001082
# 5 -0.003035 0.001620 0.010066 0.010303 0.033540 -0.001415
# 6 0.001668 0.005332 -0.002772 0.001082 -0.001415 0.028337
#
#
# Mechanical properties :
#
#
# Convention : Reuss Voigt Hill
#
# Bulk Modulus (GPa) = 27.13349 50.63756 38.88552
# Shear Modulus (GPa) = 26.93669 35.96536 31.45102
#
# Velocity S-wave (km/s) = 3.48485 4.02674 3.76556
# Velocity P-wave (km/s) = 5.33152 6.66701 6.03631
#
# Compressibility (1/GPa) = 0.03685483
#
# Stress axis : x y z
#
# Youngs Moduli (GPa) = 123.65957 48.26965 54.83400
#
# Poissons Ratio (x) = 0.00260 0.26984
# Poissons Ratio (y) = 0.00665 0.00647
# Poissons Ratio (z) = 0.60854 0.00569
#
# Static dielectric constant tensor:
#      x y z
#    x 1.845800 -0.016880 0.030300 
#    y -0.016880 2.089170 0.099270 
#    z 0.030300 0.099270 1.777140 
# 
# From -- ./inp_files/315247.got.cif
#   From: 2010.05.17/outbox.cif.g08.bks.cpg/sg2_158_cif.got.tgz:315247.got - 2010.06.03 11:33:40.
