data_PCOD9024093
_publ_section_title
;
Structure prediction by ZEFSAII (Michael W. Deem and Ramdas Pophale) SiO2 
 PCOD9024093
Probable space group: P -1
;
_chemical_formula_sum "Si O2"
_cell_formula_units_Z 16
_cell_length_a 9.188613
_cell_length_b 9.991239
_cell_length_c 23.476708
_cell_angle_alpha 152.734854
_cell_angle_beta 121.702372
_cell_angle_gamma 59.283971
_cell_volume 834.747075
_symmetry_space_group_name_H-M "P -1"
_symmetry_group_IT_number 2
_symmetry_cell_setting 'triclinic'
loop_
_space_group_symop_operation_xyz
x,y,z
-x,-y,-z
loop_
_atom_site_type_symbol
_atom_site_label
_atom_site_fract_x
_atom_site_fract_y
_atom_site_fract_z
Si Si1 0.561804 0.259974 0.029812
Si Si2 0.892684 0.454049 0.656432
Si Si3 0.233152 0.721373 0.809244
Si Si4 0.540738 0.792534 0.749032
Si Si5 0.736268 0.758746 0.189805
Si Si6 0.360452 0.282352 0.573165
Si Si7 0.015630 0.062782 0.432091
Si Si8 0.179963 0.313558 0.952131
O O1 0.645154 0.189450 0.081630
O O2 0.676412 0.483248 0.106647
O O3 0.362571 0.402692 0.046961
O O4 0.560851 0.976549 0.881184
O O5 0.722988 0.669035 0.714432
O O6 0.060895 0.619924 0.762259
O O7 0.912197 0.315019 0.544835
O O8 0.899315 0.182707 0.598997
O O9 0.324955 0.445404 0.688377
O O10 0.181591 0.986140 0.854781
O O11 0.433989 0.521478 0.638718
O O12 0.431884 0.010019 0.765983
O O13 0.798482 0.681000 0.109284
O O14 0.885243 0.908281 0.308291
O O15 0.174854 0.189969 0.481970
O O16 0.500000 0.000000 0.500000
O O17 0.000000 0.500000 0.000000
#
# Coordination Sequence:
#
# PCOD9024093 Si02
#       8
#     2   2   2   2   2   2   2   2
#     4  11  24  43  68  91 129 167 212 260 314 382
#     4  10  22  40  63  92 122 165 214 256 305 374
#     4  11  23  43  65  94 128 168 212 262 311 379
#     4  11  23  40  64  94 128 165 209 261 319 377
#     4  11  24  44  64  93 128 167 207 263 320 372
#     4  11  22  40  66  90 127 168 213 260 309 370
#     4  10  22  42  63  89 126 164 212 258 308 371
#     4  11  25  41  62  97 134 164 205 262 325 374
#
# _framework density 19.167483000000001
#
# number of rings (size 3 to 8) (size 9 to 14) (size 15 to 20)
#    0.000    1.250    5.000    1.875    3.500    3.500 
#    0.000    0.000    0.000    0.000    0.000    0.000 
#    0.000    0.000    0.000    0.000    0.000    0.000 
#
# Total GULP energy -89356.560368 kJ/mol
# GULP energy per Si atom -5584.785023 kJ/mol
# Density = 1.912386 g / cm^3
# Si number density = 19.167483 Si / 1000 Ang^3
#
#
#
# Elastic Constant Matrix: (Units=GPa)
#
#
# Indices 1 2 3 4 5 6 
#
# 1 142.5909 35.5287 48.0137 10.5234 0.1594 -22.8272
# 2 35.5287 38.5199 17.3630 12.3404 -10.8239 -7.4125
# 3 48.0137 17.3630 66.7015 10.9307 17.2543 -15.0371
# 4 10.5234 12.3404 10.9307 27.3564 -8.4094 3.6480
# 5 0.1594 -10.8239 17.2543 -8.4094 38.7081 15.2357
# 6 -22.8272 -7.4125 -15.0371 3.6480 15.2357 29.5841
#
#
#
# Elastic Compliance Matrix: (Units=1/GPa)
#
#
# Indices 1 2 3 4 5 6 
#
# 1 0.011502 -0.008632 -0.002378 -0.002327 -0.005250 0.008494
# 2 -0.008632 0.045713 -0.016927 0.000331 0.027532 -0.018030
# 3 -0.002378 -0.016927 0.059889 -0.044246 -0.066185 0.063905
# 4 -0.002327 0.000331 -0.044246 0.083958 0.064801 -0.067928
# 5 -0.005250 0.027532 -0.066185 0.064801 0.115892 -0.098468
# 6 0.008494 -0.018030 0.063905 -0.067928 -0.098468 0.127407
#
#
# Mechanical properties :
#
#
# Convention : Reuss Voigt Hill
#
# Bulk Modulus (GPa) = 16.33202 49.95811 33.14507
# Shear Modulus (GPa) = 9.60346 28.92351 19.26349
#
# Velocity S-wave (km/s) = 2.24080 3.88878 3.17363
# Velocity P-wave (km/s) = 3.90309 6.80324 5.54609
#
# Compressibility (1/GPa) = 0.06122940
#
# Stress axis : x y z
#
# Youngs Moduli (GPa) = 86.94047 21.87557 16.69768
#
# Poissons Ratio (x) = 0.18883 0.03971
# Poissons Ratio (y) = 0.75048 0.28264
# Poissons Ratio (z) = 0.20678 0.37028
#
# Static dielectric constant tensor:
#      x y z
#    x 1.668290 0.012720 0.013800 
#    y 0.012720 1.644170 0.007850 
#    z 0.013800 0.007850 1.666520 
# 
# From -- ./inp_files/242548.got.cif
#   From: 2010.05.17/outbox.cif.g08.bks.cpg/sg2_122_cif.got.tgz:242548.got - 2010.06.03 11:33:40.
