data_PCOD9024303
_publ_section_title
;
Structure prediction by ZEFSAII (Michael W. Deem and Ramdas Pophale) SiO2 
 PCOD9024303
Probable space group: P -1
;
_chemical_formula_sum "Si O2"
_cell_formula_units_Z 16
_cell_length_a 6.427902
_cell_length_b 8.069932
_cell_length_c 16.244755
_cell_angle_alpha 129.344239
_cell_angle_beta 81.461195
_cell_angle_gamma 93.719463
_cell_volume 643.976445
_symmetry_space_group_name_H-M "P -1"
_symmetry_group_IT_number 2
_symmetry_cell_setting 'triclinic'
loop_
_space_group_symop_operation_xyz
x,y,z
-x,-y,-z
loop_
_atom_site_type_symbol
_atom_site_label
_atom_site_fract_x
_atom_site_fract_y
_atom_site_fract_z
Si Si1 0.017808 0.432044 0.810196
Si Si2 0.352889 0.325914 0.990597
Si Si3 0.549179 0.252633 0.396390
Si Si4 0.383067 0.719491 0.886054
Si Si5 0.181732 0.975009 0.367724
Si Si6 0.167182 0.928902 0.818299
Si Si7 0.800649 0.250142 0.537727
Si Si8 0.809597 0.667488 0.744618
O O1 0.958542 0.185305 0.727497
O O2 0.964766 0.532217 0.754763
O O3 0.251257 0.505182 0.840067
O O4 0.847142 0.554111 0.916773
O O5 0.256867 0.163154 0.880430
O O6 0.500000 0.500000 0.000000
O O7 0.507589 0.213102 0.014632
O O8 0.500000 0.500000 0.500000
O O9 0.704798 0.224588 0.301107
O O10 0.660624 0.167359 0.446453
O O11 0.355900 0.097554 0.346191
O O12 0.219622 0.873008 0.893619
O O13 0.580925 0.684200 0.802831
O O14 0.271587 0.833060 0.394907
O O15 0.033460 0.156182 0.476589
O O16 0.923949 0.890586 0.802219
O O17 0.799834 0.508204 0.618564
#
# Coordination Sequence:
#
# PCOD9024303 Si02
#       8
#     2   2   2   2   2   2   2   2
#     4   9  21  40  63  92 121 157 206 252 304 367
#     4  11  24  42  63  91 125 158 203 259 308 366
#     4  12  25  40  63  95 131 166 207 259 314 371
#     4  10  22  42  66  87 121 164 203 253 313 369
#     4  10  22  41  65  93 127 168 212 256 309 372
#     4  11  24  40  62  92 122 163 208 249 309 374
#     4  10  22  40  64  91 126 169 212 256 309 371
#     4   9  20  39  63  91 123 157 203 255 302 365
#
# _framework density 24.845631999999998
#
# number of rings (size 3 to 8) (size 9 to 14) (size 15 to 20)
#    0.000    1.750    0.000    3.000    0.000   17.000 
#    0.000    0.000    0.000    0.000    0.000    0.000 
#    0.000    0.000    0.000    0.000    0.000    0.000 
#
# Total GULP energy -89477.222554 kJ/mol
# GULP energy per Si atom -5592.326410 kJ/mol
# Density = 2.478908 g / cm^3
# Si number density = 24.845632 Si / 1000 Ang^3
#
#
#
# Elastic Constant Matrix: (Units=GPa)
#
#
# Indices 1 2 3 4 5 6 
#
# 1 126.6235 45.2992 44.7178 5.4652 26.8932 43.7046
# 2 45.2992 93.4359 21.3831 7.3482 13.2814 23.9496
# 3 44.7178 21.3831 114.4682 12.6664 15.5849 17.7830
# 4 5.4652 7.3482 12.6664 26.8240 9.1131 9.0049
# 5 26.8932 13.2814 15.5849 9.1131 45.4808 4.2519
# 6 43.7046 23.9496 17.7830 9.0049 4.2519 45.6528
#
#
#
# Elastic Compliance Matrix: (Units=1/GPa)
#
#
# Indices 1 2 3 4 5 6 
#
# 1 0.015892 -0.003092 -0.003300 0.005965 -0.007362 -0.012797
# 2 -0.003092 0.013515 -0.000437 -0.001185 -0.001395 -0.003596
# 3 -0.003300 -0.000437 0.010639 -0.004004 -0.000774 0.000107
# 4 0.005965 -0.001185 -0.004004 0.045516 -0.009845 -0.011590
# 5 -0.007362 -0.001395 -0.000774 -0.009845 0.028295 0.007388
# 6 -0.012797 -0.003596 0.000107 -0.011590 0.007388 0.037599
#
#
# Mechanical properties :
#
#
# Convention : Reuss Voigt Hill
#
# Bulk Modulus (GPa) = 37.89702 61.92533 49.91117
# Shear Modulus (GPa) = 28.75044 38.46670 33.60857
#
# Velocity S-wave (km/s) = 3.40540 3.93902 3.68189
# Velocity P-wave (km/s) = 5.54513 6.75766 6.18120
#
# Compressibility (1/GPa) = 0.02638730
#
# Stress axis : x y z
#
# Youngs Moduli (GPa) = 62.92326 73.99316 93.99417
#
# Poissons Ratio (x) = 0.22878 0.31022
# Poissons Ratio (y) = 0.19455 0.04108
# Poissons Ratio (z) = 0.20767 0.03234
#
# Static dielectric constant tensor:
#      x y z
#    x 1.993360 -0.036310 0.044620 
#    y -0.036310 2.078370 0.035050 
#    z 0.044620 0.035050 1.918330 
# 
# From -- ./inp_files/323882.got.cif
#   From: 2010.05.17/outbox.cif.g08.bks.cpg/sg2_162_cif.got.tgz:323882.got - 2010.06.03 11:33:40.
