data_PCOD9024571
_publ_section_title
;
Structure prediction by ZEFSAII (Michael W. Deem and Ramdas Pophale) SiO2 
 PCOD9024571
Probable space group: P -1
;
_chemical_formula_sum "Si O2"
_cell_formula_units_Z 16
_cell_length_a 8.828730
_cell_length_b 18.030041
_cell_length_c 20.186421
_cell_angle_alpha 160.273262
_cell_angle_beta 128.073058
_cell_angle_gamma 45.100839
_cell_volume 752.790752
_symmetry_space_group_name_H-M "P -1"
_symmetry_group_IT_number 2
_symmetry_cell_setting 'triclinic'
loop_
_space_group_symop_operation_xyz
x,y,z
-x,-y,-z
loop_
_atom_site_type_symbol
_atom_site_label
_atom_site_fract_x
_atom_site_fract_y
_atom_site_fract_z
Si Si1 0.333252 0.967574 0.179292
Si Si2 0.988246 0.343565 0.499952
Si Si3 0.827888 0.785712 0.206745
Si Si4 0.348769 0.774825 0.215707
Si Si5 0.885122 0.088692 0.362109
Si Si6 0.385642 0.386894 0.473477
Si Si7 0.395778 0.919534 0.494861
Si Si8 0.307138 0.552927 0.736371
O O1 0.583012 0.836045 0.162832
O O2 0.157980 0.091881 0.295162
O O3 0.300753 0.200036 0.321010
O O4 0.298455 0.777665 0.964599
O O5 0.090060 0.528358 0.671259
O O6 0.954190 0.293889 0.525928
O O7 0.762470 0.452148 0.490652
O O8 0.815097 0.859947 0.342492
O O9 0.868820 0.983993 0.341547
O O10 0.000000 0.500000 0.000000
O O11 0.444351 0.960958 0.376347
O O12 0.354351 0.801752 0.319282
O O13 0.500000 0.500000 0.000000
O O14 0.100424 0.849916 0.192005
O O15 0.636491 0.209696 0.372796
O O16 0.359474 0.550226 0.670204
O O17 0.505993 0.702396 0.396082
#
# Coordination Sequence:
#
# PCOD9024571 Si02
#       8
#     2   2   2   2   2   2   2   2
#     4  10  22  40  65  93 125 166 217 264 313 384
#     4  11  22  42  67  90 128 167 216 272 316 376
#     4  11  23  42  64  96 134 174 211 259 323 390
#     4  11  25  41  68  94 128 170 213 267 323 383
#     4  11  22  41  62  94 132 164 210 259 326 380
#     4  10  23  42  64  93 127 168 214 266 329 375
#     4  11  23  42  63  97 127 169 221 256 320 389
#     4  11  21  40  69  92 126 165 217 267 315 384
#
# _framework density 21.254245999999998
#
# number of rings (size 3 to 8) (size 9 to 14) (size 15 to 20)
#    0.000    1.250    5.000    2.625    5.250    3.500 
#    0.000    3.750    0.000    5.250    0.000    0.000 
#    0.000    0.000    0.000    0.000    0.000    0.000 
#
# Total GULP energy -89172.866185 kJ/mol
# GULP energy per Si atom -5573.304137 kJ/mol
# Density = 2.120587 g / cm^3
# Si number density = 21.254246 Si / 1000 Ang^3
#
#
#
# Elastic Constant Matrix: (Units=GPa)
#
#
# Indices 1 2 3 4 5 6 
#
# 1 113.5852 47.4828 32.0182 4.0978 -14.2865 -1.6185
# 2 47.4828 87.1662 46.3578 1.7178 -13.8460 -2.0307
# 3 32.0182 46.3578 104.7287 -28.5026 -18.2332 -8.3597
# 4 4.0978 1.7178 -28.5026 29.9776 -4.9656 -3.5429
# 5 -14.2865 -13.8460 -18.2332 -4.9656 25.0433 7.6894
# 6 -1.6185 -2.0307 -8.3597 -3.5429 7.6894 34.0899
#
#
#
# Elastic Compliance Matrix: (Units=1/GPa)
#
#
# Indices 1 2 3 4 5 6 
#
# 1 0.011813 -0.005087 -0.001757 -0.002712 0.002417 -0.001000
# 2 -0.005087 0.019896 -0.010648 -0.011048 -0.001053 -0.002578
# 3 -0.001757 -0.010648 0.025761 0.028582 0.016011 0.004959
# 4 -0.002712 -0.011048 0.028582 0.066418 0.023953 0.007722
# 5 0.002417 -0.001053 0.016011 0.023953 0.059252 -0.006897
# 6 -0.001000 -0.002578 0.004959 0.007722 -0.006897 0.032707
#
#
# Mechanical properties :
#
#
# Convention : Reuss Voigt Hill
#
# Bulk Modulus (GPa) = 44.46869 61.91085 53.18977
# Shear Modulus (GPa) = 19.35532 29.79692 24.57612
#
# Velocity S-wave (km/s) = 3.02098 3.74829 3.40412
# Velocity P-wave (km/s) = 5.75640 6.92278 6.36636
#
# Compressibility (1/GPa) = 0.02248773
#
# Stress axis : x y z
#
# Youngs Moduli (GPa) = 84.65089 50.26024 38.81837
#
# Poissons Ratio (x) = 0.25565 0.06821
# Poissons Ratio (y) = 0.43058 0.41333
# Poissons Ratio (z) = 0.14875 0.53516
#
# Static dielectric constant tensor:
#      x y z
#    x 1.827540 0.009620 0.000280 
#    y 0.009620 1.842390 0.014450 
#    z 0.000280 0.014450 1.746660 
# 
# From -- ./inp_files/591086.got.cif
#   From: 2010.05.17/outbox.cif.g08.bks.cpg/sg2_296_cif.got.tgz:591086.got - 2010.06.03 11:33:40.
