data_PCOD9024055
_publ_section_title
;
Structure prediction by ZEFSAII (Michael W. Deem and Ramdas Pophale) SiO2 
 PCOD9024055
Probable space group: P -1
;
_chemical_formula_sum "Si O2"
_cell_formula_units_Z 14
_cell_length_a 20.904339
_cell_length_b 7.781493
_cell_length_c 9.030172
_cell_angle_alpha 53.915218
_cell_angle_beta 139.500161
_cell_angle_gamma 146.389878
_cell_volume 524.038315
_symmetry_space_group_name_H-M "P -1"
_symmetry_group_IT_number 2
_symmetry_cell_setting 'triclinic'
loop_
_space_group_symop_operation_xyz
x,y,z
-x,-y,-z
loop_
_atom_site_type_symbol
_atom_site_label
_atom_site_fract_x
_atom_site_fract_y
_atom_site_fract_z
Si Si1 0.136177 0.861998 0.093502
Si Si2 0.690598 0.094866 0.424681
Si Si3 0.720255 0.231126 0.069368
Si Si4 0.548170 0.265301 0.564488
Si Si5 0.986926 0.886891 0.197034
Si Si6 0.624757 0.742071 0.924146
Si Si7 0.840043 0.751628 0.421837
O O1 0.207355 0.944667 0.339023
O O2 0.257791 0.989296 0.124703
O O3 0.000000 0.500000 0.000000
O O4 0.097936 0.047170 0.911211
O O5 0.672001 0.139035 0.201367
O O6 0.787716 0.429798 0.504116
O O7 0.547800 0.855788 0.393896
O O8 0.894162 0.524504 0.227349
O O9 0.639397 0.911779 0.007431
O O10 0.686295 0.381920 0.828603
O O11 0.500000 0.000000 0.500000
O O12 0.523977 0.439840 0.333329
O O13 0.130274 0.098047 0.442068
O O14 0.000000 0.000000 0.000000
O O15 0.700272 0.642523 0.154857
O O16 0.000000 0.000000 0.500000
#
# Coordination Sequence:
#
# PCOD9024055 Si02
#       7
#     2   2   2   2   2   2   2
#     4  11  20  39  59  88 125 167 198 243 318 369
#     4  11  22  39  66  90 124 160 210 256 302 365
#     4  11  23  42  63  94 125 159 213 259 298 367
#     4   9  22  43  65  86 123 168 208 251 310 363
#     4  12  26  38  63  95 129 161 206 257 311 368
#     4  10  22  40  63  89 122 169 202 252 311 365
#     4  12  22  42  62  94 128 162 203 254 316 368
#
# _framework density 26.715606000000001
#
# number of rings (size 3 to 8) (size 9 to 14) (size 15 to 20)
#    0.000    1.143    4.286    1.286    6.000    0.571 
#    0.000   10.714    0.000    0.000    0.000    0.000 
#    0.000    0.000    0.000    0.000    0.000    0.000 
#
# Total GULP energy -78173.637627 kJ/mol
# GULP energy per Si atom -5583.831259 kJ/mol
# Density = 2.665480 g / cm^3
# Si number density = 26.715606 Si / 1000 Ang^3
#
#
#
# Elastic Constant Matrix: (Units=GPa)
#
#
# Indices 1 2 3 4 5 6 
#
# 1 75.1285 1.8097 46.1382 3.1903 -28.7427 7.7681
# 2 1.8097 27.8838 11.0695 0.5709 -4.2924 -5.9542
# 3 46.1382 11.0695 214.8580 -6.6060 -12.0822 -6.9303
# 4 3.1903 0.5709 -6.6060 33.8013 -6.5846 -4.1151
# 5 -28.7427 -4.2924 -12.0822 -6.5846 59.8477 -1.9112
# 6 7.7681 -5.9542 -6.9303 -4.1151 -1.9112 23.2213
#
#
#
# Elastic Compliance Matrix: (Units=1/GPa)
#
#
# Indices 1 2 3 4 5 6 
#
# 1 0.019848 0.000044 -0.004104 -0.001986 0.008248 -0.007526
# 2 0.000044 0.039012 -0.001510 0.000819 0.002921 0.009923
# 3 -0.004104 -0.001510 0.005727 0.001769 -0.000634 0.002956
# 4 -0.001986 0.000819 0.001769 0.031606 0.003171 0.007264
# 5 0.008248 0.002921 -0.000634 0.003171 0.021104 0.000100
# 6 -0.007526 0.009923 0.002956 0.007264 0.000100 0.050304
#
#
# Mechanical properties :
#
#
# Convention : Reuss Voigt Hill
#
# Bulk Modulus (GPa) = 18.70993 48.43387 33.57190
# Shear Modulus (GPa) = 25.43794 40.63091 33.03443
#
# Velocity S-wave (km/s) = 3.08908 3.90406 3.52024
# Velocity P-wave (km/s) = 4.44318 6.20412 5.39596
#
# Compressibility (1/GPa) = 0.05344754
#
# Stress axis : x y z
#
# Youngs Moduli (GPa) = 50.38240 25.63341 174.59678
#
# Poissons Ratio (x) = -0.00114 0.71662
# Poissons Ratio (y) = -0.00224 0.26362
# Poissons Ratio (z) = 0.20679 0.03870
#
# Static dielectric constant tensor:
#      x y z
#    x 2.088360 -0.009750 0.034030 
#    y -0.009750 2.008070 0.000380 
#    z 0.034030 0.000380 2.189690 
# 
# From -- ./inp_files/170161.got.cif
#   From: 2010.05.17/outbox.cif.g08.bks.cpg/sg2_86_cif.got.tgz:170161.got - 2010.06.03 11:33:40.
