data_PCOD9024533
_publ_section_title
;
Structure prediction by ZEFSAII (Michael W. Deem and Ramdas Pophale) SiO2 
 PCOD9024533
Probable space group: P -1
;
_chemical_formula_sum "Si O2"
_cell_formula_units_Z 14
_cell_length_a 11.272658
_cell_length_b 11.239416
_cell_length_c 20.944476
_cell_angle_alpha 26.763033
_cell_angle_beta 153.781948
_cell_angle_gamma 141.059940
_cell_volume 524.300984
_symmetry_space_group_name_H-M "P -1"
_symmetry_group_IT_number 2
_symmetry_cell_setting 'triclinic'
loop_
_space_group_symop_operation_xyz
x,y,z
-x,-y,-z
loop_
_atom_site_type_symbol
_atom_site_label
_atom_site_fract_x
_atom_site_fract_y
_atom_site_fract_z
Si Si1 0.673855 0.941920 0.258308
Si Si2 0.100846 0.299774 0.252584
Si Si3 0.428608 0.219739 0.578208
Si Si4 0.143103 0.303340 0.716557
Si Si5 0.252964 0.276639 0.049330
Si Si6 0.668482 0.296450 0.899479
Si Si7 0.766679 0.544783 0.180433
O O1 0.915588 0.060931 0.280604
O O2 0.743705 0.860194 0.404527
O O3 0.515888 0.751352 0.229202
O O4 0.446799 0.190455 0.042359
O O5 0.299075 0.237725 0.437416
O O6 0.242159 0.408235 0.206996
O O7 0.917074 0.578611 0.046402
O O8 0.500000 0.500000 0.500000
O O9 0.716043 0.033035 0.799637
O O10 0.463294 0.306778 0.855089
O O11 0.062475 0.438322 0.681353
O O12 0.000000 0.500000 0.500000
O O13 0.129271 0.982639 0.863853
O O14 0.567855 0.317265 0.192574
O O15 0.136154 0.432831 0.855305
#
# Coordination Sequence:
#
# PCOD9024533 Si02
#       7
#     2   2   2   2   2   2   2
#     4   9  19  39  60  88 130 165 207 257 318 371
#     4  11  22  38  65  93 124 174 204 256 330 370
#     4  11  21  36  58  97 130 164 211 258 312 391
#     4  10  22  40  65  89 125 173 210 261 320 361
#     4   9  20  37  62  91 128 159 205 261 316 378
#     4  10  22  42  60  92 128 158 220 263 299 386
#     4   8  17  39  62  89 123 166 210 258 310 376
#
# _framework density 26.702218999999999
#
# number of rings (size 3 to 8) (size 9 to 14) (size 15 to 20)
#    0.000    2.286    1.429    1.286    0.000    4.000 
#    0.000   11.429    0.000    9.429    0.000    0.000 
#    0.000    0.000    0.000    0.000    0.000    0.000 
#
# Total GULP energy -78251.145920 kJ/mol
# GULP energy per Si atom -5589.367566 kJ/mol
# Density = 2.664144 g / cm^3
# Si number density = 26.702219 Si / 1000 Ang^3
#
#
#
# Elastic Constant Matrix: (Units=GPa)
#
#
# Indices 1 2 3 4 5 6 
#
# 1 73.3890 6.5910 3.2127 -5.7446 -27.5149 2.6696
# 2 6.5910 73.8361 38.6542 -3.6215 -25.6079 12.4449
# 3 3.2127 38.6542 147.0459 1.3316 -35.9992 -1.9511
# 4 -5.7446 -3.6215 1.3316 39.2564 -10.6863 -12.0483
# 5 -27.5149 -25.6079 -35.9992 -10.6863 47.6597 -5.9596
# 6 2.6696 12.4449 -1.9511 -12.0483 -5.9596 43.3352
#
#
#
# Elastic Compliance Matrix: (Units=1/GPa)
#
#
# Indices 1 2 3 4 5 6 
#
# 1 0.020712 0.002707 0.003283 0.009128 0.018333 0.003154
# 2 0.002707 0.018975 -0.002604 0.004062 0.010303 -0.003187
# 3 0.003283 -0.002604 0.009596 0.003284 0.008870 0.003110
# 4 0.009128 0.004062 0.003284 0.035707 0.019315 0.011003
# 5 0.018333 0.010303 0.008870 0.019315 0.049189 0.008446
# 6 0.003154 -0.003187 0.003110 0.011003 0.008446 0.028158
#
#
# Mechanical properties :
#
#
# Convention : Reuss Voigt Hill
#
# Bulk Modulus (GPa) = 17.83923 43.46519 30.65221
# Shear Modulus (GPa) = 28.69434 42.43781 35.56608
#
# Velocity S-wave (km/s) = 3.28167 3.99093 3.65355
# Velocity P-wave (km/s) = 4.58852 6.12778 5.41314
#
# Compressibility (1/GPa) = 0.05605622
#
# Stress axis : x y z
#
# Youngs Moduli (GPa) = 48.28037 52.70165 104.20497
#
# Poissons Ratio (x) = -0.14264 -0.34214
# Poissons Ratio (y) = -0.13068 0.27132
# Poissons Ratio (z) = -0.15852 0.13722
#
# Static dielectric constant tensor:
#      x y z
#    x 2.149290 -0.005800 0.003470 
#    y -0.005800 2.178940 -0.027490 
#    z 0.003470 -0.027490 2.194100 
# 
# From -- ./inp_files/595068.got.cif
#   From: 2010.05.17/outbox.cif.g08.bks.cpg/sg2_298_cif.got.tgz:595068.got - 2010.06.03 11:33:40.
