data_PCOD9024575
_publ_section_title
;
Structure prediction by ZEFSAII (Michael W. Deem and Ramdas Pophale) SiO2 
 PCOD9024575
Probable space group: P -1
;
_chemical_formula_sum "Si O2"
_cell_formula_units_Z 16
_cell_length_a 15.205897
_cell_length_b 14.876047
_cell_length_c 12.137179
_cell_angle_alpha 138.922236
_cell_angle_beta 117.836311
_cell_angle_gamma 30.907650
_cell_volume 784.160666
_symmetry_space_group_name_H-M "P -1"
_symmetry_group_IT_number 2
_symmetry_cell_setting 'triclinic'
loop_
_space_group_symop_operation_xyz
x,y,z
-x,-y,-z
loop_
_atom_site_type_symbol
_atom_site_label
_atom_site_fract_x
_atom_site_fract_y
_atom_site_fract_z
Si Si1 0.860172 0.210739 0.282991
Si Si2 0.420202 0.132168 0.957428
Si Si3 0.920632 0.152278 0.709154
Si Si4 0.044392 0.162736 0.161112
Si Si5 0.378113 0.284576 0.673609
Si Si6 0.491916 0.742143 0.044536
Si Si7 0.012771 0.318275 0.822122
Si Si8 0.449621 0.815564 0.544865
O O1 0.619785 0.523043 0.435679
O O2 0.953761 0.225618 0.283821
O O3 0.968484 0.054449 0.316690
O O4 0.907168 0.025673 0.061183
O O5 0.519423 0.128774 0.937221
O O6 0.434573 0.980104 0.749413
O O7 0.195517 0.454853 0.152329
O O8 0.500000 0.000000 0.000000
O O9 0.980231 0.245248 0.833557
O O10 0.677692 0.423263 0.821001
O O11 0.000000 0.000000 0.500000
O O12 0.856706 0.459834 0.261562
O O13 0.262623 0.967289 0.129258
O O14 0.416874 0.316429 0.839664
O O15 0.474521 0.252209 0.597771
O O16 0.500000 0.000000 0.500000
O O17 0.221906 0.034226 0.623219
O O18 0.000000 0.500000 0.000000
#
# Coordination Sequence:
#
# PCOD9024575 Si02
#       8
#     2   2   2   2   2   2   2   2
#     4  10  23  44  63  92 138 166 221 275 333 402
#     4  10  22  41  61  94 134 169 217 275 328 396
#     4  11  25  42  66  98 136 177 227 271 327 416
#     4  10  24  44  67  96 130 175 214 280 340 392
#     4  11  22  44  68  96 133 167 223 281 327 403
#     4  11  24  44  69  97 131 175 222 277 340 389
#     4   9  22  42  63  91 129 177 218 268 335 388
#     4  10  22  40  65  93 127 173 218 269 337 391
#
# _framework density 20.403983
#
# number of rings (size 3 to 8) (size 9 to 14) (size 15 to 20)
#    0.000    1.750    2.500    0.000    5.250    5.500 
#    2.250    0.000    0.000    0.000    0.000    0.000 
#    0.000    0.000    0.000    0.000    0.000    0.000 
#
# Total GULP energy -89147.929552 kJ/mol
# GULP energy per Si atom -5571.745597 kJ/mol
# Density = 2.035754 g / cm^3
# Si number density = 20.403983 Si / 1000 Ang^3
#
#
#
# Elastic Constant Matrix: (Units=GPa)
#
#
# Indices 1 2 3 4 5 6 
#
# 1 75.9463 71.4195 18.2221 10.3898 -16.2642 7.7819
# 2 71.4195 154.1127 50.3395 23.9842 -23.5893 23.4473
# 3 18.2221 50.3395 84.0841 23.7034 -15.3069 -0.2791
# 4 10.3898 23.9842 23.7034 49.2123 1.7192 -6.8103
# 5 -16.2642 -23.5893 -15.3069 1.7192 32.2547 7.5729
# 6 7.7819 23.4473 -0.2791 -6.8103 7.5729 33.9219
#
#
#
# Elastic Compliance Matrix: (Units=1/GPa)
#
#
# Indices 1 2 3 4 5 6 
#
# 1 0.024349 -0.011418 0.002743 -0.000932 0.005040 0.001017
# 2 -0.011418 0.017314 -0.004942 -0.005611 0.007733 -0.012242
# 3 0.002743 -0.004942 0.017289 -0.006692 0.006287 0.000182
# 4 -0.000932 -0.005611 -0.006692 0.028633 -0.012214 0.012513
# 5 0.005040 0.007733 0.006287 -0.012214 0.047410 -0.019486
# 6 0.001017 -0.012242 0.000182 0.012513 -0.019486 0.044572
#
#
# Mechanical properties :
#
#
# Convention : Reuss Voigt Hill
#
# Bulk Modulus (GPa) = 31.52871 66.01171 48.77021
# Shear Modulus (GPa) = 23.00179 34.68858 28.84518
#
# Velocity S-wave (km/s) = 3.36120 4.12769 3.76400
# Velocity P-wave (km/s) = 5.52714 7.42561 6.54557
#
# Compressibility (1/GPa) = 0.03171712
#
# Stress axis : x y z
#
# Youngs Moduli (GPa) = 41.06897 57.75707 57.84044
#
# Poissons Ratio (x) = 0.65947 -0.15863
# Poissons Ratio (y) = 0.46893 0.28585
# Poissons Ratio (z) = -0.11264 0.28544
#
# Static dielectric constant tensor:
#      x y z
#    x 1.686120 -0.071700 0.111650 
#    y -0.071700 1.666260 0.065260 
#    z 0.111650 0.065260 1.705920 
# 
# From -- ./inp_files/455955.got.cif
#   From: 2010.05.17/outbox.cif.g08.bks.cpg/sg2_228_cif.got.tgz:455955.got - 2010.06.03 11:33:40.
