data_PCOD9024967
_publ_section_title
;
Structure prediction by ZEFSAII (Michael W. Deem and Ramdas Pophale) SiO2 
 PCOD9024967
Probable space group: P -1
;
_chemical_formula_sum "Si O2"
_cell_formula_units_Z 13
_cell_length_a 14.129281
_cell_length_b 7.673776
_cell_length_c 5.187899
_cell_angle_alpha 104.826093
_cell_angle_beta 81.779633
_cell_angle_gamma 124.731138
_cell_volume 446.886484
_symmetry_space_group_name_H-M "P -1"
_symmetry_group_IT_number 2
_symmetry_cell_setting 'triclinic'
loop_
_space_group_symop_operation_xyz
x,y,z
-x,-y,-z
loop_
_atom_site_type_symbol
_atom_site_label
_atom_site_fract_x
_atom_site_fract_y
_atom_site_fract_z
Si Si1 0.890223 0.628279 0.674045
Si Si2 0.616161 0.603630 0.774711
Si Si3 0.000000 0.000000 0.000000
Si Si4 0.305109 0.773836 0.110878
Si Si5 0.124384 0.727503 0.789921
Si Si6 0.232809 0.167676 0.697099
Si Si7 0.480640 0.781198 0.658064
O O1 0.771428 0.444965 0.778053
O O2 0.906902 0.502692 0.391856
O O3 0.005368 0.718739 0.856054
O O4 0.915592 0.863126 0.729451
O O5 0.703096 0.708901 0.537911
O O6 0.526017 0.668516 0.781162
O O7 0.551793 0.348379 0.644926
O O8 0.679177 0.707224 0.054090
O O9 0.116966 0.144243 0.821164
O O10 0.407442 0.974608 0.305411
O O11 0.205456 0.794229 0.029217
O O12 0.372656 0.759833 0.833863
O O13 0.196044 0.918201 0.627914
#
# Coordination Sequence:
#
# PCOD9024967 Si02
#       7
#     2   2   1   2   2   2   2
#     4  10  22  42  65  94 136 166 231 273 356 394
#     4  11  24  47  66 102 135 189 216 291 324 406
#     4  10  24  44  68 110 122 188 216 294 332 418
#     4  11  21  44  62  99 127 182 220 288 323 416
#     4  10  22  40  66  98 128 179 216 282 341 416
#     4  11  24  45  72  98 146 170 235 270 348 393
#     4  10  24  40  67  95 135 176 240 264 345 385
#
# _framework density 29.090163
#
# number of rings (size 3 to 8) (size 9 to 14) (size 15 to 20)
#    0.000    1.538    1.538    2.308    2.154    3.077 
#   13.846    2.308    0.000    0.000    0.000    0.000 
#    0.000    0.000    0.000    0.000    0.000    0.000 
#
# Total GULP energy -72742.579616 kJ/mol
# GULP energy per Si atom -5595.583047 kJ/mol
# Density = 2.902395 g / cm^3
# Si number density = 29.090163 Si / 1000 Ang^3
#
#
#
# Elastic Constant Matrix: (Units=GPa)
#
#
# Indices 1 2 3 4 5 6 
#
# 1 146.2595 19.7921 47.9164 -2.6472 19.8982 42.1887
# 2 19.7921 174.3398 76.0311 32.4065 15.1649 31.2122
# 3 47.9164 76.0311 167.5176 3.9435 3.5478 30.9039
# 4 -2.6472 32.4065 3.9435 56.7712 14.8152 -11.5052
# 5 19.8982 15.1649 3.5478 14.8152 39.5593 1.8393
# 6 42.1887 31.2122 30.9039 -11.5052 1.8393 55.9080
#
#
#
# Elastic Compliance Matrix: (Units=1/GPa)
#
#
# Indices 1 2 3 4 5 6 
#
# 1 0.010090 0.001619 -0.002166 -0.000472 -0.004988 -0.007254
# 2 0.001619 0.009264 -0.003468 -0.005668 -0.001672 -0.005588
# 3 -0.002166 -0.003468 0.008281 0.000745 0.001439 -0.000901
# 4 -0.000472 -0.005668 0.000745 0.024337 -0.007159 0.008352
# 5 -0.004988 -0.001672 0.001439 -0.007159 0.030915 0.001412
# 6 -0.007254 -0.005588 -0.000901 0.008352 0.001412 0.028650
#
#
# Mechanical properties :
#
#
# Convention : Reuss Voigt Hill
#
# Bulk Modulus (GPa) = 51.00552 86.17735 68.59144
# Shear Modulus (GPa) = 39.65011 53.40619 46.52815
#
# Velocity S-wave (km/s) = 3.69590 4.28937 4.00365
# Velocity P-wave (km/s) = 5.98202 7.36343 6.70838
#
# Compressibility (1/GPa) = 0.01960572
#
# Stress axis : x y z
#
# Youngs Moduli (GPa) = 99.10692 107.94436 120.75297
#
# Poissons Ratio (x) = -0.17481 0.26158
# Poissons Ratio (y) = -0.16050 0.41878
# Poissons Ratio (z) = 0.21469 0.37436
#
# Static dielectric constant tensor:
#      x y z
#    x 2.029520 0.322330 0.275530 
#    y 0.322330 1.648220 -0.350990 
#    z 0.275530 -0.350990 2.094960 
# 
# From -- ./inp_files/35170.got.cif
#   From: 2010.05.17/outbox.cif.g08.bks.cpg/sg2_18_cif.got.tgz:35170.got - 2010.06.03 11:33:40.
