data_PCOD9024918
_publ_section_title
;
Structure prediction by ZEFSAII (Michael W. Deem and Ramdas Pophale) SiO2 
 PCOD9024918
Probable space group: P -1
;
_chemical_formula_sum "Si O2"
_cell_formula_units_Z 14
_cell_length_a 11.022833
_cell_length_b 14.263340
_cell_length_c 8.076799
_cell_angle_alpha 111.352953
_cell_angle_beta 73.308615
_cell_angle_gamma 50.289718
_cell_volume 626.098481
_symmetry_space_group_name_H-M "P -1"
_symmetry_group_IT_number 2
_symmetry_cell_setting 'triclinic'
loop_
_space_group_symop_operation_xyz
x,y,z
-x,-y,-z
loop_
_atom_site_type_symbol
_atom_site_label
_atom_site_fract_x
_atom_site_fract_y
_atom_site_fract_z
Si Si1 0.852982 0.626056 0.388531
Si Si2 0.382769 0.562573 0.765168
Si Si3 0.653263 0.018940 0.308028
Si Si4 0.843032 0.278748 0.565828
Si Si5 0.001223 0.027823 0.825552
Si Si6 0.920091 0.714197 0.739215
Si Si7 0.019830 0.682774 0.150211
O O1 0.608705 0.779927 0.492721
O O2 0.820532 0.720914 0.622601
O O3 0.023703 0.571634 0.161696
O O4 0.965599 0.449609 0.300428
O O5 0.500000 0.500000 0.500000
O O6 0.581871 0.421483 0.729875
O O7 0.232540 0.760452 0.984126
O O8 0.201186 0.591777 0.877196
O O9 0.791259 0.030225 0.302266
O O10 0.758962 0.877248 0.319235
O O11 0.745010 0.898403 0.031695
O O12 0.903607 0.321577 0.429604
O O13 0.910750 0.285002 0.713409
O O14 0.977953 0.086360 0.360972
O O15 0.000000 0.000000 0.000000
#
# Coordination Sequence:
#
# PCOD9024918 Si02
#       7
#     2   2   2   2   2   2   2
#     4  10  23  43  64  90 129 171 212 266 321 368
#     4  11  22  39  65  93 125 168 215 261 325 380
#     4  11  22  39  64  92 128 169 214 260 321 380
#     4  11  22  42  66  95 137 164 211 272 319 377
#     4  11  22  38  64 100 124 166 218 261 313 387
#     4  10  22  40  66  96 122 166 223 260 307 392
#     4  10  24  43  63  97 133 168 215 268 318 388
#
# _framework density 22.360699
#
# number of rings (size 3 to 8) (size 9 to 14) (size 15 to 20)
#    0.000    1.429    2.857    2.143    2.000    5.143 
#    0.000    4.286    0.000    0.000    0.000    0.000 
#    0.000    0.000    0.000    0.000    0.000    0.000 
#
# Total GULP energy -78219.523844 kJ/mol
# GULP energy per Si atom -5587.108846 kJ/mol
# Density = 2.230981 g / cm^3
# Si number density = 22.360699 Si / 1000 Ang^3
#
#
#
# Elastic Constant Matrix: (Units=GPa)
#
#
# Indices 1 2 3 4 5 6 
#
# 1 109.1389 27.9272 47.9680 6.2234 18.9902 3.9758
# 2 27.9272 108.8332 38.9213 -3.9103 -16.3719 12.0938
# 3 47.9680 38.9213 87.0408 3.4757 -4.0848 6.3996
# 4 6.2234 -3.9103 3.4757 35.2335 -9.0628 -7.0473
# 5 18.9902 -16.3719 -4.0848 -9.0628 32.2770 2.2719
# 6 3.9758 12.0938 6.3996 -7.0473 2.2719 48.5838
#
#
#
# Elastic Compliance Matrix: (Units=1/GPa)
#
#
# Indices 1 2 3 4 5 6 
#
# 1 0.016396 -0.003854 -0.007770 -0.006164 -0.014345 0.000418
# 2 -0.003854 0.013324 -0.003372 0.004608 0.010059 -0.002359
# 3 -0.007770 -0.003372 0.017586 0.000415 0.005275 -0.001028
# 4 -0.006164 0.004608 0.000415 0.034647 0.015491 0.003604
# 5 -0.014345 0.010059 0.005275 0.015491 0.049689 -0.002102
# 6 0.000418 -0.002359 -0.001028 0.003604 -0.002102 0.021892
#
#
# Mechanical properties :
#
#
# Convention : Reuss Voigt Hill
#
# Bulk Modulus (GPa) = 57.76303 59.40510 58.58407
# Shear Modulus (GPa) = 26.41305 35.89862 31.15584
#
# Velocity S-wave (km/s) = 3.44063 4.01113 3.73678
# Velocity P-wave (km/s) = 6.45541 6.93373 6.69884
#
# Compressibility (1/GPa) = 0.01731211
#
# Stress axis : x y z
#
# Youngs Moduli (GPa) = 60.98890 75.04982 56.86452
#
# Poissons Ratio (x) = 0.28928 0.44185
# Poissons Ratio (y) = 0.23508 0.19177
# Poissons Ratio (z) = 0.47390 0.25310
#
# Static dielectric constant tensor:
#      x y z
#    x 1.752080 -0.024610 -0.066420 
#    y -0.024610 1.837160 -0.099150 
#    z -0.066420 -0.099150 1.767250 
# 
# From -- ./inp_files/273630.got.cif
#   From: 2010.05.17/outbox.cif.g08.bks.cpg/sg2_137_cif.got.tgz:273630.got - 2010.06.03 11:33:40.
