data_PCOD9024561
_publ_section_title
;
Structure prediction by ZEFSAII (Michael W. Deem and Ramdas Pophale) SiO2 
 PCOD9024561
Probable space group: P -1
;
_chemical_formula_sum "Si O2"
_cell_formula_units_Z 15
_cell_length_a 22.430710
_cell_length_b 10.645418
_cell_length_c 8.852379
_cell_angle_alpha 114.584823
_cell_angle_beta 139.618227
_cell_angle_gamma 35.341938
_cell_volume 662.712822
_symmetry_space_group_name_H-M "P -1"
_symmetry_group_IT_number 2
_symmetry_cell_setting 'triclinic'
loop_
_space_group_symop_operation_xyz
x,y,z
-x,-y,-z
loop_
_atom_site_type_symbol
_atom_site_label
_atom_site_fract_x
_atom_site_fract_y
_atom_site_fract_z
Si Si1 0.783587 0.566632 0.339560
Si Si2 0.000000 0.000000 0.000000
Si Si3 0.933849 0.852139 0.551213
Si Si4 0.461283 0.743777 0.396019
Si Si5 0.749732 0.318172 0.230063
Si Si6 0.473277 0.985703 0.733709
Si Si7 0.589183 0.154527 0.001400
Si Si8 0.757273 0.197847 0.847368
O O1 0.832088 0.365677 0.420846
O O2 0.927286 0.407941 0.411075
O O3 0.715425 0.764124 0.427187
O O4 0.607746 0.756608 0.001966
O O5 0.941906 0.977604 0.019496
O O6 0.008812 0.846732 0.830118
O O7 0.852656 0.072723 0.396156
O O8 0.772770 0.957839 0.331003
O O9 0.481438 0.875062 0.552548
O O10 0.411042 0.801890 0.153479
O O11 0.636558 0.433496 0.610329
O O12 0.322485 0.849301 0.292860
O O13 0.560522 0.572494 0.064709
O O14 0.742816 0.290041 0.026652
O O15 0.538135 0.058267 0.861437
#
# Coordination Sequence:
#
# PCOD9024561 Si02
#       8
#     2   1   2   2   2   2   2   2
#     4  10  22  40  65  92 126 181 220 270 325 389
#     4  12  26  38  60 100 134 164 204 282 334 388
#     4  12  24  41  64 100 135 168 221 278 336 383
#     4  11  22  43  67  99 130 174 225 267 326 389
#     4  11  21  42  67  97 130 174 215 271 340 389
#     4  10  22  43  68  92 133 182 227 260 319 398
#     4  11  25  39  68  99 134 178 220 268 321 403
#     4  11  24  39  69  98 133 169 214 281 334 389
#
# _framework density 22.634236999999999
#
# number of rings (size 3 to 8) (size 9 to 14) (size 15 to 20)
#    0.000    1.067    4.000    2.000    3.733    0.533 
#    0.000    2.000    0.000    0.000    0.000    0.000 
#    0.000    0.000    0.000    0.000    0.000    0.000 
#
# Total GULP energy -83582.603194 kJ/mol
# GULP energy per Si atom -5572.173546 kJ/mol
# Density = 2.258272 g / cm^3
# Si number density = 22.634237 Si / 1000 Ang^3
#
#
#
# Elastic Constant Matrix: (Units=GPa)
#
#
# Indices 1 2 3 4 5 6 
#
# 1 86.7303 35.2671 27.6375 2.8394 -3.7058 -6.8164
# 2 35.2671 82.5370 17.5766 -5.8945 9.2179 -5.5248
# 3 27.6375 17.5766 43.2339 5.6859 6.3977 -7.3697
# 4 2.8394 -5.8945 5.6859 19.5139 -4.6188 3.0632
# 5 -3.7058 9.2179 6.3977 -4.6188 21.0271 -4.8545
# 6 -6.8164 -5.5248 -7.3697 3.0632 -4.8545 35.4966
#
#
#
# Elastic Compliance Matrix: (Units=1/GPa)
#
#
# Indices 1 2 3 4 5 6 
#
# 1 0.017832 -0.006420 -0.009955 0.000346 0.009436 0.001619
# 2 -0.006420 0.016429 -0.002353 0.005096 -0.006616 -0.000509
# 3 -0.009955 -0.002353 0.034885 -0.013238 -0.013253 0.004295
# 4 0.000346 0.005096 -0.013238 0.060722 0.013989 -0.005216
# 5 0.009436 -0.006616 -0.013253 0.013989 0.060400 0.005084
# 6 0.001619 -0.000509 0.004295 -0.005216 0.005084 0.030440
#
#
# Mechanical properties :
#
#
# Convention : Reuss Voigt Hill
#
# Bulk Modulus (GPa) = 31.55645 41.49594 36.52620
# Shear Modulus (GPa) = 18.60626 24.00884 21.30755
#
# Velocity S-wave (km/s) = 2.87024 3.26042 3.07153
# Velocity P-wave (km/s) = 4.99565 5.70498 5.36206
#
# Compressibility (1/GPa) = 0.03168924
#
# Stress axis : x y z
#
# Youngs Moduli (GPa) = 56.07913 60.86837 28.66593
#
# Poissons Ratio (x) = 0.39079 0.28537
# Poissons Ratio (y) = 0.36004 0.06745
# Poissons Ratio (z) = 0.55826 0.14322
#
# Static dielectric constant tensor:
#      x y z
#    x 1.870460 -0.007200 0.055760 
#    y -0.007200 1.861760 -0.083990 
#    z 0.055760 -0.083990 1.733140 
# 
# From -- ./inp_files/353636.got.cif
#   From: 2010.05.17/outbox.cif.g08.bks.cpg/sg2_177_cif.got.tgz:353636.got - 2010.06.03 11:33:40.
