data_PCOD9024307
_publ_section_title
;
Structure prediction by ZEFSAII (Michael W. Deem and Ramdas Pophale) SiO2 
 PCOD9024307
Probable space group: P -1
;
_chemical_formula_sum "Si O2"
_cell_formula_units_Z 16
_cell_length_a 5.132247
_cell_length_b 8.733530
_cell_length_c 18.810682
_cell_angle_alpha 121.639706
_cell_angle_beta 117.684500
_cell_angle_gamma 78.226369
_cell_volume 634.764816
_symmetry_space_group_name_H-M "P -1"
_symmetry_group_IT_number 2
_symmetry_cell_setting 'triclinic'
loop_
_space_group_symop_operation_xyz
x,y,z
-x,-y,-z
loop_
_atom_site_type_symbol
_atom_site_label
_atom_site_fract_x
_atom_site_fract_y
_atom_site_fract_z
Si Si1 0.601189 0.459336 0.842304
Si Si2 0.781907 0.702106 0.115797
Si Si3 0.726420 0.168624 0.527738
Si Si4 0.275038 0.187882 0.138586
Si Si5 0.661061 0.857015 0.345164
Si Si6 0.884874 0.694172 0.523788
Si Si7 0.746654 0.073613 0.272156
Si Si8 0.654365 0.161177 0.013882
O O1 0.377970 0.387410 0.857588
O O2 0.604768 0.668678 0.871194
O O3 0.506087 0.335804 0.731558
O O4 0.927440 0.401075 0.889318
O O5 0.559544 0.710882 0.023446
O O6 0.847225 0.912873 0.195268
O O7 0.461460 0.298591 0.531660
O O8 0.984633 0.165305 0.617688
O O9 0.927306 0.225977 0.498851
O O10 0.596951 0.972006 0.435718
O O11 0.512880 0.194465 0.232811
O O12 0.232975 0.970339 0.067550
O O13 0.937178 0.241149 0.111848
O O14 0.590978 0.974553 0.295970
O O15 0.000000 0.500000 0.500000
O O16 0.979597 0.808693 0.633227
O O17 0.500000 0.000000 0.000000
#
# Coordination Sequence:
#
# PCOD9024307 Si02
#       8
#     2   2   2   2   2   2   2   2
#     4  11  24  42  66 103 130 170 221 281 325 381
#     4  10  24  43  69  93 134 173 221 270 330 393
#     4  10  22  40  64  91 129 177 224 270 329 392
#     4  10  24  43  66  98 133 170 219 271 334 389
#     4   9  21  40  69  93 130 177 225 274 329 395
#     4  11  23  40  62  96 131 173 220 276 329 383
#     4   9  21  44  63  95 129 181 213 269 327 405
#     4  10  24  44  70  93 131 181 215 263 331 409
#
# _framework density 25.206185999999999
#
# number of rings (size 3 to 8) (size 9 to 14) (size 15 to 20)
#    0.000    2.000    0.000    1.125   10.500    7.500 
#    2.250    0.000    0.000    0.000    0.000    0.000 
#    0.000    0.000    0.000    0.000    0.000    0.000 
#
# Total GULP energy -89469.068706 kJ/mol
# GULP energy per Si atom -5591.816794 kJ/mol
# Density = 2.514882 g / cm^3
# Si number density = 25.206186 Si / 1000 Ang^3
#
#
#
# Elastic Constant Matrix: (Units=GPa)
#
#
# Indices 1 2 3 4 5 6 
#
# 1 98.5708 25.2783 21.0572 -21.0064 30.7953 -27.9685
# 2 25.2783 148.8934 57.0903 -19.4588 19.6094 -26.6705
# 3 21.0572 57.0903 88.6865 -21.6031 10.3407 -5.8642
# 4 -21.0064 -19.4588 -21.6031 53.6457 -11.2345 3.5126
# 5 30.7953 19.6094 10.3407 -11.2345 35.2952 -7.8171
# 6 -27.9685 -26.6705 -5.8642 3.5126 -7.8171 38.5914
#
#
#
# Elastic Compliance Matrix: (Units=1/GPa)
#
#
# Indices 1 2 3 4 5 6 
#
# 1 0.017976 0.002018 -0.002542 0.003397 -0.012500 0.011195
# 2 0.002018 0.010640 -0.006188 0.000855 -0.004042 0.006980
# 3 -0.002542 -0.006188 0.016414 0.003877 0.001257 -0.003723
# 4 0.003397 0.000855 0.003877 0.022330 0.003026 0.002222
# 5 -0.012500 -0.004042 0.001257 0.003026 0.041288 -0.003574
# 6 0.011195 0.006980 -0.003723 0.002222 -0.003574 0.037358
#
#
# Mechanical properties :
#
#
# Convention : Reuss Voigt Hill
#
# Bulk Modulus (GPa) = 31.63808 60.33360 45.98584
# Shear Modulus (GPa) = 29.41759 41.02145 35.21952
#
# Velocity S-wave (km/s) = 3.41996 4.03853 3.74205
# Velocity P-wave (km/s) = 5.30790 6.76271 6.07898
#
# Compressibility (1/GPa) = 0.03160748
#
# Stress axis : x y z
#
# Youngs Moduli (GPa) = 55.62909 93.98164 60.92250
#
# Poissons Ratio (x) = -0.18970 0.15489
# Poissons Ratio (y) = -0.11229 0.37698
# Poissons Ratio (z) = 0.14143 0.58154
#
# Static dielectric constant tensor:
#      x y z
#    x 2.110040 -0.022700 -0.086360 
#    y -0.022700 2.020620 0.049140 
#    z -0.086360 0.049140 2.081440 
# 
# From -- ./inp_files/582546.got.cif
#   From: 2010.05.17/outbox.cif.g08.bks.cpg/sg2_292_cif.got.tgz:582546.got - 2010.06.03 11:33:40.
