data_PCOD9024345
_publ_section_title
;
Structure prediction by ZEFSAII (Michael W. Deem and Ramdas Pophale) SiO2 
 PCOD9024345
Probable space group: P -1
;
_chemical_formula_sum "Si O2"
_cell_formula_units_Z 14
_cell_length_a 5.300471
_cell_length_b 5.621472
_cell_length_c 18.598667
_cell_angle_alpha 102.432864
_cell_angle_beta 85.576175
_cell_angle_gamma 93.924049
_cell_volume 538.800998
_symmetry_space_group_name_H-M "P -1"
_symmetry_group_IT_number 2
_symmetry_cell_setting 'triclinic'
loop_
_space_group_symop_operation_xyz
x,y,z
-x,-y,-z
loop_
_atom_site_type_symbol
_atom_site_label
_atom_site_fract_x
_atom_site_fract_y
_atom_site_fract_z
Si Si1 0.507446 0.095202 0.925472
Si Si2 0.974258 0.051075 0.273406
Si Si3 0.640327 0.220829 0.413256
Si Si4 0.197270 0.833236 0.446963
Si Si5 0.980799 0.687788 0.123337
Si Si6 0.353894 0.665221 0.815062
Si Si7 0.363672 0.476606 0.318816
O O1 0.745002 0.285833 0.917826
O O2 0.237008 0.187270 0.910618
O O3 0.549278 0.856620 0.860693
O O4 0.500000 0.000000 0.000000
O O5 0.834570 0.061199 0.353630
O O6 0.799584 0.202878 0.234123
O O7 0.231393 0.211368 0.290658
O O8 0.008303 0.810552 0.210334
O O9 0.735664 0.324018 0.494110
O O10 0.559913 0.433139 0.375741
O O11 0.415926 0.025708 0.426885
O O12 0.163379 0.653316 0.368126
O O13 0.000000 0.000000 0.500000
O O14 0.151844 0.573314 0.872889
O O15 0.498983 0.457488 0.755160
#
# Coordination Sequence:
#
# PCOD9024345 Si02
#       7
#     2   2   2   2   2   2   2
#     4  11  25  45  70 106 143 178 227 281 336 411
#     4  10  22  40  64  93 127 170 229 281 332 406
#     4  10  23  40  58  88 125 170 224 281 345 406
#     4  11  24  39  59  90 125 170 227 283 346 413
#     4  11  24  43  71 101 142 182 227 279 339 409
#     4  10  24  42  67  99 133 180 227 275 343 407
#     4  11  22  41  65  87 129 175 225 284 341 409
#
# _framework density 25.983616000000001
#
# number of rings (size 3 to 8) (size 9 to 14) (size 15 to 20)
#    0.000    1.429    1.429    2.571    2.000   10.286 
#    0.000    0.000    0.000    0.000    0.000    0.000 
#    0.000    0.000    0.000    0.000    0.000    0.000 
#
# Total GULP energy -78317.800803 kJ/mol
# GULP energy per Si atom -5594.128629 kJ/mol
# Density = 2.592448 g / cm^3
# Si number density = 25.983616 Si / 1000 Ang^3
#
#
#
# Elastic Constant Matrix: (Units=GPa)
#
#
# Indices 1 2 3 4 5 6 
#
# 1 93.1767 11.8154 17.5205 -14.6987 -9.4215 11.4181
# 2 11.8154 43.2810 8.2873 -10.3560 -0.4059 5.1276
# 3 17.5205 8.2873 104.4912 -28.3186 4.3239 -10.0305
# 4 -14.6987 -10.3560 -28.3186 29.0030 9.9443 -12.4619
# 5 -9.4215 -0.4059 4.3239 9.9443 29.5106 -6.7510
# 6 11.4181 5.1276 -10.0305 -12.4619 -6.7510 45.5732
#
#
#
# Elastic Compliance Matrix: (Units=1/GPa)
#
#
# Indices 1 2 3 4 5 6 
#
# 1 0.012202 -0.002311 -0.001784 0.001575 0.003067 -0.002305
# 2 -0.002311 0.026062 0.001656 0.011465 -0.004371 0.000499
# 3 -0.001784 0.001656 0.017450 0.023797 -0.009001 0.009275
# 4 0.001575 0.011465 0.023797 0.080572 -0.024970 0.021886
# 5 0.003067 -0.004371 -0.009001 -0.024970 0.043949 -0.002575
# 6 -0.002305 0.000499 0.009275 0.021886 -0.002575 0.030109
#
#
# Mechanical properties :
#
#
# Convention : Reuss Voigt Hill
#
# Bulk Modulus (GPa) = 19.67069 35.13279 27.40174
# Shear Modulus (GPa) = 21.53633 34.37242 27.95437
#
# Velocity S-wave (km/s) = 2.88209 3.64105 3.28357
# Velocity P-wave (km/s) = 4.31996 5.58809 4.99444
#
# Compressibility (1/GPa) = 0.05083707
#
# Stress axis : x y z
#
# Youngs Moduli (GPa) = 81.95530 38.37050 57.30621
#
# Poissons Ratio (x) = 0.08866 0.10223
# Poissons Ratio (y) = 0.18938 -0.09493
# Poissons Ratio (z) = 0.14621 -0.06356
#
# Static dielectric constant tensor:
#      x y z
#    x 2.128620 -0.074230 -0.038350 
#    y -0.074230 2.084530 0.038940 
#    z -0.038350 0.038940 2.053460 
# 
# From -- ./inp_files/547456.got.cif
#   From: 2010.05.17/outbox.cif.g08.bks.cpg/sg2_274_cif.got.tgz:547456.got - 2010.06.03 11:33:40.
