data_PCOD9024826
_publ_section_title
;
Structure prediction by ZEFSAII (Michael W. Deem and Ramdas Pophale) SiO2 
 PCOD9024826
Probable space group: P -1
;
_chemical_formula_sum "Si O2"
_cell_formula_units_Z 16
_cell_length_a 15.603535
_cell_length_b 8.388190
_cell_length_c 13.904920
_cell_angle_alpha 116.657363
_cell_angle_beta 152.601475
_cell_angle_gamma 71.740816
_cell_volume 732.312865
_symmetry_space_group_name_H-M "P -1"
_symmetry_group_IT_number 2
_symmetry_cell_setting 'triclinic'
loop_
_space_group_symop_operation_xyz
x,y,z
-x,-y,-z
loop_
_atom_site_type_symbol
_atom_site_label
_atom_site_fract_x
_atom_site_fract_y
_atom_site_fract_z
Si Si1 0.101707 0.380301 0.638103
Si Si2 0.829007 0.961470 0.077157
Si Si3 0.768017 0.891414 0.454541
Si Si4 0.359017 0.728375 0.071504
Si Si5 0.099077 0.439155 0.177110
Si Si6 0.608148 0.771110 0.626099
Si Si7 0.749162 0.158228 0.793253
Si Si8 0.927872 0.241148 0.618558
O O1 0.180707 0.237280 0.613046
O O2 0.952771 0.283427 0.543273
O O3 0.000000 0.500000 0.500000
O O4 0.269495 0.522913 0.897085
O O5 0.699372 0.836567 0.837237
O O6 0.732124 0.131409 0.046714
O O7 0.886877 0.840296 0.187485
O O8 0.042473 0.051037 0.275312
O O9 0.583636 0.790223 0.298230
O O10 0.756212 0.081719 0.441922
O O11 0.302091 0.767333 0.133759
O O12 0.312022 0.406090 0.369459
O O13 0.079476 0.579359 0.279616
O O14 0.000000 0.500000 0.000000
O O15 0.966866 0.242067 0.013597
O O16 0.384065 0.764448 0.394982
O O17 0.689709 0.941008 0.681884
#
# Coordination Sequence:
#
# PCOD9024826 Si02
#       8
#     2   2   2   2   2   2   2   2
#     4  12  22  43  71  95 127 171 219 276 329 376
#     4   9  21  42  64  90 136 170 209 264 331 381
#     4  10  23  42  67  93 128 175 216 265 329 394
#     4  11  22  42  68  96 128 170 223 272 321 388
#     4  12  22  41  64  95 133 176 219 260 325 395
#     4  10  22  40  66  92 129 177 214 267 320 389
#     4  10  24  40  62  99 134 167 223 271 323 376
#     4  10  23  43  63  96 136 172 209 272 329 388
#
# _framework density 21.848583999999999
#
# number of rings (size 3 to 8) (size 9 to 14) (size 15 to 20)
#    0.750    0.750    3.750    1.125    0.000    9.500 
#    2.250    3.750    0.000    0.000    0.000    0.000 
#    0.000    0.000    0.000    0.000    0.000    0.000 
#
# Total GULP energy -89346.498029 kJ/mol
# GULP energy per Si atom -5584.156127 kJ/mol
# Density = 2.179886 g / cm^3
# Si number density = 21.848584 Si / 1000 Ang^3
#
#
#
# Elastic Constant Matrix: (Units=GPa)
#
#
# Indices 1 2 3 4 5 6 
#
# 1 53.0886 -2.6552 6.0355 -1.0240 -9.0759 3.0948
# 2 -2.6552 72.1383 2.5288 0.1694 -10.6993 -7.8290
# 3 6.0355 2.5288 74.8249 1.1427 2.2385 0.5034
# 4 -1.0240 0.1694 1.1427 30.7865 1.9994 -1.6285
# 5 -9.0759 -10.6993 2.2385 1.9994 27.8592 -1.3150
# 6 3.0948 -7.8290 0.5034 -1.6285 -1.3150 27.5837
#
#
#
# Elastic Compliance Matrix: (Units=1/GPa)
#
#
# Indices 1 2 3 4 5 6 
#
# 1 0.020501 0.001773 -0.001929 0.000187 0.007435 -0.001396
# 2 0.001773 0.015461 -0.000897 -0.000196 0.006815 0.004519
# 3 -0.001929 -0.000897 0.013622 -0.000453 -0.002054 -0.000411
# 4 0.000187 -0.000196 -0.000453 0.032745 -0.002245 0.001758
# 5 0.007435 0.006815 -0.002054 -0.002245 0.041401 0.002979
# 6 -0.001396 0.004519 -0.000411 0.001758 0.002979 0.037946
#
#
# Mechanical properties :
#
#
# Convention : Reuss Voigt Hill
#
# Bulk Modulus (GPa) = 21.06314 23.54111 22.30213
# Shear Modulus (GPa) = 27.83870 30.18872 29.01371
#
# Velocity S-wave (km/s) = 3.57342 3.72119 3.64805
# Velocity P-wave (km/s) = 5.16596 5.40935 5.28906
#
# Compressibility (1/GPa) = 0.04747630
#
# Stress axis : x y z
#
# Youngs Moduli (GPa) = 48.77913 64.68068 73.41265
#
# Poissons Ratio (x) = -0.11468 0.14165
# Poissons Ratio (y) = -0.08649 0.06584
# Poissons Ratio (z) = 0.09412 0.05801
#
# Static dielectric constant tensor:
#      x y z
#    x 1.770400 0.021880 0.000750 
#    y 0.021880 1.813520 0.007160 
#    z 0.000750 0.007160 1.817840 
# 
# From -- ./inp_files/529004.got.cif
#   From: 2010.05.17/outbox.cif.g08.bks.cpg/sg2_265_cif.got.tgz:529004.got - 2010.06.03 11:33:40.
