data_PCOD9024348
_publ_section_title
;
Structure prediction by ZEFSAII (Michael W. Deem and Ramdas Pophale) SiO2 
 PCOD9024348
Probable space group: P -1
;
_chemical_formula_sum "Si O2"
_cell_formula_units_Z 16
_cell_length_a 27.114970
_cell_length_b 5.219703
_cell_length_c 27.867141
_cell_angle_alpha 106.075245
_cell_angle_beta 10.513181
_cell_angle_gamma 105.714040
_cell_volume 691.484814
_symmetry_space_group_name_H-M "P -1"
_symmetry_group_IT_number 2
_symmetry_cell_setting 'triclinic'
loop_
_space_group_symop_operation_xyz
x,y,z
-x,-y,-z
loop_
_atom_site_type_symbol
_atom_site_label
_atom_site_fract_x
_atom_site_fract_y
_atom_site_fract_z
Si Si1 0.129524 0.934502 0.479027
Si Si2 0.201995 0.834639 0.731739
Si Si3 0.249730 0.523647 0.426450
Si Si4 0.285260 0.795100 0.754736
Si Si5 0.546640 0.799094 0.988977
Si Si6 0.164898 0.458830 0.091836
Si Si7 0.848807 0.133047 0.959727
Si Si8 0.612259 0.636846 0.519304
O O1 0.200293 0.769064 0.450646
O O2 0.843682 0.839768 0.727817
O O3 0.135103 0.249494 0.500264
O O4 0.344208 0.866971 0.229112
O O5 0.191058 0.690153 0.787598
O O6 0.213411 0.633807 0.666010
O O7 0.471631 0.004732 0.478396
O O8 0.951255 0.035658 0.985566
O O9 0.092715 0.572133 0.628914
O O10 0.567455 0.486587 0.130305
O O11 0.417331 0.604849 0.657753
O O12 0.500000 0.500000 0.000000
O O13 0.500000 0.000000 0.000000
O O14 0.120664 0.703741 0.110612
O O15 0.215274 0.175890 0.002935
O O16 0.600022 0.279615 0.232678
O O17 0.142845 0.154969 0.704727
#
# Coordination Sequence:
#
# PCOD9024348 Si02
#       8
#     2   2   2   2   2   2   2   2
#     4  12  24  42  70 106 127 192 238 276 337 396
#     4  10  22  40  64  93 128 168 215 269 326 388
#     4  12  24  45  74  94 136 167 241 296 333 402
#     4  10  22  40  64  93 128 168 215 269 326 388
#     4  12  24  42  64 100 154 188 225 278 333 398
#     4  12  26  49  66 102 129 177 214 298 359 398
#     4  12  28  43  71  96 136 171 223 266 362 430
#     4  12  25  41  66  96 129 175 214 278 321 432
#
# _framework density 23.138614
#
# number of rings (size 3 to 8) (size 9 to 14) (size 15 to 20)
#    0.000    0.500    0.000    8.625    5.250    0.000 
#    0.000    5.000    0.000    0.000    0.000    0.000 
#    0.000    0.000    0.000    0.000    0.000    0.000 
#
# Total GULP energy -89599.436333 kJ/mol
# GULP energy per Si atom -5599.964771 kJ/mol
# Density = 2.308595 g / cm^3
# Si number density = 23.138614 Si / 1000 Ang^3
#
#
#
# Elastic Constant Matrix: (Units=GPa)
#
#
# Indices 1 2 3 4 5 6 
#
# 1 52.5891 8.8403 13.2901 2.7458 0.2224 -15.1456
# 2 8.8403 86.6535 2.2567 0.8224 6.2707 5.7707
# 3 13.2901 2.2567 157.0705 11.8132 8.2520 2.6650
# 4 2.7458 0.8224 11.8132 38.8494 10.9532 -1.4781
# 5 0.2224 6.2707 8.2520 10.9532 55.8712 2.0654
# 6 -15.1456 5.7707 2.6650 -1.4781 2.0654 50.8948
#
#
#
# Elastic Compliance Matrix: (Units=1/GPa)
#
#
# Indices 1 2 3 4 5 6 
#
# 1 0.021971 -0.002673 -0.001901 -0.000765 0.000388 0.006903
# 2 -0.002673 0.012043 0.000145 0.000182 -0.001320 -0.002110
# 3 -0.001901 0.000145 0.006707 -0.001771 -0.000617 -0.000960
# 4 -0.000765 0.000182 -0.001771 0.027841 -0.005246 0.000866
# 5 0.000388 -0.001320 -0.000617 -0.005246 0.019188 -0.000634
# 6 0.006903 -0.002110 -0.000960 0.000866 -0.000634 0.022043
#
#
# Mechanical properties :
#
#
# Convention : Reuss Voigt Hill
#
# Bulk Modulus (GPa) = 31.38269 38.34303 34.86286
# Shear Modulus (GPa) = 38.67804 47.25147 42.96476
#
# Velocity S-wave (km/s) = 4.09293 4.52387 4.31378
# Velocity P-wave (km/s) = 5.99404 6.62527 6.31754
#
# Compressibility (1/GPa) = 0.03186470
#
# Stress axis : x y z
#
# Youngs Moduli (GPa) = 45.51405 83.03318 149.09417
#
# Poissons Ratio (x) = 0.22191 0.28337
# Poissons Ratio (y) = 0.12164 -0.02155
# Poissons Ratio (z) = 0.08650 -0.01200
#
# Static dielectric constant tensor:
#      x y z
#    x 1.920310 -0.010710 -0.015980 
#    y -0.010710 1.869910 -0.000260 
#    z -0.015980 -0.000260 1.805850 
# 
# From -- ./inp_files/621075.got.cif
#   From: 2010.05.17/outbox.cif.g08.bks.cpg/sg2_311_cif.got.tgz:621075.got - 2010.06.03 11:33:40.
