data_PCOD9024651
_publ_section_title
;
Structure prediction by ZEFSAII (Michael W. Deem and Ramdas Pophale) SiO2 
 PCOD9024651
Probable space group: P -1
;
_chemical_formula_sum "Si O2"
_cell_formula_units_Z 16
_cell_length_a 10.514127
_cell_length_b 8.240375
_cell_length_c 13.632038
_cell_angle_alpha 79.729310
_cell_angle_beta 148.877229
_cell_angle_gamma 95.988368
_cell_volume 597.973578
_symmetry_space_group_name_H-M "P -1"
_symmetry_group_IT_number 2
_symmetry_cell_setting 'triclinic'
loop_
_space_group_symop_operation_xyz
x,y,z
-x,-y,-z
loop_
_atom_site_type_symbol
_atom_site_label
_atom_site_fract_x
_atom_site_fract_y
_atom_site_fract_z
Si Si1 0.825472 0.968698 0.794663
Si Si2 0.801372 0.581510 0.785459
Si Si3 0.243306 0.506570 0.451923
Si Si4 0.575967 0.378821 0.195538
Si Si5 0.232831 0.330307 0.790824
Si Si6 0.551361 0.045726 0.301475
Si Si7 0.209238 0.997854 0.898604
Si Si8 0.993273 0.805247 0.624911
O O1 0.830247 0.777508 0.785665
O O2 0.949828 0.057896 0.777051
O O3 0.557270 0.013806 0.660605
O O4 0.000000 0.000000 0.000000
O O5 0.522498 0.548104 0.631750
O O6 0.847190 0.491219 0.720717
O O7 0.000000 0.500000 0.000000
O O8 0.214002 0.317669 0.480779
O O9 0.055943 0.613884 0.388394
O O10 0.651577 0.566755 0.230984
O O11 0.821384 0.279786 0.322239
O O12 0.499474 0.245392 0.237981
O O13 0.363723 0.385451 0.971555
O O14 0.273253 0.133258 0.846329
O O15 0.835086 0.978694 0.484635
O O16 0.405593 0.982665 0.117707
O O17 0.163389 0.832925 0.828320
#
# Coordination Sequence:
#
# PCOD9024651 Si02
#       8
#     2   2   2   2   2   2   2   2
#     4  10  23  41  64 100 131 168 214 259 335 392
#     4  11  25  41  65  94 135 175 214 265 325 394
#     4  10  24  41  63  97 130 171 221 261 327 386
#     4   9  20  42  65  91 128 173 220 268 325 369
#     4   9  20  40  66  90 127 169 214 275 311 385
#     4  10  23  38  66  93 133 167 215 268 321 392
#     4  10  22  40  65  96 128 169 218 265 333 379
#     4  11  22  40  67  94 128 172 218 274 318 384
#
# _framework density 26.757031999999999
#
# number of rings (size 3 to 8) (size 9 to 14) (size 15 to 20)
#    0.000    2.000    1.250    0.375   10.500    3.500 
#    0.000    0.625    2.750    0.000    0.000    0.000 
#    0.000    0.000    0.000    0.000    0.000    0.000 
#
# Total GULP energy -89568.137771 kJ/mol
# GULP energy per Si atom -5598.008611 kJ/mol
# Density = 2.669613 g / cm^3
# Si number density = 26.757032 Si / 1000 Ang^3
#
#
#
# Elastic Constant Matrix: (Units=GPa)
#
#
# Indices 1 2 3 4 5 6 
#
# 1 100.9687 29.4562 25.9238 10.6750 -1.9364 -0.8790
# 2 29.4562 103.7352 35.1897 17.4820 -9.8085 9.5297
# 3 25.9238 35.1897 133.8766 13.8906 -2.8867 -3.6337
# 4 10.6750 17.4820 13.8906 46.3012 -7.3832 0.2361
# 5 -1.9364 -9.8085 -2.8867 -7.3832 38.7504 9.3927
# 6 -0.8790 9.5297 -3.6337 0.2361 9.3927 42.4878
#
#
#
# Elastic Compliance Matrix: (Units=1/GPa)
#
#
# Indices 1 2 3 4 5 6 
#
# 1 0.011145 -0.002642 -0.001321 -0.001286 -0.000665 0.000864
# 2 -0.002642 0.012341 -0.002476 -0.002782 0.003180 -0.003722
# 3 -0.001321 -0.002476 0.008550 -0.001440 -0.000674 0.001416
# 4 -0.001286 -0.002782 -0.001440 0.023988 0.003817 -0.000503
# 5 -0.000665 0.003180 -0.000674 0.003817 0.029004 -0.007218
# 6 0.000864 -0.003722 0.001416 -0.000503 -0.007218 0.026108
#
#
# Mechanical properties :
#
#
# Convention : Reuss Voigt Hill
#
# Bulk Modulus (GPa) = 52.19949 57.74666 54.97307
# Shear Modulus (GPa) = 38.34345 42.04195 40.19270
#
# Velocity S-wave (km/s) = 3.78964 3.96820 3.87994
# Velocity P-wave (km/s) = 6.22089 6.52872 6.37666
#
# Compressibility (1/GPa) = 0.01915728
#
# Stress axis : x y z
#
# Youngs Moduli (GPa) = 89.72830 81.02743 116.96484
#
# Poissons Ratio (x) = 0.21408 0.15452
# Poissons Ratio (y) = 0.23706 0.28963
# Poissons Ratio (z) = 0.11854 0.20064
#
# Static dielectric constant tensor:
#      x y z
#    x 2.123320 0.059640 -0.025940 
#    y 0.059640 2.081490 0.002510 
#    z -0.025940 0.002510 2.092090 
# 
# From -- ./inp_files/515468.got.cif
#   From: 2010.05.17/outbox.cif.g08.bks.cpg/sg2_258_cif.got.tgz:515468.got - 2010.06.03 11:33:40.
