data_PCOD9024701
_publ_section_title
;
Structure prediction by ZEFSAII (Michael W. Deem and Ramdas Pophale) SiO2 
 PCOD9024701
Probable space group: P -1
;
_chemical_formula_sum "Si O2"
_cell_formula_units_Z 14
_cell_length_a 6.521826
_cell_length_b 5.811195
_cell_length_c 16.269820
_cell_angle_alpha 102.004779
_cell_angle_beta 101.443303
_cell_angle_gamma 74.118429
_cell_volume 573.515111
_symmetry_space_group_name_H-M "P -1"
_symmetry_group_IT_number 2
_symmetry_cell_setting 'triclinic'
loop_
_space_group_symop_operation_xyz
x,y,z
-x,-y,-z
loop_
_atom_site_type_symbol
_atom_site_label
_atom_site_fract_x
_atom_site_fract_y
_atom_site_fract_z
Si Si1 0.108173 0.825928 0.657755
Si Si2 0.797337 0.504554 0.606770
Si Si3 0.111537 0.546722 0.916832
Si Si4 0.631310 0.135985 0.460874
Si Si5 0.150970 0.733265 0.231588
Si Si6 0.570678 0.430617 0.203008
Si Si7 0.320289 0.204564 0.047527
O O1 0.209466 0.974696 0.609251
O O2 0.301405 0.659055 0.711909
O O3 0.968846 0.647667 0.598110
O O4 0.957522 0.004180 0.723044
O O5 0.774979 0.266406 0.538886
O O6 0.561193 0.675202 0.585955
O O7 0.843308 0.441190 0.701341
O O8 0.260862 0.580010 0.856899
O O9 0.987906 0.348650 0.857394
O O10 0.926770 0.784451 0.944496
O O11 0.261627 0.432893 0.996616
O O12 0.500000 0.000000 0.500000
O O13 0.399078 0.687029 0.220278
O O14 0.427085 0.255508 0.144987
O O15 0.500000 0.000000 0.000000
#
# Coordination Sequence:
#
# PCOD9024701 Si02
#       7
#     2   2   2   2   2   2   2
#     4  12  25  44  74 101 139 190 232 289 360 411
#     4  11  24  46  69 101 142 179 236 294 345 425
#     4  10  22  41  65  97 141 180 229 289 343 404
#     4  11  26  46  72 103 139 185 236 291 356 421
#     4  11  24  42  68 102 137 182 232 286 349 415
#     4  11  23  43  67  99 141 181 232 290 340 418
#     4  10  22  40  65  99 138 181 233 281 344 413
#
# _framework density 24.410864
#
# number of rings (size 3 to 8) (size 9 to 14) (size 15 to 20)
#    0.000    1.143    2.857    2.571    0.000    8.571 
#    0.000    0.000    0.000    0.000    0.000    0.000 
#    0.000    0.000    0.000    0.000    0.000    0.000 
#
# Total GULP energy -78237.811470 kJ/mol
# GULP energy per Si atom -5588.415105 kJ/mol
# Density = 2.435530 g / cm^3
# Si number density = 24.410864 Si / 1000 Ang^3
#
#
#
# Elastic Constant Matrix: (Units=GPa)
#
#
# Indices 1 2 3 4 5 6 
#
# 1 149.3655 47.6312 39.5586 8.5356 -16.8925 -13.5757
# 2 47.6312 43.5833 12.7598 17.1006 8.2504 -3.8212
# 3 39.5586 12.7598 88.5276 10.2854 4.2021 9.9611
# 4 8.5356 17.1006 10.2854 37.3706 -2.2238 -6.0420
# 5 -16.8925 8.2504 4.2021 -2.2238 55.3039 -7.2856
# 6 -13.5757 -3.8212 9.9611 -6.0420 -7.2856 43.1466
#
#
#
# Elastic Compliance Matrix: (Units=1/GPa)
#
#
# Indices 1 2 3 4 5 6 
#
# 1 0.016578 -0.021126 -0.006870 0.009672 0.010181 0.008005
# 2 -0.021126 0.056713 0.006136 -0.025415 -0.017664 -0.009583
# 3 -0.006870 0.006136 0.015332 -0.006916 -0.005384 -0.007036
# 4 0.009672 -0.025415 -0.006916 0.040264 0.010174 0.009745
# 5 0.010181 -0.017664 -0.005384 0.010174 0.025786 0.008661
# 6 0.008005 -0.009583 -0.007036 0.009745 0.008661 0.029298
#
#
# Mechanical properties :
#
#
# Convention : Reuss Voigt Hill
#
# Bulk Modulus (GPa) = 22.27148 53.48618 37.87883
# Shear Modulus (GPa) = 20.60492 39.26600 29.93546
#
# Velocity S-wave (km/s) = 2.90847 4.01502 3.50568
# Velocity P-wave (km/s) = 4.51911 6.59183 5.65131
#
# Compressibility (1/GPa) = 0.04490048
#
# Stress axis : x y z
#
# Youngs Moduli (GPa) = 60.32146 17.63277 65.22151
#
# Poissons Ratio (x) = 0.37252 0.44810
# Poissons Ratio (y) = 1.27438 -0.40018
# Poissons Ratio (z) = 0.41443 -0.10819
#
# Static dielectric constant tensor:
#      x y z
#    x 1.982660 0.015830 -0.033570 
#    y 0.015830 1.965160 0.026470 
#    z -0.033570 0.026470 1.926590 
# 
# From -- ./inp_files/8048.got.cif
#   From: 2010.05.17/outbox.cif.g08.bks.cpg/sg2_5_cif.got.tgz:8048.got - 2010.06.03 11:33:40.
