data_PCOD9024696
_publ_section_title
;
Structure prediction by ZEFSAII (Michael W. Deem and Ramdas Pophale) SiO2 
 PCOD9024696
Probable space group: P -1
;
_chemical_formula_sum "Si O2"
_cell_formula_units_Z 16
_cell_length_a 10.428030
_cell_length_b 14.816615
_cell_length_c 9.023443
_cell_angle_alpha 128.418964
_cell_angle_beta 126.644592
_cell_angle_gamma 33.140346
_cell_volume 587.562626
_symmetry_space_group_name_H-M "P -1"
_symmetry_group_IT_number 2
_symmetry_cell_setting 'triclinic'
loop_
_space_group_symop_operation_xyz
x,y,z
-x,-y,-z
loop_
_atom_site_type_symbol
_atom_site_label
_atom_site_fract_x
_atom_site_fract_y
_atom_site_fract_z
Si Si1 0.836743 0.252429 0.219073
Si Si2 0.379299 0.402299 0.940795
Si Si3 0.294989 0.286285 0.028951
Si Si4 0.905361 0.632522 0.701243
Si Si5 0.816960 0.191177 0.633272
Si Si6 0.169089 0.007764 0.945378
Si Si7 0.996115 0.743383 0.391497
Si Si8 0.541665 0.149470 0.545066
O O1 0.066620 0.113855 0.133611
O O2 0.873958 0.338143 0.444017
O O3 0.590076 0.380282 0.088488
O O4 0.827174 0.133602 0.178056
O O5 0.307928 0.392296 0.042822
O O6 0.481537 0.234602 0.751459
O O7 0.149526 0.561676 0.851433
O O8 0.135639 0.283974 0.820210
O O9 0.569151 0.097046 0.033663
O O10 0.194649 0.356868 0.196853
O O11 0.671798 0.805383 0.633483
O O12 0.000000 0.500000 0.500000
O O13 0.589446 0.240516 0.575359
O O14 0.810808 0.296383 0.620019
O O15 0.000000 0.000000 0.500000
O O16 0.967983 0.149820 0.835568
O O17 0.777608 0.946888 0.491377
#
# Coordination Sequence:
#
# PCOD9024696 Si02
#       8
#     2   2   2   2   2   2   2   2
#     4  10  18  34  56  88 120 157 190 237 295 352
#     4  10  21  39  64  84 118 160 212 235 270 366
#     4  11  23  37  58  96 121 151 194 251 311 344
#     4  10  23  41  63  83 115 164 207 243 281 355
#     4  10  17  31  53  84 120 154 193 229 289 357
#     4  10  18  32  57  85 120 152 196 242 289 354
#     4  11  22  34  57  96 129 148 181 256 317 348
#     4  10  19  36  62  91 115 155 202 242 295 348
#
# _framework density 27.231138999999999
#
# number of rings (size 3 to 8) (size 9 to 14) (size 15 to 20)
#    0.000    1.750    3.750    3.375    1.750    4.000 
#    0.000    1.875    0.000    1.500    0.000    0.000 
#    0.000    0.000    0.000    0.000    0.000    0.000 
#
# Total GULP energy -89551.802030 kJ/mol
# GULP energy per Si atom -5596.987627 kJ/mol
# Density = 2.716916 g / cm^3
# Si number density = 27.231139 Si / 1000 Ang^3
#
#
#
# Elastic Constant Matrix: (Units=GPa)
#
#
# Indices 1 2 3 4 5 6 
#
# 1 108.3797 38.2403 75.0396 15.4930 1.0248 -34.2800
# 2 38.2403 109.2312 67.0442 -21.8644 15.2945 -32.9194
# 3 75.0396 67.0442 205.3467 -10.4239 -3.2083 -17.2520
# 4 15.4930 -21.8644 -10.4239 62.5252 -12.0449 4.3789
# 5 1.0248 15.2945 -3.2083 -12.0449 35.4610 3.6167
# 6 -34.2800 -32.9194 -17.2520 4.3789 3.6167 37.5436
#
#
#
# Elastic Compliance Matrix: (Units=1/GPa)
#
#
# Indices 1 2 3 4 5 6 
#
# 1 0.020802 0.002347 -0.007271 -0.008260 -0.007051 0.019353
# 2 0.002347 0.018405 -0.005537 0.001947 -0.009521 0.016427
# 3 -0.007271 -0.005537 0.008871 0.002933 0.005240 -0.008264
# 4 -0.008260 0.001947 0.002933 0.021225 0.007659 -0.007700
# 5 -0.007051 -0.009521 0.005240 0.007659 0.037306 -0.016865
# 6 0.019353 0.016427 -0.008264 -0.007700 -0.016865 0.057435
#
#
# Mechanical properties :
#
#
# Convention : Reuss Voigt Hill
#
# Bulk Modulus (GPa) = 36.82452 87.06731 61.94592
# Shear Modulus (GPa) = 25.77091 43.28150 34.52621
#
# Velocity S-wave (km/s) = 3.07966 3.99107 3.56461
# Velocity P-wave (km/s) = 5.11840 7.29938 6.30393
#
# Compressibility (1/GPa) = 0.02715582
#
# Stress axis : x y z
#
# Youngs Moduli (GPa) = 48.07271 54.33317 112.72617
#
# Poissons Ratio (x) = -0.12752 0.81968
# Poissons Ratio (y) = -0.11282 0.62411
# Poissons Ratio (z) = 0.34956 0.30082
#
# Static dielectric constant tensor:
#      x y z
#    x 2.181090 0.035740 0.017640 
#    y 0.035740 2.145840 0.043020 
#    z 0.017640 0.043020 2.165090 
# 
# From -- ./inp_files/207846.got.cif
#   From: 2010.05.17/outbox.cif.g08.bks.cpg/sg2_104_cif.got.tgz:207846.got - 2010.06.03 11:33:40.
