data_PCOD9024460
_publ_section_title
;
Structure prediction by ZEFSAII (Michael W. Deem and Ramdas Pophale) SiO2 
 PCOD9024460
Probable space group: P -1
;
_chemical_formula_sum "Si O2"
_cell_formula_units_Z 16
_cell_length_a 7.072737
_cell_length_b 21.065732
_cell_length_c 11.241231
_cell_angle_alpha 135.333143
_cell_angle_beta 116.795434
_cell_angle_gamma 96.734033
_cell_volume 752.788220
_symmetry_space_group_name_H-M "P -1"
_symmetry_group_IT_number 2
_symmetry_cell_setting 'triclinic'
loop_
_space_group_symop_operation_xyz
x,y,z
-x,-y,-z
loop_
_atom_site_type_symbol
_atom_site_label
_atom_site_fract_x
_atom_site_fract_y
_atom_site_fract_z
Si Si1 0.293224 0.295906 0.879385
Si Si2 0.572876 0.365670 0.804268
Si Si3 0.673598 0.866108 0.712183
Si Si4 0.344721 0.916159 0.528823
Si Si5 0.471893 0.275752 0.282307
Si Si6 0.857173 0.182363 0.926511
Si Si7 0.203236 0.648665 0.761625
Si Si8 0.213734 0.472818 0.153165
O O1 0.425563 0.358305 0.871417
O O2 0.971159 0.154591 0.597813
O O3 0.517491 0.295263 0.004624
O O4 0.268093 0.382653 0.060154
O O5 0.340061 0.229321 0.495357
O O6 0.677378 0.466387 0.867322
O O7 0.868574 0.396643 0.961108
O O8 0.484884 0.882546 0.608359
O O9 0.540805 0.797766 0.710313
O O10 0.000000 0.000000 0.000000
O O11 0.266967 0.856861 0.295102
O O12 0.588096 0.065831 0.776788
O O13 0.673923 0.298225 0.264547
O O14 0.614788 0.411268 0.552896
O O15 0.141064 0.201658 0.045732
O O16 0.942351 0.307010 0.162296
O O17 0.000000 0.500000 0.500000
#
# Coordination Sequence:
#
# PCOD9024460 Si02
#       8
#     2   2   2   2   2   2   2   2
#     4  12  23  40  68  99 130 179 225 269 333 398
#     4  10  22  40  64  98 133 178 218 271 332 404
#     4  11  22  44  71  96 135 175 222 277 340 395
#     4  11  24  45  71  97 134 182 220 279 336 399
#     4  11  24  44  68 101 135 176 219 282 338 393
#     4  11  25  48  68  96 138 176 229 272 336 404
#     4  12  27  42  68 100 135 178 227 277 333 400
#     4  10  22  40  66  94 140 173 217 273 335 397
#
# _framework density 21.254317
#
# number of rings (size 3 to 8) (size 9 to 14) (size 15 to 20)
#    0.000    1.000    3.750    2.625    1.750    2.500 
#    6.750    1.250    0.000    0.000    0.000    0.000 
#    0.000    0.000    0.000    0.000    0.000    0.000 
#
# Total GULP energy -89491.787466 kJ/mol
# GULP energy per Si atom -5593.236717 kJ/mol
# Density = 2.120594 g / cm^3
# Si number density = 21.254317 Si / 1000 Ang^3
#
#
#
# Elastic Constant Matrix: (Units=GPa)
#
#
# Indices 1 2 3 4 5 6 
#
# 1 56.2355 22.1486 11.3366 0.6045 -0.3211 14.3643
# 2 22.1486 82.3603 27.3376 -8.7420 0.5816 -2.4866
# 3 11.3366 27.3376 96.6957 7.3769 8.2183 10.5202
# 4 0.6045 -8.7420 7.3769 38.7795 -1.1347 3.5181
# 5 -0.3211 0.5816 8.2183 -1.1347 26.4832 -0.8161
# 6 14.3643 -2.4866 10.5202 3.5181 -0.8161 30.7946
#
#
#
# Elastic Compliance Matrix: (Units=1/GPa)
#
#
# Indices 1 2 3 4 5 6 
#
# 1 0.023349 -0.006917 0.000560 -0.000988 -0.000136 -0.011532
# 2 -0.006917 0.016219 -0.004841 0.004205 0.001419 0.005747
# 3 0.000560 -0.004841 0.012758 -0.003217 -0.004130 -0.004752
# 4 -0.000988 0.004205 -0.003217 0.027530 0.002037 -0.001192
# 5 -0.000136 0.001419 -0.004130 0.002037 0.039170 0.002395
# 6 -0.011532 0.005747 -0.004752 -0.001192 0.002395 0.040140
#
#
# Mechanical properties :
#
#
# Convention : Reuss Voigt Hill
#
# Bulk Modulus (GPa) = 33.41196 39.65967 36.53582
# Shear Modulus (GPa) = 26.10443 30.84270 28.47357
#
# Velocity S-wave (km/s) = 3.50836 3.81350 3.66411
# Velocity P-wave (km/s) = 5.67148 6.17175 5.92689
#
# Compressibility (1/GPa) = 0.02992940
#
# Stress axis : x y z
#
# Youngs Moduli (GPa) = 42.82793 61.65765 78.38061
#
# Poissons Ratio (x) = 0.42648 -0.04386
# Poissons Ratio (y) = 0.29624 0.37945
# Poissons Ratio (z) = -0.02397 0.29849
#
# Static dielectric constant tensor:
#      x y z
#    x 1.706310 0.015380 -0.051580 
#    y 0.015380 1.789730 0.009450 
#    z -0.051580 0.009450 1.685140 
# 
# From -- ./inp_files/77402.got.cif
#   From: 2010.05.17/outbox.cif.g08.bks.cpg/sg2_39_cif.got.tgz:77402.got - 2010.06.03 11:33:40.
