data_PCOD9024729
_publ_section_title
;
Structure prediction by ZEFSAII (Michael W. Deem and Ramdas Pophale) SiO2 
 PCOD9024729
Probable space group: P -1
;
_chemical_formula_sum "Si O2"
_cell_formula_units_Z 13
_cell_length_a 21.507935
_cell_length_b 17.956231
_cell_length_c 12.055686
_cell_angle_alpha 158.097251
_cell_angle_beta 151.129646
_cell_angle_gamma 18.666969
_cell_volume 555.683428
_symmetry_space_group_name_H-M "P -1"
_symmetry_group_IT_number 2
_symmetry_cell_setting 'triclinic'
loop_
_space_group_symop_operation_xyz
x,y,z
-x,-y,-z
loop_
_atom_site_type_symbol
_atom_site_label
_atom_site_fract_x
_atom_site_fract_y
_atom_site_fract_z
Si Si1 0.863976 0.202226 0.788199
Si Si2 0.643441 0.145026 0.252834
Si Si3 0.500000 0.500000 0.000000
Si Si4 0.267175 0.407972 0.091465
Si Si5 0.331944 0.354240 0.702188
Si Si6 0.250141 0.577137 0.548260
Si Si7 0.090264 0.424892 0.248475
O O1 0.787399 0.065497 0.460133
O O2 0.837265 0.339687 0.818234
O O3 0.735538 0.463276 0.038368
O O4 0.086904 0.939101 0.808958
O O5 0.500000 0.500000 0.500000
O O6 0.494944 0.140739 0.047241
O O7 0.776062 0.924310 0.052397
O O8 0.405420 0.432367 0.837349
O O9 0.442741 0.435399 0.709416
O O10 0.259391 0.516561 0.349706
O O11 0.135540 0.364486 0.824130
O O12 0.151423 0.448269 0.492918
O O13 0.500000 0.000000 0.500000
O O14 0.161460 0.493716 0.360529
#
# Coordination Sequence:
#
# PCOD9024729 Si02
#       7
#     2   2   1   2   2   2   2
#     4  11  24  43  73 105 137 191 238 293 357 433
#     4  10  22  40  66 101 132 179 237 281 349 422
#     4  10  26  46  72  98 144 198 222 302 366 404
#     4  11  23  42  73 101 140 185 232 294 358 416
#     4  11  25  49  70 105 148 186 245 296 352 440
#     4  11  24  46  68 104 146 182 241 298 354 432
#     4  11  25  44  67 104 143 186 236 301 355 422
#
# _framework density 23.394615000000002
#
# number of rings (size 3 to 8) (size 9 to 14) (size 15 to 20)
#    0.000    1.231    1.538    3.692    4.308    3.692 
#   13.846    0.000    0.000    0.000    0.000    0.000 
#    0.000    0.000    0.000    0.000    0.000    0.000 
#
# Total GULP energy -72445.407986 kJ/mol
# GULP energy per Si atom -5572.723691 kJ/mol
# Density = 2.334137 g / cm^3
# Si number density = 23.394615 Si / 1000 Ang^3
#
#
#
# Elastic Constant Matrix: (Units=GPa)
#
#
# Indices 1 2 3 4 5 6 
#
# 1 93.1896 38.1069 23.4500 -28.4383 8.1951 7.7814
# 2 38.1069 44.0117 48.1956 -19.6227 -12.5245 -11.4166
# 3 23.4500 48.1956 54.5236 -61.1239 24.7489 3.0199
# 4 -28.4383 -19.6227 -61.1239 33.5805 19.2488 9.5969
# 5 8.1951 -12.5245 24.7489 19.2488 -0.0197 -9.9232
# 6 7.7814 -11.4166 3.0199 9.5969 -9.9232 37.0342
#
#
#
# Elastic Compliance Matrix: (Units=1/GPa)
#
#
# Indices 1 2 3 4 5 6 
#
# 1 0.013718 -0.007156 -0.005822 -0.004343 0.003353 -0.002590
# 2 -0.007156 0.034601 0.002874 0.023606 -0.009046 0.003395
# 3 -0.005822 0.002874 0.007582 -0.001849 0.018217 0.006851
# 4 -0.004343 0.023606 -0.001849 0.023424 0.019169 0.007406
# 5 0.003353 -0.009046 0.018217 0.019169 0.022139 -0.004014
# 6 -0.002590 0.003395 0.006851 0.007406 -0.004014 0.025039
#
#
# Mechanical properties :
#
#
# Convention : Reuss Voigt Hill
#
# Bulk Modulus (GPa) = 28.01641 45.69219 36.85430
# Shear Modulus (GPa) = 31.52401 19.58383 25.55392
#
# Velocity S-wave (km/s) = 3.67480 2.89642 3.30858
# Velocity P-wave (km/s) = 5.47788 5.54609 5.51209
#
# Compressibility (1/GPa) = 0.03569337
#
# Stress axis : x y z
#
# Youngs Moduli (GPa) = 72.89618 28.90107 131.88565
#
# Poissons Ratio (x) = 0.20683 0.76781
# Poissons Ratio (y) = 0.52168 -0.37908
# Poissons Ratio (z) = 0.42439 -0.08307
#
# Static dielectric constant tensor:
#      x y z
#    x 1.887270 -0.006120 0.097750 
#    y -0.006120 1.939920 -0.001240 
#    z 0.097750 -0.001240 1.936650 
# 
# From -- ./inp_files/269363.got.cif
#   From: 2010.05.17/outbox.cif.g08.bks.cpg/sg2_135_cif.got.tgz:269363.got - 2010.06.03 11:33:40.
