data_PCOD9024663
_publ_section_title
;
Structure prediction by ZEFSAII (Michael W. Deem and Ramdas Pophale) SiO2 
 PCOD9024663
Probable space group: P -1
;
_chemical_formula_sum "Si O2"
_cell_formula_units_Z 14
_cell_length_a 6.954475
_cell_length_b 16.592098
_cell_length_c 9.768037
_cell_angle_alpha 45.266144
_cell_angle_beta 126.854714
_cell_angle_gamma 105.393884
_cell_volume 615.859880
_symmetry_space_group_name_H-M "P -1"
_symmetry_group_IT_number 2
_symmetry_cell_setting 'triclinic'
loop_
_space_group_symop_operation_xyz
x,y,z
-x,-y,-z
loop_
_atom_site_type_symbol
_atom_site_label
_atom_site_fract_x
_atom_site_fract_y
_atom_site_fract_z
Si Si1 0.748892 0.046233 0.750814
Si Si2 0.597956 0.796465 0.381488
Si Si3 0.507362 0.400043 0.016074
Si Si4 0.487841 0.156525 0.021963
Si Si5 0.124270 0.838466 0.593062
Si Si6 0.521723 0.430405 0.451294
Si Si7 0.923296 0.637451 0.259361
O O1 0.590357 0.163282 0.621088
O O2 0.816155 0.067728 0.598366
O O3 0.597003 0.950251 0.819937
O O4 0.000000 0.000000 0.000000
O O5 0.650753 0.656101 0.546313
O O6 0.836824 0.841776 0.466855
O O7 0.491901 0.852911 0.121734
O O8 0.524774 0.466076 0.802780
O O9 0.254462 0.357804 0.953500
O O10 0.500000 0.500000 0.000000
O O11 0.737322 0.287436 0.264153
O O12 0.738781 0.161202 0.203234
O O13 0.259383 0.273313 0.820989
O O14 0.500000 0.500000 0.500000
O O15 0.805974 0.343638 0.668813
O O16 0.000000 0.500000 0.500000
#
# Coordination Sequence:
#
# PCOD9024663 Si02
#       7
#     2   2   2   2   2   2   2
#     4  12  25  48  74  99 136 185 232 286 349 407
#     4  12  26  45  72 102 139 179 233 286 344 414
#     4  10  22  40  65  96 133 177 224 280 338 402
#     4  11  24  47  70 101 138 182 232 284 343 408
#     4  11  26  46  68 102 140 178 234 286 343 408
#     4  11  23  41  66 101 137 180 227 276 346 412
#     4   9  20  40  67  92 132 179 218 270 342 402
#
# _framework density 22.732443
#
# number of rings (size 3 to 8) (size 9 to 14) (size 15 to 20)
#    0.000    1.143    1.429    5.143    6.000    1.143 
#   15.429    0.000    0.000    0.000    0.000    0.000 
#    0.000    0.000    0.000    0.000    0.000    0.000 
#
# Total GULP energy -78263.709673 kJ/mol
# GULP energy per Si atom -5590.264977 kJ/mol
# Density = 2.268070 g / cm^3
# Si number density = 22.732443 Si / 1000 Ang^3
#
#
#
# Elastic Constant Matrix: (Units=GPa)
#
#
# Indices 1 2 3 4 5 6 
#
# 1 70.1003 18.7701 32.5665 19.9093 0.6359 12.4600
# 2 18.7701 84.9941 2.7609 2.7368 3.1402 9.7978
# 3 32.5665 2.7609 75.9758 8.8117 -0.9966 -2.8213
# 4 19.9093 2.7368 8.8117 37.1249 6.1412 -4.9473
# 5 0.6359 3.1402 -0.9966 6.1412 28.0555 -3.8258
# 6 12.4600 9.7978 -2.8213 -4.9473 -3.8258 34.4419
#
#
#
# Elastic Compliance Matrix: (Units=1/GPa)
#
#
# Indices 1 2 3 4 5 6 
#
# 1 0.025075 -0.003643 -0.009553 -0.012443 0.000790 -0.010517
# 2 -0.003643 0.012855 0.000893 0.000781 -0.001817 -0.002355
# 3 -0.009553 0.000893 0.017255 0.001440 0.001088 0.004943
# 4 -0.012443 0.000781 0.001440 0.035424 -0.006311 0.008785
# 5 0.000790 -0.001817 0.001088 -0.006311 0.037741 0.003606
# 6 -0.010517 -0.002355 0.004943 0.008785 0.003606 0.035577
#
#
# Mechanical properties :
#
#
# Convention : Reuss Voigt Hill
#
# Bulk Modulus (GPa) = 32.70345 37.69614 35.19979
# Shear Modulus (GPa) = 25.16024 31.72263 28.44143
#
# Velocity S-wave (km/s) = 3.33047 3.73966 3.54098
# Velocity P-wave (km/s) = 5.40433 5.93846 5.67768
#
# Compressibility (1/GPa) = 0.03057782
#
# Stress axis : x y z
#
# Youngs Moduli (GPa) = 39.88024 77.79318 57.95355
#
# Poissons Ratio (x) = 0.28343 0.55362
# Poissons Ratio (y) = 0.14530 -0.05174
# Poissons Ratio (z) = 0.38097 -0.06945
#
# Static dielectric constant tensor:
#      x y z
#    x 1.890820 0.052560 0.044460 
#    y 0.052560 1.873350 0.009980 
#    z 0.044460 0.009980 1.847890 
# 
# From -- ./inp_files/138616.got.cif
#   From: 2010.05.17/outbox.cif.g08.bks.cpg/sg2_70_cif.got.tgz:138616.got - 2010.06.03 11:33:40.
