data_PCOD9024201
_publ_section_title
;
Structure prediction by ZEFSAII (Michael W. Deem and Ramdas Pophale) SiO2 
 PCOD9024201
Probable space group: P -1
;
_chemical_formula_sum "Si O2"
_cell_formula_units_Z 14
_cell_length_a 14.578893
_cell_length_b 5.329050
_cell_length_c 14.724914
_cell_angle_alpha 92.431711
_cell_angle_beta 150.201692
_cell_angle_gamma 78.038293
_cell_volume 533.482719
_symmetry_space_group_name_H-M "P -1"
_symmetry_group_IT_number 2
_symmetry_cell_setting 'triclinic'
loop_
_space_group_symop_operation_xyz
x,y,z
-x,-y,-z
loop_
_atom_site_type_symbol
_atom_site_label
_atom_site_fract_x
_atom_site_fract_y
_atom_site_fract_z
Si Si1 0.779026 0.268735 0.989760
Si Si2 0.028765 0.623012 0.403037
Si Si3 0.869241 0.560775 0.700460
Si Si4 0.733328 0.002320 0.367271
Si Si5 0.485741 0.990629 0.313066
Si Si6 0.605937 0.637300 0.023472
Si Si7 0.683364 0.529740 0.711628
O O1 0.727058 0.392447 0.845309
O O2 0.683059 0.040588 0.897182
O O3 0.675982 0.449442 0.990482
O O4 0.006722 0.238180 0.192357
O O5 0.038456 0.648015 0.302575
O O6 0.123248 0.830919 0.526245
O O7 0.804457 0.667354 0.232747
O O8 0.154321 0.314342 0.530192
O O9 0.862007 0.449364 0.792684
O O10 0.646873 0.718285 0.481650
O O11 0.620615 0.105757 0.367999
O O12 0.556800 0.090270 0.145572
O O13 0.381586 0.160853 0.311722
O O14 0.500000 0.500000 0.000000
O O15 0.500000 0.500000 0.500000
#
# Coordination Sequence:
#
# PCOD9024201 Si02
#       7
#     2   2   2   2   2   2   2
#     4  11  24  45  63  97 138 178 233 291 351 415
#     4  10  25  46  72 108 146 188 241 295 362 433
#     4  10  22  40  63  98 134 182 229 282 344 424
#     4  11  23  46  74 101 148 191 231 303 362 418
#     4  11  23  42  66  95 138 184 227 285 350 420
#     4  11  25  48  77 107 142 189 244 300 363 431
#     4  12  22  40  67  96 134 180 231 280 351 421
#
# _framework density 26.242647999999999
#
# number of rings (size 3 to 8) (size 9 to 14) (size 15 to 20)
#    0.000    1.143    2.857    3.429    0.000    6.286 
#    2.571    5.000    0.000    0.000    0.000    0.000 
#    0.000    0.000    0.000    0.000    0.000    0.000 
#
# Total GULP energy -78403.241102 kJ/mol
# GULP energy per Si atom -5600.231507 kJ/mol
# Density = 2.618292 g / cm^3
# Si number density = 26.242648 Si / 1000 Ang^3
#
#
#
# Elastic Constant Matrix: (Units=GPa)
#
#
# Indices 1 2 3 4 5 6 
#
# 1 191.1230 36.0313 49.3891 -3.3184 7.9999 5.7509
# 2 36.0313 81.8343 30.6414 15.7190 15.5227 7.0435
# 3 49.3891 30.6414 140.3698 10.4670 15.4450 14.0367
# 4 -3.3184 15.7190 10.4670 46.5052 13.4808 -1.2215
# 5 7.9999 15.5227 15.4450 13.4808 44.8966 8.6212
# 6 5.7509 7.0435 14.0367 -1.2215 8.6212 48.6899
#
#
#
# Elastic Compliance Matrix: (Units=1/GPa)
#
#
# Indices 1 2 3 4 5 6 
#
# 1 0.006169 -0.002352 -0.001780 0.001707 -0.000226 0.000208
# 2 -0.002352 0.015353 -0.001800 -0.004161 -0.002823 -0.001029
# 3 -0.001780 -0.001800 0.008550 -0.001105 -0.001327 -0.001787
# 4 0.001707 -0.004161 -0.001105 0.025244 -0.006547 0.002512
# 5 -0.000226 -0.002823 -0.001327 -0.006547 0.026487 -0.004037
# 6 0.000208 -0.001029 -0.001787 0.002512 -0.004037 0.021955
#
#
# Mechanical properties :
#
#
# Convention : Reuss Voigt Hill
#
# Bulk Modulus (GPa) = 54.92427 71.71675 63.32051
# Shear Modulus (GPa) = 41.08741 47.83603 44.46172
#
# Velocity S-wave (km/s) = 3.96115 4.27410 4.12060
# Velocity P-wave (km/s) = 6.47270 7.19339 6.84254
#
# Compressibility (1/GPa) = 0.01820689
#
# Stress axis : x y z
#
# Youngs Moduli (GPa) = 162.11258 65.13503 116.95335
#
# Poissons Ratio (x) = 0.15322 0.20819
# Poissons Ratio (y) = 0.38135 0.21051
# Poissons Ratio (z) = 0.28858 0.11724
#
# Static dielectric constant tensor:
#      x y z
#    x 2.119220 0.022330 -0.040480 
#    y 0.022330 2.093690 0.003340 
#    z -0.040480 0.003340 2.007460 
# 
# From -- ./inp_files/51606.got.cif
#   From: 2010.05.17/outbox.cif.g08.bks.cpg/sg2_26_cif.got.tgz:51606.got - 2010.06.03 11:33:40.
