data_PCOD9024913
_publ_section_title
;
Structure prediction by ZEFSAII (Michael W. Deem and Ramdas Pophale) SiO2 
 PCOD9024913
Probable space group: P -1
;
_chemical_formula_sum "Si O2"
_cell_formula_units_Z 16
_cell_length_a 14.467435
_cell_length_b 17.138302
_cell_length_c 13.804573
_cell_angle_alpha 158.719026
_cell_angle_beta 131.344721
_cell_angle_gamma 38.845103
_cell_volume 746.588817
_symmetry_space_group_name_H-M "P -1"
_symmetry_group_IT_number 2
_symmetry_cell_setting 'triclinic'
loop_
_space_group_symop_operation_xyz
x,y,z
-x,-y,-z
loop_
_atom_site_type_symbol
_atom_site_label
_atom_site_fract_x
_atom_site_fract_y
_atom_site_fract_z
Si Si1 0.321790 0.126369 0.221196
Si Si2 0.287524 0.967892 0.216456
Si Si3 0.891122 0.436772 0.158185
Si Si4 0.381494 0.767867 0.670731
Si Si5 0.102522 0.060589 0.701025
Si Si6 0.887506 0.261147 0.157826
Si Si7 0.424530 0.467745 0.003074
Si Si8 0.394236 0.892610 0.620807
O O1 0.288044 0.997256 0.135547
O O2 0.195413 0.448331 0.513729
O O3 0.492722 0.043200 0.265634
O O4 0.323605 0.008551 0.983325
O O5 0.163376 0.264024 0.513932
O O6 0.246220 0.771335 0.991497
O O7 0.456477 0.829667 0.215399
O O8 0.952438 0.275946 0.116823
O O9 0.736514 0.467969 0.061918
O O10 0.000877 0.295210 0.979023
O O11 0.500000 0.500000 0.500000
O O12 0.461656 0.780765 0.645899
O O13 0.233832 0.806753 0.564623
O O14 0.210993 0.103758 0.760470
O O15 0.000000 0.000000 0.500000
O O16 0.000000 0.000000 0.000000
O O17 0.403383 0.673161 0.307122
O O18 0.500000 0.500000 0.000000
#
# Coordination Sequence:
#
# PCOD9024913 Si02
#       8
#     2   2   2   2   2   2   2   2
#     4  11  23  43  68 103 132 177 231 280 339 399
#     4  11  24  41  69 101 131 174 224 282 341 398
#     4  11  23  42  67  99 132 179 222 273 347 402
#     4  10  23  40  69  97 131 180 228 273 334 405
#     4  10  23  42  66  95 136 179 216 281 336 402
#     4  11  26  40  65  99 138 171 223 287 334 402
#     4  12  20  42  70  95 133 173 223 280 337 402
#     4  10  22  40  66  95 135 171 224 277 328 399
#
# _framework density 21.430806
#
# number of rings (size 3 to 8) (size 9 to 14) (size 15 to 20)
#    0.750    0.500    3.750    2.250    3.500    1.000 
#    0.000    1.250    0.000    3.000    0.000    0.000 
#    0.000    0.000    0.000    0.000    0.000    0.000 
#
# Total GULP energy -89286.250574 kJ/mol
# GULP energy per Si atom -5580.390661 kJ/mol
# Density = 2.138203 g / cm^3
# Si number density = 21.430806 Si / 1000 Ang^3
#
#
#
# Elastic Constant Matrix: (Units=GPa)
#
#
# Indices 1 2 3 4 5 6 
#
# 1 86.8353 10.5070 45.6440 0.7729 -21.7139 0.7853
# 2 10.5070 119.2378 33.9701 1.7639 -3.0783 -4.6518
# 3 45.6440 33.9701 89.0776 -13.9249 -17.7009 20.6593
# 4 0.7729 1.7639 -13.9249 32.9447 -0.2680 -1.4357
# 5 -21.7139 -3.0783 -17.7009 -0.2680 32.6850 -6.7823
# 6 0.7853 -4.6518 20.6593 -1.4357 -6.7823 39.9785
#
#
#
# Elastic Compliance Matrix: (Units=1/GPa)
#
#
# Indices 1 2 3 4 5 6 
#
# 1 0.019354 0.002138 -0.011519 -0.005064 0.008240 0.007037
# 2 0.002138 0.010290 -0.006600 -0.003201 -0.000298 0.004400
# 3 -0.011519 -0.006600 0.024707 0.010544 0.002601 -0.012489
# 4 -0.005064 -0.003201 0.010544 0.034929 0.001455 -0.004220
# 5 0.008240 -0.000298 0.002601 0.001455 0.038508 0.005045
# 6 0.007037 0.004400 -0.012489 -0.004220 0.005045 0.032546
#
#
# Mechanical properties :
#
#
# Convention : Reuss Voigt Hill
#
# Bulk Modulus (GPa) = 44.66298 52.82144 48.74221
# Shear Modulus (GPa) = 25.03033 34.79028 29.91030
#
# Velocity S-wave (km/s) = 3.42125 4.03349 3.73992
# Velocity P-wave (km/s) = 6.04089 6.81124 6.43760
#
# Compressibility (1/GPa) = 0.02238991
#
# Stress axis : x y z
#
# Youngs Moduli (GPa) = 51.66913 97.18349 40.47402
#
# Poissons Ratio (x) = -0.20782 0.46622
# Poissons Ratio (y) = -0.11049 0.26713
# Poissons Ratio (z) = 0.59517 0.64141
#
# Static dielectric constant tensor:
#      x y z
#    x 1.821670 -0.040730 -0.001670 
#    y -0.040730 1.849270 0.004890 
#    z -0.001670 0.004890 1.745130 
# 
# From -- ./inp_files/535122.got.cif
#   From: 2010.05.17/outbox.cif.g08.bks.cpg/sg2_268_cif.got.tgz:535122.got - 2010.06.03 11:33:40.
