data_PCOD9024253
_publ_section_title
;
Structure prediction by ZEFSAII (Michael W. Deem and Ramdas Pophale) SiO2 
 PCOD9024253
Probable space group: P -1
;
_chemical_formula_sum "Si O2"
_cell_formula_units_Z 15
_cell_length_a 21.689549
_cell_length_b 4.854802
_cell_length_c 16.352985
_cell_angle_alpha 47.060322
_cell_angle_beta 151.201443
_cell_angle_gamma 130.459410
_cell_volume 600.642759
_symmetry_space_group_name_H-M "P -1"
_symmetry_group_IT_number 2
_symmetry_cell_setting 'triclinic'
loop_
_space_group_symop_operation_xyz
x,y,z
-x,-y,-z
loop_
_atom_site_type_symbol
_atom_site_label
_atom_site_fract_x
_atom_site_fract_y
_atom_site_fract_z
Si Si1 0.573650 0.544912 0.160395
Si Si2 0.372668 0.187851 0.424591
Si Si3 0.000000 0.500000 0.500000
Si Si4 0.565102 0.636959 0.801255
Si Si5 0.195025 0.985162 0.596969
Si Si6 0.273240 0.641358 0.086139
Si Si7 0.981760 0.431623 0.301389
Si Si8 0.233822 0.042883 0.457174
O O1 0.480441 0.545933 0.129013
O O2 0.687370 0.895879 0.232580
O O3 0.654040 0.197916 0.337380
O O4 0.500000 0.500000 0.000000
O O5 0.500000 0.500000 0.500000
O O6 0.285870 0.267019 0.230775
O O7 0.440445 0.808418 0.585400
O O8 0.288339 0.234076 0.398368
O O9 0.057872 0.496363 0.667119
O O10 0.847112 0.460389 0.371425
O O11 0.616392 0.353542 0.855559
O O12 0.680690 0.986862 0.880778
O O13 0.050157 0.042832 0.450610
O O14 0.212136 0.222469 0.484650
O O15 0.136348 0.612229 0.889354
O O16 0.097237 0.767806 0.342264
#
# Coordination Sequence:
#
# PCOD9024253 Si02
#       8
#     2   2   1   2   2   2   2   2
#     4  10  23  39  61  94 129 170 215 270 335 393
#     4   9  20  42  67  93 128 171 218 267 339 386
#     4  10  22  40  64  86 128 174 218 264 326 386
#     4  10  24  41  65  96 136 169 218 275 331 389
#     4  10  22  40  65  89 128 171 216 271 330 391
#     4  11  24  41  67  97 128 174 222 276 318 393
#     4  10  23  40  63  92 128 169 222 267 328 386
#     4   9  21  42  62  91 127 169 211 273 328 390
#
# _framework density 24.973248000000002
#
# number of rings (size 3 to 8) (size 9 to 14) (size 15 to 20)
#    0.000    2.133    0.000    0.800   11.200    4.267 
#    7.200    0.667    0.000    0.000    0.000    0.000 
#    0.000    0.000    0.000    0.000    0.000    0.000 
#
# Total GULP energy -83757.055063 kJ/mol
# GULP energy per Si atom -5583.803671 kJ/mol
# Density = 2.491641 g / cm^3
# Si number density = 24.973248 Si / 1000 Ang^3
#
#
#
# Elastic Constant Matrix: (Units=GPa)
#
#
# Indices 1 2 3 4 5 6 
#
# 1 135.2301 26.5900 39.7145 -3.2763 -13.1247 31.7284
# 2 26.5900 84.8109 49.7650 29.3435 -4.7513 18.7735
# 3 39.7145 49.7650 196.5259 21.6277 -18.2067 17.5834
# 4 -3.2763 29.3435 21.6277 34.9640 -7.7217 7.0750
# 5 -13.1247 -4.7513 -18.2067 -7.7217 29.2851 -2.0593
# 6 31.7284 18.7735 17.5834 7.0750 -2.0593 50.0714
#
#
#
# Elastic Compliance Matrix: (Units=1/GPa)
#
#
# Indices 1 2 3 4 5 6 
#
# 1 0.010316 -0.003440 -0.000998 0.006674 0.004808 -0.005642
# 2 -0.003440 0.020450 -0.002903 -0.016197 -0.004465 -0.002363
# 3 -0.000998 -0.002903 0.006414 -0.000950 0.002799 -0.000282
# 4 0.006674 -0.016197 -0.000950 0.046822 0.011841 -0.003952
# 5 0.004808 -0.004465 0.002799 0.011841 0.040273 -0.002372
# 6 -0.005642 -0.002363 -0.000282 -0.003952 -0.002372 0.024993
#
#
# Mechanical properties :
#
#
# Convention : Reuss Voigt Hill
#
# Bulk Modulus (GPa) = 44.44672 72.07844 58.26258
# Shear Modulus (GPa) = 29.16319 42.89727 36.03023
#
# Velocity S-wave (km/s) = 3.42098 4.14905 3.80248
# Velocity P-wave (km/s) = 5.78278 7.20262 6.53139
#
# Compressibility (1/GPa) = 0.02249885
#
# Stress axis : x y z
#
# Youngs Moduli (GPa) = 96.93264 48.90054 155.90252
#
# Poissons Ratio (x) = 0.16821 0.15559
# Poissons Ratio (y) = 0.33342 0.45258
# Poissons Ratio (z) = 0.09674 0.14196
#
# Static dielectric constant tensor:
#      x y z
#    x 2.074900 -0.063710 0.022990 
#    y -0.063710 2.225320 -0.031020 
#    z 0.022990 -0.031020 1.966790 
# 
# From -- ./inp_files/100944.got.cif
#   From: 2010.05.17/outbox.cif.g08.bks.cpg/sg2_51_cif.got.tgz:100944.got - 2010.06.03 11:33:40.
