data_PCOD9024152
_publ_section_title
;
Structure prediction by ZEFSAII (Michael W. Deem and Ramdas Pophale) SiO2 
 PCOD9024152
Probable space group: P -1
;
_chemical_formula_sum "Si O2"
_cell_formula_units_Z 16
_cell_length_a 18.330915
_cell_length_b 12.464146
_cell_length_c 7.332659
_cell_angle_alpha 40.323278
_cell_angle_beta 134.032137
_cell_angle_gamma 137.822681
_cell_volume 694.529388
_symmetry_space_group_name_H-M "P -1"
_symmetry_group_IT_number 2
_symmetry_cell_setting 'triclinic'
loop_
_space_group_symop_operation_xyz
x,y,z
-x,-y,-z
loop_
_atom_site_type_symbol
_atom_site_label
_atom_site_fract_x
_atom_site_fract_y
_atom_site_fract_z
Si Si1 0.096720 0.965117 0.390174
Si Si2 0.472456 0.835288 0.876359
Si Si3 0.845229 0.854927 0.111938
Si Si4 0.175250 0.534935 0.281486
Si Si5 0.584811 0.463317 0.564214
Si Si6 0.277525 0.125790 0.795228
Si Si7 0.569478 0.251826 0.488449
Si Si8 0.020123 0.540513 0.696792
O O1 0.057930 0.759770 0.507983
O O2 0.980958 0.975850 0.228092
O O3 0.176609 0.995100 0.660383
O O4 0.164083 0.114365 0.157463
O O5 0.421617 0.727167 0.740482
O O6 0.478921 0.037724 0.637263
O O7 0.408008 0.705647 0.100382
O O8 0.605222 0.880386 0.034151
O O9 0.818937 0.647258 0.392716
O O10 0.765785 0.910793 0.025474
O O11 0.303124 0.695758 0.291158
O O12 0.095202 0.569431 0.243605
O O13 0.113705 0.502587 0.019890
O O14 0.500000 0.500000 0.500000
O O15 0.693532 0.660071 0.478016
O O16 0.537737 0.386884 0.380269
O O17 0.000000 0.500000 0.500000
#
# Coordination Sequence:
#
# PCOD9024152 Si02
#       8
#     2   2   2   2   2   2   2   2
#     4  10  23  39  63  96 129 166 217 263 318 394
#     4  10  25  40  65  95 127 170 219 269 326 385
#     4  10  22  40  63  95 126 169 209 269 318 385
#     4  10  22  40  66  93 126 170 213 263 320 388
#     4  10  23  40  62  93 124 170 216 271 316 380
#     4  11  22  40  65  92 127 172 210 267 325 378
#     4  11  22  44  65  92 130 170 217 271 326 389
#     4  10  23  42  63  94 132 169 212 262 321 389
#
# _framework density 23.037182999999999
#
# number of rings (size 3 to 8) (size 9 to 14) (size 15 to 20)
#    0.000    1.750    1.250    1.500    1.750   12.000 
#    0.000    3.750    0.000    0.000    0.000    0.000 
#    0.000    0.000    0.000    0.000    0.000    0.000 
#
# Total GULP energy -89399.061244 kJ/mol
# GULP energy per Si atom -5587.441328 kJ/mol
# Density = 2.298475 g / cm^3
# Si number density = 23.037183 Si / 1000 Ang^3
#
#
#
# Elastic Constant Matrix: (Units=GPa)
#
#
# Indices 1 2 3 4 5 6 
#
# 1 81.2708 31.9694 7.9774 2.7227 -21.9553 0.2568
# 2 31.9694 88.1097 21.5122 7.9921 -22.4426 -19.1968
# 3 7.9774 21.5122 75.2795 -7.1520 -22.0356 -4.2293
# 4 2.7227 7.9921 -7.1520 31.8606 -1.1562 -6.4715
# 5 -21.9553 -22.4426 -22.0356 -1.1562 34.1015 0.4995
# 6 0.2568 -19.1968 -4.2293 -6.4715 0.4995 20.7158
#
#
#
# Elastic Compliance Matrix: (Units=1/GPa)
#
#
# Indices 1 2 3 4 5 6 
#
# 1 0.016545 -0.005428 0.001930 -0.000362 0.008390 -0.005156
# 2 -0.005428 0.019693 -0.001836 -0.001061 0.007988 0.017417
# 3 0.001930 -0.001836 0.017693 0.005354 0.011600 0.003279
# 4 -0.000362 -0.001061 0.005354 0.035258 0.003563 0.011043
# 5 0.008390 0.007988 0.011600 0.003563 0.047458 0.009635
# 6 -0.005156 0.017417 0.003279 0.011043 0.009635 0.068363
#
#
# Mechanical properties :
#
#
# Convention : Reuss Voigt Hill
#
# Bulk Modulus (GPa) = 23.11525 40.84199 31.97862
# Shear Modulus (GPa) = 21.72969 29.54900 25.63934
#
# Velocity S-wave (km/s) = 3.07456 3.58532 3.33972
# Velocity P-wave (km/s) = 4.76021 5.90818 5.36498
#
# Compressibility (1/GPa) = 0.04326148
#
# Stress axis : x y z
#
# Youngs Moduli (GPa) = 60.44001 50.77978 56.52102
#
# Poissons Ratio (x) = 0.27563 -0.10907
# Poissons Ratio (y) = 0.32806 0.10379
# Poissons Ratio (z) = -0.11663 0.09325
#
# Static dielectric constant tensor:
#      x y z
#    x 1.905680 -0.026760 0.019550 
#    y -0.026760 1.866850 -0.063860 
#    z 0.019550 -0.063860 1.910870 
# 
# From -- ./inp_files/109530.got.cif
#   From: 2010.05.17/outbox.cif.g08.bks.cpg/sg2_55_cif.got.tgz:109530.got - 2010.06.03 11:33:40.
