data_PCOD9024379
_publ_section_title
;
Structure prediction by ZEFSAII (Michael W. Deem and Ramdas Pophale) SiO2 
 PCOD9024379
Probable space group: P -1
;
_chemical_formula_sum "Si O2"
_cell_formula_units_Z 15
_cell_length_a 11.938932
_cell_length_b 5.246889
_cell_length_c 14.535660
_cell_angle_alpha 63.385930
_cell_angle_beta 50.459918
_cell_angle_gamma 47.703074
_cell_volume 519.085174
_symmetry_space_group_name_H-M "P -1"
_symmetry_group_IT_number 2
_symmetry_cell_setting 'triclinic'
loop_
_space_group_symop_operation_xyz
x,y,z
-x,-y,-z
loop_
_atom_site_type_symbol
_atom_site_label
_atom_site_fract_x
_atom_site_fract_y
_atom_site_fract_z
Si Si1 0.716309 0.912672 0.029026
Si Si2 0.044213 0.940644 0.360098
Si Si3 0.311831 0.325928 0.415762
Si Si4 0.513888 0.696995 0.268960
Si Si5 0.308816 0.774676 0.596216
Si Si6 0.069102 0.231834 0.898095
Si Si7 0.868708 0.516460 0.786935
Si Si8 0.500000 0.000000 0.000000
O O1 0.576920 0.790376 0.127544
O O2 0.747312 0.949810 0.113809
O O3 0.613316 0.152128 0.959507
O O4 0.917962 0.627264 0.942746
O O5 0.114668 0.650296 0.447830
O O6 0.120539 0.709487 0.265738
O O7 0.123732 0.163098 0.297212
O O8 0.839421 0.161018 0.407730
O O9 0.423809 0.491165 0.335452
O O10 0.392292 0.045181 0.335600
O O11 0.308046 0.118930 0.538126
O O12 0.686522 0.421286 0.282765
O O13 0.500000 0.500000 0.500000
O O14 0.045022 0.275607 0.794883
O O15 0.000000 0.000000 0.000000
O O16 0.695677 0.656681 0.914544
#
# Coordination Sequence:
#
# PCOD9024379 Si02
#       8
#     2   2   2   2   2   2   2   1
#     4  10  22  40  64  94 131 181 224 285 339 408
#     4  12  25  46  72 102 141 184 238 285 354 427
#     4  11  24  44  68 101 136 178 227 288 355 417
#     4  11  24  43  69 100 136 179 234 285 347 421
#     4  10  25  46  71 103 140 181 233 296 354 419
#     4  10  24  41  63  94 136 179 232 279 344 413
#     4  11  27  44  71 103 140 187 232 288 347 417
#     4  10  22  46  64 102 142 180 232 286 348 404
#
# _framework density 28.896992999999998
#
# number of rings (size 3 to 8) (size 9 to 14) (size 15 to 20)
#    0.000    1.333    0.000    4.000    9.333    4.800 
#    2.400    4.667    0.000    0.000    0.000    0.000 
#    0.000    0.000    0.000    0.000    0.000    0.000 
#
# Total GULP energy -83798.035291 kJ/mol
# GULP energy per Si atom -5586.535686 kJ/mol
# Density = 2.883122 g / cm^3
# Si number density = 28.896993 Si / 1000 Ang^3
#
#
#
# Elastic Constant Matrix: (Units=GPa)
#
#
# Indices 1 2 3 4 5 6 
#
# 1 179.5760 44.0909 11.3987 -5.4881 -23.8570 -19.3264
# 2 44.0909 135.1534 22.7640 12.9249 -6.3665 1.1108
# 3 11.3987 22.7640 125.4000 12.4295 -13.8887 26.2473
# 4 -5.4881 12.9249 12.4295 53.5004 1.2988 -6.7186
# 5 -23.8570 -6.3665 -13.8887 1.2988 41.2052 -4.4802
# 6 -19.3264 1.1108 26.2473 -6.7186 -4.4802 74.2126
#
#
#
# Elastic Compliance Matrix: (Units=1/GPa)
#
#
# Indices 1 2 3 4 5 6 
#
# 1 0.006930 -0.002174 -0.000473 0.001553 0.003726 0.002370
# 2 -0.002174 0.008476 -0.001057 -0.002084 -0.000297 -0.000526
# 3 -0.000473 -0.001057 0.009468 -0.002496 0.002449 -0.003534
# 4 0.001553 -0.002084 -0.002496 0.020340 -0.000565 0.003126
# 5 0.003726 -0.000297 0.002449 -0.000565 0.027409 0.001712
# 6 0.002370 -0.000526 -0.003534 0.003126 0.001712 0.015736
#
#
# Mechanical properties :
#
#
# Convention : Reuss Voigt Hill
#
# Bulk Modulus (GPa) = 57.25394 66.29296 61.77345
# Shear Modulus (GPa) = 49.21834 57.90870 53.56352
#
# Velocity S-wave (km/s) = 4.13150 4.48143 4.31002
# Velocity P-wave (km/s) = 6.52803 7.05468 6.79646
#
# Compressibility (1/GPa) = 0.01746605
#
# Stress axis : x y z
#
# Youngs Moduli (GPa) = 144.30347 117.98310 105.62296
#
# Poissons Ratio (x) = 0.25645 0.04992
# Poissons Ratio (y) = 0.31366 0.11168
# Poissons Ratio (z) = 0.06820 0.12475
#
# Static dielectric constant tensor:
#      x y z
#    x 2.103080 0.269960 -0.231340 
#    y 0.269960 2.311210 0.222700 
#    z -0.231340 0.222700 1.920490 
# 
# From -- ./inp_files/138976.got.cif
#   From: 2010.05.17/outbox.cif.g08.bks.cpg/sg2_70_cif.got.tgz:138976.got - 2010.06.03 11:33:40.
