data_PCOD9024716
_publ_section_title
;
Structure prediction by ZEFSAII (Michael W. Deem and Ramdas Pophale) SiO2 
 PCOD9024716
Probable space group: P -1
;
_chemical_formula_sum "Si O2"
_cell_formula_units_Z 16
_cell_length_a 13.605029
_cell_length_b 11.362524
_cell_length_c 6.458240
_cell_angle_alpha 66.432986
_cell_angle_beta 90.373364
_cell_angle_gamma 130.189789
_cell_volume 652.400296
_symmetry_space_group_name_H-M "P -1"
_symmetry_group_IT_number 2
_symmetry_cell_setting 'triclinic'
loop_
_space_group_symop_operation_xyz
x,y,z
-x,-y,-z
loop_
_atom_site_type_symbol
_atom_site_label
_atom_site_fract_x
_atom_site_fract_y
_atom_site_fract_z
Si Si1 0.107200 0.424093 0.001389
Si Si2 0.866007 0.271736 0.828689
Si Si3 0.022577 0.784893 0.499646
Si Si4 0.308949 0.751064 0.494796
Si Si5 0.077337 0.093923 0.149658
Si Si6 0.486736 0.685391 0.414535
Si Si7 0.397703 0.371912 0.899741
Si Si8 0.705205 0.030790 0.375509
O O1 0.246229 0.604887 0.779201
O O2 0.991524 0.403748 0.898445
O O3 0.081595 0.250406 0.074915
O O4 0.097982 0.409709 0.260548
O O5 0.928475 0.216877 0.721821
O O6 0.808381 0.314668 0.624012
O O7 0.740835 0.121777 0.086191
O O8 0.995707 0.910876 0.408222
O O9 0.150352 0.875332 0.588932
O O10 0.415317 0.758673 0.370824
O O11 0.356589 0.923490 0.494391
O O12 0.239303 0.201961 0.078387
O O13 0.000000 0.000000 0.000000
O O14 0.395848 0.489813 0.653577
O O15 0.538846 0.686951 0.191350
O O16 0.614677 0.823964 0.474311
O O17 0.500000 0.500000 0.000000
#
# Coordination Sequence:
#
# PCOD9024716 Si02
#       8
#     2   2   2   2   2   2   2   2
#     4  11  23  42  64 102 143 183 234 293 358 427
#     4  10  22  41  66  96 136 185 228 298 349 415
#     4  10  22  40  66 100 137 184 225 295 360 416
#     4  11  24  43  66 104 138 190 239 287 350 424
#     4  12  23  45  75 106 142 181 239 298 361 423
#     4  11  24  46  70 101 140 187 240 293 348 424
#     4  11  26  48  74 103 145 188 232 294 360 427
#     4  10  23  42  71  98 142 184 242 287 348 423
#
# _framework density 24.524820999999999
#
# number of rings (size 3 to 8) (size 9 to 14) (size 15 to 20)
#    0.000    1.250    2.500    2.625    1.750    8.000 
#    6.750    0.000    0.000    0.000    0.000    0.000 
#    0.000    0.000    0.000    0.000    0.000    0.000 
#
# Total GULP energy -89381.431925 kJ/mol
# GULP energy per Si atom -5586.339495 kJ/mol
# Density = 2.446900 g / cm^3
# Si number density = 24.524821 Si / 1000 Ang^3
#
#
#
# Elastic Constant Matrix: (Units=GPa)
#
#
# Indices 1 2 3 4 5 6 
#
# 1 66.5127 5.8882 28.3922 26.0958 -10.5974 -18.5250
# 2 5.8882 107.3161 29.2343 33.1891 -14.0118 -19.2494
# 3 28.3922 29.2343 99.8442 8.0014 13.5183 -10.1677
# 4 26.0958 33.1891 8.0014 39.9675 -4.9415 -11.3837
# 5 -10.5974 -14.0118 13.5183 -4.9415 30.7083 2.6441
# 6 -18.5250 -19.2494 -10.1677 -11.3837 2.6441 42.9420
#
#
#
# Elastic Compliance Matrix: (Units=1/GPa)
#
#
# Indices 1 2 3 4 5 6 
#
# 1 0.037533 0.015490 -0.014637 -0.028792 0.020905 0.010749
# 2 0.015490 0.021300 -0.010267 -0.021823 0.015465 0.007062
# 3 -0.014637 -0.010267 0.018088 0.011811 -0.015579 -0.002544
# 4 -0.028792 -0.021823 0.011811 0.056664 -0.015680 -0.003420
# 5 0.020905 0.015465 -0.015579 -0.015680 0.050741 0.004981
# 6 0.010749 0.007062 -0.002544 -0.003420 0.004981 0.029275
#
#
# Mechanical properties :
#
#
# Convention : Reuss Voigt Hill
#
# Bulk Modulus (GPa) = 17.21392 44.52248 30.86820
# Shear Modulus (GPa) = 19.85759 36.73410 28.29585
#
# Velocity S-wave (km/s) = 2.84860 3.87438 3.40039
# Velocity P-wave (km/s) = 4.22535 6.18126 5.29441
#
# Compressibility (1/GPa) = 0.05809251
#
# Stress axis : x y z
#
# Youngs Moduli (GPa) = 26.64344 46.94796 55.28588
#
# Poissons Ratio (x) = -0.72723 0.80921
# Poissons Ratio (y) = -0.41271 0.56764
# Poissons Ratio (z) = 0.38997 0.48203
#
# Static dielectric constant tensor:
#      x y z
#    x 1.983880 -0.031940 -0.099410 
#    y -0.031940 1.949040 -0.009610 
#    z -0.099410 -0.009610 2.115920 
# 
# From -- ./inp_files/94641.got.cif
#   From: 2010.05.17/outbox.cif.g08.bks.cpg/sg2_48_cif.got.tgz:94641.got - 2010.06.03 11:33:40.
