data_PCOD9024849
_publ_section_title
;
Structure prediction by ZEFSAII (Michael W. Deem and Ramdas Pophale) SiO2 
 PCOD9024849
Probable space group: P -1
;
_chemical_formula_sum "Si O2"
_cell_formula_units_Z 14
_cell_length_a 9.841436
_cell_length_b 9.584482
_cell_length_c 9.915278
_cell_angle_alpha 103.287113
_cell_angle_beta 136.994376
_cell_angle_gamma 78.608902
_cell_volume 620.225309
_symmetry_space_group_name_H-M "P -1"
_symmetry_group_IT_number 2
_symmetry_cell_setting 'triclinic'
loop_
_space_group_symop_operation_xyz
x,y,z
-x,-y,-z
loop_
_atom_site_type_symbol
_atom_site_label
_atom_site_fract_x
_atom_site_fract_y
_atom_site_fract_z
Si Si1 0.918292 0.474434 0.582993
Si Si2 0.601566 0.238816 0.312274
Si Si3 0.343330 0.375582 0.371318
Si Si4 0.058245 0.204835 0.991615
Si Si5 0.262500 0.995934 0.318881
Si Si6 0.752514 0.707985 0.113342
Si Si7 0.798841 0.944580 0.405523
O O1 0.800939 0.326487 0.476290
O O2 0.761905 0.596603 0.554181
O O3 0.000000 0.500000 0.500000
O O4 0.115319 0.438001 0.806532
O O5 0.488119 0.256122 0.376751
O O6 0.637587 0.070959 0.277682
O O7 0.462106 0.310115 0.111521
O O8 0.500000 0.500000 0.500000
O O9 0.141858 0.357556 0.131888
O O10 0.164052 0.097191 0.153497
O O11 0.142173 0.191519 0.898340
O O12 0.830123 0.160019 0.809378
O O13 0.187150 0.054135 0.422495
O O14 0.500000 0.000000 0.500000
O O15 0.746064 0.795039 0.267372
O O16 0.000000 0.000000 0.500000
#
# Coordination Sequence:
#
# PCOD9024849 Si02
#       7
#     2   2   2   2   2   2   2
#     4  11  24  42  66  95 135 170 216 280 331 385
#     4  10  22  42  67  95 128 175 224 263 327 407
#     4   9  21  42  67  90 126 176 225 264 320 392
#     4  10  22  40  66  93 131 170 222 267 323 397
#     4  11  23  40  62  99 133 169 215 272 330 395
#     4  11  23  43  68  96 130 177 223 266 335 397
#     4  12  22  42  71  95 138 174 214 275 341 386
#
# _framework density 22.572444000000001
#
# number of rings (size 3 to 8) (size 9 to 14) (size 15 to 20)
#    0.000    1.429    2.857    2.143    2.000    4.000 
#    2.571    2.857    0.000    0.000    0.000    0.000 
#    0.000    0.000    0.000    0.000    0.000    0.000 
#
# Total GULP energy -77959.394478 kJ/mol
# GULP energy per Si atom -5568.528177 kJ/mol
# Density = 2.252107 g / cm^3
# Si number density = 22.572444 Si / 1000 Ang^3
#
#
#
# Elastic Constant Matrix: (Units=GPa)
#
#
# Indices 1 2 3 4 5 6 
#
# 1 148.6653 33.1224 40.3244 -1.6331 -16.4230 -15.5700
# 2 33.1224 42.3143 26.2855 3.4233 2.3264 -6.1029
# 3 40.3244 26.2855 120.2717 -2.8300 10.0305 9.8600
# 4 -1.6331 3.4233 -2.8300 48.9712 8.4680 2.8895
# 5 -16.4230 2.3264 10.0305 8.4680 45.9584 0.0977
# 6 -15.5700 -6.1029 9.8600 2.8895 0.0977 29.7116
#
#
#
# Elastic Compliance Matrix: (Units=1/GPa)
#
#
# Indices 1 2 3 4 5 6 
#
# 1 0.009694 -0.005273 -0.002891 -0.000540 0.004451 0.004994
# 2 -0.005273 0.032553 -0.005768 -0.002841 -0.001763 0.006119
# 3 -0.002891 -0.005768 0.011438 0.001982 -0.003589 -0.006677
# 4 -0.000540 -0.002841 0.001982 0.021702 -0.004473 -0.003620
# 5 0.004451 -0.001763 -0.003589 -0.004473 0.025038 0.003514
# 6 0.004994 0.006119 -0.006677 -0.003620 0.003514 0.040087
#
#
# Mechanical properties :
#
#
# Convention : Reuss Voigt Hill
#
# Bulk Modulus (GPa) = 38.72940 56.74623 47.73781
# Shear Modulus (GPa) = 28.25106 39.02950 33.64028
#
# Velocity S-wave (km/s) = 3.54160 4.16273 3.86466
# Velocity P-wave (km/s) = 5.82400 6.94972 6.41161
#
# Compressibility (1/GPa) = 0.02582018
#
# Stress axis : x y z
#
# Youngs Moduli (GPa) = 103.15159 30.71930 87.43001
#
# Poissons Ratio (x) = 0.16199 0.25278
# Poissons Ratio (y) = 0.54395 0.50429
# Poissons Ratio (z) = 0.29823 0.17719
#
# Static dielectric constant tensor:
#      x y z
#    x 1.832840 -0.034570 0.010400 
#    y -0.034570 1.869690 0.002780 
#    z 0.010400 0.002780 1.860090 
# 
# From -- ./inp_files/188854.got.cif
#   From: 2010.05.17/outbox.cif.g08.bks.cpg/sg2_95_cif.got.tgz:188854.got - 2010.06.03 11:33:40.
