data_PCOD9024283
_publ_section_title
;
Structure prediction by ZEFSAII (Michael W. Deem and Ramdas Pophale) SiO2 
 PCOD9024283
Probable space group: P -1
;
_chemical_formula_sum "Si O2"
_cell_formula_units_Z 14
_cell_length_a 24.189032
_cell_length_b 5.378973
_cell_length_c 5.182764
_cell_angle_alpha 121.010121
_cell_angle_beta 105.711746
_cell_angle_gamma 66.867643
_cell_volume 529.487751
_symmetry_space_group_name_H-M "P -1"
_symmetry_group_IT_number 2
_symmetry_cell_setting 'triclinic'
loop_
_space_group_symop_operation_xyz
x,y,z
-x,-y,-z
loop_
_atom_site_type_symbol
_atom_site_label
_atom_site_fract_x
_atom_site_fract_y
_atom_site_fract_z
Si Si1 0.931642 0.082632 0.850189
Si Si2 0.041529 0.380333 0.741459
Si Si3 0.613914 0.254702 0.810917
Si Si4 0.723313 0.744276 0.490338
Si Si5 0.823059 0.936042 0.849304
Si Si6 0.569636 0.978656 0.106492
Si Si7 0.247896 0.866563 0.627050
O O1 0.908729 0.443620 0.071722
O O2 0.890952 0.913567 0.858405
O O3 0.934236 0.974105 0.497981
O O4 0.000000 0.000000 0.000000
O O5 0.000000 0.500000 0.500000
O O6 0.000000 0.500000 0.000000
O O7 0.682864 0.039496 0.747807
O O8 0.581387 0.140193 0.469282
O O9 0.588280 0.156149 0.987594
O O10 0.604499 0.614409 0.965659
O O11 0.794639 0.665681 0.608625
O O12 0.722169 0.869985 0.266232
O O13 0.706006 0.452655 0.398887
O O14 0.785069 0.164827 0.700770
O O15 0.800871 0.035712 0.158206
O O16 0.500000 0.000000 0.000000
#
# Coordination Sequence:
#
# PCOD9024283 Si02
#       7
#     2   2   2   2   2   2   2
#     4  10  23  45  67  99 133 181 229 288 360 442
#     4  10  22  40  64  90 125 163 218 274 333 418
#     4  12  26  43  79 102 150 197 249 300 360 431
#     4  10  26  45  70 103 139 185 246 294 364 418
#     4  10  26  42  69  98 139 180 231 300 361 428
#     4  12  26  47  72 113 153 197 244 300 360 426
#     4  10  25  42  69  95 142 175 239 296 369 420
#
# _framework density 26.440652
#
# number of rings (size 3 to 8) (size 9 to 14) (size 15 to 20)
#    0.857    0.571    0.000    3.429    8.000    4.571 
#    2.571    0.000    0.000    0.000    0.000    0.000 
#    0.000    0.000    0.000    0.000    0.000    0.000 
#
# Total GULP energy -78237.758806 kJ/mol
# GULP energy per Si atom -5588.411343 kJ/mol
# Density = 2.638047 g / cm^3
# Si number density = 26.440652 Si / 1000 Ang^3
#
#
#
# Elastic Constant Matrix: (Units=GPa)
#
#
# Indices 1 2 3 4 5 6 
#
# 1 121.3811 20.9472 32.6173 -20.7332 -10.0320 1.0326
# 2 20.9472 138.6335 50.1910 -3.0782 -0.6810 29.1592
# 3 32.6173 50.1910 157.4290 -15.1051 -4.6221 20.2641
# 4 -20.7332 -3.0782 -15.1051 44.1200 16.1779 0.8048
# 5 -10.0320 -0.6810 -4.6221 16.1779 57.0897 -3.9035
# 6 1.0326 29.1592 20.2641 0.8048 -3.9035 50.3771
#
#
#
# Elastic Compliance Matrix: (Units=1/GPa)
#
#
# Indices 1 2 3 4 5 6 
#
# 1 0.009456 -0.001045 -0.001379 0.003675 0.000561 0.000951
# 2 -0.001045 0.009064 -0.002156 -0.000351 -0.000450 -0.004387
# 3 -0.001379 -0.002156 0.007753 0.002016 -0.000342 -0.001901
# 4 0.003675 -0.000351 0.002016 0.027716 -0.007164 -0.001681
# 5 0.000561 -0.000450 -0.000342 -0.007164 0.019751 0.002031
# 6 0.000951 -0.004387 -0.001901 -0.001681 0.002031 0.023319
#
#
# Mechanical properties :
#
#
# Convention : Reuss Voigt Hill
#
# Bulk Modulus (GPa) = 58.43277 69.43940 63.93608
# Shear Modulus (GPa) = 44.67351 51.22989 47.95170
#
# Velocity S-wave (km/s) = 4.11491 4.40653 4.26321
# Velocity P-wave (km/s) = 6.68761 7.22560 6.96181
#
# Compressibility (1/GPa) = 0.01711368
#
# Stress axis : x y z
#
# Youngs Moduli (GPa) = 105.75851 110.32212 128.97927
#
# Poissons Ratio (x) = 0.11528 0.17788
# Poissons Ratio (y) = 0.11051 0.27802
# Poissons Ratio (z) = 0.14586 0.23781
#
# Static dielectric constant tensor:
#      x y z
#    x 2.161760 0.078750 0.049540 
#    y 0.078750 2.438760 -0.035000 
#    z 0.049540 -0.035000 2.081520 
# 
# From -- ./inp_files/125869.got.cif
#   From: 2010.05.17/outbox.cif.g08.bks.cpg/sg2_63_cif.got.tgz:125869.got - 2010.06.03 11:33:40.
