data_PCOD9024173
_publ_section_title
;
Structure prediction by ZEFSAII (Michael W. Deem and Ramdas Pophale) SiO2 
 PCOD9024173
Probable space group: P -1
;
_chemical_formula_sum "Si O2"
_cell_formula_units_Z 16
_cell_length_a 11.097045
_cell_length_b 20.294567
_cell_length_c 11.087251
_cell_angle_alpha 149.255352
_cell_angle_beta 124.560181
_cell_angle_gamma 35.964231
_cell_volume 677.681890
_symmetry_space_group_name_H-M "P -1"
_symmetry_group_IT_number 2
_symmetry_cell_setting 'triclinic'
loop_
_space_group_symop_operation_xyz
x,y,z
-x,-y,-z
loop_
_atom_site_type_symbol
_atom_site_label
_atom_site_fract_x
_atom_site_fract_y
_atom_site_fract_z
Si Si1 0.375091 0.471728 0.818157
Si Si2 0.775134 0.114912 0.971860
Si Si3 0.985417 0.751362 0.386508
Si Si4 0.473983 0.530084 0.335232
Si Si5 0.527137 0.100013 0.286576
Si Si6 0.942270 0.687915 0.537648
Si Si7 0.100004 0.311695 0.012263
Si Si8 0.320893 0.923806 0.919166
O O1 0.351414 0.542603 0.782115
O O2 0.546770 0.236598 0.545843
O O3 0.500000 0.500000 0.000000
O O4 0.142148 0.580921 0.913316
O O5 0.860746 0.974766 0.684709
O O6 0.615994 0.343819 0.213192
O O7 0.629763 0.109883 0.962194
O O8 0.000000 0.000000 0.000000
O O9 0.960942 0.705581 0.433829
O O10 0.888781 0.729244 0.188522
O O11 0.253744 0.596120 0.273704
O O12 0.360560 0.744127 0.641603
O O13 0.293184 0.213558 0.393301
O O14 0.546702 0.096211 0.145976
O O15 0.720452 0.889886 0.128911
O O16 0.114066 0.453115 0.281101
O O17 0.922705 0.834980 0.833737
#
# Coordination Sequence:
#
# PCOD9024173 Si02
#       8
#     2   2   2   2   2   2   2   2
#     4  10  22  40  63  96 130 166 211 257 317 397
#     4  11  24  39  63 100 128 163 214 256 325 393
#     4  11  24  41  65  96 132 168 215 265 316 392
#     4  11  23  41  67  96 132 168 203 274 329 371
#     4  10  24  42  64  95 130 169 217 268 315 374
#     4  10  24  44  63  93 129 172 229 256 309 389
#     4  11  24  42  66  95 130 174 213 263 324 372
#     4  10  22  44  64  93 132 164 216 267 317 381
#
# _framework density 23.609895999999999
#
# number of rings (size 3 to 8) (size 9 to 14) (size 15 to 20)
#    0.000    1.500    2.500    1.125    3.500    3.500 
#    2.250    0.000    0.000    0.000    0.000    0.000 
#    0.000    0.000    0.000    0.000    0.000    0.000 
#
# Total GULP energy -89120.679702 kJ/mol
# GULP energy per Si atom -5570.042481 kJ/mol
# Density = 2.355616 g / cm^3
# Si number density = 23.609896 Si / 1000 Ang^3
#
#
#
# Elastic Constant Matrix: (Units=GPa)
#
#
# Indices 1 2 3 4 5 6 
#
# 1 108.8121 25.4892 39.1434 14.7635 -4.5053 32.6448
# 2 25.4892 94.2475 68.5668 29.2949 10.5852 10.6802
# 3 39.1434 68.5668 143.7092 28.2401 10.4358 8.5779
# 4 14.7635 29.2949 28.2401 35.7881 12.9566 9.5170
# 5 -4.5053 10.5852 10.4358 12.9566 43.2936 1.9737
# 6 32.6448 10.6802 8.5779 9.5170 1.9737 34.7886
#
#
#
# Elastic Compliance Matrix: (Units=1/GPa)
#
#
# Indices 1 2 3 4 5 6 
#
# 1 0.014406 -0.000249 -0.003064 -0.001146 0.003214 -0.012555
# 2 -0.000249 0.018850 -0.006988 -0.009461 -0.000062 -0.001238
# 3 -0.003064 -0.006988 0.011520 -0.002621 -0.000737 0.002939
# 4 -0.001146 -0.009461 -0.002621 0.043611 -0.009919 -0.006742
# 5 0.003214 -0.000062 -0.000737 -0.009919 0.026667 -0.001615
# 6 -0.012555 -0.001238 0.002939 -0.006742 -0.001615 0.042118
#
#
# Mechanical properties :
#
#
# Convention : Reuss Voigt Hill
#
# Bulk Modulus (GPa) = 41.36682 68.12973 54.74828
# Shear Modulus (GPa) = 26.90589 37.01202 31.95895
#
# Velocity S-wave (km/s) = 3.37946 3.96365 3.68316
# Velocity P-wave (km/s) = 5.72597 7.06162 6.42857
#
# Compressibility (1/GPa) = 0.02417396
#
# Stress axis : x y z
#
# Youngs Moduli (GPa) = 69.41622 53.05082 86.80225
#
# Poissons Ratio (x) = 0.01321 0.26594
# Poissons Ratio (y) = 0.01729 0.60660
# Poissons Ratio (z) = 0.21268 0.37073
#
# Static dielectric constant tensor:
#      x y z
#    x 2.101560 0.058330 -0.014300 
#    y 0.058330 1.893650 -0.060560 
#    z -0.014300 -0.060560 2.039530 
# 
# From -- ./inp_files/410911.got.cif
#   From: 2010.05.17/outbox.cif.g08.bks.cpg/sg2_206_cif.got.tgz:410911.got - 2010.06.03 11:33:40.
