data_PCOD9024204
_publ_section_title
;
Structure prediction by ZEFSAII (Michael W. Deem and Ramdas Pophale) SiO2 
 PCOD9024204
Probable space group: P -1
;
_chemical_formula_sum "Si O2"
_cell_formula_units_Z 16
_cell_length_a 12.425254
_cell_length_b 7.616390
_cell_length_c 8.181733
_cell_angle_alpha 66.320720
_cell_angle_beta 68.684499
_cell_angle_gamma 90.102582
_cell_volume 650.602131
_symmetry_space_group_name_H-M "P -1"
_symmetry_group_IT_number 2
_symmetry_cell_setting 'triclinic'
loop_
_space_group_symop_operation_xyz
x,y,z
-x,-y,-z
loop_
_atom_site_type_symbol
_atom_site_label
_atom_site_fract_x
_atom_site_fract_y
_atom_site_fract_z
Si Si1 0.621267 0.177334 0.606608
Si Si2 0.811501 0.441329 0.541647
Si Si3 0.556113 0.224979 0.131294
Si Si4 0.785691 0.664229 0.152221
Si Si5 0.048901 0.295209 0.422742
Si Si6 0.990896 0.930889 0.804615
Si Si7 0.474546 0.415114 0.778871
Si Si8 0.783040 0.252289 0.173147
O O1 0.724885 0.235971 0.660709
O O2 0.547483 0.350673 0.611383
O O3 0.696649 0.180366 0.400118
O O4 0.529858 0.980639 0.741502
O O5 0.772105 0.584399 0.374440
O O6 0.834349 0.553196 0.657133
O O7 0.938284 0.403219 0.427892
O O8 0.524244 0.363957 0.244851
O O9 0.692541 0.211578 0.088486
O O10 0.528647 0.322203 0.940726
O O11 0.660028 0.681312 0.141642
O O12 0.823001 0.483055 0.098094
O O13 0.883176 0.855043 0.011419
O O14 0.053339 0.172858 0.304112
O O15 0.023114 0.153749 0.647758
O O16 0.104338 0.849166 0.836274
#
# Coordination Sequence:
#
# PCOD9024204 Si02
#       8
#     2   2   2   2   2   2   2   2
#     4  11  22  42  66  92 129 176 210 272 324 385
#     4  10  23  42  60  93 132 166 213 266 325 384
#     4  10  23  42  64  96 133 170 219 267 322 391
#     4  10  22  40  65  92 134 170 209 267 326 384
#     4  10  23  41  62  96 126 167 218 261 324 386
#     4  11  22  41  68  94 128 172 212 269 321 390
#     4  10  24  42  63  99 130 171 220 267 324 384
#     4  10  22  40  63  99 130 168 217 264 331 381
#
# _framework density 24.592603
#
# number of rings (size 3 to 8) (size 9 to 14) (size 15 to 20)
#    0.000    1.750    2.500    1.125    1.750   10.000 
#    2.250    0.000    0.000    0.000    0.000    0.000 
#    0.000    0.000    0.000    0.000    0.000    0.000 
#
# Total GULP energy -89481.467330 kJ/mol
# GULP energy per Si atom -5592.591708 kJ/mol
# Density = 2.453663 g / cm^3
# Si number density = 24.592603 Si / 1000 Ang^3
#
#
#
# Elastic Constant Matrix: (Units=GPa)
#
#
# Indices 1 2 3 4 5 6 
#
# 1 183.4306 42.8413 40.4375 -7.8021 -9.4484 12.3587
# 2 42.8413 69.0016 28.5812 -3.4903 -11.0130 23.8717
# 3 40.4375 28.5812 75.3507 -14.9057 -21.8222 10.1796
# 4 -7.8021 -3.4903 -14.9057 34.0571 11.0549 -6.2320
# 5 -9.4484 -11.0130 -21.8222 11.0549 30.1954 -1.0877
# 6 12.3587 23.8717 10.1796 -6.2320 -1.0877 32.5430
#
#
#
# Elastic Compliance Matrix: (Units=1/GPa)
#
#
# Indices 1 2 3 4 5 6 
#
# 1 0.006776 -0.003632 -0.002649 0.000629 -0.001314 0.000996
# 2 -0.003632 0.024995 -0.004637 -0.005215 0.005950 -0.016305
# 3 -0.002649 -0.004637 0.020510 0.004265 0.010711 -0.000833
# 4 0.000629 -0.005215 0.004265 0.036201 -0.011559 0.008798
# 5 -0.001314 0.005950 0.010711 -0.011559 0.046566 -0.007874
# 6 0.000996 -0.016305 -0.000833 0.008798 -0.007874 0.043993
#
#
# Mechanical properties :
#
#
# Convention : Reuss Voigt Hill
#
# Bulk Modulus (GPa) = 32.84722 61.27808 47.06265
# Shear Modulus (GPa) = 23.69372 33.75397 28.72384
#
# Velocity S-wave (km/s) = 3.10731 3.70878 3.42129
# Velocity P-wave (km/s) = 5.12439 6.58114 5.89792
#
# Compressibility (1/GPa) = 0.03044397
#
# Stress axis : x y z
#
# Youngs Moduli (GPa) = 147.58042 40.00789 48.75617
#
# Poissons Ratio (x) = 0.14532 0.12916
# Poissons Ratio (y) = 0.53605 0.22609
# Poissons Ratio (z) = 0.39097 0.18553
#
# Static dielectric constant tensor:
#      x y z
#    x 1.960630 0.047690 0.034240 
#    y 0.047690 1.970300 0.021960 
#    z 0.034240 0.021960 1.977790 
# 
# From -- ./inp_files/418869.got.cif
#   From: 2010.05.17/outbox.cif.g08.bks.cpg/sg2_210_cif.got.tgz:418869.got - 2010.06.03 11:33:40.
