data_PCOD9024230
_publ_section_title
;
Structure prediction by ZEFSAII (Michael W. Deem and Ramdas Pophale) SiO2 
 PCOD9024230
Probable space group: P -1
;
_chemical_formula_sum "Si O2"
_cell_formula_units_Z 14
_cell_length_a 11.961878
_cell_length_b 5.121465
_cell_length_c 16.644029
_cell_angle_alpha 93.142128
_cell_angle_beta 32.738168
_cell_angle_gamma 96.606930
_cell_volume 546.092508
_symmetry_space_group_name_H-M "P -1"
_symmetry_group_IT_number 2
_symmetry_cell_setting 'triclinic'
loop_
_space_group_symop_operation_xyz
x,y,z
-x,-y,-z
loop_
_atom_site_type_symbol
_atom_site_label
_atom_site_fract_x
_atom_site_fract_y
_atom_site_fract_z
Si Si1 0.350540 0.726237 0.596368
Si Si2 0.458246 0.490695 0.817551
Si Si3 0.985281 0.880232 0.917731
Si Si4 0.794568 0.514466 0.481532
Si Si5 0.372932 0.752977 0.138034
Si Si6 0.259963 0.855043 0.043996
Si Si7 0.985133 0.936601 0.600605
O O1 0.500000 0.500000 0.500000
O O2 0.214885 0.636633 0.599068
O O3 0.190392 0.749051 0.767054
O O4 0.500000 0.000000 0.500000
O O5 0.578652 0.473774 0.661234
O O6 0.613428 0.421206 0.793597
O O7 0.232745 0.313697 0.953333
O O8 0.392767 0.771737 0.886534
O O9 0.953095 0.085892 0.867437
O O10 0.000000 0.000000 0.000000
O O11 0.862858 0.828121 0.442751
O O12 0.957535 0.353600 0.425806
O O13 0.280569 0.659417 0.104332
O O14 0.238049 0.987286 0.241751
O O15 0.611980 0.883316 0.992690
O O16 0.000000 0.000000 0.500000
#
# Coordination Sequence:
#
# PCOD9024230 Si02
#       7
#     2   2   2   2   2   2   2
#     4  12  29  52  78 107 146 190 248 312 374 436
#     4  11  24  41  71 100 138 185 238 293 357 434
#     4  11  27  47  73 103 139 189 247 304 368 433
#     4  12  27  44  73 106 148 193 243 301 368 432
#     4  10  22  40  64 102 139 187 233 290 354 429
#     4  10  23  41  68  97 143 179 240 292 359 426
#     4  12  24  42  69 104 151 192 241 290 364 439
#
# _framework density 25.636683999999999
#
# number of rings (size 3 to 8) (size 9 to 14) (size 15 to 20)
#    0.000    0.857    1.429    4.286   10.000    0.571 
#    0.000    0.000    0.000    0.000    0.000    0.000 
#    0.000    0.000    0.000    0.000    0.000    0.000 
#
# Total GULP energy -78217.862558 kJ/mol
# GULP energy per Si atom -5586.990183 kJ/mol
# Density = 2.557833 g / cm^3
# Si number density = 25.636684 Si / 1000 Ang^3
#
#
#
# Elastic Constant Matrix: (Units=GPa)
#
#
# Indices 1 2 3 4 5 6 
#
# 1 122.5227 21.1569 37.0428 5.7310 4.2558 18.4916
# 2 21.1569 112.7208 49.6796 12.0518 -8.6757 10.4521
# 3 37.0428 49.6796 157.7627 27.0703 3.1962 17.6997
# 4 5.7310 12.0518 27.0703 49.2282 9.4436 -8.8916
# 5 4.2558 -8.6757 3.1962 9.4436 46.6882 12.7159
# 6 18.4916 10.4521 17.6997 -8.8916 12.7159 40.4795
#
#
#
# Elastic Compliance Matrix: (Units=1/GPa)
#
#
# Indices 1 2 3 4 5 6 
#
# 1 0.009299 -0.000655 -0.001409 -0.000891 0.000332 -0.003763
# 2 -0.000655 0.010964 -0.002617 -0.002408 0.003593 -0.003045
# 3 -0.001409 -0.002617 0.008761 -0.004941 0.001117 -0.003948
# 4 -0.000891 -0.002408 -0.004941 0.027605 -0.008893 0.012046
# 5 0.000332 0.003593 0.001117 -0.008893 0.027052 -0.012019
# 6 -0.003763 -0.003045 -0.003948 0.012046 -0.012019 0.035357
#
#
# Mechanical properties :
#
#
# Convention : Reuss Voigt Hill
#
# Bulk Modulus (GPa) = 50.85521 67.64051 59.24786
# Shear Modulus (GPa) = 37.04983 46.28763 41.66873
#
# Velocity S-wave (km/s) = 3.80569 4.25375 4.03594
# Velocity P-wave (km/s) = 6.26027 7.11108 6.69919
#
# Compressibility (1/GPa) = 0.01966367
#
# Stress axis : x y z
#
# Youngs Moduli (GPa) = 107.54086 91.20735 114.13574
#
# Poissons Ratio (x) = 0.05971 0.16081
# Poissons Ratio (y) = 0.07040 0.29867
# Poissons Ratio (z) = 0.15152 0.23867
#
# Static dielectric constant tensor:
#      x y z
#    x 2.115420 -0.042200 0.011550 
#    y -0.042200 2.107550 -0.091640 
#    z 0.011550 -0.091640 1.995350 
# 
# From -- ./inp_files/71549.got.cif
#   From: 2010.05.17/outbox.cif.g08.bks.cpg/sg2_36_cif.got.tgz:71549.got - 2010.06.03 11:33:40.
