data_PCOD9024445
_publ_section_title
;
Structure prediction by ZEFSAII (Michael W. Deem and Ramdas Pophale) SiO2 
 PCOD9024445
Probable space group: P -1
;
_chemical_formula_sum "Si O2"
_cell_formula_units_Z 14
_cell_length_a 12.264887
_cell_length_b 8.719494
_cell_length_c 11.457267
_cell_angle_alpha 120.146925
_cell_angle_beta 112.372519
_cell_angle_gamma 33.970968
_cell_volume 590.413930
_symmetry_space_group_name_H-M "P -1"
_symmetry_group_IT_number 2
_symmetry_cell_setting 'triclinic'
loop_
_space_group_symop_operation_xyz
x,y,z
-x,-y,-z
loop_
_atom_site_type_symbol
_atom_site_label
_atom_site_fract_x
_atom_site_fract_y
_atom_site_fract_z
Si Si1 0.947862 0.321153 0.017024
Si Si2 0.776912 0.302393 0.613962
Si Si3 0.356907 0.836894 0.663344
Si Si4 0.064595 0.154049 0.318459
Si Si5 0.724252 0.277254 0.984566
Si Si6 0.307946 0.163607 0.551594
Si Si7 0.037854 0.589422 0.196265
O O1 0.036939 0.384145 0.143721
O O2 0.130504 0.966868 0.948373
O O3 0.879047 0.470279 0.919978
O O4 0.770935 0.428788 0.045214
O O5 0.571457 0.564150 0.698338
O O6 0.712325 0.265170 0.462143
O O7 0.862135 0.396202 0.667415
O O8 0.924387 0.010122 0.639384
O O9 0.359782 0.982935 0.618053
O O10 0.190670 0.091184 0.780872
O O11 0.193445 0.163667 0.421495
O O12 0.845420 0.495459 0.349151
O O13 0.178530 0.931888 0.170142
O O14 0.500000 0.500000 0.000000
O O15 0.500000 0.000000 0.500000
#
# Coordination Sequence:
#
# PCOD9024445 Si02
#       7
#     2   2   2   2   2   2   2
#     4  10  25  41  62 102 121 181 224 264 331 391
#     4  10  22  40  64  97 129 169 215 273 336 385
#     4  10  23  39  64  99 127 171 224 263 338 398
#     4  10  22  41  64  94 128 169 220 267 329 392
#     4  11  24  44  67  93 134 175 226 272 328 390
#     4  10  23  41  65  95 130 170 215 270 333 391
#     4  11  22  42  67  88 141 167 218 280 321 393
#
# _framework density 23.712178000000002
#
# number of rings (size 3 to 8) (size 9 to 14) (size 15 to 20)
#    0.000    1.714    1.429    1.286    2.000   12.571 
#    0.000    2.857    0.000    0.000    0.000    0.000 
#    0.000    0.000    0.000    0.000    0.000    0.000 
#
# Total GULP energy -78255.677478 kJ/mol
# GULP energy per Si atom -5589.691248 kJ/mol
# Density = 2.365821 g / cm^3
# Si number density = 23.712178 Si / 1000 Ang^3
#
#
#
# Elastic Constant Matrix: (Units=GPa)
#
#
# Indices 1 2 3 4 5 6 
#
# 1 179.3734 54.6726 52.6719 7.2073 27.9244 -22.0164
# 2 54.6726 93.8060 25.4660 11.4976 10.2088 -16.7958
# 3 52.6719 25.4660 89.6708 9.7092 13.5550 -1.8840
# 4 7.2073 11.4976 9.7092 25.8432 3.0515 -6.3300
# 5 27.9244 10.2088 13.5550 3.0515 35.9084 7.3719
# 6 -22.0164 -16.7958 -1.8840 -6.3300 7.3719 34.4376
#
#
#
# Elastic Compliance Matrix: (Units=1/GPa)
#
#
# Indices 1 2 3 4 5 6 
#
# 1 0.009186 -0.002842 -0.003753 0.002353 -0.006366 0.006076
# 2 -0.002842 0.014257 -0.001604 -0.003543 -0.001924 0.004809
# 3 -0.003753 -0.001604 0.014373 -0.004231 -0.001088 -0.002940
# 4 0.002353 -0.003543 -0.004231 0.043874 -0.004723 0.008621
# 5 -0.006366 -0.001924 -0.001088 -0.004723 0.037003 -0.013857
# 6 0.006076 0.004809 -0.002940 0.008621 -0.013857 0.039658
#
#
# Mechanical properties :
#
#
# Convention : Reuss Voigt Hill
#
# Bulk Modulus (GPa) = 46.69320 69.83014 58.26167
# Shear Modulus (GPa) = 27.48954 34.57383 31.03168
#
# Velocity S-wave (km/s) = 3.40854 3.82260 3.62149
# Velocity P-wave (km/s) = 5.93509 6.99972 6.48927
#
# Compressibility (1/GPa) = 0.02141640
#
# Stress axis : x y z
#
# Youngs Moduli (GPa) = 108.86516 70.14119 69.57609
#
# Poissons Ratio (x) = 0.19937 0.26113
# Poissons Ratio (y) = 0.30945 0.11159
# Poissons Ratio (z) = 0.40859 0.11250
#
# Static dielectric constant tensor:
#      x y z
#    x 1.907820 0.050900 0.002940 
#    y 0.050900 1.887360 -0.004720 
#    z 0.002940 -0.004720 1.992190 
# 
# From -- ./inp_files/269773.got.cif
#   From: 2010.05.17/outbox.cif.g08.bks.cpg/sg2_135_cif.got.tgz:269773.got - 2010.06.03 11:33:40.
