data_PCOD9024076
_publ_section_title
;
Structure prediction by ZEFSAII (Michael W. Deem and Ramdas Pophale) SiO2 
 PCOD9024076
Probable space group: P -1
;
_chemical_formula_sum "Si O2"
_cell_formula_units_Z 14
_cell_length_a 18.794035
_cell_length_b 10.169937
_cell_length_c 5.133374
_cell_angle_alpha 65.923498
_cell_angle_beta 119.956355
_cell_angle_gamma 134.630208
_cell_volume 602.363536
_symmetry_space_group_name_H-M "P -1"
_symmetry_group_IT_number 2
_symmetry_cell_setting 'triclinic'
loop_
_space_group_symop_operation_xyz
x,y,z
-x,-y,-z
loop_
_atom_site_type_symbol
_atom_site_label
_atom_site_fract_x
_atom_site_fract_y
_atom_site_fract_z
Si Si1 0.259616 0.295412 0.011763
Si Si2 0.031062 0.701706 0.927215
Si Si3 0.455998 0.031197 0.641366
Si Si4 0.910074 0.644132 0.260972
Si Si5 0.287531 0.126613 0.711018
Si Si6 0.785570 0.205722 0.478694
Si Si7 0.484967 0.636545 0.233113
O O1 0.164506 0.302566 0.864293
O O2 0.250811 0.178923 0.845699
O O3 0.270885 0.210490 0.359931
O O4 0.368556 0.507440 0.004097
O O5 0.003894 0.742833 0.567693
O O6 0.144026 0.810267 0.182789
O O7 0.000000 0.500000 0.000000
O O8 0.957456 0.694385 0.017576
O O9 0.329472 0.894393 0.529714
O O10 0.500000 0.000000 0.500000
O O11 0.502221 0.239677 0.605573
O O12 0.500000 0.000000 0.000000
O O13 0.844148 0.421076 0.351787
O O14 0.413660 0.231366 0.875182
O O15 0.233536 0.914795 0.712642
O O16 0.500000 0.500000 0.500000
#
# Coordination Sequence:
#
# PCOD9024076 Si02
#       7
#     2   2   2   2   2   2   2
#     4  11  22  40  60  88 123 157 197 251 298 350
#     4  10  22  40  63  91 118 158 206 248 300 362
#     4  11  25  40  61  96 126 155 199 251 303 351
#     4  11  23  40  65  92 117 157 209 253 298 353
#     4  10  23  39  60  88 120 160 199 239 303 365
#     4  10  23  42  65  88 123 161 200 251 299 358
#     4   9  21  39  61  85 121 164 200 235 295 373
#
# _framework density 23.241776999999999
#
# number of rings (size 3 to 8) (size 9 to 14) (size 15 to 20)
#    0.000    1.714    0.000    3.857    0.000   20.571 
#    0.000    4.286    0.000    0.000    0.000    0.000 
#    0.000    0.000    0.000    0.000    0.000    0.000 
#
# Total GULP energy -78374.776898 kJ/mol
# GULP energy per Si atom -5598.198350 kJ/mol
# Density = 2.318888 g / cm^3
# Si number density = 23.241777 Si / 1000 Ang^3
#
#
#
# Elastic Constant Matrix: (Units=GPa)
#
#
# Indices 1 2 3 4 5 6 
#
# 1 189.1188 52.1848 57.9047 21.7201 -2.4670 -34.9049
# 2 52.1848 94.0943 25.0791 14.8945 -8.7034 -17.1813
# 3 57.9047 25.0791 92.7935 15.8904 -11.8255 -10.8902
# 4 21.7201 14.8945 15.8904 23.0128 0.4576 6.8281
# 5 -2.4670 -8.7034 -11.8255 0.4576 51.3818 12.6245
# 6 -34.9049 -17.1813 -10.8902 6.8281 12.6245 36.0864
#
#
#
# Elastic Compliance Matrix: (Units=1/GPa)
#
#
# Indices 1 2 3 4 5 6 
#
# 1 0.009549 -0.001429 -0.003227 -0.008857 -0.002978 0.010301
# 2 -0.001429 0.014413 -0.000431 -0.009764 0.000648 0.006971
# 3 -0.003227 -0.000431 0.014701 -0.007328 0.002853 0.001499
# 4 -0.008857 -0.009764 -0.007328 0.072068 0.002991 -0.030110
# 5 -0.002978 0.000648 0.002853 0.002991 0.022557 -0.010169
# 6 0.010301 0.006971 0.001499 -0.030110 -0.010169 0.050701
#
#
# Mechanical properties :
#
#
# Convention : Reuss Voigt Hill
#
# Bulk Modulus (GPa) = 35.09957 71.81598 53.45778
# Shear Modulus (GPa) = 24.55078 38.15205 31.35142
#
# Velocity S-wave (km/s) = 3.25364 4.05597 3.67676
# Velocity P-wave (km/s) = 5.40829 7.27332 6.40901
#
# Compressibility (1/GPa) = 0.02849038
#
# Stress axis : x y z
#
# Youngs Moduli (GPa) = 104.71843 69.38035 68.02259
#
# Poissons Ratio (x) = 0.09912 0.21949
# Poissons Ratio (y) = 0.14961 0.02934
# Poissons Ratio (z) = 0.33790 0.02992
#
# Static dielectric constant tensor:
#      x y z
#    x 1.880020 0.079680 0.000120 
#    y 0.079680 1.897660 0.003040 
#    z 0.000120 0.003040 1.853340 
# 
# From -- ./inp_files/105067.got.cif
#   From: 2010.05.17/outbox.cif.g08.bks.cpg/sg2_53_cif.got.tgz:105067.got - 2010.06.03 11:33:40.
