data_PCOD9024624
_publ_section_title
;
Structure prediction by ZEFSAII (Michael W. Deem and Ramdas Pophale) SiO2 
 PCOD9024624
Probable space group: P -1
;
_chemical_formula_sum "Si O2"
_cell_formula_units_Z 13
_cell_length_a 5.374192
_cell_length_b 25.146624
_cell_length_c 24.825985
_cell_angle_alpha 11.582647
_cell_angle_beta 44.286229
_cell_angle_gamma 45.066534
_cell_volume 470.059218
_symmetry_space_group_name_H-M "P -1"
_symmetry_group_IT_number 2
_symmetry_cell_setting 'triclinic'
loop_
_space_group_symop_operation_xyz
x,y,z
-x,-y,-z
loop_
_atom_site_type_symbol
_atom_site_label
_atom_site_fract_x
_atom_site_fract_y
_atom_site_fract_z
Si Si1 0.500000 0.000000 0.000000
Si Si2 0.775885 0.188258 0.124779
Si Si3 0.882789 0.890360 0.503887
Si Si4 0.570848 0.522464 0.541773
Si Si5 0.480762 0.626978 0.180101
Si Si6 0.016647 0.401696 0.034058
Si Si7 0.307335 0.120914 0.656799
O O1 0.470246 0.811937 0.246546
O O2 0.540659 0.723516 0.233228
O O3 0.436437 0.376570 0.977995
O O4 0.116669 0.353015 0.924206
O O5 0.663911 0.999200 0.378639
O O6 0.889606 0.006756 0.236280
O O7 0.285979 0.884858 0.423047
O O8 0.823745 0.610268 0.817144
O O9 0.874101 0.112708 0.330962
O O10 0.471033 0.473687 0.667384
O O11 0.000000 0.500000 0.500000
O O12 0.248117 0.417891 0.391492
O O13 0.304691 0.918696 0.908421
O O14 0.000000 0.500000 0.000000
#
# Coordination Sequence:
#
# PCOD9024624 Si02
#       7
#     1   2   2   2   2   2   2
#     4  10  24  44  68  98 130 176 222 254 326 392
#     4  10  24  44  68  93 134 171 209 276 325 376
#     4  10  22  41  63  94 127 166 217 260 321 389
#     4  11  24  44  67  96 135 171 215 271 316 380
#     4  11  24  41  66  99 128 169 220 260 323 389
#     4  11  24  41  64  95 127 167 218 264 319 388
#     4  10  22  40  65  95 128 167 215 266 321 383
#
# _framework density 27.656092000000001
#
# number of rings (size 3 to 8) (size 9 to 14) (size 15 to 20)
#    0.000    1.538    0.000    4.615    0.000   16.000 
#    0.000    3.077    0.000    2.769    0.000    0.000 
#    0.000    0.000    0.000    0.000    0.000    0.000 
#
# Total GULP energy -72745.253013 kJ/mol
# GULP energy per Si atom -5595.788693 kJ/mol
# Density = 2.759315 g / cm^3
# Si number density = 27.656092 Si / 1000 Ang^3
#
#
#
# Elastic Constant Matrix: (Units=GPa)
#
#
# Indices 1 2 3 4 5 6 
#
# 1 97.2195 34.6774 52.4048 5.1646 10.4302 19.6474
# 2 34.6774 81.6849 57.3296 5.5015 11.3120 26.4028
# 3 52.4048 57.3296 236.1621 3.4579 19.8513 18.1682
# 4 5.1646 5.5015 3.4579 53.0485 14.6899 2.0613
# 5 10.4302 11.3120 19.8513 14.6899 53.3908 5.1037
# 6 19.6474 26.4028 18.1682 2.0613 5.1037 68.8612
#
#
#
# Elastic Compliance Matrix: (Units=1/GPa)
#
#
# Indices 1 2 3 4 5 6 
#
# 1 0.012997 -0.003513 -0.001817 -0.000487 -0.000812 -0.001807
# 2 -0.003513 0.017641 -0.003013 -0.000754 -0.001260 -0.004851
# 3 -0.001817 -0.003013 0.005438 0.000450 -0.001182 0.000313
# 4 -0.000487 -0.000754 0.000450 0.020482 -0.005558 0.000108
# 5 -0.000812 -0.001260 -0.001182 -0.005558 0.021160 -0.000375
# 6 -0.001807 -0.004851 0.000313 0.000108 -0.000375 0.016839
#
#
# Mechanical properties :
#
#
# Convention : Reuss Voigt Hill
#
# Bulk Modulus (GPa) = 51.57181 78.21000 64.89090
# Shear Modulus (GPa) = 42.47896 53.10374 47.79135
#
# Velocity S-wave (km/s) = 3.92340 4.38670 4.16150
# Velocity P-wave (km/s) = 6.26196 7.34836 6.82680
#
# Compressibility (1/GPa) = 0.01939044
#
# Stress axis : x y z
#
# Youngs Moduli (GPa) = 76.94342 56.68548 183.90428
#
# Poissons Ratio (x) = 0.19913 0.33411
# Poissons Ratio (y) = 0.27029 0.55407
# Poissons Ratio (z) = 0.13979 0.17078
#
# Static dielectric constant tensor:
#      x y z
#    x 2.104370 -0.064320 -0.010270 
#    y -0.064320 2.284990 0.078340 
#    z -0.010270 0.078340 2.107190 
# 
# From -- ./inp_files/615970.got.cif
#   From: 2010.05.17/outbox.cif.g08.bks.cpg/sg2_308_cif.got.tgz:615970.got - 2010.06.03 11:33:40.
