data_PCOD9024029
_publ_section_title
;
Structure prediction by ZEFSAII (Michael W. Deem and Ramdas Pophale) SiO2 
 PCOD9024029
Probable space group: P -1
;
_chemical_formula_sum "Si O2"
_cell_formula_units_Z 14
_cell_length_a 6.309819
_cell_length_b 12.155384
_cell_length_c 10.075754
_cell_angle_alpha 51.651143
_cell_angle_beta 93.073383
_cell_angle_gamma 111.600100
_cell_volume 547.072161
_symmetry_space_group_name_H-M "P -1"
_symmetry_group_IT_number 2
_symmetry_cell_setting 'triclinic'
loop_
_space_group_symop_operation_xyz
x,y,z
-x,-y,-z
loop_
_atom_site_type_symbol
_atom_site_label
_atom_site_fract_x
_atom_site_fract_y
_atom_site_fract_z
Si Si1 0.684039 0.680083 0.364658
Si Si2 0.500000 0.000000 0.000000
Si Si3 0.000000 0.000000 0.500000
Si Si4 0.016162 0.186863 0.980897
Si Si5 0.610902 0.876758 0.847316
Si Si6 0.002427 0.697034 0.601299
Si Si7 0.181543 0.599105 0.039924
Si Si8 0.499640 0.160990 0.548093
O O1 0.500000 0.500000 0.500000
O O2 0.787484 0.723660 0.188644
O O3 0.565529 0.783243 0.355037
O O4 0.910584 0.716410 0.439046
O O5 0.211623 0.931710 0.014326
O O6 0.485640 0.127528 0.005166
O O7 0.971883 0.161895 0.408262
O O8 0.275877 0.090940 0.498477
O O9 0.941315 0.302917 0.969636
O O10 0.125092 0.106445 0.152157
O O11 0.578599 0.023357 0.682077
O O12 0.431940 0.715011 0.903000
O O13 0.260554 0.701061 0.597329
O O14 0.808709 0.530788 0.765738
O O15 0.000000 0.500000 0.000000
#
# Coordination Sequence:
#
# PCOD9024029 Si02
#       8
#     2   1   1   2   2   2   2   2
#     4  11  24  43  70 105 143 185 233 291 357 420
#     4  10  22  40  62  98 138 176 224 274 340 412
#     4  10  24  44  68  96 134 180 234 286 342 406
#     4  11  24  43  70 102 144 186 230 290 354 422
#     4  11  23  41  68 101 138 181 227 283 346 417
#     4  11  24  44  71 102 139 184 236 291 348 420
#     4  11  26  45  66  99 141 184 234 289 353 422
#     4  11  24  43  71 103 138 182 237 293 348 417
#
# _framework density 25.590772999999999
#
# number of rings (size 3 to 8) (size 9 to 14) (size 15 to 20)
#    0.000    1.143    0.000    5.143    0.000   13.143 
#    0.000    1.429    0.000    0.000    0.000    0.000 
#    0.000    0.000    0.000    0.000    0.000    0.000 
#
# Total GULP energy -77940.619072 kJ/mol
# GULP energy per Si atom -5567.187077 kJ/mol
# Density = 2.553253 g / cm^3
# Si number density = 25.590773 Si / 1000 Ang^3
#
#
#
# Elastic Constant Matrix: (Units=GPa)
#
#
# Indices 1 2 3 4 5 6 
#
# 1 128.3973 35.4603 44.1839 -8.2738 -26.7984 11.9197
# 2 35.4603 116.1141 19.9344 -18.9693 -19.0853 9.5316
# 3 44.1839 19.9344 68.8220 -22.8869 -8.5461 6.5796
# 4 -8.2738 -18.9693 -22.8869 34.9607 9.5486 -2.0071
# 5 -26.7984 -19.0853 -8.5461 9.5486 23.5463 -12.6209
# 6 11.9197 9.5316 6.5796 -2.0071 -12.6209 46.4711
#
#
#
# Elastic Compliance Matrix: (Units=1/GPa)
#
#
# Indices 1 2 3 4 5 6 
#
# 1 0.013990 -0.001552 -0.009386 -0.007783 0.015442 0.001916
# 2 -0.001552 0.010598 -0.000125 0.003900 0.005085 -0.000208
# 3 -0.009386 -0.000125 0.025227 0.016815 -0.010144 -0.003167
# 4 -0.007783 0.003900 0.016815 0.045209 -0.020500 -0.004799
# 5 0.015442 0.005085 -0.010144 -0.020500 0.077724 0.016656
# 6 0.001916 -0.000208 -0.003167 -0.004799 0.016656 0.025835
#
#
# Mechanical properties :
#
#
# Convention : Reuss Voigt Hill
#
# Bulk Modulus (GPa) = 36.11530 56.94342 46.52936
# Shear Modulus (GPa) = 21.74486 35.24594 28.49540
#
# Velocity S-wave (km/s) = 2.91815 3.71521 3.34054
# Velocity P-wave (km/s) = 5.04949 6.37994 5.75330
#
# Compressibility (1/GPa) = 0.02768909
#
# Stress axis : x y z
#
# Youngs Moduli (GPa) = 71.47763 94.36014 39.63936
#
# Poissons Ratio (x) = 0.14643 0.37207
# Poissons Ratio (y) = 0.11092 0.00495
# Poissons Ratio (z) = 0.67092 0.01179
#
# Static dielectric constant tensor:
#      x y z
#    x -12.306490 -5.409490 -14.687270 
#    y -5.409490 -0.064870 -5.378000 
#    z -14.687270 -5.378000 -12.329000 
# 
# From -- ./inp_files/362597.got.cif
#   From: 2010.05.17/outbox.cif.g08.bks.cpg/sg2_182_cif.got.tgz:362597.got - 2010.06.03 11:33:40.
