data_PCOD9024174
_publ_section_title
;
Structure prediction by ZEFSAII (Michael W. Deem and Ramdas Pophale) SiO2 
 PCOD9024174
Probable space group: P -1
;
_chemical_formula_sum "Si O2"
_cell_formula_units_Z 16
_cell_length_a 8.742192
_cell_length_b 14.362470
_cell_length_c 9.945831
_cell_angle_alpha 108.815803
_cell_angle_beta 110.680648
_cell_angle_gamma 38.051825
_cell_volume 717.984605
_symmetry_space_group_name_H-M "P -1"
_symmetry_group_IT_number 2
_symmetry_cell_setting 'triclinic'
loop_
_space_group_symop_operation_xyz
x,y,z
-x,-y,-z
loop_
_atom_site_type_symbol
_atom_site_label
_atom_site_fract_x
_atom_site_fract_y
_atom_site_fract_z
Si Si1 0.775197 0.025701 0.954646
Si Si2 0.484204 0.285040 0.782803
Si Si3 0.142763 0.157932 0.334290
Si Si4 0.599460 0.097789 0.494392
Si Si5 0.594438 0.411758 0.348938
Si Si6 0.984813 0.582496 0.906938
Si Si7 0.715783 0.377872 0.900764
Si Si8 0.581626 0.181618 0.244218
O O1 0.548373 0.174373 0.863546
O O2 0.853406 0.893063 0.835627
O O3 0.691828 0.067930 0.102239
O O4 0.000000 0.000000 0.000000
O O5 0.488863 0.235412 0.615190
O O6 0.215686 0.451251 0.818293
O O7 0.706942 0.264413 0.845285
O O8 0.372235 0.127408 0.405812
O O9 0.869614 0.326941 0.356896
O O10 0.200099 0.049151 0.416254
O O11 0.691798 0.094867 0.379128
O O12 0.500000 0.500000 0.500000
O O13 0.393429 0.534767 0.232860
O O14 0.623112 0.280040 0.289817
O O15 0.719683 0.694076 0.802874
O O16 0.041914 0.667194 0.014540
O O17 0.000000 0.500000 0.000000
O O18 0.500000 0.500000 0.000000
#
# Coordination Sequence:
#
# PCOD9024174 Si02
#       8
#     2   2   2   2   2   2   2   2
#     4  11  22  43  70  90 130 174 219 269 318 389
#     4  10  22  42  65  94 132 176 208 263 337 380
#     4  10  25  47  66  90 133 177 211 268 333 382
#     4  10  25  45  66  96 128 170 224 267 326 388
#     4  12  25  42  65  98 133 169 213 264 330 391
#     4  11  21  38  65  99 136 161 214 274 315 382
#     4  10  22  40  63  96 130 170 210 258 325 388
#     4  12  24  42  69 101 124 170 227 268 321 380
#
# _framework density 22.284600999999999
#
# number of rings (size 3 to 8) (size 9 to 14) (size 15 to 20)
#    0.000    1.250    3.750    1.500    5.250    1.500 
#    4.500    0.000    0.000    0.000    0.000    0.000 
#    0.000    0.000    0.000    0.000    0.000    0.000 
#
# Total GULP energy -89490.994306 kJ/mol
# GULP energy per Si atom -5593.187144 kJ/mol
# Density = 2.223388 g / cm^3
# Si number density = 22.284601 Si / 1000 Ang^3
#
#
#
# Elastic Constant Matrix: (Units=GPa)
#
#
# Indices 1 2 3 4 5 6 
#
# 1 62.6483 7.5765 23.9669 1.6707 4.9668 5.4502
# 2 7.5765 59.0474 27.3379 1.4368 -9.6395 -8.2048
# 3 23.9669 27.3379 169.1228 17.7891 -19.3320 9.7745
# 4 1.6707 1.4368 17.7891 40.1612 6.2978 -5.7163
# 5 4.9668 -9.6395 -19.3320 6.2978 44.3840 -10.4932
# 6 5.4502 -8.2048 9.7745 -5.7163 -10.4932 39.7210
#
#
#
# Elastic Compliance Matrix: (Units=1/GPa)
#
#
# Indices 1 2 3 4 5 6 
#
# 1 0.017854 -0.002339 -0.002545 0.000692 -0.004516 -0.003400
# 2 -0.002339 0.020249 -0.002853 0.000815 0.004863 0.006608
# 3 -0.002545 -0.002853 0.007607 -0.003911 0.003094 -0.001858
# 4 0.000692 0.000815 -0.003911 0.027847 -0.004654 0.003814
# 5 -0.004516 0.004863 0.003094 -0.004654 0.027888 0.007560
# 6 -0.003400 0.006608 -0.001858 0.003814 0.007560 0.030010
#
#
# Mechanical properties :
#
#
# Convention : Reuss Voigt Hill
#
# Bulk Modulus (GPa) = 33.07366 45.39790 39.23578
# Shear Modulus (GPa) = 31.84549 40.31572 36.08061
#
# Velocity S-wave (km/s) = 3.78436 4.25800 4.02815
# Velocity P-wave (km/s) = 5.82828 6.67759 6.26734
#
# Compressibility (1/GPa) = 0.03023554
#
# Stress axis : x y z
#
# Youngs Moduli (GPa) = 56.01011 49.38499 131.45552
#
# Poissons Ratio (x) = 0.11553 0.33449
# Poissons Ratio (y) = 0.13103 0.37508
# Poissons Ratio (z) = 0.14252 0.14091
#
# Static dielectric constant tensor:
#      x y z
#    x 1.830240 0.056260 0.002340 
#    y 0.056260 1.862290 -0.012220 
#    z 0.002340 -0.012220 1.825430 
# 
# From -- ./inp_files/208455.got.cif
#   From: 2010.05.17/outbox.cif.g08.bks.cpg/sg2_105_cif.got.tgz:208455.got - 2010.06.03 11:33:40.
