data_PCOD9024843
_publ_section_title
;
Structure prediction by ZEFSAII (Michael W. Deem and Ramdas Pophale) SiO2 
 PCOD9024843
Probable space group: P -1
;
_chemical_formula_sum "Si O2"
_cell_formula_units_Z 16
_cell_length_a 11.481622
_cell_length_b 16.522904
_cell_length_c 6.109404
_cell_angle_alpha 89.902320
_cell_angle_beta 57.904230
_cell_angle_gamma 52.294790
_cell_volume 680.503575
_symmetry_space_group_name_H-M "P -1"
_symmetry_group_IT_number 2
_symmetry_cell_setting 'triclinic'
loop_
_space_group_symop_operation_xyz
x,y,z
-x,-y,-z
loop_
_atom_site_type_symbol
_atom_site_label
_atom_site_fract_x
_atom_site_fract_y
_atom_site_fract_z
Si Si1 0.607349 0.199446 0.660729
Si Si2 0.694672 0.604041 0.718922
Si Si3 0.289736 0.555712 0.615818
Si Si4 0.459923 0.143435 0.486998
Si Si5 0.222122 0.105487 0.582340
Si Si6 0.891015 0.200951 0.220936
Si Si7 0.767347 0.002012 0.805801
Si Si8 0.010837 0.563313 0.177889
O O1 0.444695 0.220546 0.679673
O O2 0.710183 0.216147 0.388406
O O3 0.761127 0.070934 0.618497
O O4 0.508370 0.289921 0.955686
O O5 0.675778 0.533835 0.582695
O O6 0.847413 0.518673 0.760585
O O7 0.789162 0.642602 0.501778
O O8 0.500000 0.500000 0.500000
O O9 0.184198 0.680212 0.620404
O O10 0.132695 0.586225 0.948720
O O11 0.263889 0.177782 0.622552
O O12 0.609866 0.018613 0.465318
O O13 0.586608 0.102893 0.141796
O O14 0.255721 0.074292 0.294398
O O15 0.010040 0.165280 0.878408
O O16 0.041754 0.092746 0.236223
O O17 0.000000 0.500000 0.000000
#
# Coordination Sequence:
#
# PCOD9024843 Si02
#       8
#     2   2   2   2   2   2   2   2
#     4  11  24  40  63  94 131 170 211 262 319 382
#     4  10  23  44  69  97 128 170 220 264 321 390
#     4  11  25  44  67  95 131 170 214 272 326 379
#     4   9  20  39  61  90 125 163 211 259 308 377
#     4   9  20  39  62  89 123 163 209 261 316 372
#     4  11  25  41  61  93 130 166 213 264 318 384
#     4  10  22  40  66  93 125 169 214 261 319 381
#     4   9  21  43  67  94 126 165 215 266 318 376
#
# _framework density 23.512001000000001
#
# number of rings (size 3 to 8) (size 9 to 14) (size 15 to 20)
#    0.000    2.000    0.000    1.500    0.000   17.500 
#    0.000    0.000    0.000    0.000    0.000    0.000 
#    0.000    0.000    0.000    0.000    0.000    0.000 
#
# Total GULP energy -89288.510156 kJ/mol
# GULP energy per Si atom -5580.531885 kJ/mol
# Density = 2.345849 g / cm^3
# Si number density = 23.512001 Si / 1000 Ang^3
#
#
#
# Elastic Constant Matrix: (Units=GPa)
#
#
# Indices 1 2 3 4 5 6 
#
# 1 90.1309 36.1244 52.1007 4.1612 1.1853 8.7119
# 2 36.1244 74.4012 30.8809 6.2241 -2.9674 7.8070
# 3 52.1007 30.8809 94.0282 14.6628 0.5860 8.5289
# 4 4.1612 6.2241 14.6628 35.7988 1.0489 -0.2154
# 5 1.1853 -2.9674 0.5860 1.0489 38.5273 -3.3959
# 6 8.7119 7.8070 8.5289 -0.2154 -3.3959 17.3490
#
#
#
# Elastic Compliance Matrix: (Units=1/GPa)
#
#
# Indices 1 2 3 4 5 6 
#
# 1 0.018319 -0.005307 -0.008501 0.002292 -0.001155 -0.002829
# 2 -0.005307 0.017532 -0.002224 -0.001580 0.001246 -0.003907
# 3 -0.008501 -0.002224 0.017273 -0.005711 -0.000313 -0.003354
# 4 0.002292 -0.001580 -0.005711 0.030318 -0.000701 0.002607
# 5 -0.001155 0.001246 -0.000313 -0.000701 0.026584 0.005368
# 6 -0.002829 -0.003907 -0.003354 0.002607 0.005368 0.063551
#
#
# Mechanical properties :
#
#
# Convention : Reuss Voigt Hill
#
# Bulk Modulus (GPa) = 47.48533 55.19691 51.34112
# Shear Modulus (GPa) = 23.51155 27.63197 25.57176
#
# Velocity S-wave (km/s) = 3.16568 3.43188 3.30146
# Velocity P-wave (km/s) = 5.79673 6.26345 6.03460
#
# Compressibility (1/GPa) = 0.02105914
#
# Stress axis : x y z
#
# Youngs Moduli (GPa) = 54.58825 57.03704 57.89437
#
# Poissons Ratio (x) = 0.30269 0.49217
# Poissons Ratio (y) = 0.28970 0.12878
# Poissons Ratio (z) = 0.46406 0.12688
#
# Static dielectric constant tensor:
#      x y z
#    x 1.884680 0.036960 -0.024210 
#    y 0.036960 1.980290 0.016760 
#    z -0.024210 0.016760 1.876980 
# 
# From -- ./inp_files/81392.got.cif
#   From: 2010.05.17/outbox.cif.g08.bks.cpg/sg2_41_cif.got.tgz:81392.got - 2010.06.03 11:33:40.
