data_PCOD9024747
_publ_section_title
;
Structure prediction by ZEFSAII (Michael W. Deem and Ramdas Pophale) SiO2 
 PCOD9024747
Probable space group: P -1
;
_chemical_formula_sum "Si O2"
_cell_formula_units_Z 15
_cell_length_a 8.770882
_cell_length_b 22.111999
_cell_length_c 6.455580
_cell_angle_alpha 109.929859
_cell_angle_beta 85.515116
_cell_angle_gamma 143.624618
_cell_volume 653.387634
_symmetry_space_group_name_H-M "P -1"
_symmetry_group_IT_number 2
_symmetry_cell_setting 'triclinic'
loop_
_space_group_symop_operation_xyz
x,y,z
-x,-y,-z
loop_
_atom_site_type_symbol
_atom_site_label
_atom_site_fract_x
_atom_site_fract_y
_atom_site_fract_z
Si Si1 0.723630 0.510072 0.252704
Si Si2 0.900838 0.896344 0.806748
Si Si3 0.766087 0.046788 0.514568
Si Si4 0.166633 0.236334 0.030335
Si Si5 0.000000 0.500000 0.500000
Si Si6 0.972953 0.285913 0.316831
Si Si7 0.487324 0.166940 0.518025
Si Si8 0.086973 0.642430 0.973674
O O1 0.432535 0.373496 0.130256
O O2 0.920612 0.536302 0.409677
O O3 0.762833 0.594978 0.445512
O O4 0.839152 0.552836 0.059176
O O5 0.783209 0.811760 0.905137
O O6 0.668431 0.832057 0.588375
O O7 0.139444 0.942330 0.710616
O O8 0.000000 0.000000 0.000000
O O9 0.500000 0.000000 0.500000
O O10 0.706201 0.958810 0.536886
O O11 0.009693 0.167025 0.753784
O O12 0.983474 0.215064 0.180823
O O13 0.906729 0.420864 0.226639
O O14 0.714626 0.215014 0.400568
O O15 0.952600 0.313420 0.129876
O O16 0.642028 0.250058 0.795542
#
# Coordination Sequence:
#
# PCOD9024747 Si02
#       8
#     2   2   2   2   1   2   2   2
#     4  10  24  42  69 105 145 187 240 291 360 429
#     4  12  29  47  72 109 144 193 242 306 362 434
#     4  12  28  47  74 107 143 191 246 301 367 433
#     4  12  27  45  74 104 148 187 246 298 363 435
#     4  10  22  40  66 102 138 188 230 294 354 426
#     4  10  24  46  72 104 144 195 231 301 359 436
#     4  11  25  45  74 104 147 186 243 300 364 426
#     4  10  23  42  71 102 145 189 238 293 363 425
#
# _framework density 22.957274999999999
#
# number of rings (size 3 to 8) (size 9 to 14) (size 15 to 20)
#    0.000    1.067    1.333    2.800   11.200    4.800 
#    0.000    0.000    0.000    0.000    0.000    0.000 
#    0.000    0.000    0.000    0.000    0.000    0.000 
#
# Total GULP energy -83740.495109 kJ/mol
# GULP energy per Si atom -5582.699674 kJ/mol
# Density = 2.290502 g / cm^3
# Si number density = 22.957275 Si / 1000 Ang^3
#
#
#
# Elastic Constant Matrix: (Units=GPa)
#
#
# Indices 1 2 3 4 5 6 
#
# 1 64.1410 5.0945 40.2046 3.0482 -18.3138 -7.0153
# 2 5.0945 66.7029 37.7002 -3.6995 -3.7752 9.1771
# 3 40.2046 37.7002 157.2257 11.1323 -15.3380 -1.2847
# 4 3.0482 -3.6995 11.1323 21.6972 -4.5013 -0.7228
# 5 -18.3138 -3.7752 -15.3380 -4.5013 40.7325 -0.5696
# 6 -7.0153 9.1771 -1.2847 -0.7228 -0.5696 31.8574
#
#
#
# Elastic Compliance Matrix: (Units=1/GPa)
#
#
# Indices 1 2 3 4 5 6 
#
# 1 0.021349 0.001158 -0.005029 0.001593 0.008049 0.004345
# 2 0.001158 0.018935 -0.005200 0.005741 0.000878 -0.005263
# 3 -0.005029 -0.005200 0.009264 -0.004867 0.000217 0.000658
# 4 0.001593 0.005741 -0.004867 0.050365 0.004978 -0.000268
# 5 0.008049 0.000878 0.000217 0.004978 0.028913 0.002158
# 6 0.004345 -0.005263 0.000658 -0.000268 0.002158 0.033922
#
#
# Mechanical properties :
#
#
# Convention : Reuss Voigt Hill
#
# Bulk Modulus (GPa) = 31.84169 50.45203 41.14686
# Shear Modulus (GPa) = 26.12913 32.52878 29.32895
#
# Velocity S-wave (km/s) = 3.37733 3.76829 3.57815
# Velocity P-wave (km/s) = 5.39523 6.39981 5.91887
#
# Compressibility (1/GPa) = 0.03140537
#
# Stress axis : x y z
#
# Youngs Moduli (GPa) = 46.84165 52.81299 107.94203
#
# Poissons Ratio (x) = -0.06115 0.54282
# Poissons Ratio (y) = -0.05424 0.56131
# Poissons Ratio (z) = 0.23556 0.27463
#
# Static dielectric constant tensor:
#      x y z
#    x 1.898870 0.030170 0.002080 
#    y 0.030170 1.869100 0.012820 
#    z 0.002080 0.012820 1.815110 
# 
# From -- ./inp_files/38716.got.cif
#   From: 2010.05.17/outbox.cif.g08.bks.cpg/sg2_20_cif.got.tgz:38716.got - 2010.06.03 11:33:40.
