data_PCOD9024678
_publ_section_title
;
Structure prediction by ZEFSAII (Michael W. Deem and Ramdas Pophale) SiO2 
 PCOD9024678
Probable space group: P -1
;
_chemical_formula_sum "Si O2"
_cell_formula_units_Z 14
_cell_length_a 12.215144
_cell_length_b 7.848987
_cell_length_c 6.667339
_cell_angle_alpha 97.761274
_cell_angle_beta 91.559845
_cell_angle_gamma 86.805313
_cell_volume 632.275648
_symmetry_space_group_name_H-M "P -1"
_symmetry_group_IT_number 2
_symmetry_cell_setting 'triclinic'
loop_
_space_group_symop_operation_xyz
x,y,z
-x,-y,-z
loop_
_atom_site_type_symbol
_atom_site_label
_atom_site_fract_x
_atom_site_fract_y
_atom_site_fract_z
Si Si1 0.821300 0.207915 0.112829
Si Si2 0.330781 0.164561 0.577495
Si Si3 0.543237 0.622418 0.691973
Si Si4 0.051265 0.304529 0.988652
Si Si5 0.725621 0.574601 0.015877
Si Si6 0.600577 0.089309 0.123037
Si Si7 0.885130 0.960056 0.401089
O O1 0.720147 0.090267 0.021041
O O2 0.835389 0.137036 0.327574
O O3 0.777824 0.399754 0.088222
O O4 0.948967 0.200343 0.049927
O O5 0.397995 0.232729 0.409008
O O6 0.211776 0.113217 0.487009
O O7 0.383188 0.002203 0.675484
O O8 0.316701 0.304930 0.781349
O O9 0.500000 0.500000 0.500000
O O10 0.629761 0.546367 0.846945
O O11 0.441329 0.714177 0.816459
O O12 0.086299 0.193387 0.778610
O O13 0.173625 0.337289 0.082304
O O14 0.000000 0.500000 0.000000
O O15 0.500000 0.000000 0.000000
O O16 0.000000 0.000000 0.500000
#
# Coordination Sequence:
#
# PCOD9024678 Si02
#       7
#     2   2   2   2   2   2   2
#     4  10  22  40  66  92 127 169 209 253 324 377
#     4  10  23  44  64  94 132 166 216 261 324 377
#     4  12  26  41  67  97 125 170 222 262 317 377
#     4   9  20  42  64  92 122 167 208 250 327 381
#     4  10  22  44  66  94 130 170 209 267 320 383
#     4  11  23  42  66  91 129 174 208 263 318 374
#     4  10  22  40  65  98 128 159 210 269 315 375
#
# _framework density 22.142243000000001
#
# number of rings (size 3 to 8) (size 9 to 14) (size 15 to 20)
#    0.000    1.714    1.429    1.714    4.000    2.286 
#   15.429    2.143    0.000    0.000    0.000    0.000 
#    0.000    0.000    0.000    0.000    0.000    0.000 
#
# Total GULP energy -77934.638475 kJ/mol
# GULP energy per Si atom -5566.759891 kJ/mol
# Density = 2.209185 g / cm^3
# Si number density = 22.142243 Si / 1000 Ang^3
#
#
#
# Elastic Constant Matrix: (Units=GPa)
#
#
# Indices 1 2 3 4 5 6 
#
# 1 131.7612 44.3028 35.7251 -16.4204 9.5084 29.2384
# 2 44.3028 85.1312 24.2539 -4.2105 12.1937 -10.0083
# 3 35.7251 24.2539 44.0305 -3.1676 13.8711 -1.8271
# 4 -16.4204 -4.2105 -3.1676 28.2977 10.3553 -0.6864
# 5 9.5084 12.1937 13.8711 10.3553 46.8853 -8.9734
# 6 29.2384 -10.0083 -1.8271 -0.6864 -8.9734 50.2016
#
#
#
# Elastic Compliance Matrix: (Units=1/GPa)
#
#
# Indices 1 2 3 4 5 6 
#
# 1 0.015556 -0.006254 -0.008108 0.008023 -0.003013 -0.011030
# 2 -0.006254 0.016912 -0.003925 -0.001242 -0.000396 0.006783
# 3 -0.008108 -0.003925 0.033848 0.001096 -0.006832 0.003965
# 4 0.008023 -0.001242 0.001096 0.044417 -0.012691 -0.006542
# 5 -0.003013 -0.000396 -0.006832 -0.012691 0.028067 0.006270
# 6 -0.011030 0.006783 0.003965 -0.006542 0.006270 0.028872
#
#
# Mechanical properties :
#
#
# Convention : Reuss Voigt Hill
#
# Bulk Modulus (GPa) = 33.62196 52.16515 42.89355
# Shear Modulus (GPa) = 23.34715 35.51965 29.43340
#
# Velocity S-wave (km/s) = 3.25070 4.00954 3.64989
# Velocity P-wave (km/s) = 5.41358 6.71159 6.09723
#
# Compressibility (1/GPa) = 0.02974247
#
# Stress axis : x y z
#
# Youngs Moduli (GPa) = 64.28576 59.12962 29.54401
#
# Poissons Ratio (x) = 0.36978 0.23954
# Poissons Ratio (y) = 0.40202 0.11595
# Poissons Ratio (z) = 0.52123 0.23207
#
# Static dielectric constant tensor:
#      x y z
#    x 1.785470 0.055520 0.074220 
#    y 0.055520 1.854510 0.002890 
#    z 0.074220 0.002890 1.748390 
# 
# From -- ./inp_files/60988.got.cif
#   From: 2010.05.17/outbox.cif.g08.bks.cpg/sg2_31_cif.got.tgz:60988.got - 2010.06.03 11:33:40.
