data_PCOD9024247
_publ_section_title
;
Structure prediction by ZEFSAII (Michael W. Deem and Ramdas Pophale) SiO2 
 PCOD9024247
Probable space group: P -1
;
_chemical_formula_sum "Si O2"
_cell_formula_units_Z 14
_cell_length_a 9.164879
_cell_length_b 5.315217
_cell_length_c 19.468294
_cell_angle_alpha 87.869692
_cell_angle_beta 135.342856
_cell_angle_gamma 101.584569
_cell_volume 645.256309
_symmetry_space_group_name_H-M "P -1"
_symmetry_group_IT_number 2
_symmetry_cell_setting 'triclinic'
loop_
_space_group_symop_operation_xyz
x,y,z
-x,-y,-z
loop_
_atom_site_type_symbol
_atom_site_label
_atom_site_fract_x
_atom_site_fract_y
_atom_site_fract_z
Si Si1 0.323938 0.141079 0.413548
Si Si2 0.508560 0.601166 0.400153
Si Si3 0.042330 0.751396 0.105648
Si Si4 0.232342 0.621144 0.711978
Si Si5 0.818568 0.868716 0.387075
Si Si6 0.036264 0.692124 0.259471
Si Si7 0.264558 0.324502 0.125948
O O1 0.437311 0.290289 0.382432
O O2 0.328354 0.322045 0.480648
O O3 0.500000 0.000000 0.500000
O O4 0.095264 0.962283 0.318991
O O5 0.614218 0.741711 0.367111
O O6 0.276182 0.652805 0.333986
O O7 0.961993 0.717733 0.157190
O O8 0.183105 0.546388 0.137195
O O9 0.178755 0.045791 0.136542
O O10 0.850757 0.698455 0.986722
O O11 0.125909 0.377918 0.629039
O O12 0.481480 0.616487 0.797956
O O13 0.116937 0.534781 0.746640
O O14 0.219053 0.900820 0.676256
O O15 0.000000 0.000000 0.500000
#
# Coordination Sequence:
#
# PCOD9024247 Si02
#       7
#     2   2   2   2   2   2   2
#     4   9  21  36  61  89 122 164 227 264 315 376
#     4  10  22  40  64  84 127 176 220 266 313 393
#     4  10  23  42  74  94 129 168 221 265 325 400
#     4  12  27  42  65  97 139 166 218 274 326 385
#     4  12  28  44  66  94 133 180 220 268 322 380
#     4  11  24  38  64  95 128 171 212 270 325 386
#     4  10  22  46  67 101 126 169 216 270 326 393
#
# _framework density 21.696802999999999
#
# number of rings (size 3 to 8) (size 9 to 14) (size 15 to 20)
#    0.000    1.429    0.000    3.857   16.000    0.571 
#    0.000    0.000    0.000    6.857    0.000    0.000 
#    0.000    0.000    0.000    0.000    0.000    0.000 
#
# Total GULP energy -78206.721631 kJ/mol
# GULP energy per Si atom -5586.194402 kJ/mol
# Density = 2.164742 g / cm^3
# Si number density = 21.696803 Si / 1000 Ang^3
#
#
#
# Elastic Constant Matrix: (Units=GPa)
#
#
# Indices 1 2 3 4 5 6 
#
# 1 100.8400 52.8494 29.3784 -18.2798 -13.4004 31.5436
# 2 52.8494 153.6238 33.3874 -23.4024 -15.5600 22.8069
# 3 29.3784 33.3874 81.5307 -3.2959 -17.2719 15.4700
# 4 -18.2798 -23.4024 -3.2959 21.9556 5.0451 -5.2461
# 5 -13.4004 -15.5600 -17.2719 5.0451 31.0370 -8.1326
# 6 31.5436 22.8069 15.4700 -5.2461 -8.1326 44.7651
#
#
#
# Elastic Compliance Matrix: (Units=1/GPa)
#
#
# Indices 1 2 3 4 5 6 
#
# 1 0.016121 -0.002392 -0.002808 0.008358 0.000728 -0.008059
# 2 -0.002392 0.009133 -0.002175 0.006916 0.000885 -0.001244
# 3 -0.002808 -0.002175 0.015727 -0.004225 0.006710 -0.001624
# 4 0.008358 0.006916 -0.004225 0.060057 -0.005541 -0.001921
# 5 0.000728 0.000885 0.006710 -0.005541 0.038411 0.003046
# 6 -0.008059 -0.001244 -0.001624 -0.001921 0.003046 0.029541
#
#
# Mechanical properties :
#
#
# Convention : Reuss Voigt Hill
#
# Bulk Modulus (GPa) = 38.12352 63.02497 50.57424
# Shear Modulus (GPa) = 25.97626 34.24348 30.10987
#
# Velocity S-wave (km/s) = 3.46387 3.97706 3.72930
# Velocity P-wave (km/s) = 5.79716 7.08523 6.47331
#
# Compressibility (1/GPa) = 0.02623053
#
# Stress axis : x y z
#
# Youngs Moduli (GPa) = 62.02957 109.49305 63.58622
#
# Poissons Ratio (x) = 0.26195 0.17856
# Poissons Ratio (y) = 0.14840 0.13828
# Poissons Ratio (z) = 0.17419 0.23812
#
# Static dielectric constant tensor:
#      x y z
#    x 1.867700 -0.105150 -0.037520 
#    y -0.105150 1.965540 0.032210 
#    z -0.037520 0.032210 1.806780 
# 
# From -- ./inp_files/552641.got.cif
#   From: 2010.05.17/outbox.cif.g08.bks.cpg/sg2_277_cif.got.tgz:552641.got - 2010.06.03 11:33:40.
