data_PCOD9024354
_publ_section_title
;
Structure prediction by ZEFSAII (Michael W. Deem and Ramdas Pophale) SiO2 
 PCOD9024354
Probable space group: P -1
;
_chemical_formula_sum "Si O2"
_cell_formula_units_Z 16
_cell_length_a 10.614014
_cell_length_b 11.520978
_cell_length_c 6.866821
_cell_angle_alpha 71.522588
_cell_angle_beta 82.288998
_cell_angle_gamma 63.363153
_cell_volume 711.855926
_symmetry_space_group_name_H-M "P -1"
_symmetry_group_IT_number 2
_symmetry_cell_setting 'triclinic'
loop_
_space_group_symop_operation_xyz
x,y,z
-x,-y,-z
loop_
_atom_site_type_symbol
_atom_site_label
_atom_site_fract_x
_atom_site_fract_y
_atom_site_fract_z
Si Si1 0.793629 0.023091 0.568236
Si Si2 0.065022 0.914823 0.835276
Si Si3 0.124936 0.613927 0.924343
Si Si4 0.474582 0.022735 0.221021
Si Si5 0.416046 0.685030 0.441956
Si Si6 0.946364 0.564456 0.683596
Si Si7 0.430361 0.463241 0.849992
Si Si8 0.624497 0.768334 0.580917
O O1 0.834861 0.030698 0.330439
O O2 0.722449 0.178576 0.570177
O O3 0.674377 0.975421 0.680079
O O4 0.933925 0.943720 0.703070
O O5 0.136242 0.749938 0.920649
O O6 0.000000 0.000000 0.000000
O O7 0.277416 0.486165 0.938702
O O8 0.040648 0.629171 0.732674
O O9 0.044819 0.562443 0.122134
O O10 0.460934 0.163054 0.240619
O O11 0.593505 0.895333 0.375556
O O12 0.500000 0.000000 0.000000
O O13 0.391901 0.568754 0.620290
O O14 0.458778 0.667196 0.216427
O O15 0.546048 0.690805 0.530167
O O16 0.786482 0.676735 0.634866
O O17 0.000000 0.500000 0.500000
O O18 0.500000 0.500000 0.000000
#
# Coordination Sequence:
#
# PCOD9024354 Si02
#       8
#     2   2   2   2   2   2   2   2
#     4  10  23  42  63  97 131 171 223 276 323 401
#     4  11  25  43  67  93 135 180 224 274 332 400
#     4  11  25  44  64 101 129 173 232 267 331 409
#     4  10  23  41  70  98 137 174 223 280 333 402
#     4  10  22  40  64  93 130 161 212 273 328 384
#     4  11  25  43  69  93 137 174 217 280 332 398
#     4  11  23  39  65  93 127 169 213 269 327 396
#     4  10  22  42  65 100 130 175 220 271 337 392
#
# _framework density 22.476455000000001
#
# number of rings (size 3 to 8) (size 9 to 14) (size 15 to 20)
#    0.000    1.500    1.250    2.250    1.750   14.000 
#    0.000    0.000    0.000    0.000    0.000    0.000 
#    0.000    0.000    0.000    0.000    0.000    0.000 
#
# Total GULP energy -89360.840638 kJ/mol
# GULP energy per Si atom -5585.052540 kJ/mol
# Density = 2.242530 g / cm^3
# Si number density = 22.476455 Si / 1000 Ang^3
#
#
#
# Elastic Constant Matrix: (Units=GPa)
#
#
# Indices 1 2 3 4 5 6 
#
# 1 79.2637 7.4393 29.4661 8.8509 -3.2081 -4.1281
# 2 7.4393 77.4830 46.2582 28.3575 -3.3874 -11.0609
# 3 29.4661 46.2582 139.2228 48.0110 -13.7868 1.6109
# 4 8.8509 28.3575 48.0110 45.7091 -9.5348 5.6408
# 5 -3.2081 -3.3874 -13.7868 -9.5348 32.4954 -4.0343
# 6 -4.1281 -11.0609 1.6109 5.6408 -4.0343 34.1284
#
#
#
# Elastic Compliance Matrix: (Units=1/GPa)
#
#
# Indices 1 2 3 4 5 6 
#
# 1 0.013858 0.000949 -0.003202 -0.000106 0.000350 0.002194
# 2 0.000949 0.019670 -0.003522 -0.009956 -0.001259 0.008153
# 3 -0.003202 -0.003522 0.012703 -0.010153 0.001696 -0.000250
# 4 -0.000106 -0.009956 -0.010153 0.040997 0.005571 -0.008878
# 5 0.000350 -0.001259 0.001696 0.005571 0.033351 0.002576
# 6 0.002194 0.008153 -0.000250 -0.008878 0.002576 0.033992
#
#
# Mechanical properties :
#
#
# Convention : Reuss Voigt Hill
#
# Bulk Modulus (GPa) = 28.83572 51.36631 40.10102
# Shear Modulus (GPa) = 28.14018 36.65365 32.39691
#
# Velocity S-wave (km/s) = 3.54218 4.04264 3.80066
# Velocity P-wave (km/s) = 5.43935 6.68533 6.09427
#
# Compressibility (1/GPa) = 0.03467921
#
# Stress axis : x y z
#
# Youngs Moduli (GPa) = 72.16159 50.83801 78.72326
#
# Poissons Ratio (x) = -0.04822 0.25210
# Poissons Ratio (y) = -0.06845 0.27726
# Poissons Ratio (z) = 0.23109 0.17905
#
# Static dielectric constant tensor:
#      x y z
#    x 1.855890 0.046690 -0.039840 
#    y 0.046690 1.941640 -0.004560 
#    z -0.039840 -0.004560 1.857680 
# 
# From -- ./inp_files/69859.got.cif
#   From: 2010.05.17/outbox.cif.g08.bks.cpg/sg2_35_cif.got.tgz:69859.got - 2010.06.03 11:33:40.
