data_PCOD9024559
_publ_section_title
;
Structure prediction by ZEFSAII (Michael W. Deem and Ramdas Pophale) SiO2 
 PCOD9024559
Probable space group: P -1
;
_chemical_formula_sum "Si O2"
_cell_formula_units_Z 14
_cell_length_a 8.969220
_cell_length_b 8.323591
_cell_length_c 9.941170
_cell_angle_alpha 100.116778
_cell_angle_beta 117.239130
_cell_angle_gamma 93.053531
_cell_volume 641.986279
_symmetry_space_group_name_H-M "P -1"
_symmetry_group_IT_number 2
_symmetry_cell_setting 'triclinic'
loop_
_space_group_symop_operation_xyz
x,y,z
-x,-y,-z
loop_
_atom_site_type_symbol
_atom_site_label
_atom_site_fract_x
_atom_site_fract_y
_atom_site_fract_z
Si Si1 0.092542 0.659538 0.976349
Si Si2 0.600259 0.435602 0.412608
Si Si3 0.345801 0.899742 0.506340
Si Si4 0.064009 0.919245 0.214243
Si Si5 0.179687 0.155854 0.649679
Si Si6 0.473764 0.594362 0.136776
Si Si7 0.918323 0.712532 0.637303
O O1 0.042284 0.657080 0.795549
O O2 0.294883 0.660486 0.070537
O O3 0.000000 0.500000 0.000000
O O4 0.040043 0.825073 0.048495
O O5 0.500000 0.500000 0.500000
O O6 0.602694 0.244953 0.405919
O O7 0.491496 0.467715 0.244150
O O8 0.781262 0.551739 0.522994
O O9 0.209268 0.828772 0.328030
O O10 0.500000 0.000000 0.500000
O O11 0.246890 0.007808 0.577887
O O12 0.905625 0.883634 0.246586
O O13 0.127924 0.117762 0.285349
O O14 0.356705 0.275072 0.756813
O O15 0.053728 0.223851 0.497898
O O16 0.500000 0.500000 0.000000
#
# Coordination Sequence:
#
# PCOD9024559 Si02
#       7
#     2   2   2   2   2   2   2
#     4  12  24  41  64  94 127 166 208 259 316 369
#     4  11  22  40  65  93 123 165 211 253 306 374
#     4  11  21  38  66  96 125 163 209 259 311 371
#     4  11  22  41  65  93 126 163 209 263 313 368
#     4  10  23  43  65  92 125 164 209 258 311 372
#     4  11  25  43  62  92 131 165 205 258 311 369
#     4  10  22  40  65  92 123 164 211 256 309 371
#
# _framework density 21.807320000000001
#
# number of rings (size 3 to 8) (size 9 to 14) (size 15 to 20)
#    0.000    1.143    0.000    9.000    0.000    2.286 
#    0.000   11.429    0.000    0.000    0.000    0.000 
#    0.000    0.000    0.000    0.000    0.000    0.000 
#
# Total GULP energy -78014.012192 kJ/mol
# GULP energy per Si atom -5572.429442 kJ/mol
# Density = 2.175769 g / cm^3
# Si number density = 21.807320 Si / 1000 Ang^3
#
#
#
# Elastic Constant Matrix: (Units=GPa)
#
#
# Indices 1 2 3 4 5 6 
#
# 1 112.4955 33.4936 42.9446 -10.9782 -1.6339 9.9972
# 2 33.4936 95.6131 28.6361 -11.8969 1.2108 0.2333
# 3 42.9446 28.6361 154.6116 -17.1107 -3.7244 -11.4073
# 4 -10.9782 -11.8969 -17.1107 30.9690 -7.1991 7.6227
# 5 -1.6339 1.2108 -3.7244 -7.1991 35.4085 3.7008
# 6 9.9972 0.2333 -11.4073 7.6227 3.7008 15.1293
#
#
#
# Elastic Compliance Matrix: (Units=1/GPa)
#
#
# Indices 1 2 3 4 5 6 
#
# 1 0.012998 -0.002769 -0.003457 0.006042 0.003123 -0.014961
# 2 -0.002769 0.012198 -0.001192 0.003301 0.000100 -0.000945
# 3 -0.003457 -0.001192 0.008355 0.000968 0.000112 0.008088
# 4 0.006042 0.003301 0.000968 0.046597 0.012871 -0.029939
# 5 0.003123 0.000100 0.000112 0.012871 0.032733 -0.016473
# 6 -0.014961 -0.000945 0.008088 -0.029939 -0.016473 0.101210
#
#
# Mechanical properties :
#
#
# Convention : Reuss Voigt Hill
#
# Bulk Modulus (GPa) = 53.43479 63.65208 58.54344
# Shear Modulus (GPa) = 21.26166 33.47774 27.36970
#
# Velocity S-wave (km/s) = 3.12585 3.92236 3.54654
# Velocity P-wave (km/s) = 6.13060 7.05443 6.60868
#
# Compressibility (1/GPa) = 0.01871440
#
# Stress axis : x y z
#
# Youngs Moduli (GPa) = 76.93438 81.98309 119.68202
#
# Poissons Ratio (x) = 0.22701 0.41379
# Poissons Ratio (y) = 0.21303 0.14266
# Poissons Ratio (z) = 0.26599 0.09772
#
# Static dielectric constant tensor:
#      x y z
#    x 0.184590 -1.007570 -3.665980 
#    y -1.007570 1.174890 -2.384860 
#    z -3.665980 -2.384860 -6.573420 
# 
# From -- ./inp_files/158995.got.cif
#   From: 2010.05.17/outbox.cif.g08.bks.cpg/sg2_80_cif.got.tgz:158995.got - 2010.06.03 11:33:40.
