data_PCOD9024681
_publ_section_title
;
Structure prediction by ZEFSAII (Michael W. Deem and Ramdas Pophale) SiO2 
 PCOD9024681
Probable space group: P -1
;
_chemical_formula_sum "Si O2"
_cell_formula_units_Z 14
_cell_length_a 14.573615
_cell_length_b 7.498924
_cell_length_c 12.305293
_cell_angle_alpha 51.327431
_cell_angle_beta 37.566137
_cell_angle_gamma 68.947167
_cell_volume 613.402059
_symmetry_space_group_name_H-M "P -1"
_symmetry_group_IT_number 2
_symmetry_cell_setting 'triclinic'
loop_
_space_group_symop_operation_xyz
x,y,z
-x,-y,-z
loop_
_atom_site_type_symbol
_atom_site_label
_atom_site_fract_x
_atom_site_fract_y
_atom_site_fract_z
Si Si1 0.804071 0.079707 0.519939
Si Si2 0.426277 0.498928 0.259665
Si Si3 0.091269 0.172500 0.093130
Si Si4 0.315042 0.027820 0.101371
Si Si5 0.366943 0.310324 0.629871
Si Si6 0.467959 0.902140 0.796338
Si Si7 0.100929 0.327316 0.507008
O O1 0.772475 0.126105 0.656354
O O2 0.947371 0.248328 0.252907
O O3 0.645702 0.039024 0.614746
O O4 0.848182 0.827116 0.577793
O O5 0.535581 0.767594 0.070792
O O6 0.384322 0.387191 0.460635
O O7 0.526073 0.349671 0.159001
O O8 0.260813 0.445844 0.374159
O O9 0.203158 0.159753 0.094817
O O10 0.201415 0.302203 0.843799
O O11 0.010582 0.897489 0.236629
O O12 0.367289 0.893887 0.002612
O O13 0.500000 0.500000 0.500000
O O14 0.402066 0.057840 0.713981
O O15 0.000000 0.500000 0.500000
#
# Coordination Sequence:
#
# PCOD9024681 Si02
#       7
#     2   2   2   2   2   2   2
#     4   9  21  39  63  96 131 174 210 268 339 381
#     4  11  23  41  69  99 127 181 219 268 325 390
#     4   9  21  41  65  91 137 171 215 275 324 385
#     4  11  21  40  71  94 132 175 221 268 328 392
#     4  11  21  43  69  94 130 174 231 265 319 394
#     4  10  22  40  65  98 130 169 222 269 324 383
#     4   9  22  41  62 100 141 165 216 268 337 395
#
# _framework density 22.823530000000002
#
# number of rings (size 3 to 8) (size 9 to 14) (size 15 to 20)
#    0.857    1.143    2.857    1.286    0.000    8.571 
#    0.000    0.714    0.000    0.000    0.000    0.000 
#    0.000    0.000    0.000    0.000    0.000    0.000 
#
# Total GULP energy -78209.069701 kJ/mol
# GULP energy per Si atom -5586.362122 kJ/mol
# Density = 2.277158 g / cm^3
# Si number density = 22.823530 Si / 1000 Ang^3
#
#
#
# Elastic Constant Matrix: (Units=GPa)
#
#
# Indices 1 2 3 4 5 6 
#
# 1 66.6983 34.4907 20.6240 5.9227 -8.0847 -3.3301
# 2 34.4907 120.3920 49.8054 13.5681 2.7682 7.0330
# 3 20.6240 49.8054 146.0185 25.4414 -3.1029 4.7601
# 4 5.9227 13.5681 25.4414 39.5912 2.1706 -1.3772
# 5 -8.0847 2.7682 -3.1029 2.1706 31.3867 2.3604
# 6 -3.3301 7.0330 4.7601 -1.3772 2.3604 37.3660
#
#
#
# Elastic Compliance Matrix: (Units=1/GPa)
#
#
# Indices 1 2 3 4 5 6 
#
# 1 0.018725 -0.005250 -0.000693 -0.000752 0.005090 0.002396
# 2 -0.005250 0.011320 -0.002897 -0.001175 -0.002396 -0.002121
# 3 -0.000693 -0.002897 0.008805 -0.004666 0.001337 -0.000895
# 4 -0.000752 -0.001175 -0.004666 0.028989 -0.002706 0.001988
# 5 0.005090 -0.002396 0.001337 -0.002706 0.033815 -0.001502
# 6 0.002396 -0.002121 -0.000895 0.001988 -0.001502 0.027657
#
#
# Mechanical properties :
#
#
# Convention : Reuss Voigt Hill
#
# Bulk Modulus (GPa) = 47.23430 60.32769 53.78099
# Shear Modulus (GPa) = 32.45725 36.88135 34.66930
#
# Velocity S-wave (km/s) = 3.77516 4.02423 3.90168
# Velocity P-wave (km/s) = 6.30419 6.93413 6.62665
#
# Compressibility (1/GPa) = 0.02117106
#
# Stress axis : x y z
#
# Youngs Moduli (GPa) = 53.40321 88.33861 113.57290
#
# Poissons Ratio (x) = 0.46379 0.07870
# Poissons Ratio (y) = 0.28037 0.32898
# Poissons Ratio (z) = 0.03700 0.25589
#
# Static dielectric constant tensor:
#      x y z
#    x 1.830360 -0.031390 -0.030730 
#    y -0.031390 1.909650 0.001430 
#    z -0.030730 0.001430 1.897700 
# 
# From -- ./inp_files/444000.got.cif
#   From: 2010.05.17/outbox.cif.g08.bks.cpg/sg2_222_cif.got.tgz:444000.got - 2010.06.03 11:33:40.
