data_PCOD9024828
_publ_section_title
;
Structure prediction by ZEFSAII (Michael W. Deem and Ramdas Pophale) SiO2 
 PCOD9024828
Probable space group: P -1
;
_chemical_formula_sum "Si O2"
_cell_formula_units_Z 15
_cell_length_a 8.250079
_cell_length_b 13.058775
_cell_length_c 15.636722
_cell_angle_alpha 25.627926
_cell_angle_beta 107.250843
_cell_angle_gamma 115.706769
_cell_volume 636.921151
_symmetry_space_group_name_H-M "P -1"
_symmetry_group_IT_number 2
_symmetry_cell_setting 'triclinic'
loop_
_space_group_symop_operation_xyz
x,y,z
-x,-y,-z
loop_
_atom_site_type_symbol
_atom_site_label
_atom_site_fract_x
_atom_site_fract_y
_atom_site_fract_z
Si Si1 0.666141 0.472653 0.098013
Si Si2 0.642614 0.956513 0.396657
Si Si3 0.000000 0.000000 0.000000
Si Si4 0.299132 0.538029 0.216181
Si Si5 0.306883 0.264666 0.923689
Si Si6 0.239536 0.620925 0.517467
Si Si7 0.944549 0.298068 0.065563
Si Si8 0.156951 0.582501 0.336637
O O1 0.668154 0.196015 0.282293
O O2 0.651708 0.519875 0.160169
O O3 0.859481 0.700920 0.928645
O O4 0.500000 0.500000 0.000000
O O5 0.696984 0.731836 0.611709
O O6 0.430229 0.828529 0.427709
O O7 0.776454 0.057970 0.259385
O O8 0.115920 0.028737 0.090704
O O9 0.124489 0.833833 0.111031
O O10 0.500857 0.748500 0.059699
O O11 0.135752 0.590287 0.107736
O O12 0.273824 0.526342 0.322729
O O13 0.223965 0.340044 0.765808
O O14 0.242275 0.612204 0.422540
O O15 0.054520 0.626929 0.524631
O O16 0.000000 0.500000 0.000000
#
# Coordination Sequence:
#
# PCOD9024828 Si02
#       8
#     2   2   1   2   2   2   2   2
#     4  11  24  43  70  99 138 179 226 279 328 416
#     4  10  24  43  69  98 135 182 216 278 352 386
#     4  10  22  40  66  92 130 180 218 268 340 390
#     4  11  24  44  66 101 140 170 227 288 328 413
#     4  10  22  42  64  98 135 172 231 273 333 401
#     4   9  21  42  64  93 133 170 230 268 332 413
#     4  10  22  42  65  99 133 173 226 274 331 404
#     4  10  22  42  65  96 133 177 224 281 330 406
#
# _framework density 23.550795999999998
#
# number of rings (size 3 to 8) (size 9 to 14) (size 15 to 20)
#    0.000    1.867    0.000    3.200    3.733    8.000 
#   14.400    0.000    0.000    0.000    0.000    0.000 
#    0.000    0.000    0.000    0.000    0.000    0.000 
#
# Total GULP energy -83517.429649 kJ/mol
# GULP energy per Si atom -5567.828643 kJ/mol
# Density = 2.349719 g / cm^3
# Si number density = 23.550796 Si / 1000 Ang^3
#
#
#
# Elastic Constant Matrix: (Units=GPa)
#
#
# Indices 1 2 3 4 5 6 
#
# 1 126.4407 54.8742 20.0232 -1.6640 -17.3813 13.4082
# 2 54.8742 119.9558 26.0309 2.2229 -5.6552 4.2423
# 3 20.0232 26.0309 78.1402 -1.7246 -4.0059 -2.5069
# 4 -1.6640 2.2229 -1.7246 34.9154 -0.3952 -0.2372
# 5 -17.3813 -5.6552 -4.0059 -0.3952 37.5042 -2.1588
# 6 13.4082 4.2423 -2.5069 -0.2372 -2.1588 45.6761
#
#
#
# Elastic Compliance Matrix: (Units=1/GPa)
#
#
# Indices 1 2 3 4 5 6 
#
# 1 0.010880 -0.004452 -0.001162 0.000773 0.004103 -0.002646
# 2 -0.004452 0.010908 -0.002548 -0.001040 -0.000695 0.000116
# 3 -0.001162 -0.002548 0.014041 0.000817 0.000665 0.001384
# 4 0.000773 -0.001040 0.000817 0.028791 0.000597 0.000092
# 5 0.004103 -0.000695 0.000665 0.000597 0.028552 0.000249
# 6 -0.002646 0.000116 0.001384 0.000092 0.000249 0.022748
#
#
# Mechanical properties :
#
#
# Convention : Reuss Voigt Hill
#
# Bulk Modulus (GPa) = 51.27102 58.48813 54.87957
# Shear Modulus (GPa) = 36.03712 38.52639 37.28175
#
# Velocity S-wave (km/s) = 3.91600 4.04900 3.98305
# Velocity P-wave (km/s) = 6.50111 6.83725 6.67130
#
# Compressibility (1/GPa) = 0.01950420
#
# Stress axis : x y z
#
# Youngs Moduli (GPa) = 91.91316 91.67282 71.22162
#
# Poissons Ratio (x) = 0.40814 0.08278
# Poissons Ratio (y) = 0.40921 0.18147
# Poissons Ratio (z) = 0.10683 0.23358
#
# Static dielectric constant tensor:
#      x y z
#    x 2.408350 0.550470 -1.133200 
#    y 0.550470 2.614120 -1.392890 
#    z -1.133200 -1.392890 4.645250 
# 
# From -- ./inp_files/499746.got.cif
#   From: 2010.05.17/outbox.cif.g08.bks.cpg/sg2_250_cif.got.tgz:499746.got - 2010.06.03 11:33:40.
