data_PCOD9024531
_publ_section_title
;
Structure prediction by ZEFSAII (Michael W. Deem and Ramdas Pophale) SiO2 
 PCOD9024531
Probable space group: P -1
;
_chemical_formula_sum "Si O2"
_cell_formula_units_Z 12
_cell_length_a 7.529418
_cell_length_b 13.569167
_cell_length_c 9.088859
_cell_angle_alpha 135.228894
_cell_angle_beta 50.135640
_cell_angle_gamma 133.763816
_cell_volume 451.320583
_symmetry_space_group_name_H-M "P -1"
_symmetry_group_IT_number 2
_symmetry_cell_setting 'triclinic'
loop_
_space_group_symop_operation_xyz
x,y,z
-x,-y,-z
loop_
_atom_site_type_symbol
_atom_site_label
_atom_site_fract_x
_atom_site_fract_y
_atom_site_fract_z
Si Si1 0.918955 0.710600 0.464654
Si Si2 0.363658 0.794050 0.529505
Si Si3 0.438300 0.262579 0.074199
Si Si4 0.205690 0.912978 0.278130
Si Si5 0.994813 0.182972 0.008681
Si Si6 0.795923 0.480884 0.872061
O O1 0.188259 0.818676 0.521720
O O2 0.962940 0.790312 0.368379
O O3 0.951278 0.550386 0.272313
O O4 0.684874 0.697193 0.675280
O O5 0.338831 0.627711 0.314087
O O6 0.214399 0.792583 0.755235
O O7 0.643519 0.929851 0.544276
O O8 0.197208 0.163887 0.989278
O O9 0.598696 0.166581 0.922110
O O10 0.617891 0.406903 0.028928
O O11 0.138976 0.942063 0.179277
O O12 0.134593 0.345361 0.020392
#
# Coordination Sequence:
#
# PCOD9024531 Si02
#       6
#     2   2   2   2   2   2
#     4   8  20  37  63  88 118 161 198 242 304 355
#     4   9  20  40  65  83 126 165 188 249 311 343
#     4  10  22  40  65  89 119 166 196 245 309 353
#     4  11  22  42  61  92 124 152 204 256 288 357
#     4  11  22  40  66  89 121 159 204 247 297 357
#     4   9  20  41  64  86 123 161 197 248 300 356
#
# _framework density 26.588640999999999
#
# number of rings (size 3 to 8) (size 9 to 14) (size 15 to 20)
#    1.000    1.333    0.000    2.000    0.000    5.333 
#    3.000    2.500    0.000    0.000    0.000    0.000 
#    0.000    0.000    0.000    0.000    0.000    0.000 
#
# Total GULP energy -67220.024739 kJ/mol
# GULP energy per Si atom -5601.668728 kJ/mol
# Density = 2.652812 g / cm^3
# Si number density = 26.588641 Si / 1000 Ang^3
#
#
#
# Elastic Constant Matrix: (Units=GPa)
#
#
# Indices 1 2 3 4 5 6 
#
# 1 99.1030 8.8415 58.9809 -11.4638 -16.5427 -4.1554
# 2 8.8415 51.4799 24.1203 -1.5148 -8.3989 4.7678
# 3 58.9809 24.1203 134.9886 -24.0833 -5.7452 4.6661
# 4 -11.4638 -1.5148 -24.0833 42.5465 5.6128 5.8439
# 5 -16.5427 -8.3989 -5.7452 5.6128 53.4716 5.3572
# 6 -4.1554 4.7678 4.6661 5.8439 5.3572 12.4668
#
#
#
# Elastic Compliance Matrix: (Units=1/GPa)
#
#
# Indices 1 2 3 4 5 6 
#
# 1 0.014830 0.000610 -0.006878 -0.001204 0.003433 0.006373
# 2 0.000610 0.022631 -0.003955 -0.000663 0.004238 -0.008482
# 3 -0.006878 -0.003955 0.012462 0.006308 -0.001286 -0.007848
# 4 -0.001204 -0.000663 0.006308 0.029034 -0.001287 -0.015565
# 5 0.003433 0.004238 -0.001286 -0.001287 0.021281 -0.008537
# 6 0.006373 -0.008482 -0.007848 -0.015565 -0.008537 0.099484
#
#
# Mechanical properties :
#
#
# Convention : Reuss Voigt Hill
#
# Bulk Modulus (GPa) = 33.92459 52.16188 43.04323
# Shear Modulus (GPa) = 21.73975 34.60556 28.17265
#
# Velocity S-wave (km/s) = 2.86253 3.61157 3.25864
# Velocity P-wave (km/s) = 4.86952 6.08703 5.51199
#
# Compressibility (1/GPa) = 0.02947714
#
# Stress axis : x y z
#
# Youngs Moduli (GPa) = 67.42888 44.18765 80.24557
#
# Poissons Ratio (x) = -0.02694 0.55192
# Poissons Ratio (y) = -0.04112 0.31736
# Poissons Ratio (z) = 0.46376 0.17476
#
# Static dielectric constant tensor:
#      x y z
#    x 2.111240 0.062670 0.003360 
#    y 0.062670 2.058020 0.035430 
#    z 0.003360 0.035430 2.053750 
# 
# From -- ./inp_files/213433.got.cif
#   From: 2010.05.17/outbox.cif.g08.bks.cpg/sg2_107_cif.got.tgz:213433.got - 2010.06.03 11:33:40.
