data_PCOD9024186
_publ_section_title
;
Structure prediction by ZEFSAII (Michael W. Deem and Ramdas Pophale) SiO2 
 PCOD9024186
Probable space group: P -1
;
_chemical_formula_sum "Si O2"
_cell_formula_units_Z 16
_cell_length_a 16.503160
_cell_length_b 5.470286
_cell_length_c 14.085589
_cell_angle_alpha 62.815927
_cell_angle_beta 141.331462
_cell_angle_gamma 102.124313
_cell_volume 681.706550
_symmetry_space_group_name_H-M "P -1"
_symmetry_group_IT_number 2
_symmetry_cell_setting 'triclinic'
loop_
_space_group_symop_operation_xyz
x,y,z
-x,-y,-z
loop_
_atom_site_type_symbol
_atom_site_label
_atom_site_fract_x
_atom_site_fract_y
_atom_site_fract_z
Si Si1 0.929997 0.659301 0.276386
Si Si2 0.389776 0.860167 0.390777
Si Si3 0.779374 0.522820 0.337634
Si Si4 0.461343 0.729359 0.274652
Si Si5 0.818415 0.262147 0.970521
Si Si6 0.676946 0.988758 0.328558
Si Si7 0.060379 0.340580 0.292473
Si Si8 0.141029 0.814782 0.191012
O O1 0.818105 0.650540 0.252533
O O2 0.974789 0.372248 0.305367
O O3 0.071181 0.658850 0.456810
O O4 0.872085 0.926830 0.107196
O O5 0.393639 0.901288 0.274524
O O6 0.433246 0.542687 0.532670
O O7 0.244227 0.996493 0.276358
O O8 0.500000 0.000000 0.500000
O O9 0.722673 0.778264 0.316369
O O10 0.680292 0.318963 0.262579
O O11 0.329006 0.638867 0.131407
O O12 0.543089 0.908364 0.257790
O O13 0.801280 0.333471 0.829876
O O14 0.947487 0.362537 0.106045
O O15 0.799793 0.895594 0.533458
O O16 0.119496 0.613927 0.289144
O O17 0.000000 0.000000 0.000000
#
# Coordination Sequence:
#
# PCOD9024186 Si02
#       8
#     2   2   2   2   2   2   2   2
#     4  10  22  40  63  97 122 164 210 272 327 374
#     4  10  23  39  60  84 129 173 211 258 316 388
#     4  10  24  41  70  95 129 161 224 275 323 372
#     4  10  24  40  58  91 127 169 215 255 327 381
#     4  11  23  39  60  90 132 165 205 264 324 385
#     4  11  23  44  68  97 123 173 218 270 313 387
#     4  11  22  38  66  89 128 164 213 262 320 384
#     4  11  22  38  57  96 125 163 216 259 319 383
#
# _framework density 23.470510999999998
#
# number of rings (size 3 to 8) (size 9 to 14) (size 15 to 20)
#    0.000    1.500    3.750    0.375    5.250    2.500 
#    0.000    1.250    0.000    0.000    0.000    0.000 
#    0.000    0.000    0.000    0.000    0.000    0.000 
#
# Total GULP energy -89108.415813 kJ/mol
# GULP energy per Si atom -5569.275988 kJ/mol
# Density = 2.341709 g / cm^3
# Si number density = 23.470511 Si / 1000 Ang^3
#
#
#
# Elastic Constant Matrix: (Units=GPa)
#
#
# Indices 1 2 3 4 5 6 
#
# 1 116.9478 42.6323 11.6084 23.2455 14.8503 23.2652
# 2 42.6323 87.1246 -0.8915 12.4988 10.5405 17.9719
# 3 11.6084 -0.8915 49.0310 9.8214 18.8564 6.0663
# 4 23.2455 12.4988 9.8214 29.1578 14.0688 7.6360
# 5 14.8503 10.5405 18.8564 14.0688 35.4787 8.1753
# 6 23.2652 17.9719 6.0663 7.6360 8.1753 24.3093
#
#
#
# Elastic Compliance Matrix: (Units=1/GPa)
#
#
# Indices 1 2 3 4 5 6 
#
# 1 0.012730 -0.003904 -0.001152 -0.006539 0.000693 -0.007189
# 2 -0.003904 0.015426 0.003351 -0.001562 -0.002454 -0.007189
# 3 -0.001152 0.003351 0.026576 -0.002442 -0.013009 -0.002864
# 4 -0.006539 -0.001562 -0.002442 0.048473 -0.014160 -0.002442
# 5 0.000693 -0.002454 -0.013009 -0.014160 0.042402 -0.005415
# 6 -0.007189 -0.007189 -0.002864 -0.002442 -0.005415 0.056634
#
#
# Mechanical properties :
#
#
# Convention : Reuss Voigt Hill
#
# Bulk Modulus (GPa) = 19.48506 39.97797 29.73152
# Shear Modulus (GPa) = 22.44581 31.10612 26.77596
#
# Velocity S-wave (km/s) = 3.09583 3.64445 3.38129
# Velocity P-wave (km/s) = 4.59335 5.89743 5.28576
#
# Compressibility (1/GPa) = 0.05132138
#
# Stress axis : x y z
#
# Youngs Moduli (GPa) = 78.55338 64.82473 37.62842
#
# Poissons Ratio (x) = 0.25307 0.04336
# Poissons Ratio (y) = 0.30666 -0.12609
# Poissons Ratio (z) = 0.09051 -0.21721
#
# Static dielectric constant tensor:
#      x y z
#    x 1.868980 -0.061280 -0.007120 
#    y -0.061280 1.990740 0.052570 
#    z -0.007120 0.052570 2.010960 
# 
# From -- ./inp_files/47892.got.cif
#   From: 2010.05.17/outbox.cif.g08.bks.cpg/sg2_24_cif.got.tgz:47892.got - 2010.06.03 11:33:40.
