data_PCOD9024003
_publ_section_title
;
Structure prediction by ZEFSAII (Michael W. Deem and Ramdas Pophale) SiO2 
 PCOD9024003
Probable space group: P -1
;
_chemical_formula_sum "Si O2"
_cell_formula_units_Z 16
_cell_length_a 19.934623
_cell_length_b 5.549385
_cell_length_c 17.618622
_cell_angle_alpha 93.378123
_cell_angle_beta 28.317159
_cell_angle_gamma 111.832394
_cell_volume 680.264359
_symmetry_space_group_name_H-M "P -1"
_symmetry_group_IT_number 2
_symmetry_cell_setting 'triclinic'
loop_
_space_group_symop_operation_xyz
x,y,z
-x,-y,-z
loop_
_atom_site_type_symbol
_atom_site_label
_atom_site_fract_x
_atom_site_fract_y
_atom_site_fract_z
Si Si1 0.101388 0.714528 0.479900
Si Si2 0.787778 0.247725 0.383090
Si Si3 0.676133 0.642805 0.933684
Si Si4 0.108840 0.230564 0.011621
Si Si5 0.301881 0.460075 0.257315
Si Si6 0.147043 0.469056 0.824464
Si Si7 0.095168 0.720056 0.196581
Si Si8 0.400542 0.708788 0.846769
O O1 0.240857 0.645184 0.355859
O O2 0.000000 0.500000 0.500000
O O3 0.970806 0.560961 0.682464
O O4 0.193890 0.084728 0.381010
O O5 0.721209 0.281288 0.369515
O O6 0.941587 0.217100 0.207801
O O7 0.923081 0.571601 0.307007
O O8 0.604649 0.961329 0.608177
O O9 0.722339 0.553431 0.809787
O O10 0.852213 0.989760 0.800334
O O11 0.522836 0.666604 0.060279
O O12 0.583237 0.378567 0.087259
O O13 0.225988 0.460456 0.824863
O O14 0.259943 0.375220 0.930928
O O15 0.990404 0.875700 0.088453
O O16 0.000000 0.500000 0.000000
O O17 0.283678 0.827224 0.970008
#
# Coordination Sequence:
#
# PCOD9024003 Si02
#       8
#     2   2   2   2   2   2   2   2
#     4  12  24  46  68 100 132 180 234 288 350 409
#     4  10  22  40  62  95 130 174 216 274 332 406
#     4  11  25  42  63  96 131 175 227 289 337 413
#     4   9  20  40  66  94 128 171 215 271 328 403
#     4  11  27  43  72  97 135 182 234 291 353 410
#     4   9  18  39  67  93 129 167 216 267 329 394
#     4  11  25  40  67  92 132 176 228 279 344 406
#     4  11  24  42  62  96 135 172 223 273 340 404
#
# _framework density 23.520268999999999
#
# number of rings (size 3 to 8) (size 9 to 14) (size 15 to 20)
#    0.000    1.500    1.250    2.625    5.250    2.500 
#    0.000    5.625    0.000    0.000    0.000    0.000 
#    0.000    0.000    0.000    0.000    0.000    0.000 
#
# Total GULP energy -89436.276806 kJ/mol
# GULP energy per Si atom -5589.767300 kJ/mol
# Density = 2.346674 g / cm^3
# Si number density = 23.520269 Si / 1000 Ang^3
#
#
#
# Elastic Constant Matrix: (Units=GPa)
#
#
# Indices 1 2 3 4 5 6 
#
# 1 89.7874 27.5506 49.8171 4.9373 25.7885 2.3759
# 2 27.5506 97.1474 35.9123 4.3980 -1.0279 15.0097
# 3 49.8171 35.9123 129.7455 -0.6819 25.9272 2.9957
# 4 4.9373 4.3980 -0.6819 25.0368 -6.9289 3.2243
# 5 25.7885 -1.0279 25.9272 -6.9289 46.9906 -8.2585
# 6 2.3759 15.0097 2.9957 3.2243 -8.2585 32.1988
#
#
#
# Elastic Compliance Matrix: (Units=1/GPa)
#
#
# Indices 1 2 3 4 5 6 
#
# 1 0.016921 -0.002994 -0.004066 -0.005011 -0.008028 -0.001032
# 2 -0.002994 0.012996 -0.002854 -0.000429 0.002584 -0.004866
# 3 -0.004066 -0.002854 0.010828 0.000602 -0.003788 -0.000409
# 4 -0.005011 -0.000429 0.000602 0.043600 0.008545 -0.001661
# 5 -0.008028 0.002584 -0.003788 0.008545 0.030262 0.006646
# 6 -0.001032 -0.004866 -0.000409 -0.001661 0.006646 0.035311
#
#
# Mechanical properties :
#
#
# Convention : Reuss Voigt Hill
#
# Bulk Modulus (GPa) = 47.80841 60.36002 54.08422
# Shear Modulus (GPa) = 28.29350 34.40526 31.34938
#
# Velocity S-wave (km/s) = 3.47211 3.82880 3.65481
# Velocity P-wave (km/s) = 6.03694 6.72792 6.39177
#
# Compressibility (1/GPa) = 0.02091682
#
# Stress axis : x y z
#
# Youngs Moduli (GPa) = 59.09789 76.94472 92.35060
#
# Poissons Ratio (x) = 0.23039 0.37554
# Poissons Ratio (y) = 0.17695 0.26355
# Poissons Ratio (z) = 0.24032 0.21959
#
# Static dielectric constant tensor:
#      x y z
#    x 1.955540 -0.034300 0.035940 
#    y -0.034300 1.925960 -0.004210 
#    z 0.035940 -0.004210 1.913610 
# 
# From -- ./inp_files/350966.got.cif
#   From: 2010.05.17/outbox.cif.g08.bks.cpg/sg2_176_cif.got.tgz:350966.got - 2010.06.03 11:33:40.
