data_PCOD9024780
_publ_section_title
;
Structure prediction by ZEFSAII (Michael W. Deem and Ramdas Pophale) SiO2 
 PCOD9024780
Probable space group: P -1
;
_chemical_formula_sum "Si O2"
_cell_formula_units_Z 16
_cell_length_a 4.889598
_cell_length_b 20.903199
_cell_length_c 5.766910
_cell_angle_alpha 87.068606
_cell_angle_beta 79.960267
_cell_angle_gamma 85.115906
_cell_volume 577.896554
_symmetry_space_group_name_H-M "P -1"
_symmetry_group_IT_number 2
_symmetry_cell_setting 'triclinic'
loop_
_space_group_symop_operation_xyz
x,y,z
-x,-y,-z
loop_
_atom_site_type_symbol
_atom_site_label
_atom_site_fract_x
_atom_site_fract_y
_atom_site_fract_z
Si Si1 0.971555 0.896167 0.445539
Si Si2 0.228451 0.983933 0.772892
Si Si3 0.332992 0.225068 0.355697
Si Si4 0.776650 0.578055 0.375173
Si Si5 0.250175 0.861758 0.975788
Si Si6 0.135961 0.242709 0.886610
Si Si7 0.267655 0.643908 0.182447
Si Si8 0.337091 0.543584 0.823496
O O1 0.861745 0.832026 0.563542
O O2 0.081026 0.939057 0.623883
O O3 0.238148 0.875066 0.249680
O O4 0.736679 0.947683 0.356374
O O5 0.414542 0.926337 0.872988
O O6 0.000000 0.000000 0.000000
O O7 0.328206 0.250526 0.621742
O O8 0.612093 0.190180 0.212829
O O9 0.228447 0.264317 0.128989
O O10 0.579035 0.622797 0.221299
O O11 0.570727 0.566661 0.615466
O O12 0.845535 0.507287 0.267875
O O13 0.050394 0.612344 0.393293
O O14 0.937084 0.831509 0.046870
O O15 0.849961 0.283449 0.848330
O O16 0.204914 0.605417 0.963595
O O17 0.500000 0.500000 0.000000
#
# Coordination Sequence:
#
# PCOD9024780 Si02
#       8
#     2   2   2   2   2   2   2   2
#     4   9  19  38  60  91 128 159 218 275 338 407
#     4   9  17  35  61  90 125 163 206 281 335 404
#     4  11  25  43  67  93 127 177 228 274 342 406
#     4  10  23  42  68 102 137 178 226 285 349 414
#     4  10  22  40  66  87 129 172 217 275 343 399
#     4  11  27  44  64  96 133 175 229 281 331 405
#     4  11  25  42  67  99 138 181 233 285 344 412
#     4   9  21  42  70 101 138 177 224 283 351 412
#
# _framework density 27.686616000000001
#
# number of rings (size 3 to 8) (size 9 to 14) (size 15 to 20)
#    0.000    2.000    1.250    0.375    5.250    8.000 
#    0.000    5.625    0.000    0.000    0.000    0.000 
#    0.000    0.000    0.000    0.000    0.000    0.000 
#
# Total GULP energy -89080.966716 kJ/mol
# GULP energy per Si atom -5567.560420 kJ/mol
# Density = 2.762360 g / cm^3
# Si number density = 27.686616 Si / 1000 Ang^3
#
#
#
# Elastic Constant Matrix: (Units=GPa)
#
#
# Indices 1 2 3 4 5 6 
#
# 1 80.0965 17.4315 25.0625 -2.3043 -6.4347 -6.6987
# 2 17.4315 118.8257 39.2823 4.3139 0.8689 -12.0152
# 3 25.0625 39.2823 187.8919 -1.9507 -11.8452 7.4007
# 4 -2.3043 4.3139 -1.9507 41.8178 -0.2935 -1.1161
# 5 -6.4347 0.8689 -11.8452 -0.2935 33.9127 -0.6927
# 6 -6.6987 -12.0152 7.4007 -1.1161 -0.6927 33.3930
#
#
#
# Elastic Compliance Matrix: (Units=1/GPa)
#
#
# Indices 1 2 3 4 5 6 
#
# 1 0.013662 -0.001280 -0.001515 0.000901 0.002159 0.002691
# 2 -0.001280 0.009709 -0.002087 -0.001080 -0.001155 0.003639
# 3 -0.001515 -0.002087 0.006176 0.000370 0.001878 -0.002372
# 4 0.000901 -0.001080 0.000370 0.024110 0.000547 0.000527
# 5 0.002159 -0.001155 0.001878 0.000547 0.030593 0.000254
# 6 0.002691 0.003639 -0.002372 0.000527 0.000254 0.032344
#
#
# Mechanical properties :
#
#
# Convention : Reuss Voigt Hill
#
# Bulk Modulus (GPa) = 50.54583 61.15183 55.84883
# Shear Modulus (GPa) = 37.60785 42.16054 39.88420
#
# Velocity S-wave (km/s) = 3.68957 3.90651 3.79959
# Velocity P-wave (km/s) = 6.03710 6.51789 6.28210
#
# Compressibility (1/GPa) = 0.01978403
#
# Stress axis : x y z
#
# Youngs Moduli (GPa) = 73.19591 102.99921 161.91112
#
# Poissons Ratio (x) = 0.13180 0.24535
# Poissons Ratio (y) = 0.09366 0.33783
# Poissons Ratio (z) = 0.11092 0.21491
#
# Static dielectric constant tensor:
#      x y z
#    x 2.361650 -0.178210 0.117110 
#    y -0.178210 2.491340 -0.133180 
#    z 0.117110 -0.133180 2.327930 
# 
# From -- ./inp_files/13096.got.cif
#   From: 2010.05.17/outbox.cif.g08.bks.cpg/sg2_7_cif.got.tgz:13096.got - 2010.06.03 11:33:40.
