data_PCOD9024702
_publ_section_title
;
Structure prediction by ZEFSAII (Michael W. Deem and Ramdas Pophale) SiO2 
 PCOD9024702
Probable space group: P -1
;
_chemical_formula_sum "Si O2"
_cell_formula_units_Z 14
_cell_length_a 22.913194
_cell_length_b 15.343621
_cell_length_c 6.972594
_cell_angle_alpha 119.698996
_cell_angle_beta 52.267178
_cell_angle_gamma 162.359610
_cell_volume 546.707935
_symmetry_space_group_name_H-M "P -1"
_symmetry_group_IT_number 2
_symmetry_cell_setting 'triclinic'
loop_
_space_group_symop_operation_xyz
x,y,z
-x,-y,-z
loop_
_atom_site_type_symbol
_atom_site_label
_atom_site_fract_x
_atom_site_fract_y
_atom_site_fract_z
Si Si1 0.618550 0.845562 0.905207
Si Si2 0.765155 0.340624 0.793728
Si Si3 0.045356 0.557741 0.195663
Si Si4 0.977391 0.786515 0.623504
Si Si5 0.687551 0.607363 0.298223
Si Si6 0.091994 0.226043 0.642027
Si Si7 0.642998 0.764132 0.124219
O O1 0.392185 0.525384 0.896695
O O2 0.719553 0.076825 0.865776
O O3 0.611566 0.824847 0.126793
O O4 0.812661 0.013426 0.647525
O O5 0.908315 0.489935 0.854913
O O6 0.837926 0.540555 0.781711
O O7 0.850183 0.366767 0.495107
O O8 0.500000 0.000000 0.000000
O O9 0.000000 0.500000 0.000000
O O10 0.834832 0.625890 0.541122
O O11 0.102637 0.045785 0.736520
O O12 0.468298 0.371942 0.592262
O O13 0.747599 0.594841 0.309607
O O14 0.000000 0.000000 0.500000
O O15 0.890860 0.036226 0.921098
O O16 0.500000 0.500000 0.000000
#
# Coordination Sequence:
#
# PCOD9024702 Si02
#       7
#     2   2   2   2   2   2   2
#     4  10  22  40  66 100 129 175 221 274 341 404
#     4  10  23  46  72 103 134 174 237 286 338 402
#     4  10  24  49  73  99 134 178 233 289 340 404
#     4   9  19  38  65  96 133 175 218 273 333 401
#     4  11  21  40  64  95 142 171 216 273 333 406
#     4   9  18  36  59  94 132 176 222 259 321 407
#     4  11  20  36  62  91 132 180 216 260 338 400
#
# _framework density 25.607824999999998
#
# number of rings (size 3 to 8) (size 9 to 14) (size 15 to 20)
#    0.000    2.000    4.286    0.429    0.000    5.143 
#    0.000   10.714    0.000    0.000    0.000    0.000 
#    0.000    0.000    0.000    0.000    0.000    0.000 
#
# Total GULP energy -78459.518360 kJ/mol
# GULP energy per Si atom -5604.251311 kJ/mol
# Density = 2.554954 g / cm^3
# Si number density = 25.607825 Si / 1000 Ang^3
#
#
#
# Elastic Constant Matrix: (Units=GPa)
#
#
# Indices 1 2 3 4 5 6 
#
# 1 187.5432 54.6321 59.1435 -10.1964 32.4661 11.1168
# 2 54.6321 82.5447 48.5849 -13.1988 10.0032 10.0019
# 3 59.1435 48.5849 147.7958 -18.6137 18.0234 9.5858
# 4 -10.1964 -13.1988 -18.6137 34.0701 0.4523 13.5391
# 5 32.4661 10.0032 18.0234 0.4523 45.2173 -2.9268
# 6 11.1168 10.0019 9.5858 13.5391 -2.9268 47.2640
#
#
#
# Elastic Compliance Matrix: (Units=1/GPa)
#
#
# Indices 1 2 3 4 5 6 
#
# 1 0.007595 -0.003525 -0.001163 0.000852 -0.004303 -0.001315
# 2 -0.003525 0.017886 -0.003485 0.005503 -0.000341 -0.003847
# 3 -0.001163 -0.003485 0.009354 0.004347 -0.002313 -0.002275
# 4 0.000852 0.005503 0.004347 0.039710 -0.004860 -0.013923
# 5 -0.004303 -0.000341 -0.002313 -0.004860 0.026548 0.004590
# 6 -0.001315 -0.003847 -0.002275 -0.013923 0.004590 0.027015
#
#
# Mechanical properties :
#
#
# Convention : Reuss Voigt Hill
#
# Bulk Modulus (GPa) = 54.08586 82.51163 68.29874
# Shear Modulus (GPa) = 33.19640 42.34517 37.77079
#
# Velocity S-wave (km/s) = 3.60438 4.07086 3.84470
# Velocity P-wave (km/s) = 6.20393 7.37476 6.81454
#
# Compressibility (1/GPa) = 0.01848912
#
# Stress axis : x y z
#
# Youngs Moduli (GPa) = 131.66524 55.90858 106.90339
#
# Poissons Ratio (x) = 0.19708 0.12435
# Poissons Ratio (y) = 0.46414 0.37255
# Poissons Ratio (z) = 0.15315 0.19484
#
# Static dielectric constant tensor:
#      x y z
#    x 2.057400 -0.037430 0.006600 
#    y -0.037430 2.051670 -0.041930 
#    z 0.006600 -0.041930 2.069040 
# 
# From -- ./inp_files/124571.got.cif
#   From: 2010.05.17/outbox.cif.g08.bks.cpg/sg2_63_cif.got.tgz:124571.got - 2010.06.03 11:33:40.
