data_PCOD9024987
_publ_section_title
;
Structure prediction by ZEFSAII (Michael W. Deem and Ramdas Pophale) SiO2 
 PCOD9024987
Probable space group: P -1
;
_chemical_formula_sum "Si O2"
_cell_formula_units_Z 16
_cell_length_a 9.001648
_cell_length_b 11.112560
_cell_length_c 15.155718
_cell_angle_alpha 152.219109
_cell_angle_beta 88.243989
_cell_angle_gamma 82.045207
_cell_volume 660.213875
_symmetry_space_group_name_H-M "P -1"
_symmetry_group_IT_number 2
_symmetry_cell_setting 'triclinic'
loop_
_space_group_symop_operation_xyz
x,y,z
-x,-y,-z
loop_
_atom_site_type_symbol
_atom_site_label
_atom_site_fract_x
_atom_site_fract_y
_atom_site_fract_z
Si Si1 0.514801 0.310626 0.512876
Si Si2 0.374808 0.110536 0.994098
Si Si3 0.948290 0.040025 0.841548
Si Si4 0.524712 0.830066 0.298213
Si Si5 0.934784 0.464094 0.781940
Si Si6 0.273099 0.627528 0.600606
Si Si7 0.614439 0.320288 0.071245
Si Si8 0.837909 0.075440 0.666348
O O1 0.360451 0.363723 0.487903
O O2 0.639043 0.401740 0.513753
O O3 0.450362 0.491410 0.718836
O O4 0.594535 0.994999 0.336831
O O5 0.214633 0.379332 0.178114
O O6 0.480715 0.192562 0.972679
O O7 0.500000 0.000000 0.000000
O O8 0.321702 0.864481 0.802434
O O9 0.908857 0.046628 0.743733
O O10 0.787106 0.094508 0.934718
O O11 0.085760 0.753096 0.677359
O O12 0.007065 0.294386 0.027338
O O13 0.625591 0.520703 0.122668
O O14 0.350605 0.852803 0.285183
O O15 0.500000 0.000000 0.500000
O O16 0.876565 0.307663 0.759028
O O17 0.076260 0.221392 0.574823
#
# Coordination Sequence:
#
# PCOD9024987 Si02
#       8
#     2   2   2   2   2   2   2   2
#     4  10  22  42  70  91 130 174 225 267 330 394
#     4  11  22  42  66  95 130 177 223 271 327 408
#     4  11  26  42  64 104 136 172 219 281 336 394
#     4  10  22  40  66  99 130 170 217 278 330 393
#     4  10  23  43  67  97 135 178 225 271 336 398
#     4  10  24  43  67  96 130 176 225 271 328 398
#     4  11  23  42  66  97 133 169 218 274 339 389
#     4  11  23  41  69  96 136 177 222 276 337 393
#
# _framework density 24.234570999999999
#
# number of rings (size 3 to 8) (size 9 to 14) (size 15 to 20)
#    0.000    1.500    2.500    1.875    3.500    5.000 
#    2.250    0.625    0.000    0.000    0.000    0.000 
#    0.000    0.000    0.000    0.000    0.000    0.000 
#
# Total GULP energy -89554.653035 kJ/mol
# GULP energy per Si atom -5597.165815 kJ/mol
# Density = 2.417941 g / cm^3
# Si number density = 24.234571 Si / 1000 Ang^3
#
#
#
# Elastic Constant Matrix: (Units=GPa)
#
#
# Indices 1 2 3 4 5 6 
#
# 1 61.0597 0.9087 5.2389 0.4001 -11.3239 -26.6693
# 2 0.9087 85.1923 20.6267 4.6280 6.2395 -11.0429
# 3 5.2389 20.6267 63.3988 -9.8518 -10.0400 -10.6596
# 4 0.4001 4.6280 -9.8518 39.8327 -13.1024 2.3292
# 5 -11.3239 6.2395 -10.0400 -13.1024 38.1753 5.2413
# 6 -26.6693 -11.0429 -10.6596 2.3292 5.2413 40.7795
#
#
#
# Elastic Compliance Matrix: (Units=1/GPa)
#
#
# Indices 1 2 3 4 5 6 
#
# 1 0.024076 0.001003 0.001307 0.000852 0.005471 0.015607
# 2 0.001003 0.014408 -0.005861 -0.005346 -0.005997 0.004101
# 3 0.001307 -0.005861 0.020942 0.008779 0.009451 0.003026
# 4 0.000852 -0.005346 0.008779 0.032995 0.015092 -0.002420
# 5 0.005471 -0.005997 0.009451 0.015092 0.036621 -0.001144
# 6 0.015607 0.004101 0.003026 -0.002420 -0.001144 0.036916
#
#
# Mechanical properties :
#
#
# Convention : Reuss Voigt Hill
#
# Bulk Modulus (GPa) = 19.11209 29.24439 24.17824
# Shear Modulus (GPa) = 26.24662 35.94926 31.09794
#
# Velocity S-wave (km/s) = 3.29450 3.85566 3.58607
# Velocity P-wave (km/s) = 4.73023 5.64932 5.21008
#
# Compressibility (1/GPa) = 0.05232291
#
# Stress axis : x y z
#
# Youngs Moduli (GPa) = 41.53498 69.40652 47.75138
#
# Poissons Ratio (x) = -0.06959 -0.06242
# Poissons Ratio (y) = -0.04165 0.27989
# Poissons Ratio (z) = -0.05429 0.40681
#
# Static dielectric constant tensor:
#      x y z
#    x 1.910830 0.022220 0.019330 
#    y 0.022220 1.966980 0.017340 
#    z 0.019330 0.017340 1.967640 
# 
# From -- ./inp_files/501223.got.cif
#   From: 2010.05.17/outbox.cif.g08.bks.cpg/sg2_251_cif.got.tgz:501223.got - 2010.06.03 11:33:40.
