data_PCOD9024129
_publ_section_title
;
Structure prediction by ZEFSAII (Michael W. Deem and Ramdas Pophale) SiO2 
 PCOD9024129
Probable space group: P -1
;
_chemical_formula_sum "Si O2"
_cell_formula_units_Z 13
_cell_length_a 14.896457
_cell_length_b 12.809323
_cell_length_c 4.814937
_cell_angle_alpha 73.447358
_cell_angle_beta 98.404316
_cell_angle_gamma 142.404544
_cell_volume 532.290013
_symmetry_space_group_name_H-M "P -1"
_symmetry_group_IT_number 2
_symmetry_cell_setting 'triclinic'
loop_
_space_group_symop_operation_xyz
x,y,z
-x,-y,-z
loop_
_atom_site_type_symbol
_atom_site_label
_atom_site_fract_x
_atom_site_fract_y
_atom_site_fract_z
Si Si1 0.844975 0.142125 0.092458
Si Si2 0.143605 0.703349 0.516351
Si Si3 0.686773 0.590677 0.525583
Si Si4 0.986659 0.101266 0.576014
Si Si5 0.500000 0.000000 0.500000
Si Si6 0.309106 0.253062 0.070643
Si Si7 0.540205 0.790779 0.481831
O O1 0.866507 0.273253 0.183191
O O2 0.944716 0.149137 0.287488
O O3 0.677537 0.943901 0.222357
O O4 0.867908 0.196689 0.745836
O O5 0.314137 0.823619 0.467166
O O6 0.000000 0.500000 0.500000
O O7 0.693638 0.648231 0.790622
O O8 0.592181 0.392517 0.602636
O O9 0.849905 0.718469 0.381656
O O10 0.637938 0.646848 0.269579
O O11 0.856404 0.954467 0.848786
O O12 0.000000 0.000000 0.500000
O O13 0.507200 0.875976 0.537398
O O14 0.408119 0.251114 0.242718
#
# Coordination Sequence:
#
# PCOD9024129 Si02
#       7
#     2   2   2   2   1   2   2
#     4  10  24  44  67  95 134 179 216 281 343 393
#     4  11  25  48  71  96 134 178 231 282 338 401
#     4  11  22  38  66  99 130 178 224 277 334 415
#     4   9  21  39  62  99 133 172 218 273 338 408
#     4  10  26  46  68 106 132 184 230 288 340 406
#     4  10  22  40  63  93 137 174 221 277 344 396
#     4  10  23  42  66  96 138 175 229 281 341 408
#
# _framework density 24.422777
#
# number of rings (size 3 to 8) (size 9 to 14) (size 15 to 20)
#    0.000    1.846    0.000    1.846    2.154   18.462 
#    2.769    0.000    0.000    0.000    0.000    0.000 
#    0.000    0.000    0.000    0.000    0.000    0.000 
#
# Total GULP energy -72503.566458 kJ/mol
# GULP energy per Si atom -5577.197420 kJ/mol
# Density = 2.436719 g / cm^3
# Si number density = 24.422777 Si / 1000 Ang^3
#
#
#
# Elastic Constant Matrix: (Units=GPa)
#
#
# Indices 1 2 3 4 5 6 
#
# 1 103.4621 58.0738 18.0184 -10.7528 27.0227 1.9837
# 2 58.0738 225.7927 20.1779 -22.5378 2.4625 10.5264
# 3 18.0184 20.1779 97.6222 -3.6307 -5.5345 -3.1212
# 4 -10.7528 -22.5378 -3.6307 38.0651 -7.6387 -1.2576
# 5 27.0227 2.4625 -5.5345 -7.6387 24.2893 -1.0619
# 6 1.9837 10.5264 -3.1212 -1.2576 -1.0619 38.7005
#
#
#
# Elastic Compliance Matrix: (Units=1/GPa)
#
#
# Indices 1 2 3 4 5 6 
#
# 1 0.018024 -0.004241 -0.003748 -0.002045 -0.021151 -0.000720
# 2 -0.004241 0.005845 -0.000053 0.003240 0.005083 -0.001132
# 3 -0.003748 -0.000053 0.011462 0.001519 0.007325 0.001381
# 4 -0.002045 0.003240 0.001519 0.030146 0.011802 0.000649
# 5 -0.021151 0.005083 0.007325 0.011802 0.069681 0.002588
# 6 -0.000720 -0.001132 0.001381 0.000649 0.002588 0.026388
#
#
# Mechanical properties :
#
#
# Convention : Reuss Voigt Hill
#
# Bulk Modulus (GPa) = 51.95522 68.82413 60.38968
# Shear Modulus (GPa) = 27.16706 42.25143 34.70925
#
# Velocity S-wave (km/s) = 3.33883 4.16384 3.77395
# Velocity P-wave (km/s) = 6.01525 7.16647 6.61594
#
# Compressibility (1/GPa) = 0.01924734
#
# Stress axis : x y z
#
# Youngs Moduli (GPa) = 55.48100 171.08422 87.24233
#
# Poissons Ratio (x) = 0.72553 0.32702
# Poissons Ratio (y) = 0.23528 0.00462
# Poissons Ratio (z) = 0.20797 0.00905
#
# Static dielectric constant tensor:
#      x y z
#    x 1.944250 0.051630 -0.029760 
#    y 0.051630 1.998050 0.020200 
#    z -0.029760 0.020200 1.910200 
# 
# From -- ./inp_files/74358.got.cif
#   From: 2010.05.17/outbox.cif.g08.bks.cpg/sg2_38_cif.got.tgz:74358.got - 2010.06.03 11:33:40.
