data_PCOD9024586
_publ_section_title
;
Structure prediction by ZEFSAII (Michael W. Deem and Ramdas Pophale) SiO2 
 PCOD9024586
Probable space group: P -1
;
_chemical_formula_sum "Si O2"
_cell_formula_units_Z 16
_cell_length_a 6.684822
_cell_length_b 8.518502
_cell_length_c 17.435410
_cell_angle_alpha 85.038052
_cell_angle_beta 133.017276
_cell_angle_gamma 104.778551
_cell_volume 696.508173
_symmetry_space_group_name_H-M "P -1"
_symmetry_group_IT_number 2
_symmetry_cell_setting 'triclinic'
loop_
_space_group_symop_operation_xyz
x,y,z
-x,-y,-z
loop_
_atom_site_type_symbol
_atom_site_label
_atom_site_fract_x
_atom_site_fract_y
_atom_site_fract_z
Si Si1 0.647381 0.005265 0.709903
Si Si2 0.754297 0.669561 0.972086
Si Si3 0.641994 0.531510 0.343687
Si Si4 0.685611 0.255371 0.257256
Si Si5 0.377314 0.671577 0.127627
Si Si6 0.705237 0.889600 0.085478
Si Si7 0.227582 0.175860 0.539783
Si Si8 0.731547 0.737225 0.632029
O O1 0.409277 0.906167 0.710324
O O2 0.650256 0.889055 0.643107
O O3 0.536335 0.157001 0.647470
O O4 0.956850 0.032758 0.826953
O O5 0.596062 0.737107 0.860763
O O6 0.678807 0.477150 0.941977
O O7 0.657208 0.737228 0.021222
O O8 0.092982 0.728650 0.055671
O O9 0.769136 0.411949 0.329414
O O10 0.451967 0.600017 0.230059
O O11 0.848000 0.689068 0.430734
O O12 0.462198 0.422142 0.369514
O O13 0.940107 0.257437 0.266425
O O14 0.620823 0.819636 0.151395
O O15 0.500000 0.000000 0.000000
O O16 0.264967 0.240305 0.459642
O O17 0.000000 0.000000 0.500000
#
# Coordination Sequence:
#
# PCOD9024586 Si02
#       8
#     2   2   2   2   2   2   2   2
#     4  11  25  43  66 100 137 173 219 275 332 393
#     4  10  22  40  65  93 133 176 223 265 323 394
#     4  10  25  44  68  97 130 175 226 271 329 400
#     4  10  22  44  68  96 135 175 220 272 327 395
#     4  10  23  43  65  95 134 175 222 275 321 394
#     4  12  25  39  67 103 135 175 216 268 338 393
#     4  12  25  45  71  98 132 175 220 282 335 384
#     4  11  24  47  67  95 133 179 220 271 335 392
#
# _framework density 22.971731999999999
#
# number of rings (size 3 to 8) (size 9 to 14) (size 15 to 20)
#    0.000    1.250    1.250    3.375    1.750   12.500 
#    2.250    0.000    0.000    0.000    0.000    0.000 
#    0.000    0.000    0.000    0.000    0.000    0.000 
#
# Total GULP energy -89429.331638 kJ/mol
# GULP energy per Si atom -5589.333227 kJ/mol
# Density = 2.291945 g / cm^3
# Si number density = 22.971732 Si / 1000 Ang^3
#
#
#
# Elastic Constant Matrix: (Units=GPa)
#
#
# Indices 1 2 3 4 5 6 
#
# 1 88.0392 44.6967 18.3432 -2.1402 -8.6647 2.2626
# 2 44.6967 65.5104 29.6487 -2.6162 -6.9724 4.8088
# 3 18.3432 29.6487 74.1198 -9.2006 -0.4777 -15.5868
# 4 -2.1402 -2.6162 -9.2006 37.7885 -12.7867 4.1938
# 5 -8.6647 -6.9724 -0.4777 -12.7867 37.6868 0.6689
# 6 2.2626 4.8088 -15.5868 4.1938 0.6689 22.8270
#
#
#
# Elastic Compliance Matrix: (Units=1/GPa)
#
#
# Indices 1 2 3 4 5 6 
#
# 1 0.017579 -0.012253 0.000944 0.000944 0.002085 0.001249
# 2 -0.012253 0.030350 -0.011791 0.001148 0.003278 -0.013537
# 3 0.000944 -0.011791 0.021800 0.002256 -0.001223 0.016897
# 4 0.000944 0.001148 0.002256 0.031490 0.011229 -0.004909
# 5 0.002085 0.003278 -0.001223 0.011229 0.031499 -0.004718
# 6 0.001249 -0.013537 0.016897 -0.004909 -0.004718 0.059114
#
#
# Mechanical properties :
#
#
# Convention : Reuss Voigt Hill
#
# Bulk Modulus (GPa) = 42.50102 45.89406 44.19754
# Shear Modulus (GPa) = 20.33571 28.65918 24.49744
#
# Velocity S-wave (km/s) = 2.97854 3.53595 3.26915
# Velocity P-wave (km/s) = 5.51095 6.05743 5.79064
#
# Compressibility (1/GPa) = 0.02352885
#
# Stress axis : x y z
#
# Youngs Moduli (GPa) = 56.88724 32.94933 45.87159
#
# Poissons Ratio (x) = 0.40373 -0.04332
# Poissons Ratio (y) = 0.69705 0.54087
# Poissons Ratio (z) = -0.05372 0.38850
#
# Static dielectric constant tensor:
#      x y z
#    x 1.824470 -0.005760 0.004910 
#    y -0.005760 1.847260 0.014870 
#    z 0.004910 0.014870 1.904810 
# 
# From -- ./inp_files/217563.got.cif
#   From: 2010.05.17/outbox.cif.g08.bks.cpg/sg2_109_cif.got.tgz:217563.got - 2010.06.03 11:33:40.
