data_PCOD9024021
_publ_section_title
;
Structure prediction by ZEFSAII (Michael W. Deem and Ramdas Pophale) SiO2 
 PCOD9024021
Probable space group: P -1
;
_chemical_formula_sum "Si O2"
_cell_formula_units_Z 16
_cell_length_a 7.325926
_cell_length_b 7.995210
_cell_length_c 16.858848
_cell_angle_alpha 128.421125
_cell_angle_beta 99.815887
_cell_angle_gamma 87.786210
_cell_volume 759.411935
_symmetry_space_group_name_H-M "P -1"
_symmetry_group_IT_number 2
_symmetry_cell_setting 'triclinic'
loop_
_space_group_symop_operation_xyz
x,y,z
-x,-y,-z
loop_
_atom_site_type_symbol
_atom_site_label
_atom_site_fract_x
_atom_site_fract_y
_atom_site_fract_z
Si Si1 0.543167 0.854214 0.577081
Si Si2 0.291292 0.393521 0.946234
Si Si3 0.938102 0.788636 0.821066
Si Si4 0.936547 0.871261 0.536326
Si Si5 0.798163 0.488953 0.319840
Si Si6 0.744285 0.850359 0.290656
Si Si7 0.006302 0.749801 0.000832
Si Si8 0.401059 0.449192 0.359239
O O1 0.730813 0.920204 0.562326
O O2 0.409539 0.690323 0.465385
O O3 0.601219 0.712326 0.614038
O O4 0.434511 0.049456 0.656372
O O5 0.284990 0.231698 0.824425
O O6 0.200056 0.290422 0.988910
O O7 0.500000 0.500000 0.000000
O O8 0.144806 0.567680 0.969391
O O9 0.767632 0.626413 0.732415
O O10 0.109735 0.719304 0.762469
O O11 0.904551 0.037221 0.885307
O O12 0.983786 0.767858 0.910680
O O13 0.916736 0.622446 0.436277
O O14 0.000000 0.000000 0.500000
O O15 0.088625 0.960410 0.637012
O O16 0.790192 0.652110 0.292441
O O17 0.593870 0.437699 0.323964
#
# Coordination Sequence:
#
# PCOD9024021 Si02
#       8
#     2   2   2   2   2   2   2   2
#     4  10  23  41  62 101 129 164 211 253 311 384
#     4  11  26  45  66  95 125 161 217 272 313 368
#     4  11  23  43  67  89 129 169 208 262 315 374
#     4   9  21  39  63  94 130 161 203 255 311 378
#     4  10  22  40  62  98 125 164 209 251 316 384
#     4  11  23  39  67  92 125 168 209 259 319 370
#     4  10  26  45  65  94 122 166 220 263 317 371
#     4  10  24  40  65  94 133 166 205 256 314 379
#
# _framework density 21.068933999999999
#
# number of rings (size 3 to 8) (size 9 to 14) (size 15 to 20)
#    0.000    1.750    1.250    0.750    7.000    7.500 
#    0.000    6.250    0.000    0.000    0.000    0.000 
#    0.000    0.000    0.000    0.000    0.000    0.000 
#
# Total GULP energy -89426.458910 kJ/mol
# GULP energy per Si atom -5589.153682 kJ/mol
# Density = 2.102098 g / cm^3
# Si number density = 21.068934 Si / 1000 Ang^3
#
#
#
# Elastic Constant Matrix: (Units=GPa)
#
#
# Indices 1 2 3 4 5 6 
#
# 1 96.1036 3.1481 48.9639 11.0356 -15.4285 9.0756
# 2 3.1481 17.9077 0.7003 4.9330 -8.9701 0.1500
# 3 48.9639 0.7003 126.6549 9.2973 -25.2371 -19.1420
# 4 11.0356 4.9330 9.2973 12.1402 -11.6589 1.0856
# 5 -15.4285 -8.9701 -25.2371 -11.6589 33.7245 4.1174
# 6 9.0756 0.1500 -19.1420 1.0856 4.1174 12.9823
#
#
#
# Elastic Compliance Matrix: (Units=1/GPa)
#
#
# Indices 1 2 3 4 5 6 
#
# 1 0.020522 -0.000364 -0.012011 -0.003361 0.003142 -0.032767
# 2 -0.000364 0.067798 0.004351 -0.016107 0.015262 0.002392
# 3 -0.012011 0.004351 0.019020 -0.004887 0.003863 0.035574
# 4 -0.003361 -0.016107 -0.004887 0.138828 0.042135 -0.029643
# 5 0.003142 0.015262 0.003863 0.042135 0.054750 -0.017566
# 6 -0.032767 0.002392 0.035574 -0.029643 -0.017566 0.160408
#
#
# Mechanical properties :
#
#
# Convention : Reuss Voigt Hill
#
# Bulk Modulus (GPa) = 10.95403 38.47678 24.71540
# Shear Modulus (GPa) = 9.84632 24.29300 17.06966
#
# Velocity S-wave (km/s) = 2.16415 3.39931 2.84946
# Velocity P-wave (km/s) = 3.38454 5.80595 4.75206
#
# Compressibility (1/GPa) = 0.09129063
#
# Stress axis : x y z
#
# Youngs Moduli (GPa) = 48.72936 14.74981 52.57746
#
# Poissons Ratio (x) = 0.00536 0.63150
# Poissons Ratio (y) = 0.01772 -0.22875
# Poissons Ratio (z) = 0.58528 -0.06417
#
# Static dielectric constant tensor:
#      x y z
#    x 1.735350 0.001010 0.023540 
#    y 0.001010 1.807510 -0.000160 
#    z 0.023540 -0.000160 1.752390 
# 
# From -- ./inp_files/522441.got.cif
#   From: 2010.05.17/outbox.cif.g08.bks.cpg/sg2_262_cif.got.tgz:522441.got - 2010.06.03 11:33:40.
