data_PCOD9024453
_publ_section_title
;
Structure prediction by ZEFSAII (Michael W. Deem and Ramdas Pophale) SiO2 
 PCOD9024453
Probable space group: P -1
;
_chemical_formula_sum "Si O2"
_cell_formula_units_Z 15
_cell_length_a 8.192978
_cell_length_b 11.785186
_cell_length_c 12.293741
_cell_angle_alpha 83.618505
_cell_angle_beta 143.571833
_cell_angle_gamma 109.587406
_cell_volume 636.845147
_symmetry_space_group_name_H-M "P -1"
_symmetry_group_IT_number 2
_symmetry_cell_setting 'triclinic'
loop_
_space_group_symop_operation_xyz
x,y,z
-x,-y,-z
loop_
_atom_site_type_symbol
_atom_site_label
_atom_site_fract_x
_atom_site_fract_y
_atom_site_fract_z
Si Si1 0.731778 0.608977 0.899048
Si Si2 0.565155 0.266077 0.941137
Si Si3 0.500000 0.500000 0.000000
Si Si4 0.902001 0.110856 0.914834
Si Si5 0.630282 0.383658 0.727655
Si Si6 0.063242 0.936554 0.305452
Si Si7 0.254856 0.947703 0.634539
Si Si8 0.060181 0.203344 0.316675
O O1 0.476928 0.552137 0.858261
O O2 0.843353 0.756492 0.926631
O O3 0.031127 0.601898 0.117540
O O4 0.654088 0.519106 0.762884
O O5 0.544555 0.300204 0.800699
O O6 0.288332 0.141397 0.846982
O O7 0.536797 0.378812 0.979316
O O8 0.873128 0.252739 0.132556
O O9 0.862460 0.111669 0.762890
O O10 0.581748 0.061213 0.809162
O O11 0.000000 0.000000 0.000000
O O12 0.379924 0.310997 0.513051
O O13 0.235122 0.906912 0.502234
O O14 0.112719 0.082333 0.315742
O O15 0.155997 0.844488 0.686196
O O16 0.000000 0.000000 0.500000
#
# Coordination Sequence:
#
# PCOD9024453 Si02
#       8
#     2   2   1   2   2   2   2   2
#     4  10  22  43  68  91 134 180 222 276 347 395
#     4  11  22  41  68  96 135 178 228 274 342 403
#     4  10  22  44  64  94 130 182 226 274 332 400
#     4  12  25  40  68 104 140 173 229 288 342 409
#     4  10  23  44  69  95 129 180 225 282 332 411
#     4  11  22  40  63 101 137 179 218 280 347 399
#     4  10  22  40  64  97 138 180 222 277 342 411
#     4  11  23  41  69 105 133 176 228 280 342 410
#
# _framework density 23.553605999999998
#
# number of rings (size 3 to 8) (size 9 to 14) (size 15 to 20)
#    0.000    1.333    2.667    3.200    3.733    0.000 
#    0.000   10.000    2.933    0.000    0.000    0.000 
#    0.000    0.000    0.000    0.000    0.000    0.000 
#
# Total GULP energy -83664.854600 kJ/mol
# GULP energy per Si atom -5577.656973 kJ/mol
# Density = 2.350000 g / cm^3
# Si number density = 23.553606 Si / 1000 Ang^3
#
#
#
# Elastic Constant Matrix: (Units=GPa)
#
#
# Indices 1 2 3 4 5 6 
#
# 1 34.5736 11.1040 4.9003 1.4243 -13.7280 3.9703
# 2 11.1040 141.5233 34.6519 25.8687 -6.3119 -19.2941
# 3 4.9003 34.6519 83.9549 20.3434 -3.5372 -8.9950
# 4 1.4243 25.8687 20.3434 33.5369 0.6885 -4.6877
# 5 -13.7280 -6.3119 -3.5372 0.6885 20.2533 4.8219
# 6 3.9703 -19.2941 -8.9950 -4.6877 4.8219 36.5130
#
#
#
# Elastic Compliance Matrix: (Units=1/GPa)
#
#
# Indices 1 2 3 4 5 6 
#
# 1 0.043691 -0.003111 -0.000853 -0.001095 0.031118 -0.010855
# 2 -0.003111 0.009300 -0.001951 -0.005272 -0.000358 0.004143
# 3 -0.000853 -0.001951 0.014735 -0.007199 0.001251 0.001602
# 4 -0.001095 -0.005272 -0.007199 0.038573 -0.005240 0.001204
# 5 0.031118 -0.000358 0.001251 -0.005240 0.074017 -0.013712
# 6 -0.010855 0.004143 0.001602 0.001204 -0.013712 0.033117
#
#
# Mechanical properties :
#
#
# Convention : Reuss Voigt Hill
#
# Bulk Modulus (GPa) = 17.89008 40.15158 29.02083
# Shear Modulus (GPa) = 20.50057 32.02033 26.26045
#
# Velocity S-wave (km/s) = 2.95342 3.69109 3.34267
# Velocity P-wave (km/s) = 4.38659 5.93713 5.21975
#
# Compressibility (1/GPa) = 0.05589690
#
# Stress axis : x y z
#
# Youngs Moduli (GPa) = 22.88776 107.52535 67.86617
#
# Poissons Ratio (x) = 0.33453 0.05787
# Poissons Ratio (y) = 0.07121 0.13239
# Poissons Ratio (z) = 0.01952 0.20976
#
# Static dielectric constant tensor:
#      x y z
#    x 2.064670 0.033790 -0.001590 
#    y 0.033790 1.901550 0.024990 
#    z -0.001590 0.024990 1.918090 
# 
# From -- ./inp_files/397016.got.cif
#   From: 2010.05.17/outbox.cif.g08.bks.cpg/sg2_199_cif.got.tgz:397016.got - 2010.06.03 11:33:40.
