data_PCOD9024469
_publ_section_title
;
Structure prediction by ZEFSAII (Michael W. Deem and Ramdas Pophale) SiO2 
 PCOD9024469
Probable space group: P -1
;
_chemical_formula_sum "Si O2"
_cell_formula_units_Z 15
_cell_length_a 9.477655
_cell_length_b 13.818975
_cell_length_c 10.495865
_cell_angle_alpha 146.469137
_cell_angle_beta 126.084854
_cell_angle_gamma 66.985883
_cell_volume 598.060692
_symmetry_space_group_name_H-M "P -1"
_symmetry_group_IT_number 2
_symmetry_cell_setting 'triclinic'
loop_
_space_group_symop_operation_xyz
x,y,z
-x,-y,-z
loop_
_atom_site_type_symbol
_atom_site_label
_atom_site_fract_x
_atom_site_fract_y
_atom_site_fract_z
Si Si1 0.857169 0.085393 0.948563
Si Si2 0.472081 0.892289 0.498650
Si Si3 0.917419 0.738457 0.952005
Si Si4 0.000000 0.500000 0.000000
Si Si5 0.419321 0.552561 0.222910
Si Si6 0.465128 0.197378 0.191701
Si Si7 0.288943 0.600164 0.679568
Si Si8 0.115374 0.850751 0.408402
O O1 0.666587 0.957861 0.733610
O O2 0.833278 0.274005 0.194857
O O3 0.924748 0.119321 0.876581
O O4 0.000000 0.000000 0.000000
O O5 0.434696 0.677464 0.243344
O O6 0.310431 0.927721 0.539249
O O7 0.500000 0.000000 0.500000
O O8 0.744104 0.818678 0.972686
O O9 0.840532 0.576591 0.639871
O O10 0.009096 0.684584 0.071090
O O11 0.210866 0.471529 0.045347
O O12 0.097992 0.707758 0.353616
O O13 0.489054 0.687860 0.528635
O O14 0.565097 0.431471 0.173766
O O15 0.586120 0.307987 0.268249
O O16 0.500000 0.000000 0.000000
O O17 0.000000 0.000000 0.500000
#
# Coordination Sequence:
#
# PCOD9024469 Si02
#       8
#     2   2   2   1   2   2   2   2
#     4  12  25  45  70 101 138 188 238 291 352 432
#     4  11  24  47  68  98 146 185 237 293 351 431
#     4  11  23  42  64  97 137 176 236 280 351 422
#     4  10  22  40  64  98 142 170 234 282 350 426
#     4  10  22  41  67 102 139 184 232 293 361 416
#     4  11  22  38  66 101 131 176 235 297 353 411
#     4  11  23  43  71 100 141 184 236 304 357 419
#     4  11  25  44  71 101 138 186 230 293 358 421
#
# _framework density 25.081064000000001
#
# number of rings (size 3 to 8) (size 9 to 14) (size 15 to 20)
#    0.000    1.067    1.333    6.800    7.467    0.000 
#    2.400    2.000    0.000    0.000    0.000    0.000 
#    0.000    0.000    0.000    0.000    0.000    0.000 
#
# Total GULP energy -83736.619567 kJ/mol
# GULP energy per Si atom -5582.441304 kJ/mol
# Density = 2.502398 g / cm^3
# Si number density = 25.081064 Si / 1000 Ang^3
#
#
#
# Elastic Constant Matrix: (Units=GPa)
#
#
# Indices 1 2 3 4 5 6 
#
# 1 143.6602 64.1100 61.6239 5.1780 32.2601 -15.1140
# 2 64.1100 137.3360 26.2537 5.7647 1.0700 -28.0705
# 3 61.6239 26.2537 57.7515 -4.1519 34.7283 -15.9952
# 4 5.1780 5.7647 -4.1519 46.6746 -0.7919 6.9384
# 5 32.2601 1.0700 34.7283 -0.7919 46.7808 6.7025
# 6 -15.1140 -28.0705 -15.9952 6.9384 6.7025 68.0060
#
#
#
# Elastic Compliance Matrix: (Units=1/GPa)
#
#
# Indices 1 2 3 4 5 6 
#
# 1 0.015331 -0.004422 -0.016231 -0.002242 0.001854 -0.002190
# 2 -0.004422 0.010163 -0.001235 -0.001222 0.003324 0.002719
# 3 -0.016231 -0.001235 0.060539 0.004783 -0.035521 0.013135
# 4 -0.002242 -0.001222 0.004783 0.022532 -0.001302 -0.002048
# 5 0.001854 0.003324 -0.035521 -0.001302 0.047969 -0.011166
# 6 -0.002190 0.002719 0.013135 -0.002048 -0.011166 0.019739
#
#
# Mechanical properties :
#
#
# Convention : Reuss Voigt Hill
#
# Bulk Modulus (GPa) = 23.66538 71.41366 47.53952
# Shear Modulus (GPa) = 21.35535 44.74296 33.04915
#
# Velocity S-wave (km/s) = 2.92113 4.22825 3.63394
# Velocity P-wave (km/s) = 4.56436 7.23688 6.05003
#
# Compressibility (1/GPa) = 0.04225583
#
# Stress axis : x y z
#
# Youngs Moduli (GPa) = 65.22943 98.39898 16.51836
#
# Poissons Ratio (x) = 0.43508 0.26811
# Poissons Ratio (y) = 0.28842 0.02041
# Poissons Ratio (z) = 1.05875 0.12156
#
# Static dielectric constant tensor:
#      x y z
#    x 2.255680 0.671550 0.272760 
#    y 0.671550 3.529670 0.719690 
#    z 0.272760 0.719690 2.555030 
# 
# From -- ./inp_files/400199.got.cif
#   From: 2010.05.17/outbox.cif.g08.bks.cpg/sg2_201_cif.got.tgz:400199.got - 2010.06.03 11:33:40.
