data_PCOD9024185
_publ_section_title
;
Structure prediction by ZEFSAII (Michael W. Deem and Ramdas Pophale) SiO2 
 PCOD9024185
Probable space group: P -1
;
_chemical_formula_sum "Si O2"
_cell_formula_units_Z 16
_cell_length_a 22.915627
_cell_length_b 23.072094
_cell_length_c 5.311970
_cell_angle_alpha 102.436559
_cell_angle_beta 102.328787
_cell_angle_gamma 11.844187
_cell_volume 562.867882
_symmetry_space_group_name_H-M "P -1"
_symmetry_group_IT_number 2
_symmetry_cell_setting 'triclinic'
loop_
_space_group_symop_operation_xyz
x,y,z
-x,-y,-z
loop_
_atom_site_type_symbol
_atom_site_label
_atom_site_fract_x
_atom_site_fract_y
_atom_site_fract_z
Si Si1 0.267191 0.187574 0.229188
Si Si2 0.686843 0.525894 0.657982
Si Si3 0.178191 0.541122 0.781589
Si Si4 0.886340 0.962061 0.184522
Si Si5 0.388680 0.964624 0.451111
Si Si6 0.761429 0.663593 0.876651
Si Si7 0.733293 0.250700 0.667836
Si Si8 0.587740 0.506704 0.038027
O O1 0.266806 0.147383 0.435514
O O2 0.200132 0.322306 0.287400
O O3 0.056809 0.361729 0.995219
O O4 0.582627 0.872021 0.117764
O O5 0.849687 0.404902 0.915036
O O6 0.667623 0.570308 0.401026
O O7 0.875958 0.280938 0.605399
O O8 0.370045 0.831752 0.769124
O O9 0.878628 0.817966 0.632505
O O10 0.369909 0.296057 0.753769
O O11 0.130965 0.726059 0.967723
O O12 0.663573 0.230226 0.143497
O O13 0.570920 0.796418 0.713416
O O14 0.500000 0.500000 0.500000
O O15 0.611115 0.308585 0.726464
O O16 0.734024 0.300164 0.933081
O O17 0.000000 0.000000 0.500000
#
# Coordination Sequence:
#
# PCOD9024185 Si02
#       8
#     2   2   2   2   2   2   2   2
#     4  10  22  40  63  96 137 178 225 283 345 427
#     4  11  26  51  68 105 135 186 231 320 369 426
#     4  12  28  46  75 100 142 177 240 298 384 434
#     4  10  22  47  72  94 136 186 243 298 366 434
#     4  12  25  40  70 100 132 184 228 295 354 456
#     4  10  22  40  63  96 137 178 225 283 345 427
#     4  11  22  39  64 104 152 190 233 294 354 415
#     4  10  22  43  66 104 142 192 243 290 352 440
#
# _framework density 28.425854999999999
#
# number of rings (size 3 to 8) (size 9 to 14) (size 15 to 20)
#    0.000    1.250    0.000    4.875    5.250    2.000 
#   22.500    5.000    0.000    0.000    0.000    0.000 
#    0.000    0.000    0.000    0.000    0.000    0.000 
#
# Total GULP energy -89254.767462 kJ/mol
# GULP energy per Si atom -5578.422966 kJ/mol
# Density = 2.836116 g / cm^3
# Si number density = 28.425855 Si / 1000 Ang^3
#
#
#
# Elastic Constant Matrix: (Units=GPa)
#
#
# Indices 1 2 3 4 5 6 
#
# 1 53.7773 37.6404 31.8993 4.8445 -11.7188 -4.5120
# 2 37.6404 220.2706 30.6130 7.5346 -5.0438 -13.7812
# 3 31.8993 30.6130 123.1280 -2.0824 -16.4009 -2.0693
# 4 4.8445 7.5346 -2.0824 44.2912 4.6584 -2.1112
# 5 -11.7188 -5.0438 -16.4009 4.6584 46.5043 -4.1432
# 6 -4.5120 -13.7812 -2.0693 -2.1112 -4.1432 63.8246
#
#
#
# Elastic Compliance Matrix: (Units=1/GPa)
#
#
# Indices 1 2 3 4 5 6 
#
# 1 0.025344 -0.003342 -0.005153 -0.002876 0.004593 0.001106
# 2 -0.003342 0.005238 -0.000473 -0.000474 -0.000318 0.000843
# 3 -0.005153 -0.000473 0.009861 0.000894 0.002040 0.000015
# 4 -0.002876 -0.000474 0.000894 0.023321 -0.002769 0.000315
# 5 0.004593 -0.000318 0.002040 -0.002769 0.023781 0.001774
# 6 0.001106 0.000843 0.000015 0.000315 0.001774 0.016054
#
#
# Mechanical properties :
#
#
# Convention : Reuss Voigt Hill
#
# Bulk Modulus (GPa) = 44.42942 66.38681 55.40812
# Shear Modulus (GPa) = 38.74796 50.72557 44.73677
#
# Velocity S-wave (km/s) = 3.69606 4.22890 3.97143
# Velocity P-wave (km/s) = 5.82051 6.87386 6.36900
#
# Compressibility (1/GPa) = 0.02250761
#
# Stress axis : x y z
#
# Youngs Moduli (GPa) = 39.45719 190.90019 101.40591
#
# Poissons Ratio (x) = 0.63796 0.52258
# Poissons Ratio (y) = 0.13186 0.04795
# Poissons Ratio (z) = 0.20334 0.09026
#
# Static dielectric constant tensor:
#      x y z
#    x 2.513270 0.037450 0.042560 
#    y 0.037450 2.092890 0.026590 
#    z 0.042560 0.026590 2.211010 
# 
# From -- ./inp_files/127761.got.cif
#   From: 2010.05.17/outbox.cif.g08.bks.cpg/sg2_64_cif.got.tgz:127761.got - 2010.06.03 11:33:40.
