data_PCOD9024099
_publ_section_title
;
Structure prediction by ZEFSAII (Michael W. Deem and Ramdas Pophale) SiO2 
 PCOD9024099
Probable space group: P -1
;
_chemical_formula_sum "Si O2"
_cell_formula_units_Z 16
_cell_length_a 12.369870
_cell_length_b 21.016954
_cell_length_c 21.431531
_cell_angle_alpha 160.934239
_cell_angle_beta 27.365842
_cell_angle_gamma 141.823910
_cell_volume 782.213722
_symmetry_space_group_name_H-M "P -1"
_symmetry_group_IT_number 2
_symmetry_cell_setting 'triclinic'
loop_
_space_group_symop_operation_xyz
x,y,z
-x,-y,-z
loop_
_atom_site_type_symbol
_atom_site_label
_atom_site_fract_x
_atom_site_fract_y
_atom_site_fract_z
Si Si1 0.066315 0.505756 0.183602
Si Si2 0.241910 0.590691 0.639756
Si Si3 0.603045 0.826103 0.643547
Si Si4 0.415912 0.887001 0.662089
Si Si5 0.621635 0.127003 0.010406
Si Si6 0.009769 0.676288 0.704953
Si Si7 0.528118 0.865268 0.442131
Si Si8 0.185074 0.879555 0.527381
O O1 0.176617 0.657313 0.305690
O O2 0.934381 0.402396 0.205147
O O3 0.849320 0.656550 0.390066
O O4 0.273515 0.335740 0.879236
O O5 0.364467 0.768235 0.735754
O O6 0.089151 0.595337 0.659119
O O7 0.526891 0.629896 0.680074
O O8 0.599552 0.822094 0.567058
O O9 0.588218 0.046727 0.884104
O O10 0.220661 0.766325 0.656941
O O11 0.532098 0.846367 0.496450
O O12 0.251508 0.130829 0.979498
O O13 0.914514 0.046073 0.801978
O O14 0.500000 0.000000 0.000000
O O15 0.000000 0.500000 0.500000
O O16 0.261451 0.889395 0.569359
O O17 0.607110 0.059651 0.561227
#
# Coordination Sequence:
#
# PCOD9024099 Si02
#       8
#     2   2   2   2   2   2   2   2
#     4  11  23  39  62  96 124 163 212 255 310 372
#     4  11  22  36  65  98 123 160 204 266 321 362
#     4  10  22  40  63  92 127 160 210 262 316 369
#     4  10  24  43  60  91 125 171 208 253 316 372
#     4  11  21  38  65  95 125 159 208 269 314 358
#     4  10  23  40  64  90 126 165 211 258 313 376
#     4  11  25  41  63  87 134 171 207 252 305 387
#     4  10  24  40  60  94 125 169 210 254 315 366
#
# _framework density 20.454768000000001
#
# number of rings (size 3 to 8) (size 9 to 14) (size 15 to 20)
#    0.000    1.500    2.500    2.250    7.000    3.500 
#    0.000    2.500    0.000    0.000    0.000    0.000 
#    0.000    0.000    0.000    0.000    0.000    0.000 
#
# Total GULP energy -89517.458167 kJ/mol
# GULP energy per Si atom -5594.841135 kJ/mol
# Density = 2.040821 g / cm^3
# Si number density = 20.454768 Si / 1000 Ang^3
#
#
#
# Elastic Constant Matrix: (Units=GPa)
#
#
# Indices 1 2 3 4 5 6 
#
# 1 164.0306 58.0506 40.9904 -7.4541 15.4515 -0.4606
# 2 58.0506 62.2618 30.1760 0.0218 15.8326 -1.8159
# 3 40.9904 30.1760 88.6681 2.4375 18.6333 4.1649
# 4 -7.4541 0.0218 2.4375 20.1020 5.8793 7.0851
# 5 15.4515 15.8326 18.6333 5.8793 32.4169 0.6790
# 6 -0.4606 -1.8159 4.1649 7.0851 0.6790 39.8489
#
#
#
# Elastic Compliance Matrix: (Units=1/GPa)
#
#
# Indices 1 2 3 4 5 6 
#
# 1 0.009592 -0.008046 -0.001685 0.004178 -0.000414 -0.000815
# 2 -0.008046 0.027434 -0.004209 -0.001138 -0.006978 0.001918
# 3 -0.001685 -0.004209 0.014735 -0.000217 -0.005537 -0.001618
# 4 0.004178 -0.001138 -0.000217 0.058315 -0.011675 -0.010150
# 5 -0.000414 -0.006978 -0.005537 -0.011675 0.039719 0.001655
# 6 -0.000815 0.001918 -0.001618 -0.010150 0.001655 0.027118
#
#
# Mechanical properties :
#
#
# Convention : Reuss Voigt Hill
#
# Bulk Modulus (GPa) = 41.87692 63.71049 52.79370
# Shear Modulus (GPa) = 23.50121 30.85647 27.17884
#
# Velocity S-wave (km/s) = 3.39327 3.88818 3.64913
# Velocity P-wave (km/s) = 5.98914 7.16742 6.60461
#
# Compressibility (1/GPa) = 0.02387950
#
# Stress axis : x y z
#
# Youngs Moduli (GPa) = 104.25698 36.45128 67.86400
#
# Poissons Ratio (x) = 0.29329 0.11438
# Poissons Ratio (y) = 0.83885 0.28566
# Poissons Ratio (z) = 0.17572 0.15343
#
# Static dielectric constant tensor:
#      x y z
#    x 1.745900 0.016330 -0.009010 
#    y 0.016330 1.714310 0.005630 
#    z -0.009010 0.005630 1.735460 
# 
# From -- ./inp_files/457531.got.cif
#   From: 2010.05.17/outbox.cif.g08.bks.cpg/sg2_229_cif.got.tgz:457531.got - 2010.06.03 11:33:40.
