data_PCOD9024244
_publ_section_title
;
Structure prediction by ZEFSAII (Michael W. Deem and Ramdas Pophale) SiO2 
 PCOD9024244
Probable space group: P -1
;
_chemical_formula_sum "Si O2"
_cell_formula_units_Z 14
_cell_length_a 8.327908
_cell_length_b 13.055429
_cell_length_c 10.430531
_cell_angle_alpha 98.521013
_cell_angle_beta 74.312161
_cell_angle_gamma 150.785090
_cell_volume 523.506652
_symmetry_space_group_name_H-M "P -1"
_symmetry_group_IT_number 2
_symmetry_cell_setting 'triclinic'
loop_
_space_group_symop_operation_xyz
x,y,z
-x,-y,-z
loop_
_atom_site_type_symbol
_atom_site_label
_atom_site_fract_x
_atom_site_fract_y
_atom_site_fract_z
Si Si1 0.854835 0.304145 0.989441
Si Si2 0.724036 0.434708 0.415366
Si Si3 0.306421 0.407287 0.719183
Si Si4 0.505048 0.157005 0.611380
Si Si5 0.726878 0.546548 0.868582
Si Si6 0.202973 0.009769 0.401361
Si Si7 0.326758 0.116924 0.902962
O O1 0.482792 0.122662 0.973867
O O2 0.092948 0.369296 0.850550
O O3 0.000000 0.500000 0.000000
O O4 0.909645 0.272600 0.105332
O O5 0.563896 0.451183 0.398508
O O6 0.613207 0.327126 0.555887
O O7 0.565742 0.258621 0.325044
O O8 0.127581 0.676653 0.381086
O O9 0.630465 0.536688 0.748382
O O10 0.028275 0.173156 0.685128
O O11 0.323844 0.008580 0.499009
O O12 0.260901 0.030755 0.762755
O O13 0.585642 0.352491 0.864287
O O14 0.500000 0.500000 0.000000
O O15 0.000000 0.000000 0.500000
O O16 0.000000 0.000000 0.000000
#
# Coordination Sequence:
#
# PCOD9024244 Si02
#       7
#     2   2   2   2   2   2   2
#     4   9  20  42  70  96 135 195 246 293 362 433
#     4   9  21  42  70  99 146 194 226 301 368 428
#     4  11  20  42  76 103 145 191 245 294 372 439
#     4   9  20  44  63 104 145 183 241 291 364 446
#     4   9  21  42  61  96 133 179 248 287 347 446
#     4  10  22  40  64 109 147 180 242 296 359 443
#     4  11  21  42  71 100 142 188 236 306 362 421
#
# _framework density 26.742737999999999
#
# number of rings (size 3 to 8) (size 9 to 14) (size 15 to 20)
#    0.857    1.429    1.429    0.857    0.000    1.143 
#   15.429    4.286    0.000    0.000    0.000    1.000 
#    0.000    0.000    0.000    0.000    0.000    0.000 
#
# Total GULP energy -78169.611694 kJ/mol
# GULP energy per Si atom -5583.543692 kJ/mol
# Density = 2.668187 g / cm^3
# Si number density = 26.742738 Si / 1000 Ang^3
#
#
#
# Elastic Constant Matrix: (Units=GPa)
#
#
# Indices 1 2 3 4 5 6 
#
# 1 178.1744 46.3177 67.4569 22.4081 45.0113 23.2952
# 2 46.3177 122.5268 45.5857 36.9362 3.5603 -1.7686
# 3 67.4569 45.5857 94.2240 20.4810 15.4000 2.9533
# 4 22.4081 36.9362 20.4810 40.4104 1.8848 -9.7111
# 5 45.0113 3.5603 15.4000 1.8848 70.7627 16.3678
# 6 23.2952 -1.7686 2.9533 -9.7111 16.3678 43.8381
#
#
#
# Elastic Compliance Matrix: (Units=1/GPa)
#
#
# Indices 1 2 3 4 5 6 
#
# 1 0.009637 -0.000860 -0.005116 -0.002722 -0.003993 -0.003923
# 2 -0.000860 0.012685 -0.003576 -0.009705 0.001273 -0.001416
# 3 -0.005116 -0.003576 0.016449 -0.001932 -0.000366 0.001175
# 4 -0.002722 -0.009705 -0.001932 0.038536 -0.000695 0.009981
# 5 -0.003993 0.001273 -0.000366 -0.000695 0.017768 -0.004590
# 6 -0.003923 -0.001416 0.001175 0.009981 -0.004590 0.028684
#
#
# Mechanical properties :
#
#
# Convention : Reuss Voigt Hill
#
# Bulk Modulus (GPa) = 50.84541 79.29397 65.06969
# Shear Modulus (GPa) = 33.46334 46.70655 40.08494
#
# Velocity S-wave (km/s) = 3.54122 4.18366 3.87578
# Velocity P-wave (km/s) = 5.98117 7.28371 6.66434
#
# Compressibility (1/GPa) = 0.01966746
#
# Stress axis : x y z
#
# Youngs Moduli (GPa) = 103.76740 78.83344 60.79554
#
# Poissons Ratio (x) = 0.06777 0.31104
# Poissons Ratio (y) = 0.08921 0.21738
# Poissons Ratio (z) = 0.53089 0.28188
#
# Static dielectric constant tensor:
#      x y z
#    x 2.165150 -0.022970 -0.235050 
#    y -0.022970 2.275660 0.210590 
#    z -0.235050 0.210590 2.776390 
# 
# From -- ./inp_files/394266.got.cif
#   From: 2010.05.17/outbox.cif.g08.bks.cpg/sg2_198_cif.got.tgz:394266.got - 2010.06.03 11:33:40.
