data_PCOD9024782
_publ_section_title
;
Structure prediction by ZEFSAII (Michael W. Deem and Ramdas Pophale) SiO2 
 PCOD9024782
Probable space group: P -1
;
_chemical_formula_sum "Si O2"
_cell_formula_units_Z 14
_cell_length_a 22.230204
_cell_length_b 22.975216
_cell_length_c 13.482753
_cell_angle_alpha 30.729724
_cell_angle_beta 159.682748
_cell_angle_gamma 161.757843
_cell_volume 717.247776
_symmetry_space_group_name_H-M "P -1"
_symmetry_group_IT_number 2
_symmetry_cell_setting 'triclinic'
loop_
_space_group_symop_operation_xyz
x,y,z
-x,-y,-z
loop_
_atom_site_type_symbol
_atom_site_label
_atom_site_fract_x
_atom_site_fract_y
_atom_site_fract_z
Si Si1 0.697926 0.118718 0.230034
Si Si2 0.692914 0.993837 0.778648
Si Si3 0.308289 0.218719 0.775744
Si Si4 0.613653 0.825383 0.261634
Si Si5 0.620751 0.623062 0.710584
Si Si6 0.380203 0.526691 0.695774
Si Si7 0.303531 0.091311 0.315627
O O1 0.044304 0.321027 0.449502
O O2 0.669846 0.992002 0.439275
O O3 0.581907 0.167481 0.037220
O O4 0.500000 0.000000 0.000000
O O5 0.500000 0.000000 0.500000
O O6 0.691044 0.961774 0.706609
O O7 0.030363 0.200505 0.027292
O O8 0.596755 0.829709 0.930412
O O9 0.384298 0.219099 0.781850
O O10 0.457224 0.418699 0.733410
O O11 0.953186 0.038381 0.499870
O O12 0.515280 0.672334 0.407791
O O13 0.567016 0.620986 0.745698
O O14 0.432138 0.677994 0.601477
O O15 0.500000 0.500000 0.000000
O O16 0.000000 0.000000 0.000000
#
# Coordination Sequence:
#
# PCOD9024782 Si02
#       7
#     2   2   2   2   2   2   2
#     4  12  26  41  67 100 135 167 227 280 321 391
#     4  11  24  41  65  96 127 170 223 274 322 392
#     4  10  22  40  66  87 130 174 214 269 336 391
#     4  10  23  41  59  95 130 167 215 276 331 385
#     4  11  22  39  65  90 129 171 222 266 335 392
#     4  12  24  41  67  96 129 180 219 267 334 395
#     4  12  24  44  68  94 135 175 218 271 332 395
#
# _framework density 19.519055999999999
#
# number of rings (size 3 to 8) (size 9 to 14) (size 15 to 20)
#    0.000    0.857    2.857    3.857    2.000    5.143 
#    0.000    0.000    0.000    0.000    0.000    0.000 
#    0.000    0.000    0.000    0.000    0.000    0.000 
#
# Total GULP energy -78313.377752 kJ/mol
# GULP energy per Si atom -5593.812697 kJ/mol
# Density = 1.947463 g / cm^3
# Si number density = 19.519056 Si / 1000 Ang^3
#
#
#
# Elastic Constant Matrix: (Units=GPa)
#
#
# Indices 1 2 3 4 5 6 
#
# 1 88.8944 31.4688 52.7365 -16.7619 -4.6164 0.2541
# 2 31.4688 144.1710 51.9642 -20.3104 -11.2092 -11.5111
# 3 52.7365 51.9642 133.6894 -27.6974 -5.9200 4.9732
# 4 -16.7619 -20.3104 -27.6974 40.6484 2.6149 -6.8786
# 5 -4.6164 -11.2092 -5.9200 2.6149 38.4887 -4.9330
# 6 0.2541 -11.5111 4.9732 -6.8786 -4.9330 33.2200
#
#
#
# Elastic Compliance Matrix: (Units=1/GPa)
#
#
# Indices 1 2 3 4 5 6 
#
# 1 0.015097 -0.001008 -0.005075 0.002370 0.000690 0.000888
# 2 -0.001008 0.009052 -0.002565 0.002963 0.002498 0.004513
# 3 -0.005075 -0.002565 0.011388 0.004101 -0.000103 -0.001721
# 4 0.002370 0.002963 0.004101 0.030984 0.000556 0.006893
# 5 0.000690 0.002498 -0.000103 0.000556 0.027387 0.005058
# 6 0.000888 0.004513 -0.001721 0.006893 0.005058 0.034095
#
#
# Mechanical properties :
#
#
# Convention : Reuss Voigt Hill
#
# Bulk Modulus (GPa) = 54.81660 71.01043 62.91351
# Shear Modulus (GPa) = 33.02977 37.84377 35.43677
#
# Velocity S-wave (km/s) = 4.11808 4.40797 4.26549
# Velocity P-wave (km/s) = 7.12432 7.89721 7.52070
#
# Compressibility (1/GPa) = 0.01824265
#
# Stress axis : x y z
#
# Youngs Moduli (GPa) = 66.23850 110.46674 87.81253
#
# Poissons Ratio (x) = 0.11131 0.44567
# Poissons Ratio (y) = 0.06674 0.22520
# Poissons Ratio (z) = 0.33617 0.28329
#
# Static dielectric constant tensor:
#      x y z
#    x 1.668020 0.001340 -0.006800 
#    y 0.001340 1.681870 0.022600 
#    z -0.006800 0.022600 1.669740 
# 
# From -- ./inp_files/107256.got.cif
#   From: 2010.05.17/outbox.cif.g08.bks.cpg/sg2_54_cif.got.tgz:107256.got - 2010.06.03 11:33:40.
