data_PCOD9024796
_publ_section_title
;
Structure prediction by ZEFSAII (Michael W. Deem and Ramdas Pophale) SiO2 
 PCOD9024796
Probable space group: P -1
;
_chemical_formula_sum "Si O2"
_cell_formula_units_Z 16
_cell_length_a 8.736304
_cell_length_b 25.723844
_cell_length_c 25.158730
_cell_angle_alpha 169.086939
_cell_angle_beta 38.827372
_cell_angle_gamma 143.702464
_cell_volume 629.802583
_symmetry_space_group_name_H-M "P -1"
_symmetry_group_IT_number 2
_symmetry_cell_setting 'triclinic'
loop_
_space_group_symop_operation_xyz
x,y,z
-x,-y,-z
loop_
_atom_site_type_symbol
_atom_site_label
_atom_site_fract_x
_atom_site_fract_y
_atom_site_fract_z
Si Si1 0.739661 0.892033 0.798248
Si Si2 0.299760 0.790090 0.041783
Si Si3 0.722175 0.893442 0.442762
Si Si4 0.794258 0.588412 0.577136
Si Si5 0.660582 0.464542 0.610052
Si Si6 0.062200 0.540962 0.743079
Si Si7 0.240408 0.212303 0.784973
Si Si8 0.390337 0.244343 0.892044
O O1 0.802207 0.858176 0.808521
O O2 0.460595 0.671995 0.634462
O O3 0.935810 0.768811 0.588257
O O4 0.758820 0.209412 0.093263
O O5 0.041599 0.751414 0.106977
O O6 0.459733 0.129588 0.325819
O O7 0.506506 0.649199 0.866272
O O8 0.182852 0.612683 0.841105
O O9 0.738791 0.986265 0.469193
O O10 0.521998 0.020948 0.653592
O O11 0.626294 0.544138 0.117555
O O12 0.000000 0.000000 0.500000
O O13 0.744655 0.610321 0.675208
O O14 0.068032 0.542304 0.447760
O O15 0.801498 0.618428 0.889556
O O16 0.245417 0.102831 0.734016
O O17 0.500000 0.500000 0.000000
#
# Coordination Sequence:
#
# PCOD9024796 Si02
#       8
#     2   2   2   2   2   2   2   2
#     4  11  23  40  64  92 123 168 216 258 311 373
#     4  11  22  41  65  96 126 165 213 267 311 375
#     4  11  22  41  63  96 128 168 203 263 330 384
#     4  10  24  42  65  90 128 171 212 260 316 383
#     4  11  24  42  63  92 130 168 209 260 325 372
#     4  11  21  40  63  93 125 162 217 264 308 365
#     4   9  22  42  70  95 125 171 222 259 312 389
#     4  10  22  40  66  90 126 171 214 259 311 386
#
# _framework density 25.404786000000001
#
# number of rings (size 3 to 8) (size 9 to 14) (size 15 to 20)
#    0.000    1.500    2.500    1.500    0.000   14.000 
#    6.750    0.000    0.000    0.000    0.000    0.000 
#    0.000    0.000    0.000    0.000    0.000    0.000 
#
# Total GULP energy -89523.561468 kJ/mol
# GULP energy per Si atom -5595.222592 kJ/mol
# Density = 2.534696 g / cm^3
# Si number density = 25.404786 Si / 1000 Ang^3
#
#
#
# Elastic Constant Matrix: (Units=GPa)
#
#
# Indices 1 2 3 4 5 6 
#
# 1 68.4543 23.9182 13.7338 -10.4642 -6.6300 30.0732
# 2 23.9182 113.0102 32.1047 -33.6819 -5.8431 37.9110
# 3 13.7338 32.1047 110.8114 -18.4131 -8.5007 17.5232
# 4 -10.4642 -33.6819 -18.4131 54.9326 12.9968 -15.3824
# 5 -6.6300 -5.8431 -8.5007 12.9968 29.7848 -10.8699
# 6 30.0732 37.9110 17.5232 -15.3824 -10.8699 40.7266
#
#
#
# Elastic Compliance Matrix: (Units=1/GPa)
#
#
# Indices 1 2 3 4 5 6 
#
# 1 0.021791 0.001390 -0.000399 0.000330 -0.001519 -0.017494
# 2 0.001390 0.015163 -0.001778 0.006403 -0.004854 -0.013253
# 3 -0.000399 -0.001778 0.010178 0.001525 0.001247 -0.001521
# 4 0.000330 0.006403 0.001525 0.024879 -0.009047 0.000122
# 5 -0.001519 -0.004854 0.001247 -0.009047 0.041218 0.012688
# 6 -0.017494 -0.013253 -0.001521 0.000122 0.012688 0.053896
#
#
# Mechanical properties :
#
#
# Convention : Reuss Voigt Hill
#
# Bulk Modulus (GPa) = 21.94944 47.97659 34.96302
# Shear Modulus (GPa) = 27.19085 39.92341 33.55713
#
# Velocity S-wave (km/s) = 3.27510 3.96851 3.63836
# Velocity P-wave (km/s) = 4.79170 6.31859 5.60736
#
# Compressibility (1/GPa) = 0.04555924
#
# Stress axis : x y z
#
# Youngs Moduli (GPa) = 45.88950 65.94911 98.24686
#
# Poissons Ratio (x) = -0.09165 0.03917
# Poissons Ratio (y) = -0.06377 0.17468
# Poissons Ratio (z) = 0.01829 0.11725
#
# Static dielectric constant tensor:
#      x y z
#    x 1.993580 -0.034270 -0.022020 
#    y -0.034270 2.127820 -0.025510 
#    z -0.022020 -0.025510 1.963470 
# 
# From -- ./inp_files/617706.got.cif
#   From: 2010.05.17/outbox.cif.g08.bks.cpg/sg2_309_cif.got.tgz:617706.got - 2010.06.03 11:33:40.
