data_PCOD9024897
_publ_section_title
;
Structure prediction by ZEFSAII (Michael W. Deem and Ramdas Pophale) SiO2 
 PCOD9024897
Probable space group: P -1
;
_chemical_formula_sum "Si O2"
_cell_formula_units_Z 16
_cell_length_a 23.840058
_cell_length_b 6.402235
_cell_length_c 12.879506
_cell_angle_alpha 125.342799
_cell_angle_beta 30.108403
_cell_angle_gamma 109.598225
_cell_volume 736.088229
_symmetry_space_group_name_H-M "P -1"
_symmetry_group_IT_number 2
_symmetry_cell_setting 'triclinic'
loop_
_space_group_symop_operation_xyz
x,y,z
-x,-y,-z
loop_
_atom_site_type_symbol
_atom_site_label
_atom_site_fract_x
_atom_site_fract_y
_atom_site_fract_z
Si Si1 0.712957 0.708404 0.326155
Si Si2 0.933520 0.233769 0.525659
Si Si3 0.698226 0.737021 0.956328
Si Si4 0.364927 0.248682 0.297484
Si Si5 0.824271 0.783777 0.575787
Si Si6 0.952521 0.590025 0.781027
Si Si7 0.408305 0.685976 0.613720
Si Si8 0.534828 0.309088 0.710852
O O1 0.690316 0.740814 0.495521
O O2 0.701055 0.418262 0.235944
O O3 0.605740 0.981431 0.527147
O O4 0.835787 0.695425 0.071840
O O5 0.961550 0.318898 0.619759
O O6 0.039469 0.210445 0.267294
O O7 0.897740 0.974812 0.495138
O O8 0.812431 0.500088 0.759706
O O9 0.606747 0.614972 0.016824
O O10 0.628869 0.986633 0.217667
O O11 0.741587 0.887213 0.840000
O O12 0.265780 0.221280 0.371129
O O13 0.392813 0.521655 0.305875
O O14 0.500000 0.000000 0.000000
O O15 0.928520 0.487883 0.359427
O O16 0.500000 0.500000 0.500000
O O17 0.465377 0.615487 0.388204
#
# Coordination Sequence:
#
# PCOD9024897 Si02
#       8
#     2   2   2   2   2   2   2   2
#     4  11  24  42  64  92 131 170 208 263 312 375
#     4  10  22  40  66  95 128 163 208 264 316 381
#     4  11  22  36  65  97 127 166 204 256 325 382
#     4  11  26  44  64  91 127 168 218 263 312 371
#     4  11  24  42  65  90 126 172 214 262 310 368
#     4  10  23  41  64  96 124 163 213 260 322 374
#     4  11  23  36  61  99 132 162 200 257 324 384
#     4  11  24  40  63  94 128 165 208 258 320 379
#
# _framework density 21.736523999999999
#
# number of rings (size 3 to 8) (size 9 to 14) (size 15 to 20)
#    0.000    1.250    1.250    3.750    5.250    8.500 
#    0.000    1.250    0.000    0.000    0.000    0.000 
#    0.000    0.000    0.000    0.000    0.000    0.000 
#
# Total GULP energy -89364.737463 kJ/mol
# GULP energy per Si atom -5585.296091 kJ/mol
# Density = 2.168705 g / cm^3
# Si number density = 21.736524 Si / 1000 Ang^3
#
#
#
# Elastic Constant Matrix: (Units=GPa)
#
#
# Indices 1 2 3 4 5 6 
#
# 1 128.8670 14.8952 28.9840 -5.7009 -10.4854 2.2164
# 2 14.8952 78.3358 2.0194 -14.3308 -0.1792 11.4727
# 3 28.9840 2.0194 87.8221 -27.0353 -3.1926 3.8686
# 4 -5.7009 -14.3308 -27.0353 30.1084 3.0501 -11.4248
# 5 -10.4854 -0.1792 -3.1926 3.0501 24.8178 -0.6809
# 6 2.2164 11.4727 3.8686 -11.4248 -0.6809 27.6217
#
#
#
# Elastic Compliance Matrix: (Units=1/GPa)
#
#
# Indices 1 2 3 4 5 6 
#
# 1 0.009022 -0.002127 -0.003784 -0.003298 0.003699 -0.000583
# 2 -0.002127 0.015093 0.003059 0.008531 -0.001528 -0.003036
# 3 -0.003784 0.003059 0.018093 0.018729 -0.001435 0.004210
# 4 -0.003298 0.008531 0.018729 0.061412 -0.005939 0.019353
# 5 0.003699 -0.001528 -0.001435 -0.005939 0.042367 -0.000873
# 6 -0.000583 -0.003036 0.004210 0.019353 -0.000873 0.044905
#
#
# Mechanical properties :
#
#
# Convention : Reuss Voigt Hill
#
# Bulk Modulus (GPa) = 27.39367 42.98025 35.18696
# Shear Modulus (GPa) = 23.95065 33.11801 28.53433
#
# Velocity S-wave (km/s) = 3.32303 3.90758 3.62710
# Velocity P-wave (km/s) = 5.23004 6.33839 5.81070
#
# Compressibility (1/GPa) = 0.03650479
#
# Stress axis : x y z
#
# Youngs Moduli (GPa) = 110.84104 66.25592 55.27016
#
# Poissons Ratio (x) = 0.14095 0.20912
# Poissons Ratio (y) = 0.23580 -0.16910
# Poissons Ratio (z) = 0.41938 -0.20271
#
# Static dielectric constant tensor:
#      x y z
#    x 1.793670 0.016850 0.001920 
#    y 0.016850 1.833920 -0.014490 
#    z 0.001920 -0.014490 1.806610 
# 
# From -- ./inp_files/67255.got.cif
#   From: 2010.05.17/outbox.cif.g08.bks.cpg/sg2_34_cif.got.tgz:67255.got - 2010.06.03 11:33:40.
