data_PCOD9024394
_publ_section_title
;
Structure prediction by ZEFSAII (Michael W. Deem and Ramdas Pophale) SiO2 
 PCOD9024394
Probable space group: P -1
;
_chemical_formula_sum "Si O2"
_cell_formula_units_Z 14
_cell_length_a 6.190769
_cell_length_b 18.854285
_cell_length_c 18.765683
_cell_angle_alpha 18.454568
_cell_angle_beta 114.966638
_cell_angle_gamma 115.184159
_cell_volume 626.159406
_symmetry_space_group_name_H-M "P -1"
_symmetry_group_IT_number 2
_symmetry_cell_setting 'triclinic'
loop_
_space_group_symop_operation_xyz
x,y,z
-x,-y,-z
loop_
_atom_site_type_symbol
_atom_site_label
_atom_site_fract_x
_atom_site_fract_y
_atom_site_fract_z
Si Si1 0.176165 0.737894 0.375538
Si Si2 0.583108 0.911959 0.483606
Si Si3 0.271659 0.639392 0.329819
Si Si4 0.817431 0.200904 0.116400
Si Si5 0.049908 0.854662 0.967372
Si Si6 0.690604 0.713464 0.831615
Si Si7 0.389863 0.516997 0.740664
O O1 0.255614 0.784761 0.260966
O O2 0.377933 0.637237 0.547723
O O3 0.957366 0.544050 0.527572
O O4 0.083909 0.949568 0.201025
O O5 0.730160 0.818566 0.658308
O O6 0.413422 0.707605 0.622228
O O7 0.740174 0.017624 0.340198
O O8 0.429031 0.102762 0.312219
O O9 0.500000 0.500000 0.500000
O O10 0.250468 0.783739 0.117936
O O11 0.853758 0.089439 0.151014
O O12 0.062141 0.331586 0.054208
O O13 0.611904 0.368597 0.919703
O O14 0.852027 0.644100 0.131215
O O15 0.500000 0.500000 0.000000
#
# Coordination Sequence:
#
# PCOD9024394 Si02
#       7
#     2   2   2   2   2   2   2
#     4  10  22  41  63  93 130 168 214 265 316 374
#     4  11  25  43  66  94 129 167 210 264 322 383
#     4  10  22  40  64  95 129 169 215 263 317 376
#     4  12  24  40  65  96 126 166 215 262 319 384
#     4  11  24  42  66  94 131 171 212 266 320 378
#     4  11  25  46  67  93 129 168 212 264 321 381
#     4  11  24  42  64  93 128 168 213 265 318 378
#
# _framework density 22.358525
#
# number of rings (size 3 to 8) (size 9 to 14) (size 15 to 20)
#    0.000    1.143    0.000    6.000    0.000   10.857 
#    0.000    0.000    0.000    0.000    0.000    0.000 
#    0.000    0.000    0.000    0.000    0.000    0.000 
#
# Total GULP energy -78406.944716 kJ/mol
# GULP energy per Si atom -5600.496051 kJ/mol
# Density = 2.230764 g / cm^3
# Si number density = 22.358525 Si / 1000 Ang^3
#
#
#
# Elastic Constant Matrix: (Units=GPa)
#
#
# Indices 1 2 3 4 5 6 
#
# 1 71.6231 61.7441 45.0185 29.4971 3.0631 -18.7957
# 2 61.7441 160.7012 65.9734 24.2665 -2.4852 -36.1149
# 3 45.0185 65.9734 88.6654 15.7699 3.5226 -16.2768
# 4 29.4971 24.2665 15.7699 57.3887 1.2549 12.1493
# 5 3.0631 -2.4852 3.5226 1.2549 31.7095 9.3420
# 6 -18.7957 -36.1149 -16.2768 12.1493 9.3420 35.9361
#
#
#
# Elastic Compliance Matrix: (Units=1/GPa)
#
#
# Indices 1 2 3 4 5 6 
#
# 1 0.034719 -0.002821 -0.008318 -0.018386 -0.007753 0.019787
# 2 -0.002821 0.012430 -0.004991 -0.004660 -0.001146 0.010629
# 3 -0.008318 -0.004991 0.018846 0.001437 -0.001462 -0.000936
# 4 -0.018386 -0.004660 0.001437 0.034039 0.007922 -0.027215
# 5 -0.007753 -0.001146 -0.001462 0.007922 0.037429 -0.018277
# 6 0.019787 0.010629 -0.000936 -0.027215 -0.018277 0.062387
#
#
# Mechanical properties :
#
#
# Convention : Reuss Voigt Hill
#
# Bulk Modulus (GPa) = 29.64353 74.05131 51.84742
# Shear Modulus (GPa) = 20.54608 34.89044 27.71826
#
# Velocity S-wave (km/s) = 3.03469 3.95460 3.52478
# Velocity P-wave (km/s) = 5.05630 7.35144 6.30911
#
# Compressibility (1/GPa) = 0.03373417
#
# Stress axis : x y z
#
# Youngs Moduli (GPa) = 28.80297 80.44835 53.06163
#
# Poissons Ratio (x) = 0.22697 0.44137
# Poissons Ratio (y) = 0.08126 0.26483
# Poissons Ratio (z) = 0.23958 0.40152
#
# Static dielectric constant tensor:
#      x y z
#    x 1.799220 -0.000530 -0.030160 
#    y -0.000530 1.822820 0.026140 
#    z -0.030160 0.026140 1.815010 
# 
# From -- ./inp_files/7500.got.cif
#   From: 2010.05.17/outbox.cif.g08.bks.cpg/sg2_4_cif.got.tgz:7500.got - 2010.06.03 11:33:40.
