data_PCOD9024252
_publ_section_title
;
Structure prediction by ZEFSAII (Michael W. Deem and Ramdas Pophale) SiO2 
 PCOD9024252
Probable space group: P -1
;
_chemical_formula_sum "Si O2"
_cell_formula_units_Z 14
_cell_length_a 14.995450
_cell_length_b 9.292300
_cell_length_c 15.266683
_cell_angle_alpha 143.201113
_cell_angle_beta 36.473509
_cell_angle_gamma 127.765244
_cell_volume 754.523625
_symmetry_space_group_name_H-M "P -1"
_symmetry_group_IT_number 2
_symmetry_cell_setting 'triclinic'
loop_
_space_group_symop_operation_xyz
x,y,z
-x,-y,-z
loop_
_atom_site_type_symbol
_atom_site_label
_atom_site_fract_x
_atom_site_fract_y
_atom_site_fract_z
Si Si1 0.413776 0.759642 0.216166
Si Si2 0.338381 0.489565 0.507031
Si Si3 0.271892 0.678115 0.110005
Si Si4 0.381792 0.837205 0.797876
Si Si5 0.239965 0.094549 0.191427
Si Si6 0.583596 0.439468 0.707536
Si Si7 0.041203 0.266224 0.570243
O O1 0.306522 0.795459 0.234253
O O2 0.348046 0.727710 0.349234
O O3 0.529680 0.961377 0.221830
O O4 0.500000 0.500000 0.000000
O O5 0.322948 0.657595 0.685956
O O6 0.488503 0.308938 0.316787
O O7 0.368164 0.631460 0.462986
O O8 0.189240 0.352783 0.541579
O O9 0.109807 0.578679 0.204728
O O10 0.272370 0.883828 0.135362
O O11 0.404023 0.476278 0.881217
O O12 0.254815 0.966594 0.023959
O O13 0.362428 0.290714 0.191493
O O14 0.087500 0.241172 0.419028
O O15 0.000000 0.000000 0.500000
#
# Coordination Sequence:
#
# PCOD9024252 Si02
#       7
#     2   2   2   2   2   2   2
#     4  10  19  30  56  83  98 130 177 216 251 291
#     4  10  22  34  54  79 102 138 171 208 262 300
#     4  10  17  31  53  77 105 127 169 221 248 294
#     4  11  19  34  55  77 107 131 173 217 248 303
#     4  10  17  31  55  77  97 137 172 211 250 298
#     4  10  18  32  55  79  98 134 178 207 251 299
#     4   9  19  31  52  77 103 133 170 212 256 300
#
# _framework density 18.554753999999999
#
# number of rings (size 3 to 8) (size 9 to 14) (size 15 to 20)
#    0.000    2.000    4.286    3.000    0.000    0.571 
#    0.000    5.714    3.143    3.429    0.000    0.000 
#    0.000    0.000    0.000    0.000    0.000    0.000 
#
# Total GULP energy -77935.103964 kJ/mol
# GULP energy per Si atom -5566.793140 kJ/mol
# Density = 1.851252 g / cm^3
# Si number density = 18.554754 Si / 1000 Ang^3
#
#
#
# Elastic Constant Matrix: (Units=GPa)
#
#
# Indices 1 2 3 4 5 6 
#
# 1 63.7139 42.5963 25.2922 -19.7940 21.6325 0.1639
# 2 42.5963 67.2014 23.6992 -19.6339 12.1290 -2.9221
# 3 25.2922 23.6992 70.6061 -26.1717 16.4291 14.7082
# 4 -19.7940 -19.6339 -26.1717 28.6609 -1.0238 -0.6542
# 5 21.6325 12.1290 16.4291 -1.0238 23.3025 -4.9955
# 6 0.1639 -2.9221 14.7082 -0.6542 -4.9955 36.0820
#
#
#
# Elastic Compliance Matrix: (Units=1/GPa)
#
#
# Indices 1 2 3 4 5 6 
#
# 1 0.048002 -0.018409 0.014383 0.031703 -0.046611 -0.013450
# 2 -0.018409 0.027873 -0.004472 0.002664 0.006961 0.005176
# 3 0.014383 -0.004472 0.040487 0.041820 -0.042459 -0.022052
# 4 0.031703 0.002664 0.041820 0.094069 -0.061261 -0.023752
# 5 -0.046611 0.006961 -0.042459 -0.061261 0.116914 0.033159
# 6 -0.013450 0.005176 -0.022052 -0.023752 0.033159 0.041344
#
#
# Mechanical properties :
#
#
# Convention : Reuss Voigt Hill
#
# Bulk Modulus (GPa) = 10.06366 42.74407 26.40387
# Shear Modulus (GPa) = 11.93868 24.93799 18.43834
#
# Velocity S-wave (km/s) = 2.53934 3.67007 3.15576
# Velocity P-wave (km/s) = 3.74610 6.40671 5.24782
#
# Compressibility (1/GPa) = 0.09936738
#
# Stress axis : x y z
#
# Youngs Moduli (GPa) = 20.83235 35.87668 24.69932
#
# Poissons Ratio (x) = 0.66044 -0.35525
# Poissons Ratio (y) = 0.38349 0.11045
# Poissons Ratio (z) = -0.29963 0.16043
#
# Static dielectric constant tensor:
#      x y z
#    x 1.705810 -0.028930 -0.028320 
#    y -0.028930 1.639950 -0.023670 
#    z -0.028320 -0.023670 1.703200 
# 
# From -- ./inp_files/171253.got.cif
#   From: 2010.05.17/outbox.cif.g08.bks.cpg/sg2_86_cif.got.tgz:171253.got - 2010.06.03 11:33:40.
