data_PCOD9024466
_publ_section_title
;
Structure prediction by ZEFSAII (Michael W. Deem and Ramdas Pophale) SiO2 
 PCOD9024466
Probable space group: P -1
;
_chemical_formula_sum "Si O2"
_cell_formula_units_Z 14
_cell_length_a 8.653997
_cell_length_b 13.478534
_cell_length_c 8.422749
_cell_angle_alpha 107.905040
_cell_angle_beta 50.191622
_cell_angle_gamma 124.091495
_cell_volume 622.966230
_symmetry_space_group_name_H-M "P -1"
_symmetry_group_IT_number 2
_symmetry_cell_setting 'triclinic'
loop_
_space_group_symop_operation_xyz
x,y,z
-x,-y,-z
loop_
_atom_site_type_symbol
_atom_site_label
_atom_site_fract_x
_atom_site_fract_y
_atom_site_fract_z
Si Si1 0.899423 0.814891 0.632386
Si Si2 0.067028 0.061815 0.817068
Si Si3 0.447490 0.220426 0.446291
Si Si4 0.672388 0.120712 0.036241
Si Si5 0.477369 0.597952 0.961889
Si Si6 0.865573 0.309611 0.730841
Si Si7 0.229173 0.522527 0.764867
O O1 0.753877 0.801047 0.559921
O O2 0.714018 0.723455 0.837531
O O3 0.092586 0.775630 0.456644
O O4 0.011340 0.952204 0.680520
O O5 0.325182 0.169853 0.669103
O O6 0.900629 0.115821 0.920538
O O7 0.000000 0.000000 0.000000
O O8 0.557308 0.140990 0.275194
O O9 0.644626 0.358277 0.365893
O O10 0.731740 0.230061 0.932767
O O11 0.500000 0.000000 0.000000
O O12 0.397037 0.541091 0.809906
O O13 0.500000 0.500000 0.000000
O O14 0.283327 0.625916 0.178713
O O15 0.124765 0.407618 0.664313
O O16 0.000000 0.500000 0.000000
#
# Coordination Sequence:
#
# PCOD9024466 Si02
#       7
#     2   2   2   2   2   2   2
#     4  11  22  43  67  97 130 178 229 261 335 405
#     4  12  27  44  66 104 136 171 226 290 333 384
#     4  11  21  41  72  97 127 182 225 269 327 406
#     4  12  21  40  74  95 131 179 227 270 326 403
#     4  10  22  40  64  98 139 171 212 277 336 388
#     4  11  21  40  70 100 126 177 226 272 317 404
#     4   9  19  40  67  99 129 170 230 263 321 404
#
# _framework density 22.473127000000002
#
# number of rings (size 3 to 8) (size 9 to 14) (size 15 to 20)
#    0.000    1.143    7.143    1.286    0.000    4.571 
#    2.571    0.000    0.000    0.000    0.000    0.000 
#    0.000    0.000    0.000    0.000    0.000    0.000 
#
# Total GULP energy -78278.965657 kJ/mol
# GULP energy per Si atom -5591.354690 kJ/mol
# Density = 2.242198 g / cm^3
# Si number density = 22.473127 Si / 1000 Ang^3
#
#
#
# Elastic Constant Matrix: (Units=GPa)
#
#
# Indices 1 2 3 4 5 6 
#
# 1 30.0605 36.7593 29.0418 4.5181 -15.5085 -19.9116
# 2 36.7593 102.4715 37.7462 -18.5393 -4.9569 -21.9997
# 3 29.0418 37.7462 128.3122 -12.2136 -21.8726 -15.8100
# 4 4.5181 -18.5393 -12.2136 53.4646 -12.5886 -15.7622
# 5 -15.5085 -4.9569 -21.8726 -12.5886 27.1520 6.0216
# 6 -19.9116 -21.9997 -15.8100 -15.7622 6.0216 32.4962
#
#
#
# Elastic Compliance Matrix: (Units=1/GPa)
#
#
# Indices 1 2 3 4 5 6 
#
# 1 0.158155 -0.037766 -0.005067 0.006041 0.069073 0.059006
# 2 -0.037766 0.024113 -0.000065 0.008303 -0.013293 -0.000358
# 3 -0.005067 -0.000065 0.011421 0.006090 0.008269 0.003830
# 4 0.006041 0.008303 0.006090 0.034733 0.020351 0.025361
# 5 0.069073 -0.013293 0.008269 0.020351 0.082886 0.031859
# 6 0.059006 -0.000358 0.003830 0.025361 0.031859 0.074947
#
#
# Mechanical properties :
#
#
# Convention : Reuss Voigt Hill
#
# Bulk Modulus (GPa) = 9.26846 51.99319 30.63083
# Shear Modulus (GPa) = 9.84226 33.10901 21.47564
#
# Velocity S-wave (km/s) = 2.09501 3.84249 3.09465
# Velocity P-wave (km/s) = 3.15995 6.54769 5.14089
#
# Compressibility (1/GPa) = 0.10789277
#
# Stress axis : x y z
#
# Youngs Moduli (GPa) = 6.32292 41.47174 87.56175
#
# Poissons Ratio (x) = 1.56621 0.44364
# Poissons Ratio (y) = 0.23879 0.00572
# Poissons Ratio (z) = 0.03204 0.00271
#
# Static dielectric constant tensor:
#      x y z
#    x 1.785300 0.172190 -0.003420 
#    y 0.172190 1.495570 0.015790 
#    z -0.003420 0.015790 1.884100 
# 
# From -- ./inp_files/188273.got.cif
#   From: 2010.05.17/outbox.cif.g08.bks.cpg/sg2_95_cif.got.tgz:188273.got - 2010.06.03 11:33:40.
