data_PCOD9024176
_publ_section_title
;
Structure prediction by ZEFSAII (Michael W. Deem and Ramdas Pophale) SiO2 
 PCOD9024176
Probable space group: P -1
;
_chemical_formula_sum "Si O2"
_cell_formula_units_Z 16
_cell_length_a 5.305039
_cell_length_b 11.990293
_cell_length_c 22.410025
_cell_angle_alpha 29.610084
_cell_angle_beta 67.675047
_cell_angle_gamma 62.815982
_cell_volume 626.037842
_symmetry_space_group_name_H-M "P -1"
_symmetry_group_IT_number 2
_symmetry_cell_setting 'triclinic'
loop_
_space_group_symop_operation_xyz
x,y,z
-x,-y,-z
loop_
_atom_site_type_symbol
_atom_site_label
_atom_site_fract_x
_atom_site_fract_y
_atom_site_fract_z
Si Si1 0.715909 0.921952 0.572608
Si Si2 0.547539 0.480418 0.792378
Si Si3 0.831959 0.570221 0.390109
Si Si4 0.409003 0.265926 0.541166
Si Si5 0.768016 0.175726 0.816345
Si Si6 0.295649 0.147591 0.127855
Si Si7 0.981730 0.393782 0.144173
Si Si8 0.799808 0.248385 0.988199
O O1 0.758498 0.643253 0.697769
O O2 0.500000 0.000000 0.500000
O O3 0.569067 0.042144 0.591264
O O4 0.000000 0.000000 0.500000
O O5 0.525817 0.366016 0.783901
O O6 0.254274 0.631356 0.776954
O O7 0.665032 0.266085 0.927308
O O8 0.619206 0.434285 0.445891
O O9 0.672617 0.743042 0.377441
O O10 0.108725 0.386770 0.479971
O O11 0.975740 0.706062 0.267603
O O12 0.701763 0.083774 0.801180
O O13 0.893820 0.934302 0.953591
O O14 0.124165 0.177223 0.190457
O O15 0.149543 0.380497 0.992457
O O16 0.612010 0.170633 0.091708
O O17 0.206801 0.488309 0.116312
#
# Coordination Sequence:
#
# PCOD9024176 Si02
#       8
#     2   2   2   2   2   2   2   2
#     4  12  27  47  72 100 137 179 228 281 343 404
#     4  11  25  41  65  94 132 174 218 275 332 400
#     4  10  23  43  73  99 136 173 226 288 335 403
#     4  10  22  46  69 100 133 176 229 282 341 395
#     4  11  23  39  63  96 130 175 218 268 335 395
#     4   9  20  38  62  89 128 169 217 267 324 395
#     4   9  20  40  61  89 128 168 216 270 327 391
#     4  10  22  40  63  96 131 171 220 270 332 401
#
# _framework density 25.557561
#
# number of rings (size 3 to 8) (size 9 to 14) (size 15 to 20)
#    0.000    1.750    0.000    3.000    5.250    6.500 
#    0.000    0.000    0.000    0.000    0.000    0.000 
#    0.000    0.000    0.000    0.000    0.000    0.000 
#
# Total GULP energy -89508.631551 kJ/mol
# GULP energy per Si atom -5594.289472 kJ/mol
# Density = 2.549939 g / cm^3
# Si number density = 25.557561 Si / 1000 Ang^3
#
#
#
# Elastic Constant Matrix: (Units=GPa)
#
#
# Indices 1 2 3 4 5 6 
#
# 1 93.2925 43.3282 21.9204 -3.4345 -27.0868 -2.8688
# 2 43.3282 243.3868 43.4149 -19.3884 -28.8933 5.5408
# 3 21.9204 43.4149 62.9534 -1.5098 -14.6463 -3.1044
# 4 -3.4345 -19.3884 -1.5098 23.4698 -2.4252 -5.0249
# 5 -27.0868 -28.8933 -14.6463 -2.4252 43.4475 0.0544
# 6 -2.8688 5.5408 -3.1044 -5.0249 0.0544 29.3903
#
#
#
# Elastic Compliance Matrix: (Units=1/GPa)
#
#
# Indices 1 2 3 4 5 6 
#
# 1 0.014031 -0.001082 -0.002290 0.002134 0.007372 0.001683
# 2 -0.001082 0.005412 -0.002771 0.004213 0.002226 -0.000702
# 3 -0.002290 -0.002771 0.019447 -0.000555 0.003252 0.002252
# 4 0.002134 0.004213 -0.000555 0.048695 0.006654 0.007668
# 5 0.007372 0.002226 0.003252 0.006654 0.030558 0.001725
# 6 0.001683 -0.000702 0.002252 0.007668 0.001725 0.035867
#
#
# Mechanical properties :
#
#
# Convention : Reuss Voigt Hill
#
# Bulk Modulus (GPa) = 37.58889 68.55108 53.06998
# Shear Modulus (GPa) = 28.54488 38.65946 33.60217
#
# Velocity S-wave (km/s) = 3.34561 3.89349 3.62990
# Velocity P-wave (km/s) = 5.44643 6.86242 6.19502
#
# Compressibility (1/GPa) = 0.02660361
#
# Stress axis : x y z
#
# Youngs Moduli (GPa) = 71.27315 184.79111 51.42153
#
# Poissons Ratio (x) = 0.20003 0.11773
# Poissons Ratio (y) = 0.07715 0.14248
# Poissons Ratio (z) = 0.16318 0.51201
#
# Static dielectric constant tensor:
#      x y z
#    x 2.056120 -0.011540 0.060500 
#    y -0.011540 2.016570 0.028740 
#    z 0.060500 0.028740 2.036520 
# 
# From -- ./inp_files/113282.got.cif
#   From: 2010.05.17/outbox.cif.g08.bks.cpg/sg2_57_cif.got.tgz:113282.got - 2010.06.03 11:33:40.
