data_PCOD9024385
_publ_section_title
;
Structure prediction by ZEFSAII (Michael W. Deem and Ramdas Pophale) SiO2 
 PCOD9024385
Probable space group: P -1
;
_chemical_formula_sum "Si O2"
_cell_formula_units_Z 13
_cell_length_a 5.680420
_cell_length_b 8.171823
_cell_length_c 16.826581
_cell_angle_alpha 122.329871
_cell_angle_beta 108.117191
_cell_angle_gamma 52.622472
_cell_volume 524.361042
_symmetry_space_group_name_H-M "P -1"
_symmetry_group_IT_number 2
_symmetry_cell_setting 'triclinic'
loop_
_space_group_symop_operation_xyz
x,y,z
-x,-y,-z
loop_
_atom_site_type_symbol
_atom_site_label
_atom_site_fract_x
_atom_site_fract_y
_atom_site_fract_z
Si Si1 0.861584 0.807475 0.142611
Si Si2 0.000000 0.000000 0.500000
Si Si3 0.867093 0.234275 0.184089
Si Si4 0.223512 0.204122 0.470756
Si Si5 0.487414 0.460158 0.632401
Si Si6 0.545763 0.626936 0.965091
Si Si7 0.430027 0.136990 0.296850
O O1 0.171325 0.563815 0.106239
O O2 0.901479 0.008198 0.168167
O O3 0.709322 0.890581 0.234106
O O4 0.638281 0.790686 0.055712
O O5 0.031903 0.813788 0.522523
O O6 0.199175 0.781069 0.402980
O O7 0.633084 0.455482 0.269780
O O8 0.742617 0.258069 0.089746
O O9 0.177290 0.206255 0.222788
O O10 0.251486 0.419073 0.552465
O O11 0.315571 0.133248 0.371249
O O12 0.500000 0.000000 0.500000
O O13 0.504318 0.664504 0.649455
O O14 0.500000 0.500000 0.000000
#
# Coordination Sequence:
#
# PCOD9024385 Si02
#       7
#     2   1   2   2   2   2   2
#     4  10  25  46  71 100 138 183 233 289 354 427
#     4  10  22  40  64  94 134 180 232 286 342 406
#     4  11  25  44  68 102 141 181 231 294 356 416
#     4  10  23  41  64  96 136 183 234 287 342 409
#     4  10  23  41  66  96 136 186 235 286 345 410
#     4  11  25  45  72 104 139 182 232 289 356 427
#     4  11  24  44  71 102 138 185 240 293 350 416
#
# _framework density 24.792079999999999
#
# number of rings (size 3 to 8) (size 9 to 14) (size 15 to 20)
#    0.000    1.538    0.000    2.769    0.000   22.154 
#    0.000    0.000    0.000    0.000    0.000    0.000 
#    0.000    0.000    0.000    0.000    0.000    0.000 
#
# Total GULP energy -72548.771261 kJ/mol
# GULP energy per Si atom -5580.674712 kJ/mol
# Density = 2.473565 g / cm^3
# Si number density = 24.792080 Si / 1000 Ang^3
#
#
#
# Elastic Constant Matrix: (Units=GPa)
#
#
# Indices 1 2 3 4 5 6 
#
# 1 93.0580 32.5437 61.4456 1.7843 7.5072 16.1544
# 2 32.5437 43.0766 50.3842 1.6486 3.3180 3.1298
# 3 61.4456 50.3842 137.7653 19.2722 9.8682 -8.0243
# 4 1.7843 1.6486 19.2722 57.6469 -16.7672 -0.2548
# 5 7.5072 3.3180 9.8682 -16.7672 62.8902 5.2640
# 6 16.1544 3.1298 -8.0243 -0.2548 5.2640 42.1382
#
#
#
# Elastic Compliance Matrix: (Units=1/GPa)
#
#
# Indices 1 2 3 4 5 6 
#
# 1 0.018683 -0.005156 -0.007245 0.002077 0.000419 -0.008199
# 2 -0.005156 0.044805 -0.015146 0.004568 0.002222 -0.004485
# 3 -0.007245 -0.015146 0.017579 -0.006168 -0.003378 0.007635
# 4 0.002077 0.004568 -0.006168 0.021045 0.006339 -0.002975
# 5 0.000419 0.002222 -0.003378 0.006339 0.018222 -0.003207
# 6 -0.008199 -0.004485 0.007635 -0.002975 -0.003207 0.029044
#
#
# Mechanical properties :
#
#
# Convention : Reuss Voigt Hill
#
# Bulk Modulus (GPa) = 38.50280 62.51631 50.50956
# Shear Modulus (GPa) = 23.45980 41.17016 32.31498
#
# Velocity S-wave (km/s) = 3.07947 4.07949 3.61423
# Velocity P-wave (km/s) = 5.31114 6.88917 6.15097
#
# Compressibility (1/GPa) = 0.02597214
#
# Stress axis : x y z
#
# Youngs Moduli (GPa) = 53.52507 22.31871 56.88622
#
# Poissons Ratio (x) = 0.11509 0.41214
# Poissons Ratio (y) = 0.27600 0.86160
# Poissons Ratio (z) = 0.38779 0.33804
#
# Static dielectric constant tensor:
#      x y z
#    x 1.954600 -0.072850 -0.006190 
#    y -0.072850 2.009450 0.007070 
#    z -0.006190 0.007070 1.908660 
# 
# From -- ./inp_files/546784.got.cif
#   From: 2010.05.17/outbox.cif.g08.bks.cpg/sg2_274_cif.got.tgz:546784.got - 2010.06.03 11:33:40.
