data_PCOD9024150
_publ_section_title
;
Structure prediction by ZEFSAII (Michael W. Deem and Ramdas Pophale) SiO2 
 PCOD9024150
Probable space group: P -1
;
_chemical_formula_sum "Si O2"
_cell_formula_units_Z 14
_cell_length_a 29.765440
_cell_length_b 5.111430
_cell_length_c 9.819372
_cell_angle_alpha 103.177638
_cell_angle_beta 26.201539
_cell_angle_gamma 100.381558
_cell_volume 641.227433
_symmetry_space_group_name_H-M "P -1"
_symmetry_group_IT_number 2
_symmetry_cell_setting 'triclinic'
loop_
_space_group_symop_operation_xyz
x,y,z
-x,-y,-z
loop_
_atom_site_type_symbol
_atom_site_label
_atom_site_fract_x
_atom_site_fract_y
_atom_site_fract_z
Si Si1 0.217288 0.378758 0.196469
Si Si2 0.111539 0.369254 0.207384
Si Si3 0.268430 0.641380 0.337030
Si Si4 0.502676 0.577017 0.300634
Si Si5 0.565875 0.988693 0.682414
Si Si6 0.785109 0.180043 0.193429
Si Si7 0.337538 0.877763 0.927136
O O1 0.134357 0.334786 0.303026
O O2 0.189950 0.487524 0.436322
O O3 0.276761 0.627470 0.007772
O O4 0.295700 0.126207 0.981672
O O5 0.000000 0.500000 0.500000
O O6 0.130492 0.067458 0.063089
O O7 0.185045 0.575305 0.956074
O O8 0.233732 0.710600 0.589773
O O9 0.299881 0.894967 0.188156
O O10 0.376349 0.469811 0.023111
O O11 0.475257 0.768412 0.271274
O O12 0.455543 0.292762 0.364476
O O13 0.548008 0.249866 0.416169
O O14 0.682433 0.043023 0.407080
O O15 0.500000 0.000000 0.000000
#
# Coordination Sequence:
#
# PCOD9024150 Si02
#       7
#     2   2   2   2   2   2   2
#     4  10  23  43  68  94 135 172 227 280 340 396
#     4  12  27  50  77 102 126 175 235 290 357 416
#     4  10  27  39  68  98 143 180 231 272 341 386
#     4  12  23  39  61  97 139 193 238 263 308 405
#     4  12  25  39  64 101 146 182 230 268 332 400
#     4  12  26  46  73 100 142 177 225 292 342 398
#     4  10  22  40  63  94 138 184 223 272 322 393
#
# _framework density 21.833127000000001
#
# number of rings (size 3 to 8) (size 9 to 14) (size 15 to 20)
#    0.857    0.000    1.429    6.429    6.000    0.571 
#    0.000    1.429    0.000    0.000    0.000    0.000 
#    0.000    0.000    0.000    0.000    0.000    0.000 
#
# Total GULP energy -78174.621318 kJ/mol
# GULP energy per Si atom -5583.901523 kJ/mol
# Density = 2.178343 g / cm^3
# Si number density = 21.833127 Si / 1000 Ang^3
#
#
#
# Elastic Constant Matrix: (Units=GPa)
#
#
# Indices 1 2 3 4 5 6 
#
# 1 151.0860 43.4497 42.5856 12.1850 -3.6718 -12.4889
# 2 43.4497 142.8875 11.2551 3.8211 -6.2018 -14.8479
# 3 42.5856 11.2551 40.7796 8.0191 -6.7025 -7.1428
# 4 12.1850 3.8211 8.0191 27.9548 -8.9430 -3.6147
# 5 -3.6718 -6.2018 -6.7025 -8.9430 16.7015 -5.8513
# 6 -12.4889 -14.8479 -7.1428 -3.6147 -5.8513 30.9915
#
#
#
# Elastic Compliance Matrix: (Units=1/GPa)
#
#
# Indices 1 2 3 4 5 6 
#
# 1 0.010333 -0.002507 -0.010412 -0.002687 -0.004485 -0.000597
# 2 -0.002507 0.008321 0.001740 0.001971 0.005950 0.004731
# 3 -0.010412 0.001740 0.039349 -0.000382 0.017055 0.008882
# 4 -0.002687 0.001971 -0.000382 0.047539 0.029241 0.010839
# 5 -0.004485 0.005950 0.017055 0.029241 0.092667 0.025880
# 6 -0.000597 0.004731 0.008882 0.010839 0.025880 0.042490
#
#
# Mechanical properties :
#
#
# Convention : Reuss Voigt Hill
#
# Bulk Modulus (GPa) = 28.05408 58.81489 43.43449
# Shear Modulus (GPa) = 18.18587 30.96041 24.57314
#
# Velocity S-wave (km/s) = 2.88922 3.76978 3.35848
# Velocity P-wave (km/s) = 4.89972 6.77829 5.91407
#
# Compressibility (1/GPa) = 0.03564543
#
# Stress axis : x y z
#
# Youngs Moduli (GPa) = 96.78013 120.18059 25.41355
#
# Poissons Ratio (x) = 0.30126 0.26460
# Poissons Ratio (y) = 0.24260 -0.04422
# Poissons Ratio (z) = 1.00767 -0.20913
#
# Static dielectric constant tensor:
#      x y z
#    x 1.831780 0.006530 0.016530 
#    y 0.006530 1.814350 -0.032850 
#    z 0.016530 -0.032850 1.823150 
# 
# From -- ./inp_files/477381.got.cif
#   From: 2010.05.17/outbox.cif.g08.bks.cpg/sg2_239_cif.got.tgz:477381.got - 2010.06.03 11:33:40.
