data_PCOD9024613
_publ_section_title
;
Structure prediction by ZEFSAII (Michael W. Deem and Ramdas Pophale) SiO2 
 PCOD9024613
Probable space group: P -1
;
_chemical_formula_sum "Si O2"
_cell_formula_units_Z 16
_cell_length_a 11.598635
_cell_length_b 10.881262
_cell_length_c 13.076511
_cell_angle_alpha 105.838463
_cell_angle_beta 104.728627
_cell_angle_gamma 28.096798
_cell_volume 747.417137
_symmetry_space_group_name_H-M "P -1"
_symmetry_group_IT_number 2
_symmetry_cell_setting 'triclinic'
loop_
_space_group_symop_operation_xyz
x,y,z
-x,-y,-z
loop_
_atom_site_type_symbol
_atom_site_label
_atom_site_fract_x
_atom_site_fract_y
_atom_site_fract_z
Si Si1 0.219743 0.873851 0.805315
Si Si2 0.915992 0.896351 0.368999
Si Si3 0.288657 0.383336 0.876459
Si Si4 0.815837 0.255539 0.946912
Si Si5 0.681506 0.260721 0.567764
Si Si6 0.529400 0.133992 0.073613
Si Si7 0.013130 0.578883 0.174436
Si Si8 0.469890 0.398702 0.772948
O O1 0.419544 0.760803 0.891839
O O2 0.231418 0.711686 0.777087
O O3 0.278073 0.871852 0.706219
O O4 0.959022 0.159421 0.853612
O O5 0.000713 0.680591 0.295906
O O6 0.122448 0.811194 0.385828
O O7 0.802269 0.026423 0.483465
O O8 0.067781 0.490915 0.837679
O O9 0.411019 0.314625 0.783201
O O10 0.213205 0.586914 0.959820
O O11 0.478355 0.145673 0.947465
O O12 0.618162 0.337154 0.880656
O O13 0.000000 0.000000 0.000000
O O14 0.500000 0.500000 0.500000
O O15 0.586477 0.302588 0.665470
O O16 0.278530 0.342255 0.126884
O O17 0.784297 0.841568 0.110711
#
# Coordination Sequence:
#
# PCOD9024613 Si02
#       8
#     2   2   2   2   2   2   2   2
#     4  11  20  38  64  93 129 167 218 278 327 386
#     4  10  22  40  65  95 121 168 219 285 336 386
#     4  12  24  41  62  96 135 183 220 266 333 399
#     4  12  23  38  61  93 139 177 213 268 332 400
#     4  11  22  39  70  94 122 162 224 285 344 386
#     4  11  23  42  66  96 132 182 226 263 322 396
#     4  11  26  44  67  97 136 179 227 271 324 405
#     4  12  23  39  60  99 129 166 223 274 334 393
#
# _framework density 21.407056000000001
#
# number of rings (size 3 to 8) (size 9 to 14) (size 15 to 20)
#    0.000    0.750    5.000    4.125    1.750    2.000 
#    0.000    0.625    0.000    0.750    0.000    0.000 
#    0.000    0.000    0.000    0.000    0.000    0.000 
#
# Total GULP energy -89218.503491 kJ/mol
# GULP energy per Si atom -5576.156468 kJ/mol
# Density = 2.135833 g / cm^3
# Si number density = 21.407056 Si / 1000 Ang^3
#
#
#
# Elastic Constant Matrix: (Units=GPa)
#
#
# Indices 1 2 3 4 5 6 
#
# 1 111.4335 18.9669 23.7739 15.2359 -2.3501 -8.7317
# 2 18.9669 63.8631 12.3078 15.6822 -3.7319 1.5271
# 3 23.7739 12.3078 100.1620 23.5802 -9.4053 6.4701
# 4 15.2359 15.6822 23.5802 28.3938 -7.4496 0.8181
# 5 -2.3501 -3.7319 -9.4053 -7.4496 29.9323 6.5195
# 6 -8.7317 1.5271 6.4701 0.8181 6.5195 23.1928
#
#
#
# Elastic Compliance Matrix: (Units=1/GPa)
#
#
# Indices 1 2 3 4 5 6 
#
# 1 0.010630 -0.002148 -0.001960 -0.003603 -0.002125 0.005415
# 2 -0.002148 0.018570 0.000621 -0.009451 0.000423 -0.001990
# 3 -0.001960 0.000621 0.013151 -0.009336 0.002800 -0.004905
# 4 -0.003603 -0.009451 -0.009336 0.052633 0.009269 -0.002592
# 5 -0.002125 0.000423 0.002800 0.009269 0.039310 -0.012986
# 6 0.005415 -0.001990 -0.004905 -0.002592 -0.012986 0.050397
#
#
# Mechanical properties :
#
#
# Convention : Reuss Voigt Hill
#
# Bulk Modulus (GPa) = 28.26727 42.83951 35.55339
# Shear Modulus (GPa) = 24.57538 30.99779 27.78658
#
# Velocity S-wave (km/s) = 3.39190 3.80941 3.60670
# Velocity P-wave (km/s) = 5.34540 6.27727 5.82998
#
# Compressibility (1/GPa) = 0.03537660
#
# Stress axis : x y z
#
# Youngs Moduli (GPa) = 94.07419 53.85054 76.04237
#
# Poissons Ratio (x) = 0.11568 0.14906
# Poissons Ratio (y) = 0.20208 -0.04725
# Poissons Ratio (z) = 0.18440 -0.03346
#
# Static dielectric constant tensor:
#      x y z
#    x 1.844830 0.000950 0.013080 
#    y 0.000950 1.922090 -0.041140 
#    z 0.013080 -0.041140 1.920930 
# 
# From -- ./inp_files/363224.got.cif
#   From: 2010.05.17/outbox.cif.g08.bks.cpg/sg2_182_cif.got.tgz:363224.got - 2010.06.03 11:33:40.
