data_PCOD9024089
_publ_section_title
;
Structure prediction by ZEFSAII (Michael W. Deem and Ramdas Pophale) SiO2 
 PCOD9024089
Probable space group: P -1
;
_chemical_formula_sum "Si O2"
_cell_formula_units_Z 14
_cell_length_a 7.848260
_cell_length_b 18.489841
_cell_length_c 7.957859
_cell_angle_alpha 44.690671
_cell_angle_beta 123.150369
_cell_angle_gamma 128.000541
_cell_volume 627.434106
_symmetry_space_group_name_H-M "P -1"
_symmetry_group_IT_number 2
_symmetry_cell_setting 'triclinic'
loop_
_space_group_symop_operation_xyz
x,y,z
-x,-y,-z
loop_
_atom_site_type_symbol
_atom_site_label
_atom_site_fract_x
_atom_site_fract_y
_atom_site_fract_z
Si Si1 0.286858 0.151808 0.638311
Si Si2 0.293459 0.882076 0.185400
Si Si3 0.477723 0.368974 0.893267
Si Si4 0.148422 0.716199 0.676808
Si Si5 0.822619 0.056418 0.647491
Si Si6 0.866635 0.863859 0.789391
Si Si7 0.629788 0.615192 0.580901
O O1 0.482236 0.108836 0.795088
O O2 0.150684 0.121066 0.442091
O O3 0.396133 0.284870 0.495992
O O4 0.089469 0.105330 0.745299
O O5 0.199490 0.764531 0.433910
O O6 0.311928 0.962891 0.220542
O O7 0.108862 0.887823 0.950686
O O8 0.500995 0.488881 0.777854
O O9 0.440073 0.373180 0.666794
O O10 0.697477 0.346589 0.084500
O O11 0.281851 0.263161 0.037438
O O12 0.204020 0.832023 0.621064
O O13 0.891392 0.642527 0.678123
O O14 0.770012 0.946362 0.693468
#
# Coordination Sequence:
#
# PCOD9024089 Si02
#       7
#     2   2   2   2   2   2   2
#     4  11  23  41  60  93 126 156 207 255 302 360
#     4  10  22  40  63  92 121 163 206 244 302 370
#     4  11  21  39  69  86 120 171 200 251 311 359
#     4   9  19  40  62  90 118 156 207 246 295 362
#     4   9  22  41  62  91 127 160 203 252 298 367
#     4  12  21  39  63  91 127 161 202 253 305 361
#     4  10  23  41  62  93 122 158 212 252 302 365
#
# _framework density 22.313099999999999
#
# number of rings (size 3 to 8) (size 9 to 14) (size 15 to 20)
#    0.857    0.857    2.857    1.286    0.000    5.714 
#    0.000    0.714    0.000    0.000    0.000    0.000 
#    0.000    0.000    0.000    0.000    0.000    0.000 
#
# Total GULP energy -78211.694996 kJ/mol
# GULP energy per Si atom -5586.549643 kJ/mol
# Density = 2.226231 g / cm^3
# Si number density = 22.313100 Si / 1000 Ang^3
#
#
#
# Elastic Constant Matrix: (Units=GPa)
#
#
# Indices 1 2 3 4 5 6 
#
# 1 147.6545 38.6392 9.0773 -3.0240 11.6916 13.2643
# 2 38.6392 123.4717 39.3742 -21.9732 -2.8854 -9.4732
# 3 9.0773 39.3742 117.2528 -5.3836 24.0346 -13.5527
# 4 -3.0240 -21.9732 -5.3836 44.6041 7.0787 2.0208
# 5 11.6916 -2.8854 24.0346 7.0787 32.8364 -8.8614
# 6 13.2643 -9.4732 -13.5527 2.0208 -8.8614 42.4035
#
#
#
# Elastic Compliance Matrix: (Units=1/GPa)
#
#
# Indices 1 2 3 4 5 6 
#
# 1 0.008377 -0.003398 0.001082 0.000036 -0.005193 -0.004121
# 2 -0.003398 0.011564 -0.004145 0.003983 0.005274 0.003234
# 3 0.001082 -0.004145 0.011890 0.000956 -0.009524 0.000500
# 4 0.000036 0.003983 0.000956 0.025548 -0.006230 -0.001335
# 5 -0.005193 0.005274 -0.009524 -0.006230 0.043552 0.009157
# 6 -0.004121 0.003234 0.000500 -0.001335 0.009157 0.027732
#
#
# Mechanical properties :
#
#
# Convention : Reuss Voigt Hill
#
# Bulk Modulus (GPa) = 52.87764 62.50671 57.69218
# Shear Modulus (GPa) = 33.80934 44.05469 38.93201
#
# Velocity S-wave (km/s) = 3.89681 4.44823 4.18162
# Velocity P-wave (km/s) = 6.63297 7.37947 7.01616
#
# Compressibility (1/GPa) = 0.01891158
#
# Stress axis : x y z
#
# Youngs Moduli (GPa) = 119.36942 86.47353 84.10098
#
# Poissons Ratio (x) = 0.29383 -0.09103
# Poissons Ratio (y) = 0.40561 0.34857
# Poissons Ratio (z) = -0.12920 0.35840
#
# Static dielectric constant tensor:
#      x y z
#    x 1.826740 0.000990 -0.021820 
#    y 0.000990 1.851690 -0.030410 
#    z -0.021820 -0.030410 1.837430 
# 
# From -- ./inp_files/212087.got.cif
#   From: 2010.05.17/outbox.cif.g08.bks.cpg/sg2_107_cif.got.tgz:212087.got - 2010.06.03 11:33:40.
