data_PCOD9024302
_publ_section_title
;
Structure prediction by ZEFSAII (Michael W. Deem and Ramdas Pophale) SiO2 
 PCOD9024302
Probable space group: P -1
;
_chemical_formula_sum "Si O2"
_cell_formula_units_Z 12
_cell_length_a 6.888638
_cell_length_b 5.061159
_cell_length_c 18.958606
_cell_angle_alpha 68.330309
_cell_angle_beta 81.113859
_cell_angle_gamma 105.732544
_cell_volume 566.803769
_symmetry_space_group_name_H-M "P -1"
_symmetry_group_IT_number 2
_symmetry_cell_setting 'triclinic'
loop_
_space_group_symop_operation_xyz
x,y,z
-x,-y,-z
loop_
_atom_site_type_symbol
_atom_site_label
_atom_site_fract_x
_atom_site_fract_y
_atom_site_fract_z
Si Si1 0.695695 0.606738 0.157639
Si Si2 0.135834 0.856411 0.056497
Si Si3 0.499652 0.851426 0.660522
Si Si4 0.968044 0.156427 0.557713
Si Si5 0.376023 0.398191 0.590893
Si Si6 0.419198 0.809732 0.928830
O O1 0.584983 0.388624 0.249147
O O2 0.611067 0.434339 0.105994
O O3 0.947637 0.673425 0.137643
O O4 0.635686 0.908698 0.129012
O O5 0.344941 0.071688 0.064265
O O6 0.244074 0.689428 0.012690
O O7 0.000000 0.000000 0.000000
O O8 0.393188 0.684639 0.610169
O O9 0.745227 0.957807 0.620915
O O10 0.141904 0.197514 0.602638
O O11 0.463903 0.164934 0.647128
O O12 0.000000 0.500000 0.500000
O O13 0.000000 0.000000 0.500000
O O14 0.500000 0.500000 0.500000
#
# Coordination Sequence:
#
# PCOD9024302 Si02
#       6
#     2   2   2   2   2   2
#     4  11  24  40  61  90 131 160 202 253 306 358
#     4   9  21  40  66  94 123 165 206 246 298 358
#     4  12  25  41  61  94 122 160 205 257 308 364
#     4  12  23  39  63  86 115 154 200 252 305 363
#     4  12  23  41  66  87 120 157 208 257 308 366
#     4  10  22  40  64  91 125 165 206 244 296 366
#
# _framework density 21.171348999999999
#
# number of rings (size 3 to 8) (size 9 to 14) (size 15 to 20)
#    0.000    1.000    3.333    3.000    0.000   11.333 
#    0.000    0.000    0.000    0.000    0.000    0.000 
#    0.000    0.000    0.000    0.000    0.000    0.000 
#
# Total GULP energy -67052.368407 kJ/mol
# GULP energy per Si atom -5587.697367 kJ/mol
# Density = 2.112316 g / cm^3
# Si number density = 21.171349 Si / 1000 Ang^3
#
#
#
# Elastic Constant Matrix: (Units=GPa)
#
#
# Indices 1 2 3 4 5 6 
#
# 1 131.3141 7.9861 41.1372 -6.7304 -29.7405 32.8684
# 2 7.9861 78.5766 12.7150 1.5536 -8.8620 2.0964
# 3 41.1372 12.7150 108.2937 -24.2536 -31.0243 1.0513
# 4 -6.7304 1.5536 -24.2536 35.6196 6.2324 11.1253
# 5 -29.7405 -8.8620 -31.0243 6.2324 30.7210 -8.8151
# 6 32.8684 2.0964 1.0513 11.1253 -8.8151 40.9612
#
#
#
# Elastic Compliance Matrix: (Units=1/GPa)
#
#
# Indices 1 2 3 4 5 6 
#
# 1 0.012119 0.000034 -0.002074 0.002520 0.006569 -0.008943
# 2 0.000034 0.013304 -0.001082 -0.002094 0.003380 0.000616
# 3 -0.002074 -0.001082 0.015248 0.007297 0.012162 0.001964
# 4 0.002520 -0.002094 0.007297 0.038029 -0.002215 -0.012908
# 5 0.006569 0.003380 0.012162 -0.002215 0.054504 0.006575
# 6 -0.008943 0.000616 0.001964 -0.012908 0.006575 0.036429
#
#
# Mechanical properties :
#
#
# Convention : Reuss Voigt Hill
#
# Bulk Modulus (GPa) = 29.04706 49.09569 39.07137
# Shear Modulus (GPa) = 26.68760 38.55010 32.61885
#
# Velocity S-wave (km/s) = 3.55428 4.27179 3.92944
# Velocity P-wave (km/s) = 5.53115 6.89717 6.25158
#
# Compressibility (1/GPa) = 0.03442689
#
# Stress axis : x y z
#
# Youngs Moduli (GPa) = 82.51716 75.16435 65.58066
#
# Poissons Ratio (x) = -0.00253 0.13603
# Poissons Ratio (y) = -0.00278 0.07093
# Poissons Ratio (z) = 0.17116 0.08130
#
# Static dielectric constant tensor:
#      x y z
#    x 1.906370 -0.174150 0.072660 
#    y -0.174150 1.990150 -0.104070 
#    z 0.072660 -0.104070 1.808440 
# 
# From -- ./inp_files/580406.got.cif
#   From: 2010.05.17/outbox.cif.g08.bks.cpg/sg2_291_cif.got.tgz:580406.got - 2010.06.03 11:33:40.
