data_PCOD9024078
_publ_section_title
;
Structure prediction by ZEFSAII (Michael W. Deem and Ramdas Pophale) SiO2 
 PCOD9024078
Probable space group: P -1
;
_chemical_formula_sum "Si O2"
_cell_formula_units_Z 12
_cell_length_a 9.722526
_cell_length_b 9.193499
_cell_length_c 11.968833
_cell_angle_alpha 127.850540
_cell_angle_beta 144.679258
_cell_angle_gamma 55.632308
_cell_volume 483.593295
_symmetry_space_group_name_H-M "P -1"
_symmetry_group_IT_number 2
_symmetry_cell_setting 'triclinic'
loop_
_space_group_symop_operation_xyz
x,y,z
-x,-y,-z
loop_
_atom_site_type_symbol
_atom_site_label
_atom_site_fract_x
_atom_site_fract_y
_atom_site_fract_z
Si Si1 0.875348 0.817219 0.062935
Si Si2 0.883566 0.296227 0.062491
Si Si3 0.018334 0.278908 0.671064
Si Si4 0.385046 0.168706 0.428031
Si Si5 0.479069 0.560291 0.644608
Si Si6 0.517580 0.078929 0.829720
O O1 0.704788 0.654996 0.874041
O O2 0.041649 0.786262 0.049150
O O3 0.689944 0.006187 0.013062
O O4 0.016491 0.793617 0.260823
O O5 0.904808 0.513835 0.175760
O O6 0.096461 0.204874 0.243823
O O7 0.640488 0.235280 0.919281
O O8 0.245429 0.148745 0.711100
O O9 0.772416 0.303858 0.450164
O O10 0.460064 0.366957 0.602808
O O11 0.500000 0.000000 0.500000
O O12 0.461245 0.099519 0.321327
O O13 0.500000 0.500000 0.500000
#
# Coordination Sequence:
#
# PCOD9024078 Si02
#       6
#     2   2   2   2   2   2
#     4  11  22  43  67  93 123 173 209 254 314 376
#     4  10  22  42  63  92 124 166 217 246 308 392
#     4  11  24  41  67  93 129 165 203 270 321 355
#     4  10  22  40  63  91 124 169 207 258 309 373
#     4  11  22  42  64  92 126 161 224 249 302 392
#     4  11  23  42  61  97 129 158 213 261 315 374
#
# _framework density 24.814240000000002
#
# number of rings (size 3 to 8) (size 9 to 14) (size 15 to 20)
#    0.000    1.333    5.000    3.500    2.333    2.000 
#    3.000    1.667    0.000    0.000    0.000    0.000 
#    0.000    0.000    0.000    0.000    0.000    0.000 
#
# Total GULP energy -67266.811858 kJ/mol
# GULP energy per Si atom -5605.567655 kJ/mol
# Density = 2.475776 g / cm^3
# Si number density = 24.814240 Si / 1000 Ang^3
#
#
#
# Elastic Constant Matrix: (Units=GPa)
#
#
# Indices 1 2 3 4 5 6 
#
# 1 43.3304 12.2868 20.0167 -4.3564 12.7337 6.3297
# 2 12.2868 122.3248 24.1980 -24.7767 -4.5691 13.6321
# 3 20.0167 24.1980 85.9509 -15.1237 15.0475 12.7156
# 4 -4.3564 -24.7767 -15.1237 47.5239 7.1317 5.0262
# 5 12.7337 -4.5691 15.0475 7.1317 26.7744 -4.8023
# 6 6.3297 13.6321 12.7156 5.0262 -4.8023 48.0263
#
#
#
# Elastic Compliance Matrix: (Units=1/GPa)
#
#
# Indices 1 2 3 4 5 6 
#
# 1 0.030283 -0.001813 -0.002521 0.003802 -0.015154 -0.004722
# 2 -0.001813 0.009913 -0.001517 0.004516 0.001760 -0.002470
# 3 -0.002521 -0.001517 0.016512 0.006457 -0.011026 -0.005387
# 4 0.003802 0.004516 0.006457 0.028691 -0.013720 -0.007867
# 5 -0.015154 0.001760 -0.011026 -0.013720 0.056776 0.011530
# 6 -0.004722 -0.002470 -0.005387 -0.007867 0.011530 0.025548
#
#
# Mechanical properties :
#
#
# Convention : Reuss Voigt Hill
#
# Bulk Modulus (GPa) = 22.21902 40.51212 31.36557
# Shear Modulus (GPa) = 25.71662 37.47189 31.59426
#
# Velocity S-wave (km/s) = 3.22276 3.89021 3.57211
# Velocity P-wave (km/s) = 4.77722 6.04483 5.44801
#
# Compressibility (1/GPa) = 0.04500649
#
# Stress axis : x y z
#
# Youngs Moduli (GPa) = 33.02202 100.87941 60.56085
#
# Poissons Ratio (x) = 0.18286 0.15270
# Poissons Ratio (y) = 0.05986 0.09185
# Poissons Ratio (z) = 0.08326 0.15301
#
# Static dielectric constant tensor:
#      x y z
#    x 1.964040 0.034600 -0.012580 
#    y 0.034600 2.008690 -0.025870 
#    z -0.012580 -0.025870 1.987140 
# 
# From -- ./inp_files/166958.got.cif
#   From: 2010.05.17/outbox.cif.g08.bks.cpg/sg2_84_cif.got.tgz:166958.got - 2010.06.03 11:33:40.
