data_PCOD9024609
_publ_section_title
;
Structure prediction by ZEFSAII (Michael W. Deem and Ramdas Pophale) SiO2 
 PCOD9024609
Probable space group: P -1
;
_chemical_formula_sum "Si O2"
_cell_formula_units_Z 16
_cell_length_a 11.104099
_cell_length_b 8.526613
_cell_length_c 17.742025
_cell_angle_alpha 112.505487
_cell_angle_beta 149.564629
_cell_angle_gamma 68.586563
_cell_volume 783.925062
_symmetry_space_group_name_H-M "P -1"
_symmetry_group_IT_number 2
_symmetry_cell_setting 'triclinic'
loop_
_space_group_symop_operation_xyz
x,y,z
-x,-y,-z
loop_
_atom_site_type_symbol
_atom_site_label
_atom_site_fract_x
_atom_site_fract_y
_atom_site_fract_z
Si Si1 0.945970 0.454659 0.050141
Si Si2 0.441083 0.361801 0.381406
Si Si3 0.693947 0.958248 0.660279
Si Si4 0.400857 0.236873 0.048736
Si Si5 0.928198 0.881830 0.508886
Si Si6 0.565902 0.250301 0.751789
Si Si7 0.140173 0.912147 0.793079
Si Si8 0.662948 0.375490 0.350023
O O1 0.194618 0.418065 0.217563
O O2 0.792991 0.607485 0.036353
O O3 0.771765 0.301554 0.928257
O O4 0.000000 0.500000 0.000000
O O5 0.500000 0.500000 0.500000
O O6 0.405970 0.181943 0.366238
O O7 0.636735 0.349372 0.419509
O O8 0.500000 0.000000 0.500000
O O9 0.706084 0.136223 0.743059
O O10 0.934758 0.882372 0.736270
O O11 0.492817 0.256646 0.188134
O O12 0.646532 0.233310 0.133017
O O13 0.272559 0.070544 0.926273
O O14 0.648028 0.855243 0.353175
O O15 0.073272 0.696591 0.543783
O O16 0.000000 0.000000 0.500000
O O17 0.014933 0.946185 0.649670
O O18 0.433843 0.430277 0.684989
#
# Coordination Sequence:
#
# PCOD9024609 Si02
#       8
#     2   2   2   2   2   2   2   2
#     4  11  22  43  70  99 132 178 223 281 342 400
#     4  12  27  44  68 104 135 175 231 277 344 415
#     4  12  25  41  66  98 138 178 225 281 337 399
#     4   9  20  41  69  91 130 176 223 271 337 401
#     4  11  23  41  66  98 135 177 231 280 338 404
#     4  11  22  42  68  95 135 177 225 277 341 400
#     4  10  22  40  65  94 133 179 220 274 336 395
#     4  10  22  42  68  97 130 181 227 273 341 405
#
# _framework density 20.410114
#
# number of rings (size 3 to 8) (size 9 to 14) (size 15 to 20)
#    0.000    1.250    3.750    2.625    1.750    0.500 
#    6.750    0.625    0.000    0.000    0.000    0.000 
#    0.000    0.000    0.000    0.000    0.000    0.000 
#
# Total GULP energy -89311.630428 kJ/mol
# GULP energy per Si atom -5581.976902 kJ/mol
# Density = 2.036366 g / cm^3
# Si number density = 20.410114 Si / 1000 Ang^3
#
#
#
# Elastic Constant Matrix: (Units=GPa)
#
#
# Indices 1 2 3 4 5 6 
#
# 1 100.0613 31.3284 28.8828 12.1995 2.8888 -12.3715
# 2 31.3284 81.3284 25.2109 7.5853 -11.8795 -18.5506
# 3 28.8828 25.2109 82.7769 5.2912 0.5059 0.5762
# 4 12.1995 7.5853 5.2912 30.2967 -7.4833 0.9183
# 5 2.8888 -11.8795 0.5059 -7.4833 34.0487 -0.5938
# 6 -12.3715 -18.5506 0.5762 0.9183 -0.5938 38.3699
#
#
#
# Elastic Compliance Matrix: (Units=1/GPa)
#
#
# Indices 1 2 3 4 5 6 
#
# 1 0.012982 -0.003454 -0.003177 -0.004689 -0.003244 0.002626
# 2 -0.003454 0.017707 -0.004220 -0.000941 0.006460 0.007633
# 3 -0.003177 -0.004220 0.014539 -0.000495 -0.001585 -0.003296
# 4 -0.004689 -0.000941 -0.000495 0.037334 0.008235 -0.002725
# 5 -0.003244 0.006460 -0.001585 0.008235 0.033774 0.002427
# 6 0.002626 0.007633 -0.003296 -0.002725 0.002427 0.030751
#
#
# Mechanical properties :
#
#
# Convention : Reuss Voigt Hill
#
# Bulk Modulus (GPa) = 42.50529 48.33454 45.41992
# Shear Modulus (GPa) = 28.30771 32.45935 30.38353
#
# Velocity S-wave (km/s) = 3.72821 3.99225 3.86249
# Velocity P-wave (km/s) = 6.27723 6.70700 6.49567
#
# Compressibility (1/GPa) = 0.02352648
#
# Stress axis : x y z
#
# Youngs Moduli (GPa) = 77.02915 56.47524 68.78206
#
# Poissons Ratio (x) = 0.19505 0.21849
# Poissons Ratio (y) = 0.26604 0.29028
# Poissons Ratio (z) = 0.24469 0.23834
#
# Static dielectric constant tensor:
#      x y z
#    x 2.054450 -0.336560 -0.231440 
#    y -0.336560 2.044420 0.237750 
#    z -0.231440 0.237750 1.917030 
# 
# From -- ./inp_files/495533.got.cif
#   From: 2010.05.17/outbox.cif.g08.bks.cpg/sg2_248_cif.got.tgz:495533.got - 2010.06.03 11:33:40.
