data_PCOD9024785
_publ_section_title
;
Structure prediction by ZEFSAII (Michael W. Deem and Ramdas Pophale) SiO2 
 PCOD9024785
Probable space group: P -1
;
_chemical_formula_sum "Si O2"
_cell_formula_units_Z 15
_cell_length_a 20.609710
_cell_length_b 7.520902
_cell_length_c 7.289915
_cell_angle_alpha 123.450212
_cell_angle_beta 47.122168
_cell_angle_gamma 111.546687
_cell_volume 690.834733
_symmetry_space_group_name_H-M "P -1"
_symmetry_group_IT_number 2
_symmetry_cell_setting 'triclinic'
loop_
_space_group_symop_operation_xyz
x,y,z
-x,-y,-z
loop_
_atom_site_type_symbol
_atom_site_label
_atom_site_fract_x
_atom_site_fract_y
_atom_site_fract_z
Si Si1 0.788312 0.316329 0.783111
Si Si2 0.630744 0.647512 0.351478
Si Si3 0.000000 0.000000 0.000000
Si Si4 0.527751 0.459862 0.132084
Si Si5 0.900587 0.713573 0.741054
Si Si6 0.320333 0.871970 0.429352
Si Si7 0.205421 0.910114 0.990559
Si Si8 0.017321 0.732837 0.169793
O O1 0.873408 0.466768 0.678870
O O2 0.761001 0.208797 0.583927
O O3 0.792617 0.132484 0.822252
O O4 0.711075 0.478604 0.090297
O O5 0.583358 0.638994 0.236982
O O6 0.557506 0.580098 0.601763
O O7 0.663081 0.878898 0.476572
O O8 0.064511 0.180457 0.080619
O O9 0.981841 0.894892 0.176990
O O10 0.500000 0.500000 0.000000
O O11 0.594135 0.256870 0.877940
O O12 0.971413 0.746173 0.462261
O O13 0.816749 0.850261 0.899117
O O14 0.292511 0.831840 0.670632
O O15 0.121286 0.776168 0.010148
O O16 0.000000 0.500000 0.000000
#
# Coordination Sequence:
#
# PCOD9024785 Si02
#       8
#     2   2   1   2   2   2   2   2
#     4  11  24  43  64  93 135 172 213 273 323 377
#     4  10  22  43  63  96 133 164 216 263 313 388
#     4  10  22  40  66  88 124 170 214 274 328 376
#     4  10  22  40  68  96 129 170 211 259 319 384
#     4  11  24  43  64  95 130 172 225 275 325 391
#     4  11  23  41  65  96 132 171 215 262 324 386
#     4  11  23  40  62  94 125 169 218 263 325 387
#     4  11  24  41  62  92 126 168 223 271 325 393
#
# _framework density 21.712862999999999
#
# number of rings (size 3 to 8) (size 9 to 14) (size 15 to 20)
#    0.000    1.333    1.333    4.400    0.000    9.067 
#    4.800    0.000    0.000    0.000    0.000    0.000 
#    0.000    0.000    0.000    0.000    0.000    0.000 
#
# Total GULP energy -83590.157606 kJ/mol
# GULP energy per Si atom -5572.677174 kJ/mol
# Density = 2.166344 g / cm^3
# Si number density = 21.712863 Si / 1000 Ang^3
#
#
#
# Elastic Constant Matrix: (Units=GPa)
#
#
# Indices 1 2 3 4 5 6 
#
# 1 62.9898 20.1861 21.9146 -1.7515 25.2779 -0.6952
# 2 20.1861 74.8359 16.3978 4.7237 12.7651 11.3513
# 3 21.9146 16.3978 93.2632 -9.8605 -0.8740 -1.2132
# 4 -1.7515 4.7237 -9.8605 39.7514 3.5551 6.6985
# 5 25.2779 12.7651 -0.8740 3.5551 40.6919 -5.1949
# 6 -0.6952 11.3513 -1.2132 6.6985 -5.1949 24.6168
#
#
#
# Elastic Compliance Matrix: (Units=1/GPa)
#
#
# Indices 1 2 3 4 5 6 
#
# 1 0.024619 -0.002754 -0.005279 0.001764 -0.014943 -0.001929
# 2 -0.002754 0.016840 -0.002563 -0.000872 -0.004663 -0.008716
# 3 -0.005279 -0.002563 0.012746 0.002522 0.004379 0.001899
# 4 0.001764 -0.000872 0.002522 0.027657 -0.004184 -0.007832
# 5 -0.014943 -0.004663 0.004379 -0.004184 0.037176 0.010928
# 6 -0.001929 -0.008716 0.001899 -0.007832 0.010928 0.049118
#
#
# Mechanical properties :
#
#
# Convention : Reuss Voigt Hill
#
# Bulk Modulus (GPa) = 30.29169 38.67621 34.48395
# Shear Modulus (GPa) = 24.95596 32.51802 28.73699
#
# Velocity S-wave (km/s) = 3.39390 3.87413 3.64194
# Velocity P-wave (km/s) = 5.41659 6.15330 5.79666
#
# Compressibility (1/GPa) = 0.03301236
#
# Stress axis : x y z
#
# Youngs Moduli (GPa) = 40.61829 59.38390 78.45654
#
# Poissons Ratio (x) = 0.16353 0.41421
# Poissons Ratio (y) = 0.11186 0.20109
# Poissons Ratio (z) = 0.21444 0.15220
#
# Static dielectric constant tensor:
#      x y z
#    x 1.824430 -0.024710 -0.052030 
#    y -0.024710 1.766930 0.031110 
#    z -0.052030 0.031110 1.818800 
# 
# From -- ./inp_files/117295.got.cif
#   From: 2010.05.17/outbox.cif.g08.bks.cpg/sg2_59_cif.got.tgz:117295.got - 2010.06.03 11:33:40.
