data_PCOD9024372
_publ_section_title
;
Structure prediction by ZEFSAII (Michael W. Deem and Ramdas Pophale) SiO2 
 PCOD9024372
Probable space group: P -1
;
_chemical_formula_sum "Si O2"
_cell_formula_units_Z 14
_cell_length_a 16.196572
_cell_length_b 9.002004
_cell_length_c 18.083671
_cell_angle_alpha 42.811836
_cell_angle_beta 23.427617
_cell_angle_gamma 55.365096
_cell_volume 656.679745
_symmetry_space_group_name_H-M "P -1"
_symmetry_group_IT_number 2
_symmetry_cell_setting 'triclinic'
loop_
_space_group_symop_operation_xyz
x,y,z
-x,-y,-z
loop_
_atom_site_type_symbol
_atom_site_label
_atom_site_fract_x
_atom_site_fract_y
_atom_site_fract_z
Si Si1 0.053191 0.988999 0.044714
Si Si2 0.997766 0.087648 0.680652
Si Si3 0.273309 0.772899 0.264045
Si Si4 0.478479 0.405886 0.185559
Si Si5 0.185834 0.386730 0.903952
Si Si6 0.108502 0.602207 0.217586
Si Si7 0.463914 0.238699 0.421097
O O1 0.162230 0.799785 0.037518
O O2 0.805374 0.859381 0.331199
O O3 0.187842 0.238558 0.882350
O O4 0.000000 0.000000 0.000000
O O5 0.902386 0.141026 0.663619
O O6 0.915473 0.248177 0.746237
O O7 0.265825 0.166978 0.428239
O O8 0.895064 0.820565 0.892151
O O9 0.359177 0.593194 0.216119
O O10 0.130463 0.621026 0.506427
O O11 0.500000 0.000000 0.000000
O O12 0.550433 0.373280 0.222849
O O13 0.681593 0.472565 0.936521
O O14 0.415564 0.582224 0.676237
O O15 0.000000 0.500000 0.000000
O O16 0.500000 0.000000 0.500000
#
# Coordination Sequence:
#
# PCOD9024372 Si02
#       7
#     2   2   2   2   2   2   2
#     4  11  23  42  64  98 135 169 225 280 330 398
#     4  10  22  41  64  95 127 167 224 275 330 397
#     4  11  23  41  64  92 132 171 219 276 330 396
#     4  11  21  41  66  91 128 176 215 275 335 390
#     4  11  22  40  66  97 128 176 224 265 342 403
#     4  10  22  40  64  94 127 170 220 270 334 391
#     4  12  21  39  67  93 132 179 218 273 333 393
#
# _framework density 21.319372999999999
#
# number of rings (size 3 to 8) (size 9 to 14) (size 15 to 20)
#    0.000    1.143    5.714    3.429    0.000    3.429 
#    0.000    2.857    0.000    0.000    0.000    0.000 
#    0.000    0.000    0.000    0.000    0.000    0.000 
#
# Total GULP energy -78009.009580 kJ/mol
# GULP energy per Si atom -5572.072113 kJ/mol
# Density = 2.127085 g / cm^3
# Si number density = 21.319373 Si / 1000 Ang^3
#
#
#
# Elastic Constant Matrix: (Units=GPa)
#
#
# Indices 1 2 3 4 5 6 
#
# 1 86.4432 18.0525 7.1816 -15.9071 -12.5362 -4.9382
# 2 18.0525 75.4626 39.4875 -7.7945 1.2298 -13.5405
# 3 7.1816 39.4875 97.8802 -5.0467 -9.6430 25.2985
# 4 -15.9071 -7.7945 -5.0467 47.2102 1.6857 -1.6380
# 5 -12.5362 1.2298 -9.6430 1.6857 32.9780 -6.4714
# 6 -4.9382 -13.5405 25.2985 -1.6380 -6.4714 28.5349
#
#
#
# Elastic Compliance Matrix: (Units=1/GPa)
#
#
# Indices 1 2 3 4 5 6 
#
# 1 0.013829 -0.002583 0.000135 0.004134 0.005687 0.002575
# 2 -0.002583 0.030723 -0.020523 0.003192 -0.002001 0.032056
# 3 0.000135 -0.020523 0.027279 -0.001671 0.002310 -0.033472
# 4 0.004134 0.003192 -0.001671 0.023075 0.000809 0.005219
# 5 0.005687 -0.002001 0.002310 0.000809 0.034336 0.005820
# 6 0.002575 0.032056 -0.033472 0.005219 0.005820 0.081997
#
#
# Mechanical properties :
#
#
# Convention : Reuss Voigt Hill
#
# Bulk Modulus (GPa) = 38.62506 43.24768 40.93637
# Shear Modulus (GPa) = 18.81043 34.74889 26.77966
#
# Velocity S-wave (km/s) = 2.97360 4.04161 3.54802
# Velocity P-wave (km/s) = 5.47233 6.48915 6.00231
#
# Compressibility (1/GPa) = 0.02588993
#
# Stress axis : x y z
#
# Youngs Moduli (GPa) = 72.31233 32.54911 36.65821
#
# Poissons Ratio (x) = 0.08406 -0.00495
# Poissons Ratio (y) = 0.18675 0.75233
# Poissons Ratio (z) = -0.00977 0.66800
#
# Static dielectric constant tensor:
#      x y z
#    x 1.899670 -0.047050 0.027820 
#    y -0.047050 1.886070 -0.009280 
#    z 0.027820 -0.009280 1.853810 
# 
# From -- ./inp_files/505075.got.cif
#   From: 2010.05.17/outbox.cif.g08.bks.cpg/sg2_253_cif.got.tgz:505075.got - 2010.06.03 11:33:40.
