data_PCOD9024504
_publ_section_title
;
Structure prediction by ZEFSAII (Michael W. Deem and Ramdas Pophale) SiO2 
 PCOD9024504
Probable space group: P -1
;
_chemical_formula_sum "Si O2"
_cell_formula_units_Z 16
_cell_length_a 10.596614
_cell_length_b 5.509670
_cell_length_c 12.467397
_cell_angle_alpha 85.920299
_cell_angle_beta 98.650879
_cell_angle_gamma 117.930846
_cell_volume 635.788088
_symmetry_space_group_name_H-M "P -1"
_symmetry_group_IT_number 2
_symmetry_cell_setting 'triclinic'
loop_
_space_group_symop_operation_xyz
x,y,z
-x,-y,-z
loop_
_atom_site_type_symbol
_atom_site_label
_atom_site_fract_x
_atom_site_fract_y
_atom_site_fract_z
Si Si1 0.254607 0.856095 0.250905
Si Si2 0.351398 0.535346 0.531330
Si Si3 0.291218 0.431941 0.750869
Si Si4 0.213336 0.336008 0.127153
Si Si5 0.642591 0.262999 0.051714
Si Si6 0.892924 0.140906 0.163141
Si Si7 0.977346 0.499965 0.368263
Si Si8 0.344169 0.058269 0.466199
O O1 0.263294 0.600835 0.205311
O O2 0.120539 0.729339 0.321781
O O3 0.235699 0.073036 0.166874
O O4 0.374201 0.028160 0.346794
O O5 0.371836 0.435019 0.653726
O O6 0.262443 0.244767 0.467165
O O7 0.497185 0.726776 0.480482
O O8 0.294753 0.765501 0.524554
O O9 0.387542 0.680319 0.832568
O O10 0.149929 0.431729 0.682435
O O11 0.223753 0.171099 0.826311
O O12 0.038374 0.216515 0.112712
O O13 0.309180 0.483174 0.031401
O O14 0.796365 0.258818 0.088088
O O15 0.500000 0.000000 0.000000
O O16 0.939785 0.242433 0.290107
O O17 0.000000 0.500000 0.500000
#
# Coordination Sequence:
#
# PCOD9024504 Si02
#       8
#     2   2   2   2   2   2   2   2
#     4  11  23  41  69 102 137 183 238 283 347 423
#     4  10  23  39  65  93 137 183 228 280 350 425
#     4  11  24  42  69 100 138 177 234 292 355 415
#     4  11  25  47  71 102 140 187 238 294 354 427
#     4  11  28  47  72 102 136 186 243 304 365 410
#     4  10  24  46  69 103 138 186 236 288 361 428
#     4  10  22  40  65 103 142 180 225 284 345 423
#     4  10  22  42  62  97 134 189 226 274 353 423
#
# _framework density 25.165620000000001
#
# number of rings (size 3 to 8) (size 9 to 14) (size 15 to 20)
#    0.000    1.500    1.250    1.875    8.750    3.500 
#    0.000    0.000    0.000    0.000    0.000    0.000 
#    0.000    0.000    0.000    0.000    0.000    0.000 
#
# Total GULP energy -89137.899425 kJ/mol
# GULP energy per Si atom -5571.118714 kJ/mol
# Density = 2.510834 g / cm^3
# Si number density = 25.165620 Si / 1000 Ang^3
#
#
#
# Elastic Constant Matrix: (Units=GPa)
#
#
# Indices 1 2 3 4 5 6 
#
# 1 35.8934 6.9203 16.0160 5.7643 -7.2746 13.2824
# 2 6.9203 111.0666 32.9929 -0.0347 -4.1791 -14.0515
# 3 16.0160 32.9929 122.5048 6.3334 -8.2504 5.2805
# 4 5.7643 -0.0347 6.3334 48.3572 -0.3919 -4.5099
# 5 -7.2746 -4.1791 -8.2504 -0.3919 31.7403 -5.3079
# 6 13.2824 -14.0515 5.2805 -4.5099 -5.3079 29.9946
#
#
#
# Elastic Compliance Matrix: (Units=1/GPa)
#
#
# Indices 1 2 3 4 5 6 
#
# 1 0.038432 -0.003787 -0.002602 -0.005926 0.004477 -0.018433
# 2 -0.003787 0.011119 -0.002838 0.001571 0.001187 0.007832
# 3 -0.002602 -0.002838 0.009481 -0.001092 0.001180 -0.001802
# 4 -0.005926 0.001571 -0.001092 0.022172 -0.000010 0.006884
# 5 0.004477 0.001187 0.001180 -0.000010 0.033719 0.004331
# 6 -0.018433 0.007832 -0.001802 0.006884 0.004331 0.047290
#
#
# Mechanical properties :
#
#
# Convention : Reuss Voigt Hill
#
# Bulk Modulus (GPa) = 24.64455 42.36926 33.50690
# Shear Modulus (GPa) = 25.74757 36.25412 31.00085
#
# Velocity S-wave (km/s) = 3.20210 3.79967 3.51361
# Velocity P-wave (km/s) = 4.84618 6.01022 5.45931
#
# Compressibility (1/GPa) = 0.04057693
#
# Stress axis : x y z
#
# Youngs Moduli (GPa) = 26.02000 89.93870 105.47310
#
# Poissons Ratio (x) = 0.34061 0.27445
# Poissons Ratio (y) = 0.09854 0.29935
# Poissons Ratio (z) = 0.06771 0.25526
#
# Static dielectric constant tensor:
#      x y z
#    x 2.150570 -0.046760 0.050670 
#    y -0.046760 2.202980 0.139470 
#    z 0.050670 0.139470 2.104070 
# 
# From -- ./inp_files/410592.got.cif
#   From: 2010.05.17/outbox.cif.g08.bks.cpg/sg2_206_cif.got.tgz:410592.got - 2010.06.03 11:33:40.
