data_PCOD9024458
_publ_section_title
;
Structure prediction by ZEFSAII (Michael W. Deem and Ramdas Pophale) SiO2 
 PCOD9024458
Probable space group: P -1
;
_chemical_formula_sum "Si O2"
_cell_formula_units_Z 16
_cell_length_a 10.858911
_cell_length_b 18.682957
_cell_length_c 13.908938
_cell_angle_alpha 29.634675
_cell_angle_beta 31.817548
_cell_angle_gamma 33.394427
_cell_volume 683.567194
_symmetry_space_group_name_H-M "P -1"
_symmetry_group_IT_number 2
_symmetry_cell_setting 'triclinic'
loop_
_space_group_symop_operation_xyz
x,y,z
-x,-y,-z
loop_
_atom_site_type_symbol
_atom_site_label
_atom_site_fract_x
_atom_site_fract_y
_atom_site_fract_z
Si Si1 0.508353 0.530607 0.694487
Si Si2 0.001733 0.526027 0.259021
Si Si3 0.836509 0.212320 0.236603
Si Si4 0.688063 0.205936 0.040563
Si Si5 0.304582 0.437120 0.753763
Si Si6 0.404440 0.204358 0.407565
Si Si7 0.625609 0.923688 0.906454
Si Si8 0.245023 0.034346 0.869746
O O1 0.746855 0.550309 0.459366
O O2 0.339224 0.681627 0.687755
O O3 0.330452 0.483697 0.791733
O O4 0.618575 0.388948 0.861994
O O5 0.947815 0.483535 0.234548
O O6 0.234857 0.387364 0.311011
O O7 0.068066 0.677642 0.023389
O O8 0.662983 0.154973 0.352239
O O9 0.087411 0.092330 0.257017
O O10 0.484812 0.172323 0.281088
O O11 0.700028 0.138586 0.003850
O O12 0.968215 0.117442 0.998158
O O13 0.500000 0.500000 0.500000
O O14 0.369270 0.252695 0.908006
O O15 0.248379 0.122883 0.664702
O O16 0.458646 0.026470 0.811901
O O17 0.500000 0.000000 0.000000
#
# Coordination Sequence:
#
# PCOD9024458 Si02
#       8
#     2   2   2   2   2   2   2   2
#     4  11  21  42  69 100 128 170 226 278 337 390
#     4  10  22  40  64  98 132 167 219 279 333 391
#     4  11  26  42  67  97 136 173 224 279 332 393
#     4  11  23  41  68  96 135 172 225 279 324 406
#     4   9  21  40  69 100 129 172 225 280 331 393
#     4  12  24  42  63 100 134 179 222 271 335 400
#     4  11  24  46  70  97 139 182 222 276 342 406
#     4  11  25  44  67  96 136 182 222 268 345 399
#
# _framework density 23.406621999999999
#
# number of rings (size 3 to 8) (size 9 to 14) (size 15 to 20)
#    0.000    1.250    3.750    1.500    0.000    8.000 
#    0.000    5.000    0.000    0.000    0.000    0.000 
#    0.000    0.000    0.000    0.000    0.000    0.000 
#
# Total GULP energy -89427.508542 kJ/mol
# GULP energy per Si atom -5589.219284 kJ/mol
# Density = 2.335335 g / cm^3
# Si number density = 23.406622 Si / 1000 Ang^3
#
#
#
# Elastic Constant Matrix: (Units=GPa)
#
#
# Indices 1 2 3 4 5 6 
#
# 1 94.0715 34.9827 2.0747 11.8568 3.1674 -6.4953
# 2 34.9827 93.9415 11.1714 28.7216 17.9127 -2.8287
# 3 2.0747 11.1714 95.6063 15.2807 10.5881 -1.3567
# 4 11.8568 28.7216 15.2807 31.7143 2.2947 3.3537
# 5 3.1674 17.9127 10.5881 2.2947 31.4927 1.5039
# 6 -6.4953 -2.8287 -1.3567 3.3537 1.5039 40.5312
#
#
#
# Elastic Compliance Matrix: (Units=1/GPa)
#
#
# Indices 1 2 3 4 5 6 
#
# 1 0.012530 -0.004600 0.000303 -0.000937 0.001240 0.001729
# 2 -0.004600 0.018895 0.001507 -0.015654 -0.009760 0.002289
# 3 0.000303 0.001507 0.011911 -0.007033 -0.004442 0.001299
# 4 -0.000937 -0.015654 -0.007033 0.049487 0.008037 -0.005871
# 5 0.001240 -0.009760 -0.004442 0.008037 0.038217 -0.002714
# 6 0.001729 0.002289 0.001299 -0.005871 -0.002714 0.025739
#
#
# Mechanical properties :
#
#
# Convention : Reuss Voigt Hill
#
# Bulk Modulus (GPa) = 26.48606 42.23078 34.35842
# Shear Modulus (GPa) = 28.58052 36.44035 32.51043
#
# Velocity S-wave (km/s) = 3.49813 3.94996 3.73089
# Velocity P-wave (km/s) = 5.25891 6.23573 5.76803
#
# Compressibility (1/GPa) = 0.03775571
#
# Stress axis : x y z
#
# Youngs Moduli (GPa) = 79.80978 52.92514 83.95334
#
# Poissons Ratio (x) = 0.24345 -0.02540
# Poissons Ratio (y) = 0.36712 -0.12655
# Poissons Ratio (z) = -0.02414 -0.07978
#
# Static dielectric constant tensor:
#      x y z
#    x 1.915870 0.000330 -0.014450 
#    y 0.000330 1.881440 -0.013810 
#    z -0.014450 -0.013810 1.901770 
# 
# From -- ./inp_files/524035.got.cif
#   From: 2010.05.17/outbox.cif.g08.bks.cpg/sg2_263_cif.got.tgz:524035.got - 2010.06.03 11:33:40.
