data_PCOD9024030
_publ_section_title
;
Structure prediction by ZEFSAII (Michael W. Deem and Ramdas Pophale) SiO2 
 PCOD9024030
Probable space group: P -1
;
_chemical_formula_sum "Si O2"
_cell_formula_units_Z 14
_cell_length_a 9.842409
_cell_length_b 6.378570
_cell_length_c 23.401828
_cell_angle_alpha 123.900872
_cell_angle_beta 147.584743
_cell_angle_gamma 56.178596
_cell_volume 641.417403
_symmetry_space_group_name_H-M "P -1"
_symmetry_group_IT_number 2
_symmetry_cell_setting 'triclinic'
loop_
_space_group_symop_operation_xyz
x,y,z
-x,-y,-z
loop_
_atom_site_type_symbol
_atom_site_label
_atom_site_fract_x
_atom_site_fract_y
_atom_site_fract_z
Si Si1 0.500514 0.803470 0.053198
Si Si2 0.202796 0.417001 0.609467
Si Si3 0.867816 0.247848 0.558801
Si Si4 0.723753 0.690762 0.665397
Si Si5 0.311602 0.483586 0.249987
Si Si6 0.310121 0.925347 0.735950
Si Si7 0.078485 0.105327 0.874820
O O1 0.707900 0.886364 0.096460
O O2 0.589218 0.875054 0.157747
O O3 0.500000 0.500000 0.000000
O O4 0.229362 0.985774 0.966724
O O5 0.468913 0.347668 0.658423
O O6 0.263366 0.656865 0.705530
O O7 0.000000 0.500000 0.500000
O O8 0.064352 0.254135 0.577556
O O9 0.808133 0.515035 0.613388
O O10 0.586014 0.209777 0.433436
O O11 0.035371 0.044017 0.629359
O O12 0.773541 0.518331 0.714981
O O13 0.892633 0.909305 0.762932
O O14 0.463098 0.193510 0.246272
O O15 0.089096 0.605107 0.145064
#
# Coordination Sequence:
#
# PCOD9024030 Si02
#       7
#     2   2   2   2   2   2   2
#     4  11  24  48  69  92 127 172 224 276 324 384
#     4  10  22  40  62  98 139 175 207 254 326 393
#     4  11  22  39  65  96 136 176 214 259 325 387
#     4  11  24  40  64 100 132 172 220 267 316 393
#     4  10  24  39  64  97 134 166 215 263 322 388
#     4  10  24  39  67  95 131 171 217 263 321 389
#     4  11  24  42  69  91 127 173 215 274 330 375
#
# _framework density 21.82666
#
# number of rings (size 3 to 8) (size 9 to 14) (size 15 to 20)
#    0.857    0.571    1.429    3.429    4.000    2.857 
#    0.000    6.429    0.000    0.000    0.000    0.000 
#    0.000    0.000    0.000    0.000    0.000    0.000 
#
# Total GULP energy -78018.344712 kJ/mol
# GULP energy per Si atom -5572.738908 kJ/mol
# Density = 2.177698 g / cm^3
# Si number density = 21.826660 Si / 1000 Ang^3
#
#
#
# Elastic Constant Matrix: (Units=GPa)
#
#
# Indices 1 2 3 4 5 6 
#
# 1 71.8463 17.0862 15.6931 13.5375 9.3806 13.3600
# 2 17.0862 76.4831 53.5985 -0.9747 1.1730 3.2044
# 3 15.6931 53.5985 108.4966 -2.9291 9.5329 5.3038
# 4 13.5375 -0.9747 -2.9291 53.3407 -3.3510 10.3448
# 5 9.3806 1.1730 9.5329 -3.3510 29.2271 0.3545
# 6 13.3600 3.2044 5.3038 10.3448 0.3545 26.4793
#
#
#
# Elastic Compliance Matrix: (Units=1/GPa)
#
#
# Indices 1 2 3 4 5 6 
#
# 1 0.017475 -0.003556 -0.000019 -0.003520 -0.005779 -0.006930
# 2 -0.003556 0.020905 -0.010163 0.000775 0.003694 0.000948
# 3 -0.000019 -0.010163 0.014731 0.000736 -0.004283 -0.001941
# 4 -0.003520 0.000775 0.000736 0.021227 0.003375 -0.006803
# 5 -0.005779 0.003694 -0.004283 0.003375 0.037687 0.001504
# 6 -0.006930 0.000948 -0.001941 -0.006803 0.001504 0.044174
#
#
# Mechanical properties :
#
#
# Convention : Reuss Voigt Hill
#
# Bulk Modulus (GPa) = 39.01017 47.73131 43.37074
# Shear Modulus (GPa) = 26.01187 33.17263 29.59225
#
# Velocity S-wave (km/s) = 3.45591 3.90272 3.68609
# Velocity P-wave (km/s) = 5.81687 6.49801 6.16685
#
# Compressibility (1/GPa) = 0.02563434
#
# Stress axis : x y z
#
# Youngs Moduli (GPa) = 57.22442 47.83607 67.88284
#
# Poissons Ratio (x) = 0.17012 0.00131
# Poissons Ratio (y) = 0.20351 0.68988
# Poissons Ratio (z) = 0.00110 0.48615
#
# Static dielectric constant tensor:
#      x y z
#    x 0.254870 -0.514510 0.070060 
#    y -0.514510 1.701410 -0.015520 
#    z 0.070060 -0.015520 1.795710 
# 
# From -- ./inp_files/617807.got.cif
#   From: 2010.05.17/outbox.cif.g08.bks.cpg/sg2_309_cif.got.tgz:617807.got - 2010.06.03 11:33:40.
