data_PCOD9024610
_publ_section_title
;
Structure prediction by ZEFSAII (Michael W. Deem and Ramdas Pophale) SiO2 
 PCOD9024610
Probable space group: P -1
;
_chemical_formula_sum "Si O2"
_cell_formula_units_Z 14
_cell_length_a 7.841922
_cell_length_b 12.168401
_cell_length_c 20.639031
_cell_angle_alpha 29.492129
_cell_angle_beta 111.751107
_cell_angle_gamma 128.193906
_cell_volume 686.777194
_symmetry_space_group_name_H-M "P -1"
_symmetry_group_IT_number 2
_symmetry_cell_setting 'triclinic'
loop_
_space_group_symop_operation_xyz
x,y,z
-x,-y,-z
loop_
_atom_site_type_symbol
_atom_site_label
_atom_site_fract_x
_atom_site_fract_y
_atom_site_fract_z
Si Si1 0.780787 0.733329 0.413195
Si Si2 0.784427 0.987685 0.454387
Si Si3 0.875330 0.760425 0.944926
Si Si4 0.249445 0.420419 0.650913
Si Si5 0.808910 0.159799 0.509679
Si Si6 0.408052 0.382011 0.153983
Si Si7 0.996785 0.341864 0.170765
O O1 0.500000 0.500000 0.500000
O O2 0.833424 0.633130 0.407932
O O3 0.934998 0.757455 0.481416
O O4 0.849717 0.048875 0.256178
O O5 0.539488 0.662232 0.570300
O O6 0.735866 0.087457 0.461963
O O7 0.888023 0.206623 0.296132
O O8 0.000000 0.000000 0.500000
O O9 0.734124 0.744312 0.870000
O O10 0.683712 0.624938 0.046503
O O11 0.945418 0.560407 0.040734
O O12 0.113287 0.091156 0.823912
O O13 0.169639 0.572209 0.601382
O O14 0.635975 0.875588 0.677794
O O15 0.270960 0.471614 0.129238
#
# Coordination Sequence:
#
# PCOD9024610 Si02
#       7
#     2   2   2   2   2   2   2
#     4  11  21  37  67 102 124 164 223 280 320 378
#     4  12  23  46  68  93 127 177 223 271 335 385
#     4  11  24  40  63 102 135 175 208 271 331 405
#     4  12  24  40  66 103 128 166 229 274 324 391
#     4  11  23  43  67  94 131 171 221 275 327 383
#     4  10  22  40  65  94 134 174 210 260 341 384
#     4  11  22  43  68  92 138 170 215 267 340 382
#
# _framework density 20.385066999999999
#
# number of rings (size 3 to 8) (size 9 to 14) (size 15 to 20)
#    0.000    0.857    7.143    2.143    0.000    1.143 
#    2.571    3.571    0.000    0.000    0.000    0.000 
#    0.000    0.000    0.000    0.000    0.000    0.000 
#
# Total GULP energy -78087.562304 kJ/mol
# GULP energy per Si atom -5577.683022 kJ/mol
# Density = 2.033867 g / cm^3
# Si number density = 20.385067 Si / 1000 Ang^3
#
#
#
# Elastic Constant Matrix: (Units=GPa)
#
#
# Indices 1 2 3 4 5 6 
#
# 1 107.4427 29.9892 55.1567 -15.3263 -6.2087 -11.7061
# 2 29.9892 108.6883 47.3228 -3.0108 -0.7902 -19.3096
# 3 55.1567 47.3228 89.3306 -3.7139 4.4577 -7.0986
# 4 -15.3263 -3.0108 -3.7139 23.5145 -7.4738 -2.4358
# 5 -6.2087 -0.7902 4.4577 -7.4738 38.2795 -2.2120
# 6 -11.7061 -19.3096 -7.0986 -2.4358 -2.2120 42.9804
#
#
#
# Elastic Compliance Matrix: (Units=1/GPa)
#
#
# Indices 1 2 3 4 5 6 
#
# 1 0.017018 0.001062 -0.010548 0.012125 0.006632 0.004399
# 2 0.001062 0.013024 -0.007144 0.002421 0.002046 0.005203
# 3 -0.010548 -0.007144 0.021248 -0.006617 -0.005812 -0.003247
# 4 0.012125 0.002421 -0.006617 0.054853 0.013909 0.007122
# 5 0.006632 0.002046 -0.005812 0.013909 0.030873 0.004143
# 6 0.004399 0.005203 -0.003247 0.007122 0.004143 0.026883
#
#
# Mechanical properties :
#
#
# Convention : Reuss Voigt Hill
#
# Bulk Modulus (GPa) = 55.45503 63.37767 59.41635
# Shear Modulus (GPa) = 24.61027 32.48772 28.54899
#
# Velocity S-wave (km/s) = 3.47835 3.99645 3.74637
# Velocity P-wave (km/s) = 6.58746 7.24246 6.92271
#
# Compressibility (1/GPa) = 0.01803263
#
# Stress axis : x y z
#
# Youngs Moduli (GPa) = 58.76296 76.78056 47.06314
#
# Poissons Ratio (x) = -0.08158 0.49640
# Poissons Ratio (y) = -0.06243 0.33620
# Poissons Ratio (z) = 0.61980 0.54848
#
# Static dielectric constant tensor:
#      x y z
#    x 1.809920 -0.025220 -0.046210 
#    y -0.025220 1.720690 0.037360 
#    z -0.046210 0.037360 1.740420 
# 
# From -- ./inp_files/215837.got.cif
#   From: 2010.05.17/outbox.cif.g08.bks.cpg/sg2_108_cif.got.tgz:215837.got - 2010.06.03 11:33:40.
