data_PCOD9024222
_publ_section_title
;
Structure prediction by ZEFSAII (Michael W. Deem and Ramdas Pophale) SiO2 
 PCOD9024222
Probable space group: P -1
;
_chemical_formula_sum "Si O2"
_cell_formula_units_Z 16
_cell_length_a 10.563962
_cell_length_b 12.709200
_cell_length_c 11.646510
_cell_angle_alpha 50.271560
_cell_angle_beta 121.840867
_cell_angle_gamma 81.932290
_cell_volume 697.230476
_symmetry_space_group_name_H-M "P -1"
_symmetry_group_IT_number 2
_symmetry_cell_setting 'triclinic'
loop_
_space_group_symop_operation_xyz
x,y,z
-x,-y,-z
loop_
_atom_site_type_symbol
_atom_site_label
_atom_site_fract_x
_atom_site_fract_y
_atom_site_fract_z
Si Si1 0.771813 0.358100 0.444295
Si Si2 0.468155 0.337851 0.432360
Si Si3 0.777441 0.730306 0.713948
Si Si4 0.976790 0.952868 0.393114
Si Si5 0.258166 0.317799 0.739611
Si Si6 0.862609 0.955926 0.992426
Si Si7 0.654713 0.917731 0.279140
Si Si8 0.000319 0.210084 0.071333
O O1 0.615455 0.352777 0.432404
O O2 0.675455 0.571367 0.275638
O O3 0.820876 0.277703 0.393755
O O4 0.011445 0.191268 0.736945
O O5 0.412870 0.253183 0.375741
O O6 0.612652 0.175014 0.717790
O O7 0.237371 0.557804 0.203843
O O8 0.755934 0.791910 0.530337
O O9 0.815014 0.836202 0.735124
O O10 0.000000 0.500000 0.000000
O O11 0.774553 0.982818 0.269113
O O12 0.967200 0.084420 0.204595
O O13 0.000000 0.000000 0.500000
O O14 0.309870 0.215496 0.712442
O O15 0.000000 0.500000 0.500000
O O16 0.398120 0.124965 0.023706
O O17 0.913025 0.840955 0.980749
O O18 0.000000 0.000000 0.000000
#
# Coordination Sequence:
#
# PCOD9024222 Si02
#       8
#     2   2   2   2   2   2   2   2
#     4  11  24  46  68 104 137 181 236 283 349 404
#     4  10  23  42  67 101 133 176 225 287 339 408
#     4  10  24  44  68 101 138 179 229 281 349 410
#     4  12  23  45  71  96 142 182 233 286 340 424
#     4  11  25  45  71 102 139 181 233 287 339 423
#     4  10  22  40  64 101 134 171 226 284 333 411
#     4  11  25  46  70 104 139 187 227 285 356 402
#     4  11  22  44  67  99 137 182 225 281 349 404
#
# _framework density 22.947935999999999
#
# number of rings (size 3 to 8) (size 9 to 14) (size 15 to 20)
#    0.000    1.250    5.000    0.750    5.250    2.500 
#    0.000    8.750    0.000    0.000    0.000    0.000 
#    0.000    0.000    0.000    0.000    0.000    0.000 
#
# Total GULP energy -89339.306173 kJ/mol
# GULP energy per Si atom -5583.706636 kJ/mol
# Density = 2.289571 g / cm^3
# Si number density = 22.947936 Si / 1000 Ang^3
#
#
#
# Elastic Constant Matrix: (Units=GPa)
#
#
# Indices 1 2 3 4 5 6 
#
# 1 92.2521 54.1736 31.1053 -7.3958 0.5416 16.3077
# 2 54.1736 159.2702 59.5291 -6.7155 -6.6055 -1.3963
# 3 31.1053 59.5291 134.8164 -17.6606 -7.2137 -1.7310
# 4 -7.3958 -6.7155 -17.6606 36.4505 -1.8548 -3.7566
# 5 0.5416 -6.6055 -7.2137 -1.8548 30.7337 7.7417
# 6 16.3077 -1.3963 -1.7310 -3.7566 7.7417 39.9694
#
#
#
# Elastic Compliance Matrix: (Units=1/GPa)
#
#
# Indices 1 2 3 4 5 6 
#
# 1 0.015264 -0.004678 -0.001418 0.000893 0.000054 -0.006379
# 2 -0.004678 0.008976 -0.002874 -0.000450 0.000833 0.001894
# 3 -0.001418 -0.002874 0.009645 0.004039 0.001675 0.000951
# 4 0.000893 -0.000450 0.004039 0.029822 0.002083 0.002194
# 5 0.000054 0.000833 0.001675 0.002083 0.034866 -0.006478
# 6 -0.006379 0.001894 0.000951 0.002194 -0.006478 0.029190
#
#
# Mechanical properties :
#
#
# Convention : Reuss Voigt Hill
#
# Bulk Modulus (GPa) = 62.71866 75.10608 68.91237
# Shear Modulus (GPa) = 33.10851 37.53278 35.32064
#
# Velocity S-wave (km/s) = 3.80250 4.04860 3.92747
# Velocity P-wave (km/s) = 6.83146 7.39289 7.11771
#
# Compressibility (1/GPa) = 0.01594422
#
# Stress axis : x y z
#
# Youngs Moduli (GPa) = 65.51378 111.40575 103.68211
#
# Poissons Ratio (x) = 0.52113 0.14705
# Poissons Ratio (y) = 0.30646 0.29802
# Poissons Ratio (z) = 0.09292 0.32022
#
# Static dielectric constant tensor:
#      x y z
#    x 2.735540 -0.546110 -0.397920 
#    y -0.546110 2.371950 0.282820 
#    z -0.397920 0.282820 2.055310 
# 
# From -- ./inp_files/427881.got.cif
#   From: 2010.05.17/outbox.cif.g08.bks.cpg/sg2_214_cif.got.tgz:427881.got - 2010.06.03 11:33:40.
