data_PCOD9024073
_publ_section_title
;
Structure prediction by ZEFSAII (Michael W. Deem and Ramdas Pophale) SiO2 
 PCOD9024073
Probable space group: P -1
;
_chemical_formula_sum "Si O2"
_cell_formula_units_Z 16
_cell_length_a 5.398259
_cell_length_b 8.965085
_cell_length_c 21.476203
_cell_angle_alpha 132.785239
_cell_angle_beta 107.546874
_cell_angle_gamma 58.440979
_cell_volume 647.545668
_symmetry_space_group_name_H-M "P -1"
_symmetry_group_IT_number 2
_symmetry_cell_setting 'triclinic'
loop_
_space_group_symop_operation_xyz
x,y,z
-x,-y,-z
loop_
_atom_site_type_symbol
_atom_site_label
_atom_site_fract_x
_atom_site_fract_y
_atom_site_fract_z
Si Si1 0.381872 0.919258 0.749771
Si Si2 0.853522 0.629650 0.413933
Si Si3 0.190246 0.134807 0.343764
Si Si4 0.775897 0.062878 0.577928
Si Si5 0.113294 0.027601 0.950002
Si Si6 0.104134 0.522661 0.276737
Si Si7 0.039631 0.701726 0.093391
Si Si8 0.682753 0.627717 0.879767
O O1 0.559413 0.950232 0.714078
O O2 0.597009 0.679298 0.730029
O O3 0.085152 0.911241 0.705365
O O4 0.264265 0.124201 0.848563
O O5 0.508519 0.774336 0.437379
O O6 0.042711 0.411229 0.407880
O O7 0.882048 0.542149 0.319961
O O8 0.958778 0.824659 0.488090
O O9 0.304106 0.023218 0.387670
O O10 0.910981 0.228416 0.654524
O O11 0.893006 0.153846 0.912996
O O12 0.352951 0.780058 0.876409
O O13 0.253385 0.196741 0.024063
O O14 0.000000 0.000000 0.000000
O O15 0.101433 0.453441 0.185623
O O16 0.269999 0.582037 0.131955
O O17 0.000000 0.500000 0.000000
#
# Coordination Sequence:
#
# PCOD9024073 Si02
#       8
#     2   2   2   2   2   2   2   2
#     4  11  24  47  67 103 136 180 227 287 333 411
#     4  10  24  43  64 102 132 179 224 283 337 408
#     4  11  25  45  71 100 138 179 228 279 345 398
#     4  11  23  42  68  96 135 177 228 277 344 405
#     4  10  22  41  63  94 126 170 217 277 334 395
#     4  11  22  42  68  93 139 177 226 280 343 399
#     4  10  22  44  62  94 134 171 226 274 338 398
#     4  10  22  40  63  90 129 169 221 269 336 400
#
# _framework density 24.708684000000002
#
# number of rings (size 3 to 8) (size 9 to 14) (size 15 to 20)
#    0.000    1.500    2.500    1.500    3.500    3.500 
#    6.750    1.875    0.000    0.000    0.000    0.000 
#    0.000    0.000    0.000    0.000    0.000    0.000 
#
# Total GULP energy -89380.835301 kJ/mol
# GULP energy per Si atom -5586.302206 kJ/mol
# Density = 2.465245 g / cm^3
# Si number density = 24.708684 Si / 1000 Ang^3
#
#
#
# Elastic Constant Matrix: (Units=GPa)
#
#
# Indices 1 2 3 4 5 6 
#
# 1 77.7494 25.9078 26.4891 1.6715 -17.8497 5.4584
# 2 25.9078 156.9616 34.2925 -0.0283 -14.3079 19.5270
# 3 26.4891 34.2925 121.9275 8.8572 -26.4438 -3.3836
# 4 1.6715 -0.0283 8.8572 45.0330 7.6154 -10.7080
# 5 -17.8497 -14.3079 -26.4438 7.6154 30.7614 -10.3676
# 6 5.4584 19.5270 -3.3836 -10.7080 -10.3676 23.8854
#
#
#
# Elastic Compliance Matrix: (Units=1/GPa)
#
#
# Indices 1 2 3 4 5 6 
#
# 1 0.015602 -0.001661 -0.001094 -0.001616 0.007848 0.000319
# 2 -0.001661 0.007963 -0.002367 -0.001006 -0.001612 -0.007616
# 3 -0.001094 -0.002367 0.012102 -0.002466 0.011971 0.007990
# 4 -0.001616 -0.001006 -0.002466 0.026187 -0.006756 0.009650
# 5 0.007848 -0.001612 0.011971 -0.006756 0.055834 0.022427
# 6 0.000319 -0.007616 0.007990 0.009650 0.022427 0.063213
#
#
# Mechanical properties :
#
#
# Convention : Reuss Voigt Hill
#
# Bulk Modulus (GPa) = 39.33377 58.89082 49.11229
# Shear Modulus (GPa) = 25.04779 37.93257 31.49018
#
# Velocity S-wave (km/s) = 3.18736 3.92240 3.57383
# Velocity P-wave (km/s) = 5.43132 6.66329 6.07860
#
# Compressibility (1/GPa) = 0.02542345
#
# Stress axis : x y z
#
# Youngs Moduli (GPa) = 64.09390 125.58842 82.63062
#
# Poissons Ratio (x) = 0.20858 0.09041
# Poissons Ratio (y) = 0.10645 0.19556
# Poissons Ratio (z) = 0.07013 0.29722
#
# Static dielectric constant tensor:
#      x y z
#    x 2.002520 0.021420 0.019650 
#    y 0.021420 1.996490 -0.025130 
#    z 0.019650 -0.025130 2.002230 
# 
# From -- ./inp_files/48131.got.cif
#   From: 2010.05.17/outbox.cif.g08.bks.cpg/sg2_25_cif.got.tgz:48131.got - 2010.06.03 11:33:40.
