data_PCOD9024795
_publ_section_title
;
Structure prediction by ZEFSAII (Michael W. Deem and Ramdas Pophale) SiO2 
 PCOD9024795
Probable space group: P -1
;
_chemical_formula_sum "Si O2"
_cell_formula_units_Z 14
_cell_length_a 8.370048
_cell_length_b 6.398526
_cell_length_c 13.267999
_cell_angle_alpha 114.499081
_cell_angle_beta 112.238404
_cell_angle_gamma 94.204510
_cell_volume 575.710905
_symmetry_space_group_name_H-M "P -1"
_symmetry_group_IT_number 2
_symmetry_cell_setting 'triclinic'
loop_
_space_group_symop_operation_xyz
x,y,z
-x,-y,-z
loop_
_atom_site_type_symbol
_atom_site_label
_atom_site_fract_x
_atom_site_fract_y
_atom_site_fract_z
Si Si1 0.720112 0.442019 0.343517
Si Si2 0.059407 0.211642 0.850947
Si Si3 0.648489 0.862783 0.518534
Si Si4 0.868779 0.270030 0.525204
Si Si5 0.196438 0.279389 0.284305
Si Si6 0.247658 0.533560 0.147700
Si Si7 0.597185 0.585881 0.147404
O O1 0.612159 0.604491 0.407515
O O2 0.755386 0.243039 0.388066
O O3 0.640093 0.398894 0.202713
O O4 0.920988 0.621193 0.420792
O O5 0.205166 0.257411 0.805638
O O6 0.886311 0.315379 0.816440
O O7 0.156894 0.369123 0.999576
O O8 0.988591 0.931930 0.802039
O O9 0.678275 0.823167 0.634357
O O10 0.500000 0.000000 0.500000
O O11 0.816819 0.037596 0.535546
O O12 0.819939 0.483795 0.616843
O O13 0.256624 0.348809 0.200473
O O14 0.445559 0.681177 0.187849
O O15 0.500000 0.500000 0.000000
#
# Coordination Sequence:
#
# PCOD9024795 Si02
#       7
#     2   2   2   2   2   2   2
#     4  10  22  40  66  90 125 168 215 265 321 391
#     4  10  22  43  64  96 132 172 218 268 322 387
#     4  11  25  38  62  95 126 165 211 266 323 387
#     4  10  23  42  64  92 125 169 213 266 330 380
#     4  11  22  38  68  92 130 170 216 265 327 390
#     4  10  22  40  68  94 131 175 216 268 324 382
#     4  10  22  40  66  96 128 168 215 264 321 385
#
# _framework density 24.317761000000001
#
# number of rings (size 3 to 8) (size 9 to 14) (size 15 to 20)
#    0.000    1.714    0.000    3.429    6.000    3.429 
#    0.000    2.857    0.000   12.857    0.000    0.000 
#    0.000    0.000    0.000    0.000    0.000    0.000 
#
# Total GULP energy -78214.980676 kJ/mol
# GULP energy per Si atom -5586.784334 kJ/mol
# Density = 2.426241 g / cm^3
# Si number density = 24.317761 Si / 1000 Ang^3
#
#
#
# Elastic Constant Matrix: (Units=GPa)
#
#
# Indices 1 2 3 4 5 6 
#
# 1 159.1599 47.9785 22.8389 -20.3335 9.2737 19.8984
# 2 47.9785 105.2701 45.7562 -18.4117 -5.7628 13.3453
# 3 22.8389 45.7562 99.2459 -31.8682 -2.1837 -3.2363
# 4 -20.3335 -18.4117 -31.8682 40.4021 6.7235 6.0210
# 5 9.2737 -5.7628 -2.1837 6.7235 25.4085 -1.4650
# 6 19.8984 13.3453 -3.2363 6.0210 -1.4650 43.4041
#
#
#
# Elastic Compliance Matrix: (Units=1/GPa)
#
#
# Indices 1 2 3 4 5 6 
#
# 1 0.008536 -0.003222 0.000873 0.004953 -0.005296 -0.003723
# 2 -0.003222 0.014086 -0.005730 0.000143 0.003657 -0.003178
# 3 0.000873 -0.005730 0.015937 0.010763 -0.003042 0.000954
# 4 0.004953 0.000143 0.010763 0.038804 -0.011538 -0.007284
# 5 -0.005296 0.003657 -0.003042 -0.011538 0.045153 0.004201
# 6 -0.003723 -0.003178 0.000954 -0.007284 0.004201 0.026947
#
#
# Mechanical properties :
#
#
# Convention : Reuss Voigt Hill
#
# Bulk Modulus (GPa) = 44.63799 66.31367 55.47583
# Shear Modulus (GPa) = 28.88707 38.31645 33.60176
#
# Velocity S-wave (km/s) = 3.45033 3.97376 3.72126
# Velocity P-wave (km/s) = 5.85398 6.95580 6.42854
#
# Compressibility (1/GPa) = 0.02240244
#
# Stress axis : x y z
#
# Youngs Moduli (GPa) = 117.15599 70.99033 62.74687
#
# Poissons Ratio (x) = 0.22870 -0.05481
# Poissons Ratio (y) = 0.37742 0.35955
# Poissons Ratio (z) = -0.10233 0.40679
#
# Static dielectric constant tensor:
#      x y z
#    x 2.030990 0.019720 0.042800 
#    y 0.019720 1.903790 -0.031930 
#    z 0.042800 -0.031930 1.957210 
# 
# From -- ./inp_files/488728.got.cif
#   From: 2010.05.17/outbox.cif.g08.bks.cpg/sg2_245_cif.got.tgz:488728.got - 2010.06.03 11:33:40.
