data_PCOD9024576
_publ_section_title
;
Structure prediction by ZEFSAII (Michael W. Deem and Ramdas Pophale) SiO2 
 PCOD9024576
Probable space group: P -1
;
_chemical_formula_sum "Si O2"
_cell_formula_units_Z 16
_cell_length_a 11.612386
_cell_length_b 8.540772
_cell_length_c 13.040857
_cell_angle_alpha 99.216683
_cell_angle_beta 36.474875
_cell_angle_gamma 76.863739
_cell_volume 603.257793
_symmetry_space_group_name_H-M "P -1"
_symmetry_group_IT_number 2
_symmetry_cell_setting 'triclinic'
loop_
_space_group_symop_operation_xyz
x,y,z
-x,-y,-z
loop_
_atom_site_type_symbol
_atom_site_label
_atom_site_fract_x
_atom_site_fract_y
_atom_site_fract_z
Si Si1 0.842956 0.174125 0.711503
Si Si2 0.117068 0.084508 0.993856
Si Si3 0.271158 0.492256 0.594900
Si Si4 0.641100 0.587474 0.821532
Si Si5 0.170779 0.248203 0.776160
Si Si6 0.407552 0.507649 0.788970
Si Si7 0.350166 0.214634 0.337690
Si Si8 0.735244 0.037346 0.493250
O O1 0.822936 0.370815 0.718377
O O2 0.978992 0.067977 0.709061
O O3 0.561651 0.267529 0.934755
O O4 0.000000 0.000000 0.500000
O O5 0.204212 0.177419 0.861192
O O6 0.357721 0.910352 0.863297
O O7 0.918390 0.272152 0.225733
O O8 0.000000 0.000000 0.000000
O O9 0.266612 0.369739 0.679561
O O10 0.521594 0.442273 0.365333
O O11 0.209000 0.404981 0.535577
O O12 0.510484 0.553848 0.818081
O O13 0.722728 0.703995 0.716398
O O14 0.285939 0.053078 0.603747
O O15 0.877245 0.387274 0.985624
O O16 0.568590 0.270214 0.646628
O O17 0.307721 0.060344 0.392032
#
# Coordination Sequence:
#
# PCOD9024576 Si02
#       8
#     2   2   2   2   2   2   2   2
#     4  11  22  40  69  97 122 167 212 261 330 392
#     4  12  24  40  66  95 130 177 222 265 319 380
#     4  10  24  40  63  92 126 175 218 268 316 375
#     4  10  22  40  65  93 128 161 213 265 320 393
#     4  11  24  42  62  93 137 172 219 275 314 378
#     4  11  21  40  66  93 128 174 214 266 325 381
#     4  10  25  43  63  96 129 170 216 268 320 385
#     4  11  23  41  67  94 131 170 214 267 330 383
#
# _framework density 26.522658
#
# number of rings (size 3 to 8) (size 9 to 14) (size 15 to 20)
#    0.000    1.250    2.500    3.375    1.750    5.500 
#    0.000    0.625    0.000    0.000    0.000    0.000 
#    0.000    0.000    0.000    0.000    0.000    0.000 
#
# Total GULP energy -89649.646457 kJ/mol
# GULP energy per Si atom -5603.102904 kJ/mol
# Density = 2.646229 g / cm^3
# Si number density = 26.522658 Si / 1000 Ang^3
#
#
#
# Elastic Constant Matrix: (Units=GPa)
#
#
# Indices 1 2 3 4 5 6 
#
# 1 64.5677 3.4797 25.0508 15.0090 -3.5902 -1.2880
# 2 3.4797 141.6898 66.0473 3.6065 6.8151 -8.7149
# 3 25.0508 66.0473 164.9586 21.1720 17.9545 6.0292
# 4 15.0090 3.6065 21.1720 73.5036 1.3559 1.5465
# 5 -3.5902 6.8151 17.9545 1.3559 40.2296 7.7100
# 6 -1.2880 -8.7149 6.0292 1.5465 7.7100 47.1683
#
#
#
# Elastic Compliance Matrix: (Units=1/GPa)
#
#
# Indices 1 2 3 4 5 6 
#
# 1 0.017408 0.000946 -0.002979 -0.002807 0.002687 0.000684
# 2 0.000946 0.008960 -0.003850 0.000433 -0.000148 0.002183
# 3 -0.002979 -0.003850 0.008656 -0.001610 -0.003168 -0.001329
# 4 -0.002807 0.000433 -0.001610 0.014627 -0.000048 -0.000263
# 5 0.002687 -0.000148 -0.003168 -0.000048 0.027306 -0.004011
# 6 0.000684 0.002183 -0.001329 -0.000263 -0.004011 0.022457
#
#
# Mechanical properties :
#
#
# Convention : Reuss Voigt Hill
#
# Bulk Modulus (GPa) = 43.00006 62.26352 52.63179
# Shear Modulus (GPa) = 42.04032 50.62284 46.33158
#
# Velocity S-wave (km/s) = 3.98562 4.37357 4.18409
# Velocity P-wave (km/s) = 6.11784 7.00219 6.57490
#
# Compressibility (1/GPa) = 0.02325578
#
# Stress axis : x y z
#
# Youngs Moduli (GPa) = 57.44469 111.61272 115.52564
#
# Poissons Ratio (x) = -0.10554 0.34419
# Poissons Ratio (y) = -0.05432 0.44479
# Poissons Ratio (z) = 0.17115 0.42973
#
# Static dielectric constant tensor:
#      x y z
#    x 2.176250 0.041690 -0.058310 
#    y 0.041690 2.067430 -0.092040 
#    z -0.058310 -0.092040 2.110910 
# 
# From -- ./inp_files/317560.got.cif
#   From: 2010.05.17/outbox.cif.g08.bks.cpg/sg2_159_cif.got.tgz:317560.got - 2010.06.03 11:33:40.
