data_PCOD9024399
_publ_section_title
;
Structure prediction by ZEFSAII (Michael W. Deem and Ramdas Pophale) SiO2 
 PCOD9024399
Probable space group: P -1
;
_chemical_formula_sum "Si O2"
_cell_formula_units_Z 14
_cell_length_a 5.239868
_cell_length_b 14.152452
_cell_length_c 9.218008
_cell_angle_alpha 104.110379
_cell_angle_beta 71.399828
_cell_angle_gamma 73.381954
_cell_volume 577.032589
_symmetry_space_group_name_H-M "P -1"
_symmetry_group_IT_number 2
_symmetry_cell_setting 'triclinic'
loop_
_space_group_symop_operation_xyz
x,y,z
-x,-y,-z
loop_
_atom_site_type_symbol
_atom_site_label
_atom_site_fract_x
_atom_site_fract_y
_atom_site_fract_z
Si Si1 0.716106 0.359084 0.927489
Si Si2 0.145365 0.750926 0.656170
Si Si3 0.707818 0.594963 0.539060
Si Si4 0.804371 0.702484 0.960230
Si Si5 0.547233 0.435774 0.675849
Si Si6 0.184172 0.944042 0.587271
Si Si7 0.240902 0.147810 0.730000
O O1 0.599712 0.430922 0.833541
O O2 0.932253 0.242643 0.783081
O O3 0.437999 0.343829 0.041362
O O4 0.932153 0.375838 0.013419
O O5 0.481850 0.716436 0.643153
O O6 0.187404 0.664579 0.487059
O O7 0.051082 0.868094 0.657398
O O8 0.938762 0.732360 0.805536
O O9 0.506896 0.543621 0.643196
O O10 0.720125 0.586437 0.356256
O O11 0.000000 0.500000 0.500000
O O12 0.669181 0.807209 0.124438
O O13 0.510659 0.873446 0.443517
O O14 0.000000 0.000000 0.500000
O O15 0.201163 0.038421 0.716507
#
# Coordination Sequence:
#
# PCOD9024399 Si02
#       7
#     2   2   2   2   2   2   2
#     4  10  22  42  67  88 132 177 209 257 320 380
#     4  10  22  40  64  95 130 167 212 272 324 374
#     4   9  21  37  65  94 124 159 225 267 318 367
#     4  10  23  42  61  98 134 169 209 261 332 379
#     4   9  20  39  62  93 117 170 217 264 307 375
#     4  11  21  40  65  99 121 171 223 261 309 387
#     4   9  22  38  62  91 132 158 222 252 317 378
#
# _framework density 24.262058
#
# number of rings (size 3 to 8) (size 9 to 14) (size 15 to 20)
#    1.714    0.571    0.000    2.571    4.000    1.714 
#    5.143    2.857    0.000    0.000    0.000    0.000 
#    0.000    0.000    0.000    0.000    0.000    0.000 
#
# Total GULP energy -77973.109611 kJ/mol
# GULP energy per Si atom -5569.507829 kJ/mol
# Density = 2.420684 g / cm^3
# Si number density = 24.262058 Si / 1000 Ang^3
#
#
#
# Elastic Constant Matrix: (Units=GPa)
#
#
# Indices 1 2 3 4 5 6 
#
# 1 86.5140 19.1589 18.1146 -5.7038 -1.1197 -17.3245
# 2 19.1589 105.3057 25.8595 -17.3151 -2.3949 2.8570
# 3 18.1146 25.8595 97.0415 -13.2546 15.4653 2.4446
# 4 -5.7038 -17.3151 -13.2546 41.7049 3.1473 5.2386
# 5 -1.1197 -2.3949 15.4653 3.1473 34.2307 3.4850
# 6 -17.3245 2.8570 2.4446 5.2386 3.4850 35.2633
#
#
#
# Elastic Compliance Matrix: (Units=1/GPa)
#
#
# Indices 1 2 3 4 5 6 
#
# 1 0.013975 -0.002256 -0.002408 -0.000756 0.000718 0.007257
# 2 -0.002256 0.011192 -0.002232 0.003831 0.001629 -0.002591
# 3 -0.002408 -0.002232 0.012862 0.003525 -0.006186 -0.001806
# 4 -0.000756 0.003831 0.003525 0.027428 -0.003396 -0.004665
# 5 0.000718 0.001629 -0.006186 -0.003396 0.032669 -0.002075
# 6 0.007257 -0.002591 -0.001806 -0.004665 -0.002075 0.033157
#
#
# Mechanical properties :
#
#
# Convention : Reuss Voigt Hill
#
# Bulk Modulus (GPa) = 41.26056 46.12523 43.69290
# Shear Modulus (GPa) = 32.64648 37.28832 34.96740
#
# Velocity S-wave (km/s) = 3.67219 3.92458 3.80048
# Velocity P-wave (km/s) = 5.91803 6.29198 6.10787
#
# Compressibility (1/GPa) = 0.02423622
#
# Stress axis : x y z
#
# Youngs Moduli (GPa) = 71.55463 89.34841 77.74724
#
# Poissons Ratio (x) = 0.20159 0.18722
# Poissons Ratio (y) = 0.16144 0.17356
# Poissons Ratio (z) = 0.17231 0.19946
#
# Static dielectric constant tensor:
#      x y z
#    x 2.060180 -0.099250 0.061040 
#    y -0.099250 1.816300 0.071270 
#    z 0.061040 0.071270 1.997430 
# 
# From -- ./inp_files/135288.got.cif
#   From: 2010.05.17/outbox.cif.g08.bks.cpg/sg2_68_cif.got.tgz:135288.got - 2010.06.03 11:33:40.
