data_PCOD9024227
_publ_section_title
;
Structure prediction by ZEFSAII (Michael W. Deem and Ramdas Pophale) SiO2 
 PCOD9024227
Probable space group: P -1
;
_chemical_formula_sum "Si O2"
_cell_formula_units_Z 12
_cell_length_a 9.941506
_cell_length_b 15.206736
_cell_length_c 10.923976
_cell_angle_alpha 148.875036
_cell_angle_beta 129.162653
_cell_angle_gamma 33.779145
_cell_volume 455.862458
_symmetry_space_group_name_H-M "P -1"
_symmetry_group_IT_number 2
_symmetry_cell_setting 'triclinic'
loop_
_space_group_symop_operation_xyz
x,y,z
-x,-y,-z
loop_
_atom_site_type_symbol
_atom_site_label
_atom_site_fract_x
_atom_site_fract_y
_atom_site_fract_z
Si Si1 0.663208 0.515560 0.034254
Si Si2 0.173659 0.054875 0.416868
Si Si3 0.000000 0.500000 0.000000
Si Si4 0.011118 0.319394 0.217470
Si Si5 0.531061 0.764196 0.870784
Si Si6 0.000000 0.000000 0.500000
Si Si7 0.746488 0.360031 0.332783
O O1 0.879959 0.433368 0.148557
O O2 0.453048 0.808204 0.238934
O O3 0.500000 0.500000 0.000000
O O4 0.814724 0.308331 0.768464
O O5 0.080629 0.991680 0.396216
O O6 0.986599 0.174551 0.337893
O O7 0.139117 0.261405 0.705910
O O8 0.241753 0.318570 0.021474
O O9 0.840006 0.313657 0.193803
O O10 0.000000 0.500000 0.500000
O O11 0.294309 0.053188 0.057276
O O12 0.606961 0.627906 0.621359
O O13 0.428462 0.675894 0.784344
#
# Coordination Sequence:
#
# PCOD9024227 Si02
#       7
#     2   2   1   2   2   1   2
#     4  10  23  41  66  98 133 178 227 279 336 405
#     4  10  22  42  67  99 135 177 226 282 342 410
#     4  10  22  40  64 102 138 176 226 280 344 406
#     4  12  26  44  70 105 142 180 226 289 355 415
#     4  10  22  42  66  96 136 181 227 279 340 410
#     4  10  22  40  66  96 130 178 230 274 332 402
#     4  10  24  45  70  99 136 183 231 280 345 417
#
# _framework density 26.323729
#
# number of rings (size 3 to 8) (size 9 to 14) (size 15 to 20)
#    0.000    1.667    0.000    3.500    0.000   16.667 
#    0.000    5.000    0.000    0.000    0.000    0.000 
#    0.000    0.000    0.000    0.000    0.000    0.000 
#
# Total GULP energy -66841.624775 kJ/mol
# GULP energy per Si atom -5570.135398 kJ/mol
# Density = 2.626382 g / cm^3
# Si number density = 26.323729 Si / 1000 Ang^3
#
#
#
# Elastic Constant Matrix: (Units=GPa)
#
#
# Indices 1 2 3 4 5 6 
#
# 1 106.8981 27.2599 1.6217 -3.5230 -26.4434 4.3876
# 2 27.2599 177.9702 91.1027 26.6903 -10.4127 -11.6941
# 3 1.6217 91.1027 218.7790 46.3422 -25.7174 -5.8949
# 4 -3.5230 26.6903 46.3422 54.1817 -14.0260 -0.8169
# 5 -26.4434 -10.4127 -25.7174 -14.0260 32.1183 1.0377
# 6 4.3876 -11.6941 -5.8949 -0.8169 1.0377 23.8964
#
#
#
# Elastic Compliance Matrix: (Units=1/GPa)
#
#
# Indices 1 2 3 4 5 6 
#
# 1 0.013904 -0.003177 0.001800 0.004478 0.013947 -0.004116
# 2 -0.003177 0.008132 -0.003189 -0.002385 -0.003698 0.003856
# 3 0.001800 -0.003189 0.007103 -0.003159 0.004771 -0.000454
# 4 0.004478 -0.002385 -0.003159 0.025602 0.011642 -0.002399
# 5 0.013947 -0.003698 0.004771 0.011642 0.050484 -0.004988
# 6 -0.004116 0.003856 -0.000454 -0.002399 -0.004988 0.044512
#
#
# Mechanical properties :
#
#
# Convention : Reuss Voigt Hill
#
# Bulk Modulus (GPa) = 49.97966 82.62397 66.30181
# Shear Modulus (GPa) = 30.20430 47.61684 38.91057
#
# Velocity S-wave (km/s) = 3.39103 4.25772 3.84885
# Velocity P-wave (km/s) = 5.86173 7.45833 6.70770
#
# Compressibility (1/GPa) = 0.02000814
#
# Stress axis : x y z
#
# Youngs Moduli (GPa) = 71.92025 122.96478 140.78430
#
# Poissons Ratio (x) = 0.39068 -0.25341
# Poissons Ratio (y) = 0.22850 0.44891
# Poissons Ratio (z) = -0.12946 0.39209
#
# Static dielectric constant tensor:
#      x y z
#    x 2.262840 -0.003860 0.126940 
#    y -0.003860 2.001000 0.039890 
#    z 0.126940 0.039890 2.041000 
# 
# From -- ./inp_files/252340.got.cif
#   From: 2010.05.17/outbox.cif.g08.bks.cpg/sg2_127_cif.got.tgz:252340.got - 2010.06.03 11:33:40.
