data_PCOD9024375
_publ_section_title
;
Structure prediction by ZEFSAII (Michael W. Deem and Ramdas Pophale) SiO2 
 PCOD9024375
Probable space group: P -1
;
_chemical_formula_sum "Si O2"
_cell_formula_units_Z 16
_cell_length_a 11.365286
_cell_length_b 13.954188
_cell_length_c 15.723381
_cell_angle_alpha 151.231654
_cell_angle_beta 41.982055
_cell_angle_gamma 146.120536
_cell_volume 667.861699
_symmetry_space_group_name_H-M "P -1"
_symmetry_group_IT_number 2
_symmetry_cell_setting 'triclinic'
loop_
_space_group_symop_operation_xyz
x,y,z
-x,-y,-z
loop_
_atom_site_type_symbol
_atom_site_label
_atom_site_fract_x
_atom_site_fract_y
_atom_site_fract_z
Si Si1 0.721393 0.602133 0.366048
Si Si2 0.860909 0.006433 0.319707
Si Si3 0.035508 0.524529 0.599054
Si Si4 0.034606 0.262808 0.824383
Si Si5 0.170922 0.252097 0.024729
Si Si6 0.585698 0.180841 0.015632
Si Si7 0.406680 0.503295 0.932522
Si Si8 0.596301 0.268791 0.328550
O O1 0.913418 0.745343 0.308477
O O2 0.736516 0.459883 0.326675
O O3 0.619556 0.741389 0.560747
O O4 0.553437 0.384158 0.224058
O O5 0.891225 0.257096 0.506955
O O6 0.993874 0.960885 0.281366
O O7 0.628383 0.759787 0.264921
O O8 0.919301 0.971732 0.164972
O O9 0.275223 0.625019 0.572247
O O10 0.000000 0.500000 0.500000
O O11 0.986617 0.704974 0.808474
O O12 0.246133 0.483069 0.931275
O O13 0.833623 0.275772 0.954024
O O14 0.351292 0.292961 0.025164
O O15 0.293526 0.466663 0.055681
O O16 0.460958 0.996318 0.863489
O O17 0.500000 0.000000 0.000000
#
# Coordination Sequence:
#
# PCOD9024375 Si02
#       8
#     2   2   2   2   2   2   2   2
#     4  10  22  41  68  90 136 161 212 263 313 385
#     4   8  21  39  61  89 125 162 205 268 317 355
#     4  12  26  40  63  89 126 171 222 252 314 384
#     4   9  20  39  68  97 122 168 208 261 325 379
#     4   8  18  40  60  89 117 161 207 260 309 375
#     4  10  22  40  64  94 129 166 210 256 318 385
#     4   7  17  37  63  87 120 155 200 259 325 354
#     4  10  26  42  59  98 129 174 207 263 322 367
#
# _framework density 23.957055
#
# number of rings (size 3 to 8) (size 9 to 14) (size 15 to 20)
#    1.500    1.000    0.000    0.375   14.000    1.500 
#    2.250    0.000    0.000    0.000    0.000    0.000 
#    0.000    0.000    0.000    0.000    0.000    0.000 
#
# Total GULP energy -89112.334093 kJ/mol
# GULP energy per Si atom -5569.520881 kJ/mol
# Density = 2.390253 g / cm^3
# Si number density = 23.957055 Si / 1000 Ang^3
#
#
#
# Elastic Constant Matrix: (Units=GPa)
#
#
# Indices 1 2 3 4 5 6 
#
# 1 115.2349 25.3111 18.4559 -0.0214 12.3608 -3.1635
# 2 25.3111 56.1149 21.2342 -2.9201 2.2326 -1.2587
# 3 18.4559 21.2342 77.8035 2.9699 10.1897 2.1617
# 4 -0.0214 -2.9201 2.9699 33.0966 6.2081 2.5913
# 5 12.3608 2.2326 10.1897 6.2081 22.3118 4.4608
# 6 -3.1635 -1.2587 2.1617 2.5913 4.4608 19.8738
#
#
#
# Elastic Compliance Matrix: (Units=1/GPa)
#
#
# Indices 1 2 3 4 5 6 
#
# 1 0.010376 -0.004102 -0.000689 0.000569 -0.005717 0.002676
# 2 -0.004102 0.021717 -0.005288 0.001995 0.001834 0.000626
# 3 -0.000689 -0.005288 0.015255 -0.000707 -0.005714 -0.000729
# 4 0.000569 0.001995 -0.000707 0.032253 -0.008778 -0.001941
# 5 -0.005717 0.001834 -0.005714 -0.008778 0.055134 -0.011403
# 6 0.002676 0.000626 -0.000729 -0.001941 -0.011403 0.053675
#
#
# Mechanical properties :
#
#
# Convention : Reuss Voigt Hill
#
# Bulk Modulus (GPa) = 36.77869 42.12844 39.45356
# Shear Modulus (GPa) = 22.97461 27.33325 25.15393
#
# Velocity S-wave (km/s) = 3.10012 3.38143 3.24382
# Velocity P-wave (km/s) = 5.31033 5.73311 5.52576
#
# Compressibility (1/GPa) = 0.02718966
#
# Stress axis : x y z
#
# Youngs Moduli (GPa) = 96.37507 46.04747 65.55228
#
# Poissons Ratio (x) = 0.18891 0.04517
# Poissons Ratio (y) = 0.39537 0.34661
# Poissons Ratio (z) = 0.06641 0.24348
#
# Static dielectric constant tensor:
#      x y z
#    x 1.963520 -0.072430 0.025010 
#    y -0.072430 2.069070 0.065410 
#    z 0.025010 0.065410 1.886780 
# 
# From -- ./inp_files/521864.got.cif
#   From: 2010.05.17/outbox.cif.g08.bks.cpg/sg2_261_cif.got.tgz:521864.got - 2010.06.03 11:33:40.
