data_PCOD9024281
_publ_section_title
;
Structure prediction by ZEFSAII (Michael W. Deem and Ramdas Pophale) SiO2 
 PCOD9024281
Probable space group: P -1
;
_chemical_formula_sum "Si O2"
_cell_formula_units_Z 16
_cell_length_a 8.674563
_cell_length_b 12.954983
_cell_length_c 6.532996
_cell_angle_alpha 99.744599
_cell_angle_beta 88.017067
_cell_angle_gamma 104.507916
_cell_volume 700.481661
_symmetry_space_group_name_H-M "P -1"
_symmetry_group_IT_number 2
_symmetry_cell_setting 'triclinic'
loop_
_space_group_symop_operation_xyz
x,y,z
-x,-y,-z
loop_
_atom_site_type_symbol
_atom_site_label
_atom_site_fract_x
_atom_site_fract_y
_atom_site_fract_z
Si Si1 0.625693 0.563672 0.353462
Si Si2 0.613387 0.058367 0.206022
Si Si3 0.257565 0.241797 0.284261
Si Si4 0.395308 0.124950 0.529855
Si Si5 0.499267 0.694524 0.079122
Si Si6 0.872226 0.307532 0.922768
Si Si7 0.934148 0.489357 0.275061
Si Si8 0.042726 0.881703 0.982069
O O1 0.500000 0.500000 0.500000
O O2 0.725925 0.665785 0.514941
O O3 0.532663 0.594112 0.171874
O O4 0.753089 0.498435 0.261504
O O5 0.538636 0.141866 0.363688
O O6 0.787554 0.103184 0.128409
O O7 0.626988 0.979638 0.366587
O O8 0.500000 0.000000 0.000000
O O9 0.258904 0.135335 0.384018
O O10 0.102516 0.202191 0.144645
O O11 0.403439 0.282953 0.130091
O O12 0.420549 0.213111 0.732847
O O13 0.318121 0.705329 0.077124
O O14 0.935432 0.371522 0.150990
O O15 0.923262 0.194185 0.852881
O O16 0.955278 0.404860 0.801687
O O17 0.000000 0.500000 0.500000
O O18 0.000000 0.000000 0.000000
#
# Coordination Sequence:
#
# PCOD9024281 Si02
#       8
#     2   2   2   2   2   2   2   2
#     4  11  24  41  68 101 134 178 227 284 352 417
#     4  11  23  42  65  92 128 173 230 281 331 399
#     4  11  24  42  63  96 135 172 223 280 340 410
#     4  10  22  40  64  90 123 173 223 275 331 401
#     4  11  23  42  67  95 134 174 223 281 343 414
#     4  11  25  43  68  98 133 182 229 285 350 410
#     4  11  24  44  68  99 138 176 229 289 346 414
#     4  12  25  42  68  98 137 183 225 281 346 407
#
# _framework density 22.841425999999998
#
# number of rings (size 3 to 8) (size 9 to 14) (size 15 to 20)
#    0.000    1.000    0.000    6.750    0.000   10.500 
#    0.000    5.000    0.000    0.000    0.000    0.000 
#    0.000    0.000    0.000    0.000    0.000    0.000 
#
# Total GULP energy -89155.112680 kJ/mol
# GULP energy per Si atom -5572.194542 kJ/mol
# Density = 2.278944 g / cm^3
# Si number density = 22.841426 Si / 1000 Ang^3
#
#
#
# Elastic Constant Matrix: (Units=GPa)
#
#
# Indices 1 2 3 4 5 6 
#
# 1 82.1033 35.5798 1.6890 -18.3771 19.6002 -4.6619
# 2 35.5798 83.5887 8.8499 -19.8383 7.0422 -20.0135
# 3 1.6890 8.8499 68.2371 -9.4299 11.1477 -16.0066
# 4 -18.3771 -19.8383 -9.4299 30.1892 -11.6233 -2.9081
# 5 19.6002 7.0422 11.1477 -11.6233 34.6224 -6.3069
# 6 -4.6619 -20.0135 -16.0066 -2.9081 -6.3069 45.8838
#
#
#
# Elastic Compliance Matrix: (Units=1/GPa)
#
#
# Indices 1 2 3 4 5 6 
#
# 1 0.017692 -0.006409 0.002002 0.003885 -0.008269 -0.001190
# 2 -0.006409 0.019266 0.000669 0.011883 0.005205 0.009454
# 3 0.002002 0.000669 0.017513 0.006379 -0.003580 0.006517
# 4 0.003885 0.011883 0.006379 0.051521 0.012967 0.012851
# 5 -0.008269 0.005205 -0.003580 0.012967 0.039175 0.006388
# 6 -0.001190 0.009454 0.006517 0.012851 0.006388 0.029763
#
#
# Mechanical properties :
#
#
# Convention : Reuss Voigt Hill
#
# Bulk Modulus (GPa) = 21.27816 36.24072 28.75944
# Shear Modulus (GPa) = 25.24353 34.65978 29.95166
#
# Velocity S-wave (km/s) = 3.32801 3.89962 3.62510
# Velocity P-wave (km/s) = 4.90952 6.01471 5.48999
#
# Compressibility (1/GPa) = 0.04699654
#
# Stress axis : x y z
#
# Youngs Moduli (GPa) = 56.52287 51.90591 57.09890
#
# Poissons Ratio (x) = 0.33265 -0.11431
# Poissons Ratio (y) = 0.36224 -0.03823
# Poissons Ratio (z) = -0.11316 -0.03475
#
# Static dielectric constant tensor:
#      x y z
#    x 1.654170 -0.157990 -0.295080 
#    y -0.157990 1.946030 -0.146830 
#    z -0.295080 -0.146830 1.384970 
# 
# From -- ./inp_files/39359.got.cif
#   From: 2010.05.17/outbox.cif.g08.bks.cpg/sg2_20_cif.got.tgz:39359.got - 2010.06.03 11:33:40.
