data_PCOD9024711
_publ_section_title
;
Structure prediction by ZEFSAII (Michael W. Deem and Ramdas Pophale) SiO2 
 PCOD9024711
Probable space group: P -1
;
_chemical_formula_sum "Si O2"
_cell_formula_units_Z 16
_cell_length_a 14.212815
_cell_length_b 8.926120
_cell_length_c 25.084585
_cell_angle_alpha 52.216315
_cell_angle_beta 19.735224
_cell_angle_gamma 42.300949
_cell_volume 672.654354
_symmetry_space_group_name_H-M "P -1"
_symmetry_group_IT_number 2
_symmetry_cell_setting 'triclinic'
loop_
_space_group_symop_operation_xyz
x,y,z
-x,-y,-z
loop_
_atom_site_type_symbol
_atom_site_label
_atom_site_fract_x
_atom_site_fract_y
_atom_site_fract_z
Si Si1 0.291447 0.754890 0.331840
Si Si2 0.055060 0.717046 0.880706
Si Si3 0.578447 0.764894 0.534313
Si Si4 0.097968 0.249829 0.359053
Si Si5 0.888321 0.061487 0.985823
Si Si6 0.672374 0.941775 0.863170
Si Si7 0.661658 0.515802 0.965069
Si Si8 0.864210 0.251466 0.701229
O O1 0.682408 0.569324 0.189701
O O2 0.285975 0.660756 0.297314
O O3 0.042217 0.748791 0.507888
O O4 0.147719 0.030364 0.349954
O O5 0.236464 0.791988 0.727736
O O6 0.661379 0.850789 0.040293
O O7 0.050446 0.831860 0.913224
O O8 0.816165 0.516997 0.429164
O O9 0.827506 0.727732 0.458453
O O10 0.500000 0.000000 0.500000
O O11 0.471920 0.194775 0.174791
O O12 0.953604 0.243036 0.887229
O O13 0.000000 0.000000 0.000000
O O14 0.960954 0.987036 0.703975
O O15 0.774689 0.682840 0.854377
O O16 0.500000 0.000000 0.000000
O O17 0.500000 0.500000 0.000000
O O18 0.395778 0.630364 0.133863
#
# Coordination Sequence:
#
# PCOD9024711 Si02
#       8
#     2   2   2   2   2   2   2   2
#     4  10  24  45  69  98 142 185 231 292 353 421
#     4  11  24  41  69 102 140 183 234 289 347 423
#     4  11  24  44  70 100 136 183 237 282 356 421
#     4  10  24  45  69  96 141 187 228 286 360 411
#     4  12  25  39  68 106 137 179 238 289 346 417
#     4  10  22  40  66 100 133 183 225 281 349 412
#     4  11  22  41  65  99 140 179 230 283 351 411
#     4  11  23  41  71 100 134 187 229 288 354 417
#
# _framework density 23.786360999999999
#
# number of rings (size 3 to 8) (size 9 to 14) (size 15 to 20)
#    0.000    1.250    2.500    3.000    1.750    5.000 
#    0.000    1.875    0.000    0.000    0.000    0.000 
#    0.000    0.000    0.000    0.000    0.000    0.000 
#
# Total GULP energy -89363.031436 kJ/mol
# GULP energy per Si atom -5585.189465 kJ/mol
# Density = 2.373222 g / cm^3
# Si number density = 23.786361 Si / 1000 Ang^3
#
#
#
# Elastic Constant Matrix: (Units=GPa)
#
#
# Indices 1 2 3 4 5 6 
#
# 1 128.6007 29.1631 2.6159 16.6849 21.8784 2.9814
# 2 29.1631 178.4120 11.5151 10.9840 -5.5036 14.8596
# 3 2.6159 11.5151 76.0763 -0.7408 14.8999 8.5608
# 4 16.6849 10.9840 -0.7408 25.5614 7.0498 -8.9327
# 5 21.8784 -5.5036 14.8999 7.0498 29.6620 -1.1766
# 6 2.9814 14.8596 8.5608 -8.9327 -1.1766 36.0044
#
#
#
# Elastic Compliance Matrix: (Units=1/GPa)
#
#
# Indices 1 2 3 4 5 6 
#
# 1 0.009972 -0.001526 0.001512 -0.004425 -0.007421 -0.001896
# 2 -0.001526 0.006573 -0.001389 -0.004031 0.003877 -0.003129
# 3 0.001512 -0.001389 0.015577 0.001633 -0.009711 -0.003168
# 4 -0.004425 -0.004031 0.001633 0.051463 -0.009977 0.014084
# 5 -0.007421 0.003877 -0.009711 -0.009977 0.047171 0.000390
# 6 -0.001896 -0.003129 -0.003168 0.014084 0.000390 0.033483
#
#
# Mechanical properties :
#
#
# Convention : Reuss Voigt Hill
#
# Bulk Modulus (GPa) = 34.11139 52.18635 43.14887
# Shear Modulus (GPa) = 28.27776 40.89854 34.58815
#
# Velocity S-wave (km/s) = 3.45167 4.15108 3.81743
# Velocity P-wave (km/s) = 5.50066 6.70541 6.13269
#
# Compressibility (1/GPa) = 0.02931572
#
# Stress axis : x y z
#
# Youngs Moduli (GPa) = 100.28090 152.14860 64.19571
#
# Poissons Ratio (x) = 0.23221 -0.09705
# Poissons Ratio (y) = 0.15305 0.08915
# Poissons Ratio (z) = -0.15161 0.21129
#
# Static dielectric constant tensor:
#      x y z
#    x 1.922680 -0.042520 0.049440 
#    y -0.042520 1.880620 0.030790 
#    z 0.049440 0.030790 1.928500 
# 
# From -- ./inp_files/619248.got.cif
#   From: 2010.05.17/outbox.cif.g08.bks.cpg/sg2_310_cif.got.tgz:619248.got - 2010.06.03 11:33:40.
