data_PCOD9024895
_publ_section_title
;
Structure prediction by ZEFSAII (Michael W. Deem and Ramdas Pophale) SiO2 
 PCOD9024895
Probable space group: P -1
;
_chemical_formula_sum "Si O2"
_cell_formula_units_Z 16
_cell_length_a 6.462099
_cell_length_b 6.096174
_cell_length_c 27.853095
_cell_angle_alpha 123.509768
_cell_angle_beta 123.072437
_cell_angle_gamma 86.151747
_cell_volume 722.315215
_symmetry_space_group_name_H-M "P -1"
_symmetry_group_IT_number 2
_symmetry_cell_setting 'triclinic'
loop_
_space_group_symop_operation_xyz
x,y,z
-x,-y,-z
loop_
_atom_site_type_symbol
_atom_site_label
_atom_site_fract_x
_atom_site_fract_y
_atom_site_fract_z
Si Si1 0.815408 0.990468 0.102312
Si Si2 0.900458 0.650020 0.464810
Si Si3 0.347052 0.519714 0.228344
Si Si4 0.678147 0.484006 0.664530
Si Si5 0.134260 0.289645 0.019092
Si Si6 0.029081 0.874630 0.209342
Si Si7 0.598143 0.446704 0.162651
Si Si8 0.809646 0.159286 0.563139
O O1 0.623077 0.151616 0.114532
O O2 0.092898 0.238979 0.158756
O O3 0.867677 0.815891 0.132294
O O4 0.741235 0.819036 0.023647
O O5 0.592172 0.540225 0.399766
O O6 0.000000 0.500000 0.500000
O O7 0.067016 0.614044 0.434978
O O8 0.948951 0.947752 0.534485
O O9 0.400525 0.591391 0.299348
O O10 0.563990 0.459446 0.216456
O O11 0.276891 0.771344 0.225420
O O12 0.821582 0.293413 0.633024
O O13 0.874287 0.799463 0.728446
O O14 0.350232 0.472364 0.105488
O O15 0.000000 0.500000 0.000000
O O16 0.000000 0.000000 0.000000
O O17 0.851447 0.690188 0.206061
O O18 0.500000 0.000000 0.500000
#
# Coordination Sequence:
#
# PCOD9024895 Si02
#       8
#     2   2   2   2   2   2   2   2
#     4  10  23  43  65  95 132 171 232 279 352 403
#     4  10  22  40  66  95 127 168 213 270 337 399
#     4  10  22  43  61  90 131 173 219 276 336 405
#     4  10  23  41  63  91 133 169 219 267 338 408
#     4  12  26  44  74 103 139 189 236 297 363 422
#     4  10  24  40  64  94 127 178 223 283 331 419
#     4  11  24  42  69  95 135 176 228 285 343 408
#     4   9  21  41  61  91 126 163 207 268 323 397
#
# _framework density 22.150994000000001
#
# number of rings (size 3 to 8) (size 9 to 14) (size 15 to 20)
#    0.000    1.750    1.250    1.125    3.500   12.500 
#    0.000    0.000    0.000    0.000    0.000    0.000 
#    0.000    0.000    0.000    0.000    0.000    0.000 
#
# Total GULP energy -89157.605334 kJ/mol
# GULP energy per Si atom -5572.350333 kJ/mol
# Density = 2.210058 g / cm^3
# Si number density = 22.150994 Si / 1000 Ang^3
#
#
#
# Elastic Constant Matrix: (Units=GPa)
#
#
# Indices 1 2 3 4 5 6 
#
# 1 116.8471 27.6339 43.9906 -4.6108 -45.0763 -0.9964
# 2 27.6339 71.4931 22.6658 -17.2014 -23.2971 -10.6165
# 3 43.9906 22.6658 106.9008 -12.1274 -34.4123 -4.0616
# 4 -4.6108 -17.2014 -12.1274 35.0851 -1.3495 0.2512
# 5 -45.0763 -23.2971 -34.4123 -1.3495 55.7066 0.0191
# 6 -0.9964 -10.6165 -4.0616 0.2512 0.0191 21.2705
#
#
#
# Elastic Compliance Matrix: (Units=1/GPa)
#
#
# Indices 1 2 3 4 5 6 
#
# 1 0.013093 -0.001506 -0.002270 0.000532 0.008576 -0.000586
# 2 -0.001506 0.021190 0.000325 0.010540 0.008096 0.010436
# 3 -0.002270 0.000325 0.012876 0.004539 0.006362 0.002455
# 4 0.000532 0.010540 0.004539 0.035595 0.008503 0.005724
# 5 0.008576 0.008096 0.006362 0.008503 0.032411 0.005528
# 6 -0.000586 0.010436 0.002455 0.005724 0.005528 0.052591
#
#
# Mechanical properties :
#
#
# Convention : Reuss Voigt Hill
#
# Bulk Modulus (GPa) = 24.83940 53.75797 39.29868
# Shear Modulus (GPa) = 26.58495 35.80915 31.19705
#
# Velocity S-wave (km/s) = 3.46810 4.02505 3.75691
# Velocity P-wave (km/s) = 5.22255 6.77665 6.04971
#
# Compressibility (1/GPa) = 0.04025862
#
# Stress axis : x y z
#
# Youngs Moduli (GPa) = 76.37569 47.19139 77.66433
#
# Poissons Ratio (x) = 0.07105 0.17630
# Poissons Ratio (y) = 0.11499 -0.02526
# Poissons Ratio (z) = 0.17337 -0.01535
#
# Static dielectric constant tensor:
#      x y z
#    x 1.830610 -0.006210 -0.004930 
#    y -0.006210 1.933180 -0.005420 
#    z -0.004930 -0.005420 1.799650 
# 
# From -- ./inp_files/11350.got.cif
#   From: 2010.05.17/outbox.cif.g08.bks.cpg/sg2_6_cif.got.tgz:11350.got - 2010.06.03 11:33:40.
