data_PCOD9024370
_publ_section_title
;
Structure prediction by ZEFSAII (Michael W. Deem and Ramdas Pophale) SiO2 
 PCOD9024370
Probable space group: P -1
;
_chemical_formula_sum "Si O2"
_cell_formula_units_Z 15
_cell_length_a 14.167664
_cell_length_b 9.528551
_cell_length_c 11.343494
_cell_angle_alpha 113.244452
_cell_angle_beta 55.151037
_cell_angle_gamma 68.418148
_cell_volume 712.581260
_symmetry_space_group_name_H-M "P -1"
_symmetry_group_IT_number 2
_symmetry_cell_setting 'triclinic'
loop_
_space_group_symop_operation_xyz
x,y,z
-x,-y,-z
loop_
_atom_site_type_symbol
_atom_site_label
_atom_site_fract_x
_atom_site_fract_y
_atom_site_fract_z
Si Si1 0.282568 0.221303 0.197618
Si Si2 0.983168 0.765451 0.289254
Si Si3 0.500000 0.000000 0.500000
Si Si4 0.190384 0.252050 0.000543
Si Si5 0.239237 0.735674 0.993661
Si Si6 0.612150 0.225334 0.582090
Si Si7 0.014384 0.233277 0.448156
Si Si8 0.814926 0.094150 0.158226
O O1 0.169351 0.206050 0.339842
O O2 0.166947 0.498836 0.392213
O O3 0.250087 0.217397 0.081413
O O4 0.500000 0.000000 0.000000
O O5 0.034493 0.765773 0.384303
O O6 0.024037 0.542218 0.182823
O O7 0.118336 0.707953 0.081176
O O8 0.773586 0.028422 0.495860
O O9 0.638621 0.884423 0.250225
O O10 0.459617 0.864458 0.439212
O O11 0.138573 0.130958 0.977042
O O12 0.433673 0.506686 0.845237
O O13 0.289804 0.728349 0.821819
O O14 0.107955 0.002660 0.230296
O O15 0.707066 0.208134 0.396082
O O16 0.000000 0.000000 0.000000
#
# Coordination Sequence:
#
# PCOD9024370 Si02
#       8
#     2   2   1   2   2   2   2   2
#     4  10  22  43  68  97 133 173 219 270 337 395
#     4  11  24  42  69  95 130 175 221 273 334 390
#     4  10  22  40  64  94 126 170 218 270 318 388
#     4  10  22  44  67  98 133 169 225 276 323 402
#     4  12  23  45  64  98 138 168 220 281 325 400
#     4  11  25  41  67  98 131 175 220 269 336 390
#     4  10  24  42  65  98 132 172 221 275 326 401
#     4  11  23  44  69  96 133 179 218 272 338 392
#
# _framework density 21.050232999999999
#
# number of rings (size 3 to 8) (size 9 to 14) (size 15 to 20)
#    0.000    1.333    4.000    0.800    1.867    4.800 
#    0.000    1.333    0.000    0.000    0.000    0.000 
#    0.000    0.000    0.000    0.000    0.000    0.000 
#
# Total GULP energy -83549.040425 kJ/mol
# GULP energy per Si atom -5569.936028 kJ/mol
# Density = 2.100232 g / cm^3
# Si number density = 21.050233 Si / 1000 Ang^3
#
#
#
# Elastic Constant Matrix: (Units=GPa)
#
#
# Indices 1 2 3 4 5 6 
#
# 1 35.1947 24.5495 32.4980 6.8030 -18.7695 9.0531
# 2 24.5495 93.3128 36.5837 -1.6830 -23.0516 2.5445
# 3 32.4980 36.5837 82.9338 14.2122 -16.8750 2.3281
# 4 6.8030 -1.6830 14.2122 41.0282 -11.0649 -13.6740
# 5 -18.7695 -23.0516 -16.8750 -11.0649 31.8490 -7.2643
# 6 9.0531 2.5445 2.3281 -13.6740 -7.2643 25.3737
#
#
#
# Elastic Compliance Matrix: (Units=1/GPa)
#
#
# Indices 1 2 3 4 5 6 
#
# 1 0.063819 -0.004967 -0.017528 -0.005941 0.018424 -0.018590
# 2 -0.004967 0.016849 -0.004920 0.009497 0.012035 0.009097
# 3 -0.017528 -0.004920 0.021131 -0.005712 -0.004584 0.000418
# 4 -0.005941 0.009497 -0.005712 0.044884 0.023368 0.032570
# 5 0.018424 0.012035 -0.004584 0.023368 0.061891 0.022952
# 6 -0.018590 0.009097 0.000418 0.032570 0.022952 0.069216
#
#
# Mechanical properties :
#
#
# Convention : Reuss Voigt Hill
#
# Bulk Modulus (GPa) = 21.29071 44.30039 32.79555
# Shear Modulus (GPa) = 14.35649 27.50420 20.93034
#
# Velocity S-wave (km/s) = 2.61437 3.61861 3.15668
# Velocity P-wave (km/s) = 4.38742 6.20886 5.37584
#
# Compressibility (1/GPa) = 0.04696883
#
# Stress axis : x y z
#
# Youngs Moduli (GPa) = 15.66942 59.35245 47.32402
#
# Poissons Ratio (x) = 0.29480 0.82949
# Poissons Ratio (y) = 0.07783 0.23283
# Poissons Ratio (z) = 0.27465 0.29201
#
# Static dielectric constant tensor:
#      x y z
#    x 1.746150 -0.011570 0.016070 
#    y -0.011570 1.801850 0.002410 
#    z 0.016070 0.002410 1.761080 
# 
# From -- ./inp_files/36960.got.cif
#   From: 2010.05.17/outbox.cif.g08.bks.cpg/sg2_19_cif.got.tgz:36960.got - 2010.06.03 11:33:40.
