data_PCOD9024866
_publ_section_title
;
Structure prediction by ZEFSAII (Michael W. Deem and Ramdas Pophale) SiO2 
 PCOD9024866
Probable space group: P -1
;
_chemical_formula_sum "Si O2"
_cell_formula_units_Z 15
_cell_length_a 11.560204
_cell_length_b 8.787445
_cell_length_c 7.440973
_cell_angle_alpha 118.740829
_cell_angle_beta 72.756212
_cell_angle_gamma 89.799194
_cell_volume 623.274966
_symmetry_space_group_name_H-M "P -1"
_symmetry_group_IT_number 2
_symmetry_cell_setting 'triclinic'
loop_
_space_group_symop_operation_xyz
x,y,z
-x,-y,-z
loop_
_atom_site_type_symbol
_atom_site_label
_atom_site_fract_x
_atom_site_fract_y
_atom_site_fract_z
Si Si1 0.378854 0.771827 0.744702
Si Si2 0.000000 0.500000 0.500000
Si Si3 0.753514 0.863074 0.061925
Si Si4 0.634315 0.539586 0.002917
Si Si5 0.860036 0.821420 0.594148
Si Si6 0.001722 0.327329 0.019032
Si Si7 0.210238 0.801690 0.175217
Si Si8 0.348639 0.392714 0.541851
O O1 0.327617 0.804532 0.989835
O O2 0.337504 0.592818 0.588696
O O3 0.525625 0.724044 0.650500
O O4 0.327026 0.946962 0.756661
O O5 0.015088 0.316000 0.517087
O O6 0.977520 0.386643 0.268517
O O7 0.671782 0.709930 0.989002
O O8 0.819477 0.874762 0.847451
O O9 0.862764 0.791803 0.108953
O O10 0.738453 0.367604 0.822633
O O11 0.639982 0.584333 0.236881
O O12 0.500000 0.500000 0.000000
O O13 0.763844 0.701032 0.504728
O O14 0.839429 0.007874 0.609295
O O15 0.897018 0.235509 0.929597
O O16 0.000000 0.500000 0.000000
#
# Coordination Sequence:
#
# PCOD9024866 Si02
#       8
#     2   1   2   2   2   2   2   2
#     4   9  21  38  62  93 114 169 209 254 311 381
#     4  10  22  40  66  94 124 168 222 262 310 384
#     4  10  23  39  65  94 122 168 211 259 322 384
#     4  11  24  40  61  93 131 166 205 263 323 382
#     4  10  23  39  67  92 122 168 217 262 317 384
#     4  11  22  44  68  93 133 171 215 268 328 378
#     4  10  22  42  65  92 127 172 207 260 329 380
#     4  10  22  41  62  90 131 163 209 262 322 379
#
# _framework density 24.066424999999999
#
# number of rings (size 3 to 8) (size 9 to 14) (size 15 to 20)
#    0.000    1.867    1.333    1.600    7.467    7.467 
#    0.000    0.667    2.933    0.000    0.000    0.000 
#    0.000    0.000    0.000    0.000    0.000    0.000 
#
# Total GULP energy -83602.381054 kJ/mol
# GULP energy per Si atom -5573.492070 kJ/mol
# Density = 2.401165 g / cm^3
# Si number density = 24.066425 Si / 1000 Ang^3
#
#
#
# Elastic Constant Matrix: (Units=GPa)
#
#
# Indices 1 2 3 4 5 6 
#
# 1 110.9831 44.8816 39.9847 21.0504 1.4914 -17.1311
# 2 44.8816 121.7888 42.9979 48.2184 0.1769 -21.1885
# 3 39.9847 42.9979 76.6931 19.9456 3.4012 -18.9514
# 4 21.0504 48.2184 19.9456 52.9258 -6.8337 -11.5527
# 5 1.4914 0.1769 3.4012 -6.8337 33.1491 3.0688
# 6 -17.1311 -21.1885 -18.9514 -11.5527 3.0688 32.8915
#
#
#
# Elastic Compliance Matrix: (Units=1/GPa)
#
#
# Indices 1 2 3 4 5 6 
#
# 1 0.011906 -0.002260 -0.004223 -0.000679 -0.000426 0.002114
# 2 -0.002260 0.015325 -0.003672 -0.011353 -0.002203 0.002797
# 3 -0.004223 -0.003672 0.019302 -0.001193 -0.002607 0.006381
# 4 -0.000679 -0.011353 -0.001193 0.031231 0.006466 0.002012
# 5 -0.000426 -0.002203 -0.002607 0.006466 0.032157 -0.003872
# 6 0.002114 0.002797 0.006381 0.002012 -0.003872 0.038050
#
#
# Mechanical properties :
#
#
# Convention : Reuss Voigt Hill
#
# Bulk Modulus (GPa) = 38.13324 62.79925 50.46624
# Shear Modulus (GPa) = 28.24506 35.89998 32.07252
#
# Velocity S-wave (km/s) = 3.42954 3.86645 3.65453
# Velocity P-wave (km/s) = 5.61799 6.78847 6.23077
#
# Compressibility (1/GPa) = 0.02622384
#
# Stress axis : x y z
#
# Youngs Moduli (GPa) = 83.98871 65.25335 51.80802
#
# Poissons Ratio (x) = 0.14745 0.21878
# Poissons Ratio (y) = 0.18978 0.19025
# Poissons Ratio (z) = 0.35467 0.23963
#
# Static dielectric constant tensor:
#      x y z
#    x 1.862250 0.042790 -0.017050 
#    y 0.042790 2.006120 -0.037120 
#    z -0.017050 -0.037120 1.902060 
# 
# From -- ./inp_files/185403.got.cif
#   From: 2010.05.17/outbox.cif.g08.bks.cpg/sg2_93_cif.got.tgz:185403.got - 2010.06.03 11:33:40.
