data_PCOD9024925
_publ_section_title
;
Structure prediction by ZEFSAII (Michael W. Deem and Ramdas Pophale) SiO2 
 PCOD9024925
Probable space group: P -1
;
_chemical_formula_sum "Si O2"
_cell_formula_units_Z 15
_cell_length_a 14.263966
_cell_length_b 7.546367
_cell_length_c 7.935375
_cell_angle_alpha 57.234029
_cell_angle_beta 120.195842
_cell_angle_gamma 98.591986
_cell_volume 611.876691
_symmetry_space_group_name_H-M "P -1"
_symmetry_group_IT_number 2
_symmetry_cell_setting 'triclinic'
loop_
_space_group_symop_operation_xyz
x,y,z
-x,-y,-z
loop_
_atom_site_type_symbol
_atom_site_label
_atom_site_fract_x
_atom_site_fract_y
_atom_site_fract_z
Si Si1 0.125271 0.201765 0.520778
Si Si2 0.646976 0.846190 0.074813
Si Si3 0.689820 0.471152 0.064931
Si Si4 0.606163 0.105709 0.586727
Si Si5 0.483503 0.417019 0.716557
Si Si6 0.000000 0.000000 0.000000
Si Si7 0.089322 0.781988 0.542282
Si Si8 0.809511 0.776273 0.811291
O O1 0.225885 0.203270 0.734547
O O2 0.155667 0.265119 0.328811
O O3 0.008539 0.326903 0.413904
O O4 0.113252 0.953052 0.616595
O O5 0.627183 0.665653 0.016742
O O6 0.580273 0.782436 0.209713
O O7 0.625249 0.057583 0.830305
O O8 0.790653 0.343461 0.325504
O O9 0.597969 0.360181 0.951227
O O10 0.756869 0.576050 0.928703
O O11 0.585063 0.356023 0.394199
O O12 0.500000 0.000000 0.500000
O O13 0.710333 0.976209 0.648640
O O14 0.500000 0.500000 0.500000
O O15 0.039150 0.903355 0.269433
O O16 0.910319 0.830797 0.984150
#
# Coordination Sequence:
#
# PCOD9024925 Si02
#       8
#     2   2   2   2   2   1   2   2
#     4  10  23  44  64 100 133 172 223 278 338 395
#     4  11  25  42  70 100 136 180 225 272 342 399
#     4  11  24  45  66  99 132 177 227 273 328 409
#     4  11  24  45  71  94 140 181 220 277 338 402
#     4  12  27  46  66 106 136 176 231 276 332 404
#     4  10  22  40  66  96 128 178 216 266 338 396
#     4  10  23  43  69  95 134 176 224 275 335 399
#     4  10  22  43  69  96 134 173 222 273 343 395
#
# _framework density 24.514742999999999
#
# number of rings (size 3 to 8) (size 9 to 14) (size 15 to 20)
#    0.000    1.333    2.667    2.800    5.600    3.200 
#    0.000    1.333    0.000    0.000    0.000    0.000 
#    0.000    0.000    0.000    0.000    0.000    0.000 
#
# Total GULP energy -83578.800962 kJ/mol
# GULP energy per Si atom -5571.920064 kJ/mol
# Density = 2.445895 g / cm^3
# Si number density = 24.514743 Si / 1000 Ang^3
#
#
#
# Elastic Constant Matrix: (Units=GPa)
#
#
# Indices 1 2 3 4 5 6 
#
# 1 101.7819 0.5243 42.0533 -8.3908 -14.3592 16.7243
# 2 0.5243 43.7051 27.3500 2.3370 11.7564 11.9490
# 3 42.0533 27.3500 106.0907 11.4091 -1.4677 6.2942
# 4 -8.3908 2.3370 11.4091 41.8003 10.0634 -2.3879
# 5 -14.3592 11.7564 -1.4677 10.0634 35.5356 0.5179
# 6 16.7243 11.9490 6.2942 -2.3879 0.5179 39.9911
#
#
#
# Elastic Compliance Matrix: (Units=1/GPa)
#
#
# Indices 1 2 3 4 5 6 
#
# 1 0.014387 0.004847 -0.006909 0.003414 0.003048 -0.006213
# 2 0.004847 0.035375 -0.011016 0.004102 -0.011209 -0.010473
# 3 -0.006909 -0.011016 0.015438 -0.005514 0.003003 0.003383
# 4 0.003414 0.004102 -0.005514 0.027830 -0.008086 -0.000019
# 5 0.003048 -0.011209 0.003003 -0.008086 0.035485 0.000659
# 6 -0.006213 -0.010473 0.003383 -0.000019 0.000659 0.030191
#
#
# Mechanical properties :
#
#
# Convention : Reuss Voigt Hill
#
# Bulk Modulus (GPa) = 25.61161 43.49254 34.55208
# Shear Modulus (GPa) = 25.26836 35.57541 30.42189
#
# Velocity S-wave (km/s) = 3.21400 3.81357 3.52655
# Velocity P-wave (km/s) = 4.92374 6.09680 5.54140
#
# Compressibility (1/GPa) = 0.03904479
#
# Stress axis : x y z
#
# Youngs Moduli (GPa) = 69.50832 28.26863 64.77481
#
# Poissons Ratio (x) = -0.13701 0.44750
# Poissons Ratio (y) = -0.33689 0.71354
# Poissons Ratio (z) = 0.48021 0.31140
#
# Static dielectric constant tensor:
#      x y z
#    x 2.036950 -0.037560 -0.000120 
#    y -0.037560 2.002630 -0.071220 
#    z -0.000120 -0.071220 1.952420 
# 
# From -- ./inp_files/294325.got.cif
#   From: 2010.05.17/outbox.cif.g08.bks.cpg/sg2_148_cif.got.tgz:294325.got - 2010.06.03 11:33:40.
