data_PCOD9024733
_publ_section_title
;
Structure prediction by ZEFSAII (Michael W. Deem and Ramdas Pophale) SiO2 
 PCOD9024733
Probable space group: P -1
;
_chemical_formula_sum "Si O2"
_cell_formula_units_Z 12
_cell_length_a 14.742058
_cell_length_b 6.114863
_cell_length_c 5.892810
_cell_angle_alpha 108.680788
_cell_angle_beta 103.727876
_cell_angle_gamma 94.139021
_cell_volume 482.471086
_symmetry_space_group_name_H-M "P -1"
_symmetry_group_IT_number 2
_symmetry_cell_setting 'triclinic'
loop_
_space_group_symop_operation_xyz
x,y,z
-x,-y,-z
loop_
_atom_site_type_symbol
_atom_site_label
_atom_site_fract_x
_atom_site_fract_y
_atom_site_fract_z
Si Si1 0.201389 0.519928 0.513694
Si Si2 0.617164 0.122717 0.383248
Si Si3 0.319005 0.183061 0.331084
Si Si4 0.455997 0.323050 0.110475
Si Si5 0.040026 0.265921 0.997246
Si Si6 0.139438 0.909245 0.893787
O O1 0.276581 0.735100 0.527123
O O2 0.270307 0.327952 0.540567
O O3 0.123696 0.372265 0.257315
O O4 0.146454 0.661003 0.704843
O O5 0.540262 0.278885 0.311950
O O6 0.613774 0.983182 0.572295
O O7 0.592113 0.913950 0.118197
O O8 0.371480 0.367037 0.240469
O O9 0.239330 0.013595 0.091293
O O10 0.500000 0.500000 0.000000
O O11 0.939051 0.119656 0.965847
O O12 0.000000 0.500000 0.000000
O O13 0.094367 0.114387 0.802841
#
# Coordination Sequence:
#
# PCOD9024733 Si02
#       6
#     2   2   2   2   2   2
#     4  11  23  41  68 102 136 186 226 287 347 408
#     4  11  24  43  69 103 136 184 232 289 346 407
#     4  11  24  45  71 101 140 184 234 284 348 412
#     4  11  25  46  70 100 140 184 234 290 349 414
#     4  10  22  40  66 101 137 184 225 279 345 413
#     4  10  22  43  66 100 142 175 231 284 340 414
#
# _framework density 24.871955
#
# number of rings (size 3 to 8) (size 9 to 14) (size 15 to 20)
#    0.000    1.333    1.667    3.000    0.000    7.333 
#    9.000    0.000    0.000    0.000    0.000    0.000 
#    0.000    0.000    0.000    0.000    0.000    0.000 
#
# Total GULP energy -66837.631026 kJ/mol
# GULP energy per Si atom -5569.802585 kJ/mol
# Density = 2.481534 g / cm^3
# Si number density = 24.871955 Si / 1000 Ang^3
#
#
#
# Elastic Constant Matrix: (Units=GPa)
#
#
# Indices 1 2 3 4 5 6 
#
# 1 127.3112 45.5459 41.5032 -7.1877 19.1285 8.3690
# 2 45.5459 88.3264 31.6661 10.3471 15.8963 5.2893
# 3 41.5032 31.6661 59.1353 24.7691 20.9558 11.4519
# 4 -7.1877 10.3471 24.7691 56.0988 -1.2028 8.5189
# 5 19.1285 15.8963 20.9558 -1.2028 31.6150 10.8656
# 6 8.3690 5.2893 11.4519 8.5189 10.8656 61.1270
#
#
#
# Elastic Compliance Matrix: (Units=1/GPa)
#
#
# Indices 1 2 3 4 5 6 
#
# 1 0.012834 -0.004016 -0.010207 0.007039 0.001547 -0.000753
# 2 -0.004016 0.015467 -0.003635 -0.001946 -0.003267 0.000744
# 3 -0.010207 -0.003635 0.041177 -0.019289 -0.020114 0.000261
# 4 0.007039 -0.001946 -0.019289 0.028341 0.011686 -0.003209
# 5 0.001547 -0.003267 -0.020114 0.011686 0.048306 -0.006376
# 6 -0.000753 0.000744 0.000261 -0.003209 -0.006376 0.017930
#
#
# Mechanical properties :
#
#
# Convention : Reuss Voigt Hill
#
# Bulk Modulus (GPa) = 29.62010 56.91150 43.26580
# Shear Modulus (GPa) = 23.69380 40.17201 31.93290
#
# Velocity S-wave (km/s) = 3.08982 4.02326 3.58703
# Velocity P-wave (km/s) = 4.96631 6.67185 5.88123
#
# Compressibility (1/GPa) = 0.03376086
#
# Stress axis : x y z
#
# Youngs Moduli (GPa) = 77.91998 64.65269 24.28518
#
# Poissons Ratio (x) = 0.25966 0.24789
# Poissons Ratio (y) = 0.31295 0.08828
# Poissons Ratio (z) = 0.79536 0.23502
#
# Static dielectric constant tensor:
#      x y z
#    x 2.001890 -0.198860 -0.050040 
#    y -0.198860 1.460720 -0.053630 
#    z -0.050040 -0.053630 1.989580 
# 
# From -- ./inp_files/3769.got.cif
#   From: 2010.05.17/outbox.cif.g08.bks.cpg/sg2_2_cif.got.tgz:3769.got - 2010.06.03 11:33:40.
