data_PCOD9024521
_publ_section_title
;
Structure prediction by ZEFSAII (Michael W. Deem and Ramdas Pophale) SiO2 
 PCOD9024521
Probable space group: P -1
;
_chemical_formula_sum "Si O2"
_cell_formula_units_Z 12
_cell_length_a 13.390801
_cell_length_b 9.552691
_cell_length_c 9.529235
_cell_angle_alpha 78.283604
_cell_angle_beta 145.874566
_cell_angle_gamma 116.506147
_cell_volume 577.380616
_symmetry_space_group_name_H-M "P -1"
_symmetry_group_IT_number 2
_symmetry_cell_setting 'triclinic'
loop_
_space_group_symop_operation_xyz
x,y,z
-x,-y,-z
loop_
_atom_site_type_symbol
_atom_site_label
_atom_site_fract_x
_atom_site_fract_y
_atom_site_fract_z
Si Si1 0.168482 0.167039 0.082246
Si Si2 0.101237 0.661441 0.274590
Si Si3 0.107818 0.714411 0.801519
Si Si4 0.578392 0.181876 0.621406
Si Si5 0.709819 0.105579 0.304583
Si Si6 0.982283 0.965602 0.651826
O O1 0.162654 0.109019 0.925776
O O2 0.076882 0.289562 0.957332
O O3 0.393279 0.220565 0.391150
O O4 0.000000 0.000000 0.000000
O O5 0.269035 0.790039 0.554957
O O6 0.004257 0.478599 0.259738
O O7 0.225224 0.690233 0.269400
O O8 0.983796 0.797439 0.707691
O O9 0.328267 0.803508 0.118917
O O10 0.500000 0.000000 0.500000
O O11 0.860700 0.237334 0.335636
O O12 0.000000 0.000000 0.500000
O O13 0.786981 0.979810 0.464550
O O14 0.500000 0.000000 0.000000
#
# Coordination Sequence:
#
# PCOD9024521 Si02
#       6
#     2   2   2   2   2   2
#     4  11  22  39  62  90 120 161 204 246 297 363
#     4  11  24  41  62  91 128 155 199 262 302 346
#     4  11  22  41  61  91 125 156 199 257 307 345
#     4  12  22  39  66  89 121 164 208 240 298 375
#     4  10  22  40  65  87 118 162 208 241 300 370
#     4   9  20  37  62  83 117 156 200 241 298 355
#
# _framework density 20.783517
#
# number of rings (size 3 to 8) (size 9 to 14) (size 15 to 20)
#    0.000    1.333    3.333    2.000    4.667    0.667 
#    3.000    0.833    0.000    0.000    0.000    0.000 
#    0.000    0.000    0.000    0.000    0.000    0.000 
#
# Total GULP energy -67017.221966 kJ/mol
# GULP energy per Si atom -5584.768497 kJ/mol
# Density = 2.073621 g / cm^3
# Si number density = 20.783517 Si / 1000 Ang^3
#
#
#
# Elastic Constant Matrix: (Units=GPa)
#
#
# Indices 1 2 3 4 5 6 
#
# 1 76.7178 12.9356 13.2475 -7.5802 -10.6642 6.9468
# 2 12.9356 112.1218 42.3820 -32.7721 23.5334 4.7921
# 3 13.2475 42.3820 126.8476 -18.7455 -3.3922 -11.1953
# 4 -7.5802 -32.7721 -18.7455 33.5931 -6.4425 -5.0012
# 5 -10.6642 23.5334 -3.3922 -6.4425 33.4263 2.5906
# 6 6.9468 4.7921 -11.1953 -5.0012 2.5906 23.5551
#
#
#
# Elastic Compliance Matrix: (Units=1/GPa)
#
#
# Indices 1 2 3 4 5 6 
#
# 1 0.015112 -0.002291 -0.000866 0.001301 0.006976 -0.004893
# 2 -0.002291 0.015996 -0.003867 0.010822 -0.010223 -0.000995
# 3 -0.000866 -0.003867 0.010444 0.003512 0.003692 0.006346
# 4 0.001301 0.010822 0.003512 0.044007 0.000990 0.008319
# 5 0.006976 -0.010223 0.003692 0.000990 0.040093 -0.002422
# 6 -0.004893 -0.000995 0.006346 0.008319 -0.002422 0.049148
#
#
# Mechanical properties :
#
#
# Convention : Reuss Voigt Hill
#
# Bulk Modulus (GPa) = 36.35845 50.31304 43.33575
# Shear Modulus (GPa) = 25.25053 34.58971 29.92012
#
# Velocity S-wave (km/s) = 3.48937 4.08399 3.79833
# Velocity P-wave (km/s) = 5.81086 6.81904 6.33504
#
# Compressibility (1/GPa) = 0.02750392
#
# Stress axis : x y z
#
# Youngs Moduli (GPa) = 66.17260 62.51465 95.75009
#
# Poissons Ratio (x) = 0.14322 0.08290
# Poissons Ratio (y) = 0.15160 0.37029
# Poissons Ratio (z) = 0.05729 0.24176
#
# Static dielectric constant tensor:
#      x y z
#    x 1.828450 -0.014500 0.000860 
#    y -0.014500 1.732610 0.009970 
#    z 0.000860 0.009970 1.781320 
# 
# From -- ./inp_files/442845.got.cif
#   From: 2010.05.17/outbox.cif.g08.bks.cpg/sg2_222_cif.got.tgz:442845.got - 2010.06.03 11:33:40.
