data_PCOD9024336
_publ_section_title
;
Structure prediction by ZEFSAII (Michael W. Deem and Ramdas Pophale) SiO2 
 PCOD9024336
Probable space group: P -1
;
_chemical_formula_sum "Si O2"
_cell_formula_units_Z 14
_cell_length_a 5.300108
_cell_length_b 8.900544
_cell_length_c 18.519165
_cell_angle_alpha 72.336199
_cell_angle_beta 59.623983
_cell_angle_gamma 56.753972
_cell_volume 629.916978
_symmetry_space_group_name_H-M "P -1"
_symmetry_group_IT_number 2
_symmetry_cell_setting 'triclinic'
loop_
_space_group_symop_operation_xyz
x,y,z
-x,-y,-z
loop_
_atom_site_type_symbol
_atom_site_label
_atom_site_fract_x
_atom_site_fract_y
_atom_site_fract_z
Si Si1 0.738785 0.545902 0.804255
Si Si2 0.634415 0.521481 0.555418
Si Si3 0.927126 0.457825 0.097239
Si Si4 0.340070 0.982522 0.806339
Si Si5 0.678718 0.968759 0.902339
Si Si6 0.638436 0.117837 0.499981
Si Si7 0.363734 0.282286 0.665707
O O1 0.460170 0.483075 0.848097
O O2 0.560469 0.765431 0.793286
O O3 0.922501 0.487116 0.864473
O O4 0.010094 0.444415 0.718064
O O5 0.500000 0.500000 0.500000
O O6 0.387264 0.731875 0.575726
O O7 0.607820 0.370279 0.628391
O O8 0.000000 0.500000 0.500000
O O9 0.107451 0.243837 0.106781
O O10 0.000000 0.500000 0.000000
O O11 0.408617 0.029676 0.869680
O O12 0.951783 0.036024 0.846946
O O13 0.436293 0.104116 0.724517
O O14 0.500000 0.000000 0.000000
O O15 0.400882 0.220864 0.586640
O O16 0.500000 0.000000 0.500000
O O17 0.000000 0.000000 0.500000
#
# Coordination Sequence:
#
# PCOD9024336 Si02
#       7
#     2   2   2   2   2   2   2
#     4  10  24  42  62 101 132 176 229 281 338 396
#     4  10  23  45  68 101 134 174 227 271 344 425
#     4  10  22  40  64  92 134 179 227 280 333 399
#     4  10  24  42  63 101 133 176 227 280 345 384
#     4  10  22  40  64  93 135 178 227 278 333 409
#     4  11  25  46  72 105 136 180 223 281 357 421
#     4  11  26  45  77  98 141 177 230 288 341 415
#
# _framework density 22.225152000000001
#
# number of rings (size 3 to 8) (size 9 to 14) (size 15 to 20)
#    0.000    1.714    0.000    2.571    6.000    6.857 
#    5.143    0.000    0.000    0.000    0.000    0.000 
#    0.000    0.000    0.000    0.000    0.000    0.000 
#
# Total GULP energy -78174.362961 kJ/mol
# GULP energy per Si atom -5583.883069 kJ/mol
# Density = 2.217457 g / cm^3
# Si number density = 22.225152 Si / 1000 Ang^3
#
#
#
# Elastic Constant Matrix: (Units=GPa)
#
#
# Indices 1 2 3 4 5 6 
#
# 1 94.3798 26.4615 -4.5357 11.4883 -19.8974 9.8517
# 2 26.4615 101.7110 24.2429 -8.4222 -2.7368 0.5331
# 3 -4.5357 24.2429 72.6295 8.7726 -11.1613 7.4437
# 4 11.4883 -8.4222 8.7726 54.4980 2.7775 -3.3974
# 5 -19.8974 -2.7368 -11.1613 2.7775 37.0508 3.7656
# 6 9.8517 0.5331 7.4437 -3.3974 3.7656 20.9439
#
#
#
# Elastic Compliance Matrix: (Units=1/GPa)
#
#
# Indices 1 2 3 4 5 6 
#
# 1 0.018417 -0.006927 0.008118 -0.007917 0.013959 -0.015166
# 2 -0.006927 0.013644 -0.007366 0.005535 -0.006111 0.007525
# 3 0.008118 -0.007366 0.021043 -0.007768 0.012217 -0.014566
# 4 -0.007917 0.005535 -0.007768 0.023323 -0.009127 0.011768
# 5 0.013959 -0.006111 0.012217 -0.009127 0.040381 -0.019494
# 6 -0.015166 0.007525 -0.014566 0.011768 -0.019494 0.065280
#
#
# Mechanical properties :
#
#
# Convention : Reuss Voigt Hill
#
# Bulk Modulus (GPa) = 24.53686 40.11752 32.32719
# Shear Modulus (GPa) = 24.03597 37.33530 30.68564
#
# Velocity S-wave (km/s) = 3.29215 4.10306 3.71977
# Velocity P-wave (km/s) = 5.05125 6.36683 5.74681
#
# Compressibility (1/GPa) = 0.04075500
#
# Stress axis : x y z
#
# Youngs Moduli (GPa) = 54.29632 73.29231 47.52256
#
# Poissons Ratio (x) = 0.50769 -0.38579
# Poissons Ratio (y) = 0.37611 0.35004
# Poissons Ratio (z) = -0.44078 0.53985
#
# Static dielectric constant tensor:
#      x y z
#    x 1.775350 -0.073070 0.039400 
#    y -0.073070 1.872880 -0.042720 
#    z 0.039400 -0.042720 1.894960 
# 
# From -- ./inp_files/126232.got.cif
#   From: 2010.05.17/outbox.cif.g08.bks.cpg/sg2_64_cif.got.tgz:126232.got - 2010.06.03 11:33:40.
