data_PCOD9024081
_publ_section_title
;
Structure prediction by ZEFSAII (Michael W. Deem and Ramdas Pophale) SiO2 
 PCOD9024081
Probable space group: P -1
;
_chemical_formula_sum "Si O2"
_cell_formula_units_Z 16
_cell_length_a 24.388676
_cell_length_b 15.030398
_cell_length_c 8.396394
_cell_angle_alpha 46.980293
_cell_angle_beta 46.710479
_cell_angle_gamma 20.126467
_cell_volume 761.769794
_symmetry_space_group_name_H-M "P -1"
_symmetry_group_IT_number 2
_symmetry_cell_setting 'triclinic'
loop_
_space_group_symop_operation_xyz
x,y,z
-x,-y,-z
loop_
_atom_site_type_symbol
_atom_site_label
_atom_site_fract_x
_atom_site_fract_y
_atom_site_fract_z
Si Si1 0.537530 0.944698 0.248547
Si Si2 0.070158 0.175725 0.935670
Si Si3 0.348610 0.751695 0.104167
Si Si4 0.738042 0.557680 0.027363
Si Si5 0.009305 0.515794 0.653942
Si Si6 0.349199 0.041741 0.717325
Si Si7 0.370598 0.555597 0.611020
Si Si8 0.729056 0.078430 0.457679
O O1 0.488020 0.891025 0.503911
O O2 0.653522 0.745580 0.115095
O O3 0.622033 0.916721 0.235840
O O4 0.371606 0.242419 0.147127
O O5 0.988403 0.410506 0.892943
O O6 0.212483 0.014204 0.727531
O O7 0.927857 0.318805 0.942871
O O8 0.176244 0.956149 0.122973
O O9 0.364505 0.657515 0.351726
O O10 0.500000 0.500000 0.000000
O O11 0.351091 0.895637 0.933175
O O12 0.722025 0.436779 0.229637
O O13 0.000000 0.500000 0.500000
O O14 0.181206 0.309636 0.632470
O O15 0.870956 0.811188 0.600769
O O16 0.560885 0.252618 0.616726
O O17 0.302490 0.735311 0.669841
#
# Coordination Sequence:
#
# PCOD9024081 Si02
#       8
#     2   2   2   2   2   2   2   2
#     4  10  23  40  64  92 137 164 216 267 326 376
#     4  10  22  40  64  94 122 170 215 261 322 371
#     4  11  22  41  65  90 130 166 213 259 318 391
#     4  11  25  40  63  95 131 172 212 266 322 383
#     4   9  19  36  67  91 121 159 216 264 308 369
#     4  10  22  41  66  99 122 174 214 271 320 372
#     4  11  25  39  63  95 127 173 211 258 322 384
#     4  10  22  40  63  91 126 165 221 258 310 390
#
# _framework density 21.003719
#
# number of rings (size 3 to 8) (size 9 to 14) (size 15 to 20)
#    0.000    1.750    1.250    2.250   10.500    2.000 
#    0.000    5.000    0.000    0.000    0.000    0.000 
#    0.000    0.000    0.000    0.000    0.000    0.000 
#
# Total GULP energy -89270.085573 kJ/mol
# GULP energy per Si atom -5579.380348 kJ/mol
# Density = 2.095591 g / cm^3
# Si number density = 21.003719 Si / 1000 Ang^3
#
#
#
# Elastic Constant Matrix: (Units=GPa)
#
#
# Indices 1 2 3 4 5 6 
#
# 1 96.0043 31.2169 14.6425 -1.9451 -8.4670 -26.1791
# 2 31.2169 86.8691 10.9724 -8.4355 -11.6983 -17.1469
# 3 14.6425 10.9724 58.4887 -12.8907 -7.2188 -0.2509
# 4 -1.9451 -8.4355 -12.8907 21.6595 -3.4676 4.4073
# 5 -8.4670 -11.6983 -7.2188 -3.4676 33.1116 -0.1904
# 6 -26.1791 -17.1469 -0.2509 4.4073 -0.1904 29.6938
#
#
#
# Elastic Compliance Matrix: (Units=1/GPa)
#
#
# Indices 1 2 3 4 5 6 
#
# 1 0.015438 -0.002732 -0.004055 -0.004394 0.001711 0.012661
# 2 -0.002732 0.014762 -0.000343 0.005000 0.004996 0.005402
# 3 -0.004055 -0.000343 0.021999 0.014580 0.005132 -0.005719
# 4 -0.004394 0.005000 0.014580 0.059982 0.010047 -0.009702
# 5 0.001711 0.004996 0.005132 0.010047 0.034593 0.003167
# 6 0.012661 0.005402 -0.005719 -0.009702 0.003167 0.049371
#
#
# Mechanical properties :
#
#
# Convention : Reuss Voigt Hill
#
# Bulk Modulus (GPa) = 26.35985 39.44730 32.90357
# Shear Modulus (GPa) = 22.41638 29.19502 25.80570
#
# Velocity S-wave (km/s) = 3.27043 3.73231 3.50898
# Velocity P-wave (km/s) = 5.18057 6.11517 5.66717
#
# Compressibility (1/GPa) = 0.03793648
#
# Stress axis : x y z
#
# Youngs Moduli (GPa) = 64.77697 67.74361 45.45626
#
# Poissons Ratio (x) = 0.18511 0.18433
# Poissons Ratio (y) = 0.17700 0.01561
# Poissons Ratio (z) = 0.26267 0.02326
#
# Static dielectric constant tensor:
#      x y z
#    x 1.780650 -0.005270 0.032540 
#    y -0.005270 1.778160 -0.019570 
#    z 0.032540 -0.019570 1.804000 
# 
# From -- ./inp_files/185984.got.cif
#   From: 2010.05.17/outbox.cif.g08.bks.cpg/sg2_93_cif.got.tgz:185984.got - 2010.06.03 11:33:40.
