data_PCOD9024023
_publ_section_title
;
Structure prediction by ZEFSAII (Michael W. Deem and Ramdas Pophale) SiO2 
 PCOD9024023
Probable space group: P -1
;
_chemical_formula_sum "Si O2"
_cell_formula_units_Z 16
_cell_length_a 7.573771
_cell_length_b 19.516666
_cell_length_c 7.012905
_cell_angle_alpha 48.459276
_cell_angle_beta 119.287632
_cell_angle_gamma 122.483822
_cell_volume 639.799398
_symmetry_space_group_name_H-M "P -1"
_symmetry_group_IT_number 2
_symmetry_cell_setting 'triclinic'
loop_
_space_group_symop_operation_xyz
x,y,z
-x,-y,-z
loop_
_atom_site_type_symbol
_atom_site_label
_atom_site_fract_x
_atom_site_fract_y
_atom_site_fract_z
Si Si1 0.010006 0.112040 0.814608
Si Si2 0.459876 0.894971 0.373801
Si Si3 0.894289 0.884043 0.703055
Si Si4 0.653544 0.299510 0.844056
Si Si5 0.236315 0.313328 0.490391
Si Si6 0.947413 0.375285 0.520645
Si Si7 0.661684 0.112069 0.125629
Si Si8 0.894551 0.571274 0.089962
O O1 0.780138 0.126081 0.637073
O O2 0.172459 0.198721 0.620833
O O3 0.084895 0.133376 0.031409
O O4 0.000000 0.000000 0.000000
O O5 0.418216 0.895753 0.122325
O O6 0.645212 0.846197 0.586341
O O7 0.576945 0.000001 0.336762
O O8 0.081018 0.845659 0.792634
O O9 0.000000 0.000000 0.500000
O O10 0.460946 0.340760 0.666236
O O11 0.747695 0.306630 0.662680
O O12 0.577260 0.186163 0.059960
O O13 0.860166 0.362911 0.949560
O O14 0.058255 0.328701 0.510032
O O15 0.250822 0.381243 0.191231
O O16 0.114282 0.420098 0.700515
O O17 0.874936 0.461647 0.237963
#
# Coordination Sequence:
#
# PCOD9024023 Si02
#       8
#     2   2   2   2   2   2   2   2
#     4  11  24  38  52  90 134 162 219 272 304 381
#     4   9  18  33  55  80 114 176 211 254 329 358
#     4   9  19  35  58  80 108 171 217 257 323 368
#     4  10  22  40  62  98 128 167 213 263 324 400
#     4  12  24  42  68  96 131 176 216 266 328 386
#     4   9  21  48  65  98 136 157 220 274 318 408
#     4   9  17  33  55  86 123 149 217 268 296 385
#     4   9  23  45  67  99 131 166 211 276 332 386
#
# _framework density 25.007840999999999
#
# number of rings (size 3 to 8) (size 9 to 14) (size 15 to 20)
#    0.750    1.500    0.000    3.375    0.000    5.500 
#    2.250    0.000    0.000    0.000    0.000    0.000 
#    0.000    0.000    0.000    0.000    0.000    0.000 
#
# Total GULP energy -89295.888199 kJ/mol
# GULP energy per Si atom -5580.993012 kJ/mol
# Density = 2.495092 g / cm^3
# Si number density = 25.007841 Si / 1000 Ang^3
#
#
#
# Elastic Constant Matrix: (Units=GPa)
#
#
# Indices 1 2 3 4 5 6 
#
# 1 87.2619 8.9587 28.3194 14.7185 21.8243 -2.6404
# 2 8.9587 54.8159 23.9476 -9.3136 10.0318 -1.8055
# 3 28.3194 23.9476 132.0344 5.6965 26.8882 -9.0434
# 4 14.7185 -9.3136 5.6965 49.4172 8.1734 8.8214
# 5 21.8243 10.0318 26.8882 8.1734 39.4283 16.7969
# 6 -2.6404 -1.8055 -9.0434 8.8214 16.7969 19.1254
#
#
#
# Elastic Compliance Matrix: (Units=1/GPa)
#
#
# Indices 1 2 3 4 5 6 
#
# 1 0.017678 -0.000546 0.002406 -0.006647 -0.020320 0.024439
# 2 -0.000546 0.021486 -0.002445 0.004800 -0.006213 0.004039
# 3 0.002406 -0.002445 0.013627 -0.004077 -0.020367 0.026312
# 4 -0.006647 0.004800 -0.004077 0.026083 0.009547 -0.022808
# 5 -0.020320 -0.006213 -0.020367 0.009547 0.091913 -0.098149
# 6 0.024439 0.004039 0.026312 -0.022808 -0.098149 0.165203
#
#
# Mechanical properties :
#
#
# Convention : Reuss Voigt Hill
#
# Bulk Modulus (GPa) = 19.37203 44.06264 31.71733
# Shear Modulus (GPa) = 14.10971 35.78663 24.94817
#
# Velocity S-wave (km/s) = 2.37789 3.78698 3.16193
# Velocity P-wave (km/s) = 3.91182 6.06460 5.10303
#
# Compressibility (1/GPa) = 0.05162082
#
# Stress axis : x y z
#
# Youngs Moduli (GPa) = 56.56853 46.54195 73.38429
#
# Poissons Ratio (x) = 0.02541 -0.17658
# Poissons Ratio (y) = 0.03088 0.17944
# Poissons Ratio (z) = -0.13612 0.11380
#
# Static dielectric constant tensor:
#      x y z
#    x 1.238130 -0.815680 0.404920 
#    y -0.815680 1.108470 0.457380 
#    z 0.404920 0.457380 1.806170 
# 
# From -- ./inp_files/224820.got.cif
#   From: 2010.05.17/outbox.cif.g08.bks.cpg/sg2_113_cif.got.tgz:224820.got - 2010.06.03 11:33:40.
