data_PCOD9024637
_publ_section_title
;
Structure prediction by ZEFSAII (Michael W. Deem and Ramdas Pophale) SiO2 
 PCOD9024637
Probable space group: P -1
;
_chemical_formula_sum "Si O2"
_cell_formula_units_Z 14
_cell_length_a 11.563004
_cell_length_b 6.309505
_cell_length_c 13.829626
_cell_angle_alpha 125.708136
_cell_angle_beta 49.296094
_cell_angle_gamma 123.143834
_cell_volume 598.047684
_symmetry_space_group_name_H-M "P -1"
_symmetry_group_IT_number 2
_symmetry_cell_setting 'triclinic'
loop_
_space_group_symop_operation_xyz
x,y,z
-x,-y,-z
loop_
_atom_site_type_symbol
_atom_site_label
_atom_site_fract_x
_atom_site_fract_y
_atom_site_fract_z
Si Si1 0.603386 0.298750 0.003966
Si Si2 0.630321 0.775855 0.525040
Si Si3 0.866014 0.099399 0.319549
Si Si4 0.068959 0.310410 0.575253
Si Si5 0.502995 0.787242 0.174717
Si Si6 0.953891 0.323341 0.857970
Si Si7 0.155327 0.890928 0.889220
O O1 0.599600 0.310150 0.891768
O O2 0.776378 0.346722 0.967401
O O3 0.516359 0.516128 0.148689
O O4 0.500000 0.000000 0.000000
O O5 0.500000 0.500000 0.500000
O O6 0.749427 0.678524 0.504015
O O7 0.732993 0.919332 0.414783
O O8 0.563861 0.002303 0.673349
O O9 0.931509 0.409634 0.403047
O O10 0.801060 0.112877 0.249729
O O11 0.005095 0.946198 0.198934
O O12 0.983283 0.326725 0.727600
O O13 0.000000 0.000000 0.500000
O O14 0.689924 0.936955 0.094086
O O15 0.089609 0.589601 0.887341
O O16 0.000000 0.000000 0.000000
#
# Coordination Sequence:
#
# PCOD9024637 Si02
#       7
#     2   2   2   2   2   2   2
#     4  11  26  42  65  98 134 178 220 269 344 402
#     4  11  24  44  68 100 139 174 228 280 338 405
#     4  10  24  41  71 100 134 179 223 279 341 393
#     4  10  22  40  65  95 131 178 223 274 325 398
#     4  11  25  44  65  97 138 173 216 284 331 394
#     4  10  22  42  64  98 129 170 227 274 327 403
#     4  11  23  43  70  96 133 174 225 278 329 397
#
# _framework density 23.409504999999999
#
# number of rings (size 3 to 8) (size 9 to 14) (size 15 to 20)
#    0.000    1.429    1.429    3.429    2.000   12.000 
#    0.000    0.000    0.000    0.000    0.000    0.000 
#    0.000    0.000    0.000    0.000    0.000    0.000 
#
# Total GULP energy -78249.202572 kJ/mol
# GULP energy per Si atom -5589.228755 kJ/mol
# Density = 2.335622 g / cm^3
# Si number density = 23.409505 Si / 1000 Ang^3
#
#
#
# Elastic Constant Matrix: (Units=GPa)
#
#
# Indices 1 2 3 4 5 6 
#
# 1 117.7361 30.1895 24.4682 15.9288 -14.5249 7.6181
# 2 30.1895 131.5673 24.1013 41.5860 -6.7039 -15.0694
# 3 24.4682 24.1013 101.0773 29.2442 -19.8519 -16.5373
# 4 15.9288 41.5860 29.2442 48.6446 -7.6055 0.4081
# 5 -14.5249 -6.7039 -19.8519 -7.6055 37.1651 10.4459
# 6 7.6181 -15.0694 -16.5373 0.4081 10.4459 31.8207
#
#
#
# Elastic Compliance Matrix: (Units=1/GPa)
#
#
# Indices 1 2 3 4 5 6 
#
# 1 0.010550 -0.002899 -0.002438 0.001235 0.004415 -0.006631
# 2 -0.002899 0.012290 0.001882 -0.011163 -0.002579 0.008482
# 3 -0.002438 0.001882 0.014633 -0.009206 0.003012 0.008209
# 4 0.001235 -0.011163 -0.009206 0.036016 0.004369 -0.012263
# 5 0.004415 -0.002579 0.003012 0.004369 0.034025 -0.011939
# 6 -0.006631 0.008482 0.008209 -0.012263 -0.011939 0.045373
#
#
# Mechanical properties :
#
#
# Convention : Reuss Voigt Hill
#
# Bulk Modulus (GPa) = 32.71892 56.43318 44.57605
# Shear Modulus (GPa) = 29.41436 41.63419 35.52427
#
# Velocity S-wave (km/s) = 3.54858 4.22182 3.89976
# Velocity P-wave (km/s) = 5.54950 6.92274 6.27381
#
# Compressibility (1/GPa) = 0.03056336
#
# Stress axis : x y z
#
# Youngs Moduli (GPa) = 94.78521 81.36908 68.33929
#
# Poissons Ratio (x) = 0.23591 0.16660
# Poissons Ratio (y) = 0.27481 -0.12864
# Poissons Ratio (z) = 0.23107 -0.15317
#
# Static dielectric constant tensor:
#      x y z
#    x 1.910200 -0.028740 0.063220 
#    y -0.028740 1.907110 0.017280 
#    z 0.063220 0.017280 1.932770 
# 
# From -- ./inp_files/64347.got.cif
#   From: 2010.05.17/outbox.cif.g08.bks.cpg/sg2_33_cif.got.tgz:64347.got - 2010.06.03 11:33:40.
