data_PCOD9024272
_publ_section_title
;
Structure prediction by ZEFSAII (Michael W. Deem and Ramdas Pophale) SiO2 
 PCOD9024272
Probable space group: P -1
;
_chemical_formula_sum "Si O2"
_cell_formula_units_Z 14
_cell_length_a 11.723647
_cell_length_b 12.115897
_cell_length_c 7.797002
_cell_angle_alpha 38.714776
_cell_angle_beta 101.370692
_cell_angle_gamma 112.529430
_cell_volume 629.805234
_symmetry_space_group_name_H-M "P -1"
_symmetry_group_IT_number 2
_symmetry_cell_setting 'triclinic'
loop_
_space_group_symop_operation_xyz
x,y,z
-x,-y,-z
loop_
_atom_site_type_symbol
_atom_site_label
_atom_site_fract_x
_atom_site_fract_y
_atom_site_fract_z
Si Si1 0.701201 0.012364 0.424298
Si Si2 0.567748 0.189890 0.903902
Si Si3 0.813298 0.874211 0.305374
Si Si4 0.051263 0.683722 0.901922
Si Si5 0.327451 0.147065 0.040374
Si Si6 0.916452 0.798673 0.977281
Si Si7 0.819566 0.502655 0.579484
O O1 0.738766 0.889614 0.436477
O O2 0.634282 0.938187 0.674358
O O3 0.371186 0.878493 0.834438
O O4 0.839563 0.150678 0.359809
O O5 0.683406 0.360166 0.646283
O O6 0.460320 0.262113 0.851401
O O7 0.500000 0.000000 0.000000
O O8 0.799656 0.660108 0.510549
O O9 0.754011 0.952021 0.033078
O O10 0.961489 0.009110 0.188720
O O11 0.119267 0.629330 0.148564
O O12 0.940894 0.745027 0.858923
O O13 0.000000 0.500000 0.000000
O O14 0.223615 0.212711 0.018931
O O15 0.913034 0.632699 0.308183
#
# Coordination Sequence:
#
# PCOD9024272 Si02
#       7
#     2   2   2   2   2   2   2
#     4  10  23  41  64  93 124 166 211 259 310 371
#     4  11  23  44  64  90 125 172 215 256 308 363
#     4  10  22  41  66  95 127 164 203 262 316 375
#     4  10  23  36  61  95 129 158 202 260 319 369
#     4  11  22  39  68  87 125 164 215 249 315 361
#     4  10  23  40  63  97 123 167 206 251 324 376
#     4  10  22  40  64  89 129 162 213 254 307 376
#
# _framework density 22.229095999999998
#
# number of rings (size 3 to 8) (size 9 to 14) (size 15 to 20)
#    0.000    1.714    1.429    2.571    6.000    4.571 
#    0.000    0.714    0.000    0.000    0.000    0.000 
#    0.000    0.000    0.000    0.000    0.000    0.000 
#
# Total GULP energy -77940.482712 kJ/mol
# GULP energy per Si atom -5567.177337 kJ/mol
# Density = 2.217850 g / cm^3
# Si number density = 22.229096 Si / 1000 Ang^3
#
#
#
# Elastic Constant Matrix: (Units=GPa)
#
#
# Indices 1 2 3 4 5 6 
#
# 1 131.4091 20.9563 8.4032 -10.0320 -15.4083 -5.2166
# 2 20.9563 92.0303 13.0578 -12.5148 -18.8032 -1.5319
# 3 8.4032 13.0578 66.5129 -1.4474 -9.7539 0.4001
# 4 -10.0320 -12.5148 -1.4474 35.8895 7.8723 6.6897
# 5 -15.4083 -18.8032 -9.7539 7.8723 31.7869 9.8154
# 6 -5.2166 -1.5319 0.4001 6.6897 9.8154 25.0506
#
#
#
# Elastic Compliance Matrix: (Units=1/GPa)
#
#
# Indices 1 2 3 4 5 6 
#
# 1 0.008245 -0.001061 -0.000385 0.001251 0.002881 0.000195
# 2 -0.001061 0.013109 -0.001332 0.003254 0.006949 -0.002990
# 3 -0.000385 -0.001332 0.016041 -0.000570 0.004745 -0.002125
# 4 0.001251 0.003254 -0.000570 0.031287 -0.003364 -0.006568
# 5 0.002881 0.006949 0.004745 -0.003364 0.044010 -0.015397
# 6 0.000195 -0.002990 -0.002125 -0.006568 -0.015397 0.047598
#
#
# Mechanical properties :
#
#
# Convention : Reuss Voigt Hill
#
# Bulk Modulus (GPa) = 31.40723 41.64299 36.52511
# Shear Modulus (GPa) = 28.33542 35.04772 31.69157
#
# Velocity S-wave (km/s) = 3.57417 3.97503 3.77991
# Velocity P-wave (km/s) = 5.58502 6.31205 5.95963
#
# Compressibility (1/GPa) = 0.03183980
#
# Stress axis : x y z
#
# Youngs Moduli (GPa) = 121.29096 76.28349 62.34028
#
# Poissons Ratio (x) = 0.08093 0.02399
# Poissons Ratio (y) = 0.12867 0.08302
# Poissons Ratio (z) = 0.04668 0.10159
#
# Static dielectric constant tensor:
#      x y z
#    x -0.385900 -0.328460 -0.289710 
#    y -0.328460 1.811120 -0.000340 
#    z -0.289710 -0.000340 1.817340 
# 
# From -- ./inp_files/255943.got.cif
#   From: 2010.05.17/outbox.cif.g08.bks.cpg/sg2_128_cif.got.tgz:255943.got - 2010.06.03 11:33:40.
