data_PCOD9024092
_publ_section_title
;
Structure prediction by ZEFSAII (Michael W. Deem and Ramdas Pophale) SiO2 
 PCOD9024092
Probable space group: P -1
;
_chemical_formula_sum "Si O2"
_cell_formula_units_Z 12
_cell_length_a 9.950000
_cell_length_b 7.348545
_cell_length_c 11.328016
_cell_angle_alpha 120.067137
_cell_angle_beta 59.838777
_cell_angle_gamma 130.346890
_cell_volume 526.035708
_symmetry_space_group_name_H-M "P -1"
_symmetry_group_IT_number 2
_symmetry_cell_setting 'triclinic'
loop_
_space_group_symop_operation_xyz
x,y,z
-x,-y,-z
loop_
_atom_site_type_symbol
_atom_site_label
_atom_site_fract_x
_atom_site_fract_y
_atom_site_fract_z
Si Si1 0.014776 0.673515 0.658359
Si Si2 0.579868 0.050945 0.318097
Si Si3 0.497502 0.639936 0.382591
Si Si4 0.732003 0.401159 0.159514
Si Si5 0.141524 0.112867 0.367076
Si Si6 0.853541 0.346752 0.844677
O O1 0.220496 0.815412 0.663354
O O2 0.000000 0.500000 0.500000
O O3 0.960825 0.860803 0.691928
O O4 0.882566 0.506584 0.767868
O O5 0.472124 0.166086 0.465425
O O6 0.622595 0.142262 0.195145
O O7 0.489110 0.768935 0.307189
O O8 0.645923 0.563807 0.282545
O O9 0.306325 0.389083 0.411059
O O10 0.940338 0.540806 0.159288
O O11 0.736707 0.365595 0.006402
O O12 0.213808 0.932732 0.250392
O O13 0.000000 0.000000 0.500000
#
# Coordination Sequence:
#
# PCOD9024092 Si02
#       6
#     2   2   2   2   2   2
#     4  11  20  40  64  89 122 160 208 253 300 363
#     4  10  22  40  63  92 122 161 206 255 305 366
#     4  11  23  38  64  93 123 162 203 262 308 355
#     4  10  22  43  63  90 125 164 205 251 309 366
#     4  12  23  39  65  93 121 161 206 258 309 364
#     4  10  23  41  65  90 123 165 208 250 303 371
#
# _framework density 22.812138999999998
#
# number of rings (size 3 to 8) (size 9 to 14) (size 15 to 20)
#    0.000    1.333    3.333    2.500    0.000    6.000 
#    0.000    6.667    0.000    0.000    0.000    0.000 
#    0.000    0.000    0.000    0.000    0.000    0.000 
#
# Total GULP energy -67216.960040 kJ/mol
# GULP energy per Si atom -5601.413337 kJ/mol
# Density = 2.276022 g / cm^3
# Si number density = 22.812139 Si / 1000 Ang^3
#
#
#
# Elastic Constant Matrix: (Units=GPa)
#
#
# Indices 1 2 3 4 5 6 
#
# 1 81.7304 25.6662 39.7109 -8.6362 -4.2853 -12.0169
# 2 25.6662 144.9543 49.9956 -41.5914 5.0653 -15.9722
# 3 39.7109 49.9956 126.2302 -45.4635 6.5599 -17.7743
# 4 -8.6362 -41.5914 -45.4635 36.5419 -6.5925 5.8014
# 5 -4.2853 5.0653 6.5599 -6.5925 28.1501 1.4667
# 6 -12.0169 -15.9722 -17.7743 5.8014 1.4667 32.9002
#
#
#
# Elastic Compliance Matrix: (Units=1/GPa)
#
#
# Indices 1 2 3 4 5 6 
#
# 1 0.015779 -0.002385 -0.006211 -0.006607 0.002612 0.002298
# 2 -0.002385 0.010954 0.001723 0.013632 0.000303 0.002960
# 3 -0.006211 0.001723 0.017618 0.021637 -0.000517 0.004294
# 4 -0.006607 0.013632 0.021637 0.069055 0.007495 0.003383
# 5 0.002612 0.000303 -0.000517 0.007495 0.037857 -0.002188
# 6 0.002298 0.002960 0.004294 0.003383 -0.002188 0.034492
#
#
# Mechanical properties :
#
#
# Convention : Reuss Voigt Hill
#
# Bulk Modulus (GPa) = 32.67563 64.85117 48.76340
# Shear Modulus (GPa) = 23.84334 35.35458 29.59896
#
# Velocity S-wave (km/s) = 3.23647 3.94104 3.60600
# Velocity P-wave (km/s) = 5.32177 7.01421 6.22577
#
# Compressibility (1/GPa) = 0.03060385
#
# Stress axis : x y z
#
# Youngs Moduli (GPa) = 63.37610 91.29270 56.76015
#
# Poissons Ratio (x) = 0.21777 0.35252
# Poissons Ratio (y) = 0.15118 -0.09778
# Poissons Ratio (z) = 0.39361 -0.15726
#
# Static dielectric constant tensor:
#      x y z
#    x 1.924160 0.012930 0.024680 
#    y 0.012930 1.855480 -0.022250 
#    z 0.024680 -0.022250 1.820860 
# 
# From -- ./inp_files/408602.got.cif
#   From: 2010.05.17/outbox.cif.g08.bks.cpg/sg2_205_cif.got.tgz:408602.got - 2010.06.03 11:33:40.
