data_PCOD9024432
_publ_section_title
;
Structure prediction by ZEFSAII (Michael W. Deem and Ramdas Pophale) SiO2 
 PCOD9024432
Probable space group: P -1
;
_chemical_formula_sum "Si O2"
_cell_formula_units_Z 14
_cell_length_a 8.407524
_cell_length_b 11.906943
_cell_length_c 8.807896
_cell_angle_alpha 120.864960
_cell_angle_beta 54.246076
_cell_angle_gamma 119.488431
_cell_volume 590.307848
_symmetry_space_group_name_H-M "P -1"
_symmetry_group_IT_number 2
_symmetry_cell_setting 'triclinic'
loop_
_space_group_symop_operation_xyz
x,y,z
-x,-y,-z
loop_
_atom_site_type_symbol
_atom_site_label
_atom_site_fract_x
_atom_site_fract_y
_atom_site_fract_z
Si Si1 0.410905 0.223034 0.668179
Si Si2 0.248847 0.728712 0.232207
Si Si3 0.945864 0.035631 0.224676
Si Si4 0.778689 0.240428 0.287712
Si Si5 0.737471 0.066612 0.891064
Si Si6 0.822548 0.540304 0.438806
Si Si7 0.404546 0.515380 0.796765
O O1 0.567824 0.226684 0.719895
O O2 0.538549 0.218291 0.440522
O O3 0.356091 0.366354 0.797796
O O4 0.225805 0.090802 0.699527
O O5 0.226867 0.855593 0.233329
O O6 0.030464 0.653122 0.370812
O O7 0.319023 0.621619 0.010626
O O8 0.861580 0.161417 0.318039
O O9 0.141441 0.045730 0.226664
O O10 0.000000 0.000000 0.000000
O O11 0.874790 0.400910 0.358062
O O12 0.806426 0.178456 0.065790
O O13 0.500000 0.000000 0.000000
O O14 0.650048 0.564439 0.666013
O O15 0.705766 0.507054 0.319777
#
# Coordination Sequence:
#
# PCOD9024432 Si02
#       7
#     2   2   2   2   2   2   2
#     4  11  24  42  63  99 130 169 217 259 329 385
#     4  12  23  41  68  97 134 168 217 272 314 389
#     4  10  22  41  66  90 125 173 211 263 327 377
#     4  10  22  43  65  90 135 170 208 271 318 388
#     4  11  24  45  66  96 123 168 224 267 319 389
#     4  10  22  41  66 100 129 174 216 261 330 379
#     4  10  22  40  64  96 135 171 213 267 321 384
#
# _framework density 23.716439999999999
#
# number of rings (size 3 to 8) (size 9 to 14) (size 15 to 20)
#    0.000    1.429    1.429    3.857    4.000    2.286 
#   10.286    1.429    0.000    0.000    0.000    0.000 
#    0.000    0.000    0.000    0.000    0.000    0.000 
#
# Total GULP energy -78402.550431 kJ/mol
# GULP energy per Si atom -5600.182174 kJ/mol
# Density = 2.366246 g / cm^3
# Si number density = 23.716440 Si / 1000 Ang^3
#
#
#
# Elastic Constant Matrix: (Units=GPa)
#
#
# Indices 1 2 3 4 5 6 
#
# 1 100.4555 55.1184 -0.9042 -0.3266 -20.4749 -11.3785
# 2 55.1184 125.8639 7.3073 -35.5713 -19.9536 -15.6436
# 3 -0.9042 7.3073 55.5721 6.5782 -0.8094 13.5960
# 4 -0.3266 -35.5713 6.5782 34.8467 -0.1505 -10.1203
# 5 -20.4749 -19.9536 -0.8094 -0.1505 28.8444 -5.4060
# 6 -11.3785 -15.6436 13.5960 -10.1203 -5.4060 48.0782
#
#
#
# Elastic Compliance Matrix: (Units=1/GPa)
#
#
# Indices 1 2 3 4 5 6 
#
# 1 0.016110 -0.010378 0.003756 -0.011923 0.003791 -0.002710
# 2 -0.010378 0.029503 -0.013532 0.038750 0.016804 0.021016
# 3 0.003756 -0.013532 0.026712 -0.023836 -0.009280 -0.017129
# 4 -0.011923 0.038750 -0.023836 0.083469 0.025027 0.036911
# 5 0.003791 0.016804 -0.009280 0.025027 0.052636 0.020176
# 6 -0.002710 0.021016 -0.017129 0.036911 0.020176 0.041879
#
#
# Mechanical properties :
#
#
# Convention : Reuss Voigt Hill
#
# Bulk Modulus (GPa) = 31.23372 44.99273 38.11323
# Shear Modulus (GPa) = 16.59538 37.04519 26.82029
#
# Velocity S-wave (km/s) = 2.64813 3.95651 3.36649
# Velocity P-wave (km/s) = 4.74851 6.31540 5.58716
#
# Compressibility (1/GPa) = 0.03201668
#
# Stress axis : x y z
#
# Youngs Moduli (GPa) = 62.07356 33.89482 37.43621
#
# Poissons Ratio (x) = 0.35177 -0.14062
# Poissons Ratio (y) = 0.64421 0.50660
# Poissons Ratio (z) = -0.23317 0.45867
#
# Static dielectric constant tensor:
#      x y z
#    x 1.890780 -0.022050 -0.000970 
#    y -0.022050 1.921200 0.082770 
#    z -0.000970 0.082770 1.998380 
# 
# From -- ./inp_files/189732.got.cif
#   From: 2010.05.17/outbox.cif.g08.bks.cpg/sg2_95_cif.got.tgz:189732.got - 2010.06.03 11:33:40.
