data_PCOD9024407
_publ_section_title
;
Structure prediction by ZEFSAII (Michael W. Deem and Ramdas Pophale) SiO2 
 PCOD9024407
Probable space group: P -1
;
_chemical_formula_sum "Si O2"
_cell_formula_units_Z 14
_cell_length_a 11.833092
_cell_length_b 5.043897
_cell_length_c 14.028346
_cell_angle_alpha 56.839578
_cell_angle_beta 128.125927
_cell_angle_gamma 112.426783
_cell_volume 550.164167
_symmetry_space_group_name_H-M "P -1"
_symmetry_group_IT_number 2
_symmetry_cell_setting 'triclinic'
loop_
_space_group_symop_operation_xyz
x,y,z
-x,-y,-z
loop_
_atom_site_type_symbol
_atom_site_label
_atom_site_fract_x
_atom_site_fract_y
_atom_site_fract_z
Si Si1 0.625805 0.924431 0.509307
Si Si2 0.018861 0.351112 0.895040
Si Si3 0.667806 0.639584 0.892374
Si Si4 0.163374 0.155945 0.651725
Si Si5 0.282088 0.612371 0.230663
Si Si6 0.637647 0.299611 0.252091
Si Si7 0.078718 0.688684 0.365484
O O1 0.655854 0.559653 0.612581
O O2 0.500000 0.000000 0.500000
O O3 0.605512 0.031114 0.369854
O O4 0.768281 0.122609 0.581531
O O5 0.885865 0.515190 0.842629
O O6 0.978269 0.333669 0.766463
O O7 0.183003 0.486123 0.967059
O O8 0.000000 0.000000 0.000000
O O9 0.638460 0.480060 0.805934
O O10 0.520258 0.610847 0.881012
O O11 0.704717 0.013711 0.824786
O O12 0.282075 0.400513 0.713912
O O13 0.099422 0.341951 0.491210
O O14 0.033240 0.129948 0.663784
O O15 0.246864 0.851301 0.726334
#
# Coordination Sequence:
#
# PCOD9024407 Si02
#       7
#     2   2   2   2   2   2   2
#     4  11  22  37  66 101 133 163 212 275 340 388
#     4  10  22  40  64  95 133 174 214 263 326 399
#     4  11  23  39  61  93 133 171 214 262 323 389
#     4  10  24  45  68  91 127 177 224 268 313 383
#     4  11  22  39  60  94 136 172 207 261 333 398
#     4  11  23  41  65  94 131 169 219 270 323 378
#     4  10  23  44  67  95 130 172 223 267 323 382
#
# _framework density 25.446947999999999
#
# number of rings (size 3 to 8) (size 9 to 14) (size 15 to 20)
#    0.000    1.429    1.429    3.857    2.000    9.143 
#    0.000    1.429    0.000    0.000    0.000    0.000 
#    0.000    0.000    0.000    0.000    0.000    0.000 
#
# Total GULP energy -78483.526048 kJ/mol
# GULP energy per Si atom -5605.966146 kJ/mol
# Density = 2.538903 g / cm^3
# Si number density = 25.446948 Si / 1000 Ang^3
#
#
#
# Elastic Constant Matrix: (Units=GPa)
#
#
# Indices 1 2 3 4 5 6 
#
# 1 166.9092 3.4623 55.1785 9.6681 25.2966 -4.8651
# 2 3.4623 52.5136 7.0199 1.4477 -4.5096 -11.2345
# 3 55.1785 7.0199 78.6647 16.0982 23.2656 6.4737
# 4 9.6681 1.4477 16.0982 30.1042 2.8779 10.6540
# 5 25.2966 -4.5096 23.2656 2.8779 54.2257 2.6332
# 6 -4.8651 -11.2345 6.4737 10.6540 2.6332 37.6075
#
#
#
# Elastic Compliance Matrix: (Units=1/GPa)
#
#
# Indices 1 2 3 4 5 6 
#
# 1 0.008081 0.000577 -0.005379 -0.000443 -0.001506 0.002375
# 2 0.000577 0.021332 -0.003218 -0.002396 0.002649 0.007494
# 3 -0.005379 -0.003218 0.020270 -0.007464 -0.005932 -0.002617
# 4 -0.000443 -0.002396 -0.007464 0.041317 0.001566 -0.011303
# 5 -0.001506 0.002649 -0.005932 0.001566 0.021843 -0.000355
# 6 0.002375 0.007494 -0.002617 -0.011303 -0.000355 0.032814
#
#
# Mechanical properties :
#
#
# Convention : Reuss Voigt Hill
#
# Bulk Modulus (GPa) = 29.72526 47.71209 38.71868
# Shear Modulus (GPa) = 28.91677 39.88261 34.39969
#
# Velocity S-wave (km/s) = 3.37464 3.96319 3.68070
# Velocity P-wave (km/s) = 5.18565 6.30340 5.77164
#
# Compressibility (1/GPa) = 0.03364142
#
# Stress axis : x y z
#
# Youngs Moduli (GPa) = 123.75278 46.87864 49.33497
#
# Poissons Ratio (x) = -0.02706 0.26538
# Poissons Ratio (y) = -0.07143 0.15878
# Poissons Ratio (z) = 0.66568 0.15087
#
# Static dielectric constant tensor:
#      x y z
#    x 2.012370 0.036410 0.042700 
#    y 0.036410 1.955570 -0.002740 
#    z 0.042700 -0.002740 2.051820 
# 
# From -- ./inp_files/75319.got.cif
#   From: 2010.05.17/outbox.cif.g08.bks.cpg/sg2_38_cif.got.tgz:75319.got - 2010.06.03 11:33:40.
