data_PCOD9024951
_publ_section_title
;
Structure prediction by ZEFSAII (Michael W. Deem and Ramdas Pophale) SiO2 
 PCOD9024951
Probable space group: P -1
;
_chemical_formula_sum "Si O2"
_cell_formula_units_Z 15
_cell_length_a 13.331698
_cell_length_b 11.267526
_cell_length_c 6.937763
_cell_angle_alpha 122.869795
_cell_angle_beta 105.193298
_cell_angle_gamma 43.683213
_cell_volume 589.079381
_symmetry_space_group_name_H-M "P -1"
_symmetry_group_IT_number 2
_symmetry_cell_setting 'triclinic'
loop_
_space_group_symop_operation_xyz
x,y,z
-x,-y,-z
loop_
_atom_site_type_symbol
_atom_site_label
_atom_site_fract_x
_atom_site_fract_y
_atom_site_fract_z
Si Si1 0.762234 0.766712 0.805768
Si Si2 0.326724 0.457623 0.522409
Si Si3 0.650110 0.262444 0.869448
Si Si4 0.265901 0.530521 0.006755
Si Si5 0.556570 0.225354 0.151418
Si Si6 0.939663 0.203821 0.565037
Si Si7 0.200849 0.144751 0.518088
Si Si8 0.000000 0.500000 0.000000
O O1 0.686724 0.687701 0.694091
O O2 0.786512 0.788956 0.617140
O O3 0.922461 0.596304 0.834405
O O4 0.649781 0.993970 0.031870
O O5 0.291493 0.476218 0.747179
O O6 0.484484 0.356301 0.425850
O O7 0.200174 0.670872 0.536872
O O8 0.753584 0.279414 0.840618
O O9 0.666331 0.213307 0.062167
O O10 0.500000 0.500000 0.000000
O O11 0.661074 0.100866 0.628360
O O12 0.413075 0.346451 0.040703
O O13 0.117145 0.633808 0.145624
O O14 0.064661 0.166395 0.479705
O O15 0.000000 0.000000 0.500000
O O16 0.162832 0.287824 0.795019
#
# Coordination Sequence:
#
# PCOD9024951 Si02
#       8
#     2   2   2   2   2   2   2   1
#     4  11  25  44  66  99 136 174 230 274 332 406
#     4  11  24  41  66  99 136 173 227 277 333 408
#     4   9  19  42  66  93 134 170 223 273 327 400
#     4  10  22  40  66  97 132 180 215 277 343 390
#     4   9  22  42  65  97 133 172 224 283 328 399
#     4  11  23  43  63  95 137 173 222 277 329 401
#     4  11  24  43  67  98 133 178 224 276 329 402
#     4  12  26  44  70  96 138 182 218 276 342 396
#
# _framework density 25.463463000000001
#
# number of rings (size 3 to 8) (size 9 to 14) (size 15 to 20)
#    0.000    1.600    2.667    0.800    1.867    4.800 
#    4.800    0.000    0.000    0.000    0.000    0.000 
#    0.000    0.000    0.000    0.000    0.000    0.000 
#
# Total GULP energy -83564.893897 kJ/mol
# GULP energy per Si atom -5570.992926 kJ/mol
# Density = 2.540551 g / cm^3
# Si number density = 25.463463 Si / 1000 Ang^3
#
#
#
# Elastic Constant Matrix: (Units=GPa)
#
#
# Indices 1 2 3 4 5 6 
#
# 1 44.5833 31.2031 4.8779 6.6605 -17.2996 12.1938
# 2 31.2031 184.8362 60.4193 -0.6513 -1.7455 26.0414
# 3 4.8779 60.4193 143.5389 13.1301 -26.9385 1.5193
# 4 6.6605 -0.6513 13.1301 48.3706 3.5961 -1.2005
# 5 -17.2996 -1.7455 -26.9385 3.5961 48.4816 6.8289
# 6 12.1938 26.0414 1.5193 -1.2005 6.8289 31.9287
#
#
#
# Elastic Compliance Matrix: (Units=1/GPa)
#
#
# Indices 1 2 3 4 5 6 
#
# 1 0.039334 -0.006399 0.006073 -0.008996 0.019916 -0.014689
# 2 -0.006399 0.008282 -0.004212 0.002359 -0.004057 -0.003154
# 3 0.006073 -0.004212 0.010523 -0.004406 0.008378 -0.001342
# 4 -0.008996 0.002359 -0.004406 0.023838 -0.007949 0.004317
# 5 0.019916 -0.004057 0.008378 -0.007949 0.034577 -0.012390
# 6 -0.014689 -0.003154 -0.001342 0.004317 -0.012390 0.042378
#
#
# Mechanical properties :
#
#
# Convention : Reuss Voigt Hill
#
# Bulk Modulus (GPa) = 20.38269 62.88433 41.63351
# Shear Modulus (GPa) = 27.12039 44.18673 35.65356
#
# Velocity S-wave (km/s) = 3.26708 4.17021 3.74596
# Velocity P-wave (km/s) = 4.71740 6.92366 5.92414
#
# Compressibility (1/GPa) = 0.04906125
#
# Stress axis : x y z
#
# Youngs Moduli (GPa) = 25.42350 120.74686 95.02969
#
# Poissons Ratio (x) = 0.77270 -0.57712
# Poissons Ratio (y) = 0.16269 0.40029
# Poissons Ratio (z) = -0.15440 0.50862
#
# Static dielectric constant tensor:
#      x y z
#    x 2.283970 0.029470 -0.028660 
#    y 0.029470 1.978350 0.035440 
#    z -0.028660 0.035440 1.988740 
# 
# From -- ./inp_files/109274.got.cif
#   From: 2010.05.17/outbox.cif.g08.bks.cpg/sg2_55_cif.got.tgz:109274.got - 2010.06.03 11:33:40.
