data_PCOD9024263
_publ_section_title
;
Structure prediction by ZEFSAII (Michael W. Deem and Ramdas Pophale) SiO2 
 PCOD9024263
Probable space group: P -1
;
_chemical_formula_sum "Si O2"
_cell_formula_units_Z 14
_cell_length_a 8.703632
_cell_length_b 16.318211
_cell_length_c 6.500220
_cell_angle_alpha 116.304762
_cell_angle_beta 88.557077
_cell_angle_gamma 120.468071
_cell_volume 689.136451
_symmetry_space_group_name_H-M "P -1"
_symmetry_group_IT_number 2
_symmetry_cell_setting 'triclinic'
loop_
_space_group_symop_operation_xyz
x,y,z
-x,-y,-z
loop_
_atom_site_type_symbol
_atom_site_label
_atom_site_fract_x
_atom_site_fract_y
_atom_site_fract_z
Si Si1 0.201230 0.084011 0.184189
Si Si2 0.960092 0.837003 0.397478
Si Si3 0.066492 0.386620 0.803578
Si Si4 0.856321 0.456387 0.645780
Si Si5 0.401186 0.551855 0.671307
Si Si6 0.357428 0.033645 0.491579
Si Si7 0.355875 0.210135 0.921011
O O1 0.162022 0.156854 0.415154
O O2 0.289993 0.031741 0.258577
O O3 0.339220 0.158536 0.085093
O O4 0.000000 0.000000 0.000000
O O5 0.964368 0.730201 0.298096
O O6 0.850013 0.830465 0.189883
O O7 0.164097 0.946206 0.513698
O O8 0.236620 0.462469 0.726004
O O9 0.890978 0.378294 0.694587
O O10 0.105035 0.448382 0.089665
O O11 0.670319 0.411385 0.478166
O O12 0.000000 0.500000 0.500000
O O13 0.500000 0.500000 0.500000
O O14 0.528001 0.659240 0.924207
O O15 0.429749 0.154788 0.708298
O O16 0.500000 0.000000 0.500000
#
# Coordination Sequence:
#
# PCOD9024263 Si02
#       7
#     2   2   2   2   2   2   2
#     4  11  20  43  66  85 121 167 207 251 311 371
#     4  11  22  40  65  90 122 164 211 249 320 378
#     4  10  22  40  64  88 128 168 200 262 320 365
#     4   9  21  41  59  86 125 166 210 253 309 377
#     4  11  23  39  61  97 125 159 218 255 309 379
#     4  11  25  41  61  96 126 158 211 263 315 370
#     4  11  23  41  64  89 125 167 204 263 306 377
#
# _framework density 20.315280000000001
#
# number of rings (size 3 to 8) (size 9 to 14) (size 15 to 20)
#    0.000    1.429    2.857    2.571    0.000   10.857 
#    2.571    0.000    0.000    0.000    0.000    0.000 
#    0.000    0.000    0.000    0.000    0.000    0.000 
#
# Total GULP energy -78126.290378 kJ/mol
# GULP energy per Si atom -5580.449313 kJ/mol
# Density = 2.026904 g / cm^3
# Si number density = 20.315280 Si / 1000 Ang^3
#
#
#
# Elastic Constant Matrix: (Units=GPa)
#
#
# Indices 1 2 3 4 5 6 
#
# 1 108.8893 19.6045 39.2590 14.4705 8.5227 -27.3114
# 2 19.6045 67.2541 29.0340 10.6342 -4.4850 -18.7001
# 3 39.2590 29.0340 96.9481 1.7420 0.6809 -14.6249
# 4 14.4705 10.6342 1.7420 35.3332 -3.8168 -5.7930
# 5 8.5227 -4.4850 0.6809 -3.8168 23.7619 1.1389
# 6 -27.3114 -18.7001 -14.6249 -5.7930 1.1389 32.4681
#
#
#
# Elastic Compliance Matrix: (Units=1/GPa)
#
#
# Indices 1 2 3 4 5 6 
#
# 1 0.014197 0.000853 -0.004397 -0.004904 -0.006062 0.009791
# 2 0.000853 0.020183 -0.004933 -0.004395 0.002496 0.009248
# 3 -0.004397 -0.004933 0.013521 0.002695 0.000691 0.000007
# 4 -0.004904 -0.004395 0.002695 0.032164 0.006014 0.000085
# 5 -0.006062 0.002496 0.000691 0.006014 0.045862 -0.003886
# 6 0.009791 0.009248 0.000007 0.000085 -0.003886 0.044517
#
#
# Mechanical properties :
#
#
# Convention : Reuss Voigt Hill
#
# Bulk Modulus (GPa) = 32.31384 49.87627 41.09506
# Shear Modulus (GPa) = 25.28924 30.65892 27.97408
#
# Velocity S-wave (km/s) = 3.53205 3.88900 3.71482
# Velocity P-wave (km/s) = 5.70741 6.69105 6.21871
#
# Compressibility (1/GPa) = 0.03094649
#
# Stress axis : x y z
#
# Youngs Moduli (GPa) = 70.43625 49.54713 73.96164
#
# Poissons Ratio (x) = -0.04228 0.32521
# Poissons Ratio (y) = -0.06010 0.36488
# Poissons Ratio (z) = 0.30971 0.24443
#
# Static dielectric constant tensor:
#      x y z
#    x 1.729370 0.002010 0.029020 
#    y 0.002010 1.711180 -0.003830 
#    z 0.029020 -0.003830 1.763480 
# 
# From -- ./inp_files/27296.got.cif
#   From: 2010.05.17/outbox.cif.g08.bks.cpg/sg2_14_cif.got.tgz:27296.got - 2010.06.03 11:33:40.
