data_PCOD9024414
_publ_section_title
;
Structure prediction by ZEFSAII (Michael W. Deem and Ramdas Pophale) SiO2 
 PCOD9024414
Probable space group: P -1
;
_chemical_formula_sum "Si O2"
_cell_formula_units_Z 16
_cell_length_a 12.357058
_cell_length_b 16.068486
_cell_length_c 8.626888
_cell_angle_alpha 89.057917
_cell_angle_beta 82.364356
_cell_angle_gamma 152.573036
_cell_volume 747.373132
_symmetry_space_group_name_H-M "P -1"
_symmetry_group_IT_number 2
_symmetry_cell_setting 'triclinic'
loop_
_space_group_symop_operation_xyz
x,y,z
-x,-y,-z
loop_
_atom_site_type_symbol
_atom_site_label
_atom_site_fract_x
_atom_site_fract_y
_atom_site_fract_z
Si Si1 0.937139 0.776607 0.178453
Si Si2 0.241612 0.678059 0.755256
Si Si3 0.519615 0.430596 0.097822
Si Si4 0.270038 0.588210 0.047201
Si Si5 0.565550 0.128307 0.582095
Si Si6 0.655266 0.076582 0.820548
Si Si7 0.731284 0.948504 0.173197
Si Si8 0.000780 0.995816 0.314392
O O1 0.110474 0.818465 0.188960
O O2 0.659337 0.554087 0.222993
O O3 0.967264 0.876987 0.277403
O O4 0.038207 0.875537 0.988250
O O5 0.300374 0.714770 0.561258
O O6 0.983053 0.549064 0.831062
O O7 0.461349 0.885080 0.775802
O O8 0.259003 0.611678 0.868897
O O9 0.263408 0.209205 0.191557
O O10 0.500000 0.500000 0.000000
O O11 0.693795 0.485161 0.970588
O O12 0.499778 0.776992 0.103534
O O13 0.720712 0.199139 0.695245
O O14 0.334465 0.017910 0.706605
O O15 0.500000 0.000000 0.500000
O O16 0.500000 0.000000 0.000000
O O17 0.796313 0.913738 0.269155
O O18 0.000000 0.000000 0.500000
#
# Coordination Sequence:
#
# PCOD9024414 Si02
#       8
#     2   2   2   2   2   2   2   2
#     4  12  24  46  74 101 136 188 243 280 350 429
#     4  10  22  40  64  95 141 178 226 281 350 410
#     4  12  25  44  74 103 136 182 239 292 345 419
#     4  11  23  42  71  99 135 186 236 280 350 429
#     4  10  24  37  64 102 137 177 226 289 349 406
#     4  11  19  39  65  98 138 178 229 279 344 418
#     4  12  23  44  72  96 136 191 233 283 350 424
#     4  12  29  49  73 102 143 184 234 304 356 406
#
# _framework density 21.408315999999999
#
# number of rings (size 3 to 8) (size 9 to 14) (size 15 to 20)
#    0.000    0.750    5.000    1.875    7.000    2.000 
#    2.250    0.000    0.000    0.000    0.000    0.000 
#    0.000    0.000    0.000    0.000    0.000    0.000 
#
# Total GULP energy -89386.536027 kJ/mol
# GULP energy per Si atom -5586.658502 kJ/mol
# Density = 2.135959 g / cm^3
# Si number density = 21.408316 Si / 1000 Ang^3
#
#
#
# Elastic Constant Matrix: (Units=GPa)
#
#
# Indices 1 2 3 4 5 6 
#
# 1 146.0990 19.5336 36.2036 23.1571 4.1391 9.1856
# 2 19.5336 86.0326 -11.8805 10.2095 -8.1766 12.1708
# 3 36.2036 -11.8805 92.0403 21.3225 4.7606 -0.1363
# 4 23.1571 10.2095 21.3225 16.3746 -3.6240 -4.3224
# 5 4.1391 -8.1766 4.7606 -3.6240 33.3583 13.8683
# 6 9.1856 12.1708 -0.1363 -4.3224 13.8683 34.5939
#
#
#
# Elastic Compliance Matrix: (Units=1/GPa)
#
#
# Indices 1 2 3 4 5 6 
#
# 1 0.009450 -0.000125 -0.000456 -0.013928 -0.001082 -0.003773
# 2 -0.000125 0.017138 0.006844 -0.021064 0.005432 -0.010779
# 3 -0.000456 0.006844 0.019035 -0.030236 -0.002132 -0.005135
# 4 -0.013928 -0.021064 -0.030236 0.141440 0.005196 0.026580
# 5 -0.001082 0.005432 -0.002132 0.005196 0.039265 -0.016724
# 6 -0.003773 -0.010779 -0.005135 0.026580 -0.016724 0.043706
#
#
# Mechanical properties :
#
#
# Convention : Reuss Voigt Hill
#
# Bulk Modulus (GPa) = 17.19717 45.76501 31.48109
# Shear Modulus (GPa) = 18.05767 35.55304 26.80535
#
# Velocity S-wave (km/s) = 2.90744 4.07960 3.54234
# Velocity P-wave (km/s) = 4.39560 6.60413 5.60963
#
# Compressibility (1/GPa) = 0.05814909
#
# Stress axis : x y z
#
# Youngs Moduli (GPa) = 105.82084 58.35047 52.53457
#
# Poissons Ratio (x) = 0.00728 0.02397
# Poissons Ratio (y) = 0.01321 -0.35955
# Poissons Ratio (z) = 0.04827 -0.39936
#
# Static dielectric constant tensor:
#      x y z
#    x 1.785980 -0.003400 0.050330 
#    y -0.003400 1.831550 0.006070 
#    z 0.050330 0.006070 1.816620 
# 
# From -- ./inp_files/273154.got.cif
#   From: 2010.05.17/outbox.cif.g08.bks.cpg/sg2_137_cif.got.tgz:273154.got - 2010.06.03 11:33:40.
