data_PCOD9024349
_publ_section_title
;
Structure prediction by ZEFSAII (Michael W. Deem and Ramdas Pophale) SiO2 
 PCOD9024349
Probable space group: P -1
;
_chemical_formula_sum "Si O2"
_cell_formula_units_Z 14
_cell_length_a 4.997709
_cell_length_b 19.734839
_cell_length_c 5.176702
_cell_angle_alpha 93.630099
_cell_angle_beta 90.875460
_cell_angle_gamma 77.670431
_cell_volume 497.795152
_symmetry_space_group_name_H-M "P -1"
_symmetry_group_IT_number 2
_symmetry_cell_setting 'triclinic'
loop_
_space_group_symop_operation_xyz
x,y,z
-x,-y,-z
loop_
_atom_site_type_symbol
_atom_site_label
_atom_site_fract_x
_atom_site_fract_y
_atom_site_fract_z
Si Si1 0.692462 0.323219 0.499989
Si Si2 0.355828 0.410894 0.898201
Si Si3 0.981882 0.080345 0.939574
Si Si4 0.719325 0.757804 0.676057
Si Si5 0.165903 0.553824 0.744558
Si Si6 0.596983 0.839258 0.186272
Si Si7 0.189282 0.038701 0.462969
O O1 0.495996 0.338765 0.750127
O O2 0.482907 0.295630 0.302776
O O3 0.776589 0.397364 0.472653
O O4 0.985384 0.271977 0.459006
O O5 0.223578 0.470425 0.697276
O O6 0.605759 0.433334 0.048316
O O7 0.116665 0.417140 0.105750
O O8 0.139779 0.089432 0.227798
O O9 0.224635 0.100184 0.754807
O O10 0.690067 0.133186 0.954324
O O11 0.000000 0.000000 0.000000
O O12 0.566950 0.809493 0.461606
O O13 0.763295 0.785512 0.969323
O O14 0.104399 0.954559 0.388826
O O15 0.500000 0.000000 0.500000
#
# Coordination Sequence:
#
# PCOD9024349 Si02
#       7
#     2   2   2   2   2   2   2
#     4  12  25  41  66  96 129 175 214 302 361 400
#     4  10  22  40  64  93 128 168 215 269 350 451
#     4  12  24  45  74  94 148 190 225 282 335 400
#     4  12  28  43  71  96 136 171 243 300 337 406
#     4  10  22  40  64  93 128 168 215 269 350 451
#     4  12  26  49  66 102 129 192 242 278 341 398
#     4  12  24  42  70 114 145 180 227 278 337 398
#
# _framework density 28.124020000000002
#
# number of rings (size 3 to 8) (size 9 to 14) (size 15 to 20)
#    0.000    0.571    0.000    8.143    6.000    0.000 
#    0.000    5.714    0.000    0.000    0.000    0.000 
#    0.000    0.000    0.000    0.000    0.000    0.000 
#
# Total GULP energy -78186.295086 kJ/mol
# GULP energy per Si atom -5584.735363 kJ/mol
# Density = 2.806001 g / cm^3
# Si number density = 28.124020 Si / 1000 Ang^3
#
#
#
# Elastic Constant Matrix: (Units=GPa)
#
#
# Indices 1 2 3 4 5 6 
#
# 1 242.0958 41.2637 38.9420 7.2512 -13.6197 -14.6324
# 2 41.2637 87.5768 52.0914 3.3754 1.8420 -16.2589
# 3 38.9420 52.0914 174.7459 7.5704 -11.5337 -6.4283
# 4 7.2512 3.3754 7.5704 56.8865 2.7089 -3.1120
# 5 -13.6197 1.8420 -11.5337 2.7089 52.2523 4.3300
# 6 -14.6324 -16.2589 -6.4283 -3.1120 4.3300 65.9847
#
#
#
# Elastic Compliance Matrix: (Units=1/GPa)
#
#
# Indices 1 2 3 4 5 6 
#
# 1 0.004616 -0.001895 -0.000350 -0.000462 0.001182 0.000423
# 2 -0.001895 0.015444 -0.004221 0.000165 -0.002238 0.003129
# 3 -0.000350 -0.004221 0.007186 -0.000775 0.001731 -0.000568
# 4 -0.000462 0.000165 -0.000775 0.017836 -0.001287 0.000788
# 5 0.001182 -0.002238 0.001731 -0.001287 0.020098 -0.001500
# 6 0.000423 0.003129 -0.000568 0.000788 -0.001500 0.016100
#
#
# Mechanical properties :
#
#
# Convention : Reuss Voigt Hill
#
# Bulk Modulus (GPa) = 69.86794 85.44585 77.65690
# Shear Modulus (GPa) = 50.51389 59.83280 55.17334
#
# Velocity S-wave (km/s) = 4.24265 4.61745 4.43401
# Velocity P-wave (km/s) = 6.99263 7.67304 7.34072
#
# Compressibility (1/GPa) = 0.01431272
#
# Stress axis : x y z
#
# Youngs Moduli (GPa) = 216.64657 64.75091 139.16195
#
# Poissons Ratio (x) = 0.12271 0.04873
# Poissons Ratio (y) = 0.41055 0.58743
# Poissons Ratio (z) = 0.07586 0.27333
#
# Static dielectric constant tensor:
#      x y z
#    x 2.438740 0.430330 0.579530 
#    y 0.430330 2.609180 0.464190 
#    z 0.579530 0.464190 2.939260 
# 
# From -- ./inp_files/13259.got.cif
#   From: 2010.05.17/outbox.cif.g08.bks.cpg/sg2_7_cif.got.tgz:13259.got - 2010.06.03 11:33:40.
