data_PCOD9024363
_publ_section_title
;
Structure prediction by ZEFSAII (Michael W. Deem and Ramdas Pophale) SiO2 
 PCOD9024363
Probable space group: P -1
;
_chemical_formula_sum "Si O2"
_cell_formula_units_Z 16
_cell_length_a 6.414242
_cell_length_b 8.607864
_cell_length_c 13.555899
_cell_angle_alpha 119.282963
_cell_angle_beta 107.506041
_cell_angle_gamma 81.340673
_cell_volume 622.578135
_symmetry_space_group_name_H-M "P -1"
_symmetry_group_IT_number 2
_symmetry_cell_setting 'triclinic'
loop_
_space_group_symop_operation_xyz
x,y,z
-x,-y,-z
loop_
_atom_site_type_symbol
_atom_site_label
_atom_site_fract_x
_atom_site_fract_y
_atom_site_fract_z
Si Si1 0.737179 0.231978 0.079290
Si Si2 0.975055 0.291164 0.946959
Si Si3 0.789364 0.649210 0.662945
Si Si4 0.467471 0.370948 0.578856
Si Si5 0.648861 0.965291 0.148795
Si Si6 0.150228 0.878011 0.414788
Si Si7 0.819201 0.583970 0.271851
Si Si8 0.342564 0.969257 0.268444
O O1 0.687768 0.444184 0.143102
O O2 0.723638 0.141896 0.156863
O O3 0.567375 0.112137 0.957858
O O4 0.954303 0.236868 0.043171
O O5 0.171046 0.181959 0.893520
O O6 0.757727 0.216041 0.840611
O O7 0.000000 0.500000 0.000000
O O8 0.596218 0.556200 0.668998
O O9 0.707384 0.614844 0.528832
O O10 0.013416 0.549262 0.687639
O O11 0.784257 0.860149 0.742205
O O12 0.661224 0.233578 0.537026
O O13 0.346293 0.324277 0.647602
O O14 0.582972 0.986418 0.260559
O O15 0.279647 0.976740 0.376767
O O16 0.984949 0.730310 0.300395
O O17 0.000000 0.000000 0.500000
#
# Coordination Sequence:
#
# PCOD9024363 Si02
#       8
#     2   2   2   2   2   2   2   2
#     4  10  22  40  67  96 124 164 211 260 315 371
#     4  11  24  41  62  93 133 169 204 258 317 374
#     4  10  22  40  64  94 123 157 212 267 316 376
#     4  10  23  42  65  92 124 165 209 262 323 378
#     4  10  23  42  64  92 127 165 211 263 311 374
#     4  11  26  43  62  93 131 169 212 262 318 382
#     4  11  22  40  66  92 124 165 209 261 316 380
#     4  11  24  41  64  92 124 168 214 258 316 378
#
# _framework density 25.699583000000001
#
# number of rings (size 3 to 8) (size 9 to 14) (size 15 to 20)
#    0.000    1.500    0.000    3.750    0.000   14.000 
#    0.000    0.000    0.000    0.000    0.000    0.000 
#    0.000    0.000    0.000    0.000    0.000    0.000 
#
# Total GULP energy -89499.301022 kJ/mol
# GULP energy per Si atom -5593.706314 kJ/mol
# Density = 2.564109 g / cm^3
# Si number density = 25.699583 Si / 1000 Ang^3
#
#
#
# Elastic Constant Matrix: (Units=GPa)
#
#
# Indices 1 2 3 4 5 6 
#
# 1 108.3666 62.4747 42.2372 1.2366 -34.0993 26.7030
# 2 62.4747 128.3788 41.5682 11.5267 -12.4519 29.8029
# 3 42.2372 41.5682 91.9782 15.9181 -15.4508 21.7860
# 4 1.2366 11.5267 15.9181 42.9227 15.9412 -4.0411
# 5 -34.0993 -12.4519 -15.4508 15.9412 60.5731 3.6478
# 6 26.7030 29.8029 21.7860 -4.0411 3.6478 50.2038
#
#
#
# Elastic Compliance Matrix: (Units=1/GPa)
#
#
# Indices 1 2 3 4 5 6 
#
# 1 0.017597 -0.005326 -0.002332 -0.002179 0.009153 -0.006027
# 2 -0.005326 0.012059 -0.001570 -0.002896 0.000076 -0.003883
# 3 -0.002332 -0.001570 0.016248 -0.007928 0.004949 -0.005876
# 4 -0.002179 -0.002896 -0.007928 0.032875 -0.013093 0.009916
# 5 0.009153 0.000076 0.004949 -0.013093 0.026992 -0.010077
# 6 -0.006027 -0.003883 -0.005876 0.009916 -0.010077 0.029510
#
#
# Mechanical properties :
#
#
# Convention : Reuss Voigt Hill
#
# Bulk Modulus (GPa) = 36.43277 69.03152 52.73214
# Shear Modulus (GPa) = 30.69626 42.90281 36.79954
#
# Velocity S-wave (km/s) = 3.45980 4.09026 3.78817
# Velocity P-wave (km/s) = 5.49249 7.01614 6.30054
#
# Compressibility (1/GPa) = 0.02744782
#
# Stress axis : x y z
#
# Youngs Moduli (GPa) = 56.82648 82.92809 61.54654
#
# Poissons Ratio (x) = 0.44169 0.14351
# Poissons Ratio (y) = 0.30267 0.09664
# Poissons Ratio (z) = 0.13250 0.13021
#
# Static dielectric constant tensor:
#      x y z
#    x 1.985630 0.003810 0.017590 
#    y 0.003810 2.030290 -0.045750 
#    z 0.017590 -0.045750 2.104240 
# 
# From -- ./inp_files/548418.got.cif
#   From: 2010.05.17/outbox.cif.g08.bks.cpg/sg2_275_cif.got.tgz:548418.got - 2010.06.03 11:33:40.
