data_PCOD9024134
_publ_section_title
;
Structure prediction by ZEFSAII (Michael W. Deem and Ramdas Pophale) SiO2 
 PCOD9024134
Probable space group: P -1
;
_chemical_formula_sum "Si O2"
_cell_formula_units_Z 14
_cell_length_a 10.671324
_cell_length_b 11.402767
_cell_length_c 16.357724
_cell_angle_alpha 157.758697
_cell_angle_beta 46.703304
_cell_angle_gamma 130.788516
_cell_volume 547.095156
_symmetry_space_group_name_H-M "P -1"
_symmetry_group_IT_number 2
_symmetry_cell_setting 'triclinic'
loop_
_space_group_symop_operation_xyz
x,y,z
-x,-y,-z
loop_
_atom_site_type_symbol
_atom_site_label
_atom_site_fract_x
_atom_site_fract_y
_atom_site_fract_z
Si Si1 0.990845 0.651150 0.885233
Si Si2 0.735865 0.276822 0.656657
Si Si3 0.771720 0.531174 0.485807
Si Si4 0.794773 0.628210 0.257069
Si Si5 0.185930 0.269199 0.230633
Si Si6 0.511849 0.985702 0.688884
Si Si7 0.562653 0.125191 0.935181
O O1 0.107777 0.515006 0.674059
O O2 0.048437 0.515690 0.859052
O O3 0.805455 0.516925 0.851130
O O4 0.043804 0.016221 0.097015
O O5 0.761298 0.447998 0.670786
O O6 0.838778 0.960682 0.408802
O O7 0.547335 0.155083 0.695620
O O8 0.865256 0.636400 0.595370
O O9 0.665386 0.211156 0.347830
O O10 0.641832 0.794718 0.694773
O O11 0.659461 0.735996 0.455304
O O12 0.689784 0.385854 0.089090
O O13 0.370982 0.111201 0.050806
O O14 0.542282 0.180804 0.883343
#
# Coordination Sequence:
#
# PCOD9024134 Si02
#       7
#     2   2   2   2   2   2   2
#     4  12  23  45  67  89 131 168 212 257 307 381
#     4  10  26  46  58  94 135 171 199 256 324 375
#     4  12  22  39  69  99 119 164 219 263 306 367
#     4  10  22  42  67  91 128 162 210 266 305 366
#     4  12  24  40  68  93 131 162 212 260 313 377
#     4  10  22  40  63  94 126 157 212 257 317 359
#     4  12  21  39  69 101 119 161 218 265 311 363
#
# _framework density 25.589699
#
# number of rings (size 3 to 8) (size 9 to 14) (size 15 to 20)
#    0.857    0.000    5.714    2.571    0.000    3.429 
#    5.143    1.429    0.000    0.000    0.000    0.000 
#    0.000    0.000    0.000    0.000    0.000    0.000 
#
# Total GULP energy -78418.225690 kJ/mol
# GULP energy per Si atom -5601.301835 kJ/mol
# Density = 2.553146 g / cm^3
# Si number density = 25.589699 Si / 1000 Ang^3
#
#
#
# Elastic Constant Matrix: (Units=GPa)
#
#
# Indices 1 2 3 4 5 6 
#
# 1 69.2783 12.6214 30.9774 6.2315 10.4098 -6.9552
# 2 12.6214 90.8353 49.7236 18.7504 -3.8393 -7.4307
# 3 30.9774 49.7236 116.3843 14.6219 14.9554 -16.7499
# 4 6.2315 18.7504 14.6219 47.8448 -3.2271 3.7423
# 5 10.4098 -3.8393 14.9554 -3.2271 44.3759 0.3845
# 6 -6.9552 -7.4307 -16.7499 3.7423 0.3845 33.1316
#
#
#
# Elastic Compliance Matrix: (Units=1/GPa)
#
#
# Indices 1 2 3 4 5 6 
#
# 1 0.016813 -0.000008 -0.003663 -0.001404 -0.002828 0.001867
# 2 -0.000008 0.015557 -0.006475 -0.003947 0.003238 0.000622
# 3 -0.003663 -0.006475 0.013894 -0.001937 -0.004568 0.005075
# 4 -0.001404 -0.003947 -0.001937 0.023766 0.002411 -0.004872
# 5 -0.002828 0.003238 -0.004568 0.002411 0.025217 -0.002742
# 6 0.001867 0.000622 0.005075 -0.004872 -0.002742 0.033862
#
#
# Mechanical properties :
#
#
# Convention : Reuss Voigt Hill
#
# Bulk Modulus (GPa) = 38.50281 51.46031 44.98156
# Shear Modulus (GPa) = 31.63390 37.28216 34.45803
#
# Velocity S-wave (km/s) = 3.51977 3.82110 3.67353
# Velocity P-wave (km/s) = 5.62115 6.29454 5.96735
#
# Compressibility (1/GPa) = 0.02597213
#
# Stress axis : x y z
#
# Youngs Moduli (GPa) = 59.47921 64.27966 71.97220
#
# Poissons Ratio (x) = 0.00051 0.26363
# Poissons Ratio (y) = 0.00047 0.46602
# Poissons Ratio (z) = 0.21787 0.41621
#
# Static dielectric constant tensor:
#      x y z
#    x 2.058030 0.004890 -0.082320 
#    y 0.004890 1.931840 0.014460 
#    z -0.082320 0.014460 2.027530 
# 
# From -- ./inp_files/495842.got.cif
#   From: 2010.05.17/outbox.cif.g08.bks.cpg/sg2_248_cif.got.tgz:495842.got - 2010.06.03 11:33:40.
