data_PCOD9024539
_publ_section_title
;
Structure prediction by ZEFSAII (Michael W. Deem and Ramdas Pophale) SiO2 
 PCOD9024539
Probable space group: P -1
;
_chemical_formula_sum "Si O2"
_cell_formula_units_Z 16
_cell_length_a 8.108781
_cell_length_b 12.236547
_cell_length_c 8.990983
_cell_angle_alpha 103.907472
_cell_angle_beta 49.026776
_cell_angle_gamma 107.112234
_cell_volume 642.352599
_symmetry_space_group_name_H-M "P -1"
_symmetry_group_IT_number 2
_symmetry_cell_setting 'triclinic'
loop_
_space_group_symop_operation_xyz
x,y,z
-x,-y,-z
loop_
_atom_site_type_symbol
_atom_site_label
_atom_site_fract_x
_atom_site_fract_y
_atom_site_fract_z
Si Si1 0.520622 0.471884 0.242704
Si Si2 0.853059 0.475228 0.310566
Si Si3 0.105689 0.863643 0.149755
Si Si4 0.184746 0.722386 0.532202
Si Si5 0.730349 0.338037 0.870833
Si Si6 0.664944 0.739198 0.215475
Si Si7 0.162888 0.964687 0.575271
Si Si8 0.354656 0.034589 0.814931
O O1 0.679085 0.439092 0.269246
O O2 0.285679 0.472206 0.461521
O O3 0.621403 0.602841 0.180236
O O4 0.524792 0.387379 0.075158
O O5 0.927178 0.366611 0.308933
O O6 0.058352 0.568677 0.168816
O O7 0.255263 0.785619 0.114485
O O8 0.896282 0.777742 0.174971
O O9 0.994934 0.947990 0.346018
O O10 0.237565 0.947674 0.977468
O O11 0.228619 0.665253 0.330443
O O12 0.444374 0.762340 0.444674
O O13 0.070889 0.829312 0.599285
O O14 0.667126 0.831644 0.111424
O O15 0.389222 0.975398 0.352817
O O16 0.238997 0.999962 0.712514
#
# Coordination Sequence:
#
# PCOD9024539 Si02
#       8
#     2   2   2   2   2   2   2   2
#     4  10  22  40  65  90 121 155 201 257 292 350
#     4  10  22  41  64  89 118 161 207 240 302 360
#     4  11  22  36  61  93 117 155 210 243 291 360
#     4  10  23  40  62  89 124 162 197 245 312 356
#     4  12  25  39  59  95 127 155 199 251 299 360
#     4   9  18  38  59  87 116 151 200 244 291 353
#     4   9  19  38  59  84 123 157 194 253 294 347
#     4   9  19  35  62  93 111 154 207 250 290 350
#
# _framework density 24.908438
#
# number of rings (size 3 to 8) (size 9 to 14) (size 15 to 20)
#    0.000    2.000    1.250    3.000    1.750    4.500 
#    0.000    6.250    0.000    0.000    0.000    0.000 
#    0.000    0.000    0.000    0.000    0.000    0.000 
#
# Total GULP energy -89519.065262 kJ/mol
# GULP energy per Si atom -5594.941579 kJ/mol
# Density = 2.485175 g / cm^3
# Si number density = 24.908438 Si / 1000 Ang^3
#
#
#
# Elastic Constant Matrix: (Units=GPa)
#
#
# Indices 1 2 3 4 5 6 
#
# 1 44.8134 11.6087 10.8643 3.6715 2.0264 -10.7268
# 2 11.6087 138.8935 49.2951 11.3064 0.7953 -30.5994
# 3 10.8643 49.2951 100.4184 3.5799 -8.3295 1.1925
# 4 3.6715 11.3064 3.5799 40.8950 2.1854 -2.1017
# 5 2.0264 0.7953 -8.3295 2.1854 18.8337 2.5585
# 6 -10.7268 -30.5994 1.1925 -2.1017 2.5585 24.6938
#
#
#
# Elastic Compliance Matrix: (Units=1/GPa)
#
#
# Indices 1 2 3 4 5 6 
#
# 1 0.027357 0.003703 -0.005565 -0.001686 -0.007729 0.017399
# 2 0.003703 0.014644 -0.008361 -0.002195 -0.007275 0.020725
# 3 -0.005565 -0.008361 0.015646 0.000169 0.009827 -0.014537
# 4 -0.001686 -0.002195 0.000169 0.025272 -0.002440 -0.001057
# 5 -0.007729 -0.007275 0.009827 -0.002440 0.061503 -0.019427
# 6 0.017399 0.020725 -0.014537 -0.001057 -0.019427 0.076360
#
#
# Mechanical properties :
#
#
# Convention : Reuss Voigt Hill
#
# Bulk Modulus (GPa) = 26.88043 47.51794 37.19918
# Shear Modulus (GPa) = 19.71383 31.04164 25.37773
#
# Velocity S-wave (km/s) = 2.81633 3.53403 3.19539
# Velocity P-wave (km/s) = 4.62501 5.98088 5.34610
#
# Compressibility (1/GPa) = 0.03720178
#
# Stress axis : x y z
#
# Youngs Moduli (GPa) = 36.55387 68.28801 63.91273
#
# Poissons Ratio (x) = -0.25288 0.35569
# Poissons Ratio (y) = -0.13537 0.53435
# Poissons Ratio (z) = 0.20343 0.57093
#
# Static dielectric constant tensor:
#      x y z
#    x 2.049760 0.032910 0.007370 
#    y 0.032910 1.988690 0.042010 
#    z 0.007370 0.042010 1.970700 
# 
# From -- ./inp_files/188219.got.cif
#   From: 2010.05.17/outbox.cif.g08.bks.cpg/sg2_95_cif.got.tgz:188219.got - 2010.06.03 11:33:40.
