data_PCOD9024583
_publ_section_title
;
Structure prediction by ZEFSAII (Michael W. Deem and Ramdas Pophale) SiO2 
 PCOD9024583
Probable space group: P -1
;
_chemical_formula_sum "Si O2"
_cell_formula_units_Z 14
_cell_length_a 21.296158
_cell_length_b 9.195602
_cell_length_c 4.857708
_cell_angle_alpha 119.718929
_cell_angle_beta 53.271714
_cell_angle_gamma 135.056474
_cell_volume 534.165314
_symmetry_space_group_name_H-M "P -1"
_symmetry_group_IT_number 2
_symmetry_cell_setting 'triclinic'
loop_
_space_group_symop_operation_xyz
x,y,z
-x,-y,-z
loop_
_atom_site_type_symbol
_atom_site_label
_atom_site_fract_x
_atom_site_fract_y
_atom_site_fract_z
Si Si1 0.444570 0.304738 0.663672
Si Si2 0.396063 0.902782 0.541909
Si Si3 0.906040 0.834127 0.414409
Si Si4 0.894970 0.430719 0.115791
Si Si5 0.792358 0.805954 0.194411
Si Si6 0.366698 0.508103 0.298997
Si Si7 0.227003 0.835526 0.304298
O O1 0.500000 0.500000 0.500000
O O2 0.524354 0.366251 0.745191
O O3 0.408818 0.074715 0.459954
O O4 0.358703 0.316061 0.000495
O O5 0.362869 0.678992 0.310094
O O6 0.500000 0.000000 0.500000
O O7 0.319097 0.870321 0.940758
O O8 0.903094 0.632254 0.188206
O O9 0.884959 0.898767 0.242946
O O10 0.820525 0.779700 0.795908
O O11 0.000000 0.000000 0.500000
O O12 0.818515 0.319744 0.463074
O O13 0.854979 0.271344 0.819598
O O14 0.000000 0.500000 0.000000
O O15 0.709334 0.587116 0.343366
O O16 0.759733 0.956905 0.439240
#
# Coordination Sequence:
#
# PCOD9024583 Si02
#       7
#     2   2   2   2   2   2   2
#     4  10  22  40  65  93 132 175 230 287 343 413
#     4  10  22  45  64  98 140 186 233 289 353 417
#     4  12  26  46  70 103 139 184 230 289 357 422
#     4  12  26  47  74 106 142 184 235 296 360 426
#     4  12  25  44  73 101 140 184 235 290 348 423
#     4  10  22  41  62  94 132 178 228 281 348 408
#     4  12  25  47  71 106 142 188 237 295 355 425
#
# _framework density 26.209116999999999
#
# number of rings (size 3 to 8) (size 9 to 14) (size 15 to 20)
#    0.000    0.857    1.429    6.000    2.000    1.714 
#    5.143    0.000    0.000    0.000    0.000    0.000 
#    0.000    0.000    0.000    0.000    0.000    0.000 
#
# Total GULP energy -78470.176452 kJ/mol
# GULP energy per Si atom -5605.012604 kJ/mol
# Density = 2.614946 g / cm^3
# Si number density = 26.209117 Si / 1000 Ang^3
#
#
#
# Elastic Constant Matrix: (Units=GPa)
#
#
# Indices 1 2 3 4 5 6 
#
# 1 111.7965 29.2440 28.9363 19.2878 -15.4586 -5.5338
# 2 29.2440 140.8515 26.6675 23.7107 -16.3570 -25.4292
# 3 28.9363 26.6675 82.1089 10.5286 -8.1250 -7.0793
# 4 19.2878 23.7107 10.5286 47.9642 -3.2167 -3.9077
# 5 -15.4586 -16.3570 -8.1250 -3.2167 54.3539 3.4681
# 6 -5.5338 -25.4292 -7.0793 -3.9077 3.4681 49.8115
#
#
#
# Elastic Compliance Matrix: (Units=1/GPa)
#
#
# Indices 1 2 3 4 5 6 
#
# 1 0.010766 -0.000930 -0.002887 -0.003097 0.002172 -0.000083
# 2 -0.000930 0.009080 -0.001685 -0.003308 0.001771 0.003910
# 3 -0.002887 -0.001685 0.013994 -0.000978 0.000662 0.000685
# 4 -0.003097 -0.003308 -0.000978 0.023883 -0.000592 -0.000257
# 5 0.002172 0.001771 0.000662 -0.000592 0.019624 -0.000173
# 6 -0.000083 0.003910 0.000685 -0.000257 -0.000173 0.022152
#
#
# Mechanical properties :
#
#
# Convention : Reuss Voigt Hill
#
# Bulk Modulus (GPa) = 43.79127 56.05029 49.92078
# Shear Modulus (GPa) = 42.33192 47.08652 44.70922
#
# Velocity S-wave (km/s) = 4.02327 4.24320 4.13469
# Velocity P-wave (km/s) = 6.19087 6.74081 6.47168
#
# Compressibility (1/GPa) = 0.02283560
#
# Stress axis : x y z
#
# Youngs Moduli (GPa) = 92.88546 110.13087 71.46148
#
# Poissons Ratio (x) = 0.10243 0.20632
# Poissons Ratio (y) = 0.08639 0.12040
# Poissons Ratio (z) = 0.26817 0.18555
#
# Static dielectric constant tensor:
#      x y z
#    x 2.058250 0.025850 0.026260 
#    y 0.025850 2.049350 -0.016890 
#    z 0.026260 -0.016890 2.052570 
# 
# From -- ./inp_files/119307.got.cif
#   From: 2010.05.17/outbox.cif.g08.bks.cpg/sg2_60_cif.got.tgz:119307.got - 2010.06.03 11:33:40.
