data_PCOD9024911
_publ_section_title
;
Structure prediction by ZEFSAII (Michael W. Deem and Ramdas Pophale) SiO2 
 PCOD9024911
Probable space group: P -1
;
_chemical_formula_sum "Si O2"
_cell_formula_units_Z 16
_cell_length_a 11.470407
_cell_length_b 21.645476
_cell_length_c 18.003143
_cell_angle_alpha 18.983581
_cell_angle_beta 151.741992
_cell_angle_gamma 145.260723
_cell_volume 686.590760
_symmetry_space_group_name_H-M "P -1"
_symmetry_group_IT_number 2
_symmetry_cell_setting 'triclinic'
loop_
_space_group_symop_operation_xyz
x,y,z
-x,-y,-z
loop_
_atom_site_type_symbol
_atom_site_label
_atom_site_fract_x
_atom_site_fract_y
_atom_site_fract_z
Si Si1 0.528005 0.327512 0.155423
Si Si2 0.996478 0.768790 0.771247
Si Si3 0.801554 0.662257 0.178112
Si Si4 0.009300 0.167254 0.536325
Si Si5 0.716169 0.961921 0.901103
Si Si6 0.284045 0.117974 0.381685
Si Si7 0.775675 0.131534 0.894042
Si Si8 0.318193 0.414925 0.325010
O O1 0.810371 0.254208 0.384790
O O2 0.373676 0.175640 0.285227
O O3 0.500000 0.500000 0.000000
O O4 0.407135 0.387026 0.940875
O O5 0.908856 0.748399 0.830897
O O6 0.802270 0.670432 0.720292
O O7 0.000000 0.000000 0.500000
O O8 0.245951 0.639060 0.040793
O O9 0.000000 0.500000 0.500000
O O10 0.962431 0.808067 0.057645
O O11 0.692375 0.758399 0.081878
O O12 0.174336 0.318073 0.421188
O O13 0.844975 0.076849 0.483108
O O14 0.177678 0.996020 0.862450
O O15 0.525317 0.095536 0.594049
O O16 0.670691 0.003630 0.914444
O O17 0.000000 0.000000 0.000000
O O18 0.596252 0.320841 0.589435
#
# Coordination Sequence:
#
# PCOD9024911 Si02
#       8
#     2   2   2   2   2   2   2   2
#     4  12  26  41  67 102 140 186 238 299 357 428
#     4  11  24  45  72 103 137 184 239 299 354 427
#     4  11  25  41  64 104 141 183 238 296 361 425
#     4  12  24  45  71  99 144 189 243 298 355 424
#     4  10  22  40  66  95 133 181 228 289 356 416
#     4  12  22  44  71  96 137 184 241 295 356 420
#     4  11  24  45  68 100 144 187 238 299 358 425
#     4  11  25  45  72 105 138 190 245 286 361 437
#
# _framework density 23.303546000000001
#
# number of rings (size 3 to 8) (size 9 to 14) (size 15 to 20)
#    0.000    0.750    5.000    3.000    5.250    3.000 
#    0.000    0.625    0.000    0.000    0.000    0.000 
#    0.000    0.000    0.000    0.000    0.000    0.000 
#
# Total GULP energy -89448.023721 kJ/mol
# GULP energy per Si atom -5590.501483 kJ/mol
# Density = 2.325051 g / cm^3
# Si number density = 23.303546 Si / 1000 Ang^3
#
#
#
# Elastic Constant Matrix: (Units=GPa)
#
#
# Indices 1 2 3 4 5 6 
#
# 1 108.0269 21.6388 38.7196 -7.6590 22.1431 -1.4646
# 2 21.6388 68.6420 37.2170 3.7917 9.5613 -14.2110
# 3 38.7196 37.2170 129.1493 -0.6108 22.5580 -13.6447
# 4 -7.6590 3.7917 -0.6108 39.5663 -7.7730 0.8385
# 5 22.1431 9.5613 22.5580 -7.7730 51.0762 -4.9758
# 6 -1.4646 -14.2110 -13.6447 0.8385 -4.9758 35.4863
#
#
#
# Elastic Compliance Matrix: (Units=1/GPa)
#
#
# Indices 1 2 3 4 5 6 
#
# 1 0.011350 -0.002329 -0.002333 0.001762 -0.003369 -0.001875
# 2 -0.002329 0.018943 -0.004049 -0.002564 -0.000562 0.005914
# 3 -0.002333 -0.004049 0.010268 -0.000466 -0.002654 0.001869
# 4 0.001762 -0.002564 -0.000466 0.026637 0.003857 -0.001222
# 5 -0.003369 -0.000562 -0.002654 0.003857 0.023075 0.001760
# 6 -0.001875 0.005914 0.001869 -0.001222 0.001760 0.031465
#
#
# Mechanical properties :
#
#
# Convention : Reuss Voigt Hill
#
# Bulk Modulus (GPa) = 43.22072 55.66321 49.44197
# Shear Modulus (GPa) = 34.04283 39.10862 36.57572
#
# Velocity S-wave (km/s) = 3.82624 4.10106 3.96603
# Velocity P-wave (km/s) = 6.17311 6.80903 6.49886
#
# Compressibility (1/GPa) = 0.02313705
#
# Stress axis : x y z
#
# Youngs Moduli (GPa) = 88.10804 52.79096 97.38786
#
# Poissons Ratio (x) = 0.12297 0.22719
# Poissons Ratio (y) = 0.20524 0.39437
# Poissons Ratio (z) = 0.20554 0.21378
#
# Static dielectric constant tensor:
#      x y z
#    x 2.067340 0.115580 -0.159210 
#    y 0.115580 1.956340 -0.099290 
#    z -0.159210 -0.099290 2.035490 
# 
# From -- ./inp_files/570713.got.cif
#   From: 2010.05.17/outbox.cif.g08.bks.cpg/sg2_286_cif.got.tgz:570713.got - 2010.06.03 11:33:40.
