data_PCOD9024128
_publ_section_title
;
Structure prediction by ZEFSAII (Michael W. Deem and Ramdas Pophale) SiO2 
 PCOD9024128
Probable space group: P -1
;
_chemical_formula_sum "Si O2"
_cell_formula_units_Z 16
_cell_length_a 9.789510
_cell_length_b 9.559149
_cell_length_c 8.360687
_cell_angle_alpha 104.828190
_cell_angle_beta 120.538715
_cell_angle_gamma 104.405500
_cell_volume 580.087781
_symmetry_space_group_name_H-M "P -1"
_symmetry_group_IT_number 2
_symmetry_cell_setting 'triclinic'
loop_
_space_group_symop_operation_xyz
x,y,z
-x,-y,-z
loop_
_atom_site_type_symbol
_atom_site_label
_atom_site_fract_x
_atom_site_fract_y
_atom_site_fract_z
Si Si1 0.282754 0.222503 0.624427
Si Si2 0.273187 0.642517 0.759335
Si Si3 0.589119 0.148582 0.781664
Si Si4 0.143806 0.634729 0.240925
Si Si5 0.137742 0.954311 0.972051
Si Si6 0.661664 0.716799 0.964793
Si Si7 0.791440 0.636074 0.686608
Si Si8 0.984373 0.267620 0.532373
O O1 0.382132 0.109900 0.646837
O O2 0.314474 0.318385 0.500770
O O3 0.071158 0.155121 0.495176
O O4 0.334163 0.321348 0.854214
O O5 0.457137 0.668858 0.800318
O O6 0.195862 0.755369 0.664863
O O7 0.127693 0.454638 0.631260
O O8 0.329379 0.715144 0.991960
O O9 0.679235 0.239381 0.700715
O O10 0.681278 0.032144 0.833734
O O11 0.201096 0.533454 0.367834
O O12 0.049343 0.729418 0.299133
O O13 0.000000 0.500000 0.000000
O O14 0.219886 0.089588 0.924395
O O15 0.999911 0.763998 0.822726
O O16 0.000000 0.000000 0.000000
O O17 0.725573 0.646703 0.830814
#
# Coordination Sequence:
#
# PCOD9024128 Si02
#       8
#     2   2   2   2   2   2   2   2
#     4  11  26  41  66 103 137 169 222 279 331 402
#     4  10  22  40  63  93 134 173 221 270 324 400
#     4  11  24  42  67 101 131 175 226 274 334 397
#     4  12  22  39  71  98 133 179 218 274 340 400
#     4  10  22  45  71  93 132 179 229 275 324 401
#     4  10  25  43  67  96 132 181 220 280 333 384
#     4  11  23  44  68 102 135 175 226 271 337 398
#     4  11  22  39  61  97 136 171 213 273 331 395
#
# _framework density 27.582034
#
# number of rings (size 3 to 8) (size 9 to 14) (size 15 to 20)
#    0.000    1.250    2.500    3.000    5.250    4.000 
#    0.000    3.750    0.000    0.000    0.000    0.000 
#    0.000    0.000    0.000    0.000    0.000    0.000 
#
# Total GULP energy -89438.740768 kJ/mol
# GULP energy per Si atom -5589.921298 kJ/mol
# Density = 2.751926 g / cm^3
# Si number density = 27.582034 Si / 1000 Ang^3
#
#
#
# Elastic Constant Matrix: (Units=GPa)
#
#
# Indices 1 2 3 4 5 6 
#
# 1 200.6646 19.5646 50.2585 -16.4775 21.1486 -13.7707
# 2 19.5646 89.7350 29.7396 -14.5522 9.3827 -2.1675
# 3 50.2585 29.7396 137.4141 -26.8273 14.5726 -4.2609
# 4 -16.4775 -14.5522 -26.8273 46.7407 -4.8813 7.4249
# 5 21.1486 9.3827 14.5726 -4.8813 54.6774 -13.6091
# 6 -13.7707 -2.1675 -4.2609 7.4249 -13.6091 33.1405
#
#
#
# Elastic Compliance Matrix: (Units=1/GPa)
#
#
# Indices 1 2 3 4 5 6 
#
# 1 0.005736 -0.000425 -0.001721 0.000532 -0.001267 0.001495
# 2 -0.000425 0.012417 -0.001897 0.002602 -0.001421 -0.000775
# 3 -0.001721 -0.001897 0.009238 0.004142 -0.001387 -0.001149
# 4 0.000532 0.002602 0.004142 0.025501 -0.000748 -0.005097
# 5 -0.001267 -0.001421 -0.001387 -0.000748 0.021351 0.008138
# 6 0.001495 -0.000775 -0.001149 -0.005097 0.008138 0.035081
#
#
# Mechanical properties :
#
#
# Convention : Reuss Voigt Hill
#
# Bulk Modulus (GPa) = 51.80467 69.65989 60.73228
# Shear Modulus (GPa) = 40.37280 48.79513 44.58396
#
# Velocity S-wave (km/s) = 3.83003 4.21062 4.02483
# Velocity P-wave (km/s) = 6.19529 6.99639 6.60799
#
# Compressibility (1/GPa) = 0.01930328
#
# Stress axis : x y z
#
# Youngs Moduli (GPa) = 174.34311 80.53329 108.25406
#
# Poissons Ratio (x) = 0.03425 0.18633
# Poissons Ratio (y) = 0.07414 0.20538
# Poissons Ratio (z) = 0.30008 0.15279
#
# Static dielectric constant tensor:
#      x y z
#    x 2.185770 -0.114150 -0.097010 
#    y -0.114150 2.183790 0.002610 
#    z -0.097010 0.002610 2.385880 
# 
# From -- ./inp_files/188081.got.cif
#   From: 2010.05.17/outbox.cif.g08.bks.cpg/sg2_95_cif.got.tgz:188081.got - 2010.06.03 11:33:40.
