data_PCOD9024572
_publ_section_title
;
Structure prediction by ZEFSAII (Michael W. Deem and Ramdas Pophale) SiO2 
 PCOD9024572
Probable space group: P -1
;
_chemical_formula_sum "Si O2"
_cell_formula_units_Z 16
_cell_length_a 12.765618
_cell_length_b 18.463839
_cell_length_c 5.276240
_cell_angle_alpha 116.836849
_cell_angle_beta 64.744093
_cell_angle_gamma 134.785141
_cell_volume 775.923934
_symmetry_space_group_name_H-M "P -1"
_symmetry_group_IT_number 2
_symmetry_cell_setting 'triclinic'
loop_
_space_group_symop_operation_xyz
x,y,z
-x,-y,-z
loop_
_atom_site_type_symbol
_atom_site_label
_atom_site_fract_x
_atom_site_fract_y
_atom_site_fract_z
Si Si1 0.642535 0.519819 0.265086
Si Si2 0.368094 0.048796 0.609791
Si Si3 0.566835 0.091109 0.869901
Si Si4 0.053246 0.253196 0.694178
Si Si5 0.324879 0.745141 0.614810
Si Si6 0.964986 0.305549 0.359337
Si Si7 0.953161 0.028993 0.343026
Si Si8 0.274980 0.533372 0.396554
O O1 0.500000 0.500000 0.500000
O O2 0.690006 0.477844 0.370079
O O3 0.774083 0.644150 0.296056
O O4 0.629885 0.471255 0.927262
O O5 0.424401 0.077458 0.886914
O O6 0.513634 0.154734 0.497577
O O7 0.356749 0.944712 0.437373
O O8 0.221024 0.024838 0.614202
O O9 0.681754 0.206713 0.042548
O O10 0.500000 0.000000 0.000000
O O11 0.991861 0.276851 0.556871
O O12 0.034137 0.151264 0.484935
O O13 0.975400 0.243700 0.024296
O O14 0.191616 0.718634 0.537687
O O15 0.305675 0.641725 0.506563
O O16 0.102733 0.429363 0.362873
O O17 0.000000 0.000000 0.500000
O O18 0.000000 0.000000 0.000000
#
# Coordination Sequence:
#
# PCOD9024572 Si02
#       8
#     2   2   2   2   2   2   2   2
#     4  10  22  42  66  89 120 167 217 255 306 373
#     4  10  24  41  62  95 126 169 226 252 325 387
#     4   9  21  39  64  91 127 167 211 268 313 391
#     4  10  23  43  65  88 126 168 217 248 320 385
#     4  11  23  36  65  94 130 161 202 266 333 364
#     4  10  22  40  65  93 126 169 203 255 320 399
#     4  12  28  44  66  93 132 170 214 273 316 372
#     4  10  23  39  61  97 128 157 205 268 311 386
#
# _framework density 20.620578999999999
#
# number of rings (size 3 to 8) (size 9 to 14) (size 15 to 20)
#    0.000    1.750    0.000    2.250   12.250    2.000 
#    0.000    3.750    0.000    0.000    0.000    0.000 
#    0.000    0.000    0.000    0.000    0.000    0.000 
#
# Total GULP energy -89253.485434 kJ/mol
# GULP energy per Si atom -5578.342840 kJ/mol
# Density = 2.057365 g / cm^3
# Si number density = 20.620579 Si / 1000 Ang^3
#
#
#
# Elastic Constant Matrix: (Units=GPa)
#
#
# Indices 1 2 3 4 5 6 
#
# 1 111.1066 33.8910 7.8012 0.5709 0.0711 1.2480
# 2 33.8910 92.7593 31.1976 21.4965 -15.6815 -16.7977
# 3 7.8012 31.1976 71.5903 4.4250 6.5746 -7.6531
# 4 0.5709 21.4965 4.4250 39.2048 -6.8122 -7.5172
# 5 0.0711 -15.6815 6.5746 -6.8122 30.8826 -5.2729
# 6 1.2480 -16.7977 -7.6531 -7.5172 -5.2729 25.8474
#
#
#
# Elastic Compliance Matrix: (Units=1/GPa)
#
#
# Indices 1 2 3 4 5 6 
#
# 1 0.010864 -0.006264 0.001322 0.001575 -0.003916 -0.004544
# 2 -0.006264 0.022061 -0.008420 -0.006103 0.013918 0.013210
# 3 0.001322 -0.008420 0.018022 0.000823 -0.008213 -0.001636
# 4 0.001575 -0.006103 0.000823 0.030683 0.004523 0.006048
# 5 -0.003916 0.013918 -0.008213 0.004523 0.045162 0.017331
# 6 -0.004544 0.013210 -0.001636 0.006048 0.017331 0.052303
#
#
# Mechanical properties :
#
#
# Convention : Reuss Voigt Hill
#
# Bulk Modulus (GPa) = 41.28221 46.80400 44.04310
# Shear Modulus (GPa) = 23.37626 32.69137 28.03381
#
# Velocity S-wave (km/s) = 3.37061 3.98600 3.69115
# Velocity P-wave (km/s) = 5.93391 6.62806 6.29057
#
# Compressibility (1/GPa) = 0.02422351
#
# Stress axis : x y z
#
# Youngs Moduli (GPa) = 92.04994 45.32974 55.48781
#
# Poissons Ratio (x) = 0.28394 -0.07337
# Poissons Ratio (y) = 0.57659 0.46719
# Poissons Ratio (z) = -0.12172 0.38166
#
# Static dielectric constant tensor:
#      x y z
#    x 1.749280 0.032980 0.021940 
#    y 0.032980 1.730970 -0.051000 
#    z 0.021940 -0.051000 1.861400 
# 
# From -- ./inp_files/80235.got.cif
#   From: 2010.05.17/outbox.cif.g08.bks.cpg/sg2_41_cif.got.tgz:80235.got - 2010.06.03 11:33:40.
