data_PCOD9024448
_publ_section_title
;
Structure prediction by ZEFSAII (Michael W. Deem and Ramdas Pophale) SiO2 
 PCOD9024448
Probable space group: P -1
;
_chemical_formula_sum "Si O2"
_cell_formula_units_Z 16
_cell_length_a 5.203303
_cell_length_b 11.637542
_cell_length_c 13.155979
_cell_angle_alpha 85.000812
_cell_angle_beta 78.473489
_cell_angle_gamma 119.425213
_cell_volume 663.659004
_symmetry_space_group_name_H-M "P -1"
_symmetry_group_IT_number 2
_symmetry_cell_setting 'triclinic'
loop_
_space_group_symop_operation_xyz
x,y,z
-x,-y,-z
loop_
_atom_site_type_symbol
_atom_site_label
_atom_site_fract_x
_atom_site_fract_y
_atom_site_fract_z
Si Si1 0.284987 0.763414 0.204633
Si Si2 0.896446 0.623496 0.865512
Si Si3 0.290347 0.491786 0.810624
Si Si4 0.858134 0.718707 0.650488
Si Si5 0.008795 0.013969 0.639971
Si Si6 0.285842 0.817416 0.426567
Si Si7 0.222033 0.993558 0.125093
Si Si8 0.767475 0.790989 0.015263
O O1 0.278578 0.744762 0.327273
O O2 0.393954 0.919741 0.159860
O O3 0.943107 0.658677 0.197951
O O4 0.505049 0.731773 0.125874
O O5 0.541218 0.518346 0.873399
O O6 0.008142 0.715066 0.746837
O O7 0.890407 0.708380 0.953066
O O8 0.092323 0.553245 0.863921
O O9 0.514827 0.588400 0.694958
O O10 0.059022 0.722661 0.539707
O O11 0.858446 0.857172 0.638993
O O12 0.362772 0.096986 0.572575
O O13 0.829307 0.080902 0.602655
O O14 0.999630 0.027106 0.761799
O O15 0.354307 0.145863 0.065808
O O16 0.055278 0.906683 0.045748
#
# Coordination Sequence:
#
# PCOD9024448 Si02
#       8
#     2   2   2   2   2   2   2   2
#     4  11  25  43  65  96 136 169 223 264 325 391
#     4  10  25  43  66  96 127 177 220 263 323 381
#     4  10  26  44  66  95 133 178 219 265 316 391
#     4  10  24  43  67  95 134 170 219 264 327 382
#     4  11  22  41  64 100 131 166 214 273 325 387
#     4  11  25  39  69  98 130 170 214 272 330 379
#     4  10  22  40  64  97 131 170 213 267 338 379
#     4  11  22  41  68  94 131 170 214 276 325 390
#
# _framework density 24.108768999999999
#
# number of rings (size 3 to 8) (size 9 to 14) (size 15 to 20)
#    0.750    0.750    2.500    1.125    7.000    1.500 
#    2.250    0.625    0.000    0.000    0.000    0.000 
#    0.000    0.000    0.000    0.000    0.000    0.000 
#
# Total GULP energy -89467.066836 kJ/mol
# GULP energy per Si atom -5591.691677 kJ/mol
# Density = 2.405390 g / cm^3
# Si number density = 24.108769 Si / 1000 Ang^3
#
#
#
# Elastic Constant Matrix: (Units=GPa)
#
#
# Indices 1 2 3 4 5 6 
#
# 1 97.0716 17.3477 29.3013 1.5167 -26.3826 -16.5218
# 2 17.3477 63.2626 40.4512 -0.5290 -12.1265 -9.4647
# 3 29.3013 40.4512 188.8021 14.3505 -21.0645 -9.5230
# 4 1.5167 -0.5290 14.3505 20.2296 4.7722 -0.5418
# 5 -26.3826 -12.1265 -21.0645 4.7722 30.7273 0.7188
# 6 -16.5218 -9.4647 -9.5230 -0.5418 0.7188 32.9452
#
#
#
# Elastic Compliance Matrix: (Units=1/GPa)
#
#
# Indices 1 2 3 4 5 6 
#
# 1 0.015337 -0.000544 -0.000107 -0.004044 0.013340 0.007146
# 2 -0.000544 0.019773 -0.003608 0.002189 0.004422 0.004304
# 3 -0.000107 -0.003608 0.007061 -0.006077 0.004250 0.000758
# 4 -0.004044 0.002189 -0.006077 0.057758 -0.015701 -0.001863
# 5 0.013340 0.004422 0.004250 -0.015701 0.050913 0.007820
# 6 0.007146 0.004304 0.000758 -0.001863 0.007820 0.035192
#
#
# Mechanical properties :
#
#
# Convention : Reuss Voigt Hill
#
# Bulk Modulus (GPa) = 29.71677 58.14853 43.93265
# Shear Modulus (GPa) = 24.29905 34.24948 29.27426
#
# Velocity S-wave (km/s) = 3.17818 3.77320 3.48840
# Velocity P-wave (km/s) = 5.08140 6.56920 5.87261
#
# Compressibility (1/GPa) = 0.03365104
#
# Stress axis : x y z
#
# Youngs Moduli (GPa) = 65.20355 50.57328 141.63149
#
# Poissons Ratio (x) = 0.02753 0.01521
# Poissons Ratio (y) = 0.03550 0.51100
# Poissons Ratio (z) = 0.00700 0.18246
#
# Static dielectric constant tensor:
#      x y z
#    x 1.944390 -0.003650 0.034720 
#    y -0.003650 1.937010 -0.041680 
#    z 0.034720 -0.041680 1.955800 
# 
# From -- ./inp_files/482181.got.cif
#   From: 2010.05.17/outbox.cif.g08.bks.cpg/sg2_242_cif.got.tgz:482181.got - 2010.06.03 11:33:40.
