data_PCOD9024694
_publ_section_title
;
Structure prediction by ZEFSAII (Michael W. Deem and Ramdas Pophale) SiO2 
 PCOD9024694
Probable space group: P -1
;
_chemical_formula_sum "Si O2"
_cell_formula_units_Z 16
_cell_length_a 15.187958
_cell_length_b 9.690851
_cell_length_c 11.760114
_cell_angle_alpha 67.313724
_cell_angle_beta 64.225213
_cell_angle_gamma 28.291315
_cell_volume 738.735647
_symmetry_space_group_name_H-M "P -1"
_symmetry_group_IT_number 2
_symmetry_cell_setting 'triclinic'
loop_
_space_group_symop_operation_xyz
x,y,z
-x,-y,-z
loop_
_atom_site_type_symbol
_atom_site_label
_atom_site_fract_x
_atom_site_fract_y
_atom_site_fract_z
Si Si1 0.841734 0.318775 0.167183
Si Si2 0.042417 0.762715 0.255478
Si Si3 0.989840 0.671848 0.083750
Si Si4 0.543476 0.873586 0.816317
Si Si5 0.408330 0.852320 0.238744
Si Si6 0.621651 0.206694 0.969871
Si Si7 0.147190 0.457696 0.733171
Si Si8 0.060119 0.273467 0.467255
O O1 0.632421 0.523685 0.230544
O O2 0.891599 0.335748 0.250048
O O3 0.995135 0.989283 0.164674
O O4 0.844741 0.447435 0.030061
O O5 0.971251 0.748101 0.199525
O O6 0.941906 0.858047 0.399810
O O7 0.263556 0.435155 0.252640
O O8 0.983598 0.500870 0.149136
O O9 0.810846 0.951930 0.019156
O O10 0.590395 0.966795 0.825221
O O11 0.366113 0.133543 0.747470
O O12 0.482088 0.816472 0.947052
O O13 0.346011 0.836808 0.169566
O O14 0.263641 0.015055 0.372124
O O15 0.500000 0.500000 0.000000
O O16 0.094703 0.535583 0.606891
O O17 0.000000 0.500000 0.500000
#
# Coordination Sequence:
#
# PCOD9024694 Si02
#       8
#     2   2   2   2   2   2   2   2
#     4  11  24  41  65 101 131 161 218 278 333 377
#     4  12  24  42  67  95 134 177 214 269 326 377
#     4  11  21  39  66  94 131 170 210 265 328 395
#     4  10  22  40  65  99 126 172 217 269 320 387
#     4  11  23  43  66  94 129 175 220 263 321 391
#     4  11  22  38  65 101 136 164 209 274 334 384
#     4  10  23  42  66  96 124 171 220 265 323 388
#     4  12  24  45  69  90 130 178 227 263 313 390
#
# _framework density 21.658626999999999
#
# number of rings (size 3 to 8) (size 9 to 14) (size 15 to 20)
#    0.000    1.000    2.500    4.125    0.000    5.500 
#    0.000    0.000    0.000    0.000    0.000    0.000 
#    0.000    0.000    0.000    0.000    0.000    0.000 
#
# Total GULP energy -89418.029884 kJ/mol
# GULP energy per Si atom -5588.626868 kJ/mol
# Density = 2.160933 g / cm^3
# Si number density = 21.658627 Si / 1000 Ang^3
#
#
#
# Elastic Constant Matrix: (Units=GPa)
#
#
# Indices 1 2 3 4 5 6 
#
# 1 87.1574 40.6560 33.9103 -0.6441 16.7227 -15.4089
# 2 40.6560 98.4745 15.7631 12.0522 6.6252 -2.5021
# 3 33.9103 15.7631 108.9808 16.6216 12.9659 -15.4224
# 4 -0.6441 12.0522 16.6216 27.8173 -2.8132 -5.9912
# 5 16.7227 6.6252 12.9659 -2.8132 38.8304 0.6030
# 6 -15.4089 -2.5021 -15.4224 -5.9912 0.6030 28.8679
#
#
#
# Elastic Compliance Matrix: (Units=1/GPa)
#
#
# Indices 1 2 3 4 5 6 
#
# 1 0.019356 -0.007684 -0.004173 0.007713 -0.005215 0.009146
# 2 -0.007684 0.014004 0.000960 -0.007663 0.000106 -0.003967
# 3 -0.004173 0.000960 0.012256 -0.007518 -0.003049 0.002907
# 4 0.007713 -0.007663 -0.007518 0.046244 0.003707 0.008956
# 5 -0.005215 0.000106 -0.003049 0.003707 0.029333 -0.004246
# 6 0.009146 -0.003967 0.002907 0.008956 -0.004246 0.042679
#
#
# Mechanical properties :
#
#
# Convention : Reuss Voigt Hill
#
# Bulk Modulus (GPa) = 41.97829 52.80793 47.39311
# Shear Modulus (GPa) = 25.82555 32.72201 29.27378
#
# Velocity S-wave (km/s) = 3.45685 3.89113 3.68040
# Velocity P-wave (km/s) = 5.94617 6.68002 6.32375
#
# Compressibility (1/GPa) = 0.02382184
#
# Stress axis : x y z
#
# Youngs Moduli (GPa) = 51.66372 71.41040 81.59027
#
# Poissons Ratio (x) = 0.54872 0.34048
# Poissons Ratio (y) = 0.39699 -0.07834
# Poissons Ratio (z) = 0.21560 -0.06856
#
# Static dielectric constant tensor:
#      x y z
#    x 1.816350 -0.024590 -0.031090 
#    y -0.024590 1.809770 0.021410 
#    z -0.031090 0.021410 1.810370 
# 
# From -- ./inp_files/273076.got.cif
#   From: 2010.05.17/outbox.cif.g08.bks.cpg/sg2_137_cif.got.tgz:273076.got - 2010.06.03 11:33:40.
