data_PCOD9024351
_publ_section_title
;
Structure prediction by ZEFSAII (Michael W. Deem and Ramdas Pophale) SiO2 
 PCOD9024351
Probable space group: P -1
;
_chemical_formula_sum "Si O2"
_cell_formula_units_Z 12
_cell_length_a 24.174704
_cell_length_b 24.406866
_cell_length_c 5.338808
_cell_angle_alpha 121.560140
_cell_angle_beta 123.511698
_cell_angle_gamma 12.168056
_cell_volume 551.208625
_symmetry_space_group_name_H-M "P -1"
_symmetry_group_IT_number 2
_symmetry_cell_setting 'triclinic'
loop_
_space_group_symop_operation_xyz
x,y,z
-x,-y,-z
loop_
_atom_site_type_symbol
_atom_site_label
_atom_site_fract_x
_atom_site_fract_y
_atom_site_fract_z
Si Si1 0.659532 0.769227 0.648508
Si Si2 0.044592 0.999980 0.861433
Si Si3 0.637639 0.499980 0.094061
Si Si4 0.723403 0.499998 0.808517
Si Si5 0.802003 0.769236 0.004691
Si Si6 0.309331 0.999997 0.023332
O O1 0.530764 0.830892 0.331887
O O2 0.922590 0.499994 0.806469
O O3 0.433806 0.999995 0.834510
O O4 0.741745 0.758253 0.684898
O O5 0.344066 0.747076 0.003728
O O6 0.000000 0.000000 0.500000
O O7 0.000000 0.000000 0.000000
O O8 0.838306 0.252850 0.952032
O O9 0.733452 0.447694 0.457224
O O10 0.628850 0.552297 0.948540
O O11 0.496757 0.767552 0.824111
O O12 0.031863 0.232448 0.997458
O O13 0.807436 0.830905 0.023575
#
# Coordination Sequence:
#
# PCOD9024351 Si02
#       6
#     2   2   2   2   2   2
#     4  10  22  40  64  93 128 168 230 311 364 409
#     4  12  24  45  80 108 139 182 227 280 337 400
#     4  12  26  49  66 110 147 180 231 278 339 400
#     4  12  28  43  71  96 148 194 227 284 337 422
#     4  10  22  40  64  93 128 168 230 311 364 409
#     4  12  25  41  66  96 129 190 242 280 356 426
#
# _framework density 21.770339
#
# number of rings (size 3 to 8) (size 9 to 14) (size 15 to 20)
#    0.000    0.667    0.000    7.500    7.000    0.000 
#    0.000    6.667    0.000    0.000    0.000    0.000 
#    0.000    0.000    0.000    0.000    0.000    0.000 
#
# Total GULP energy -67056.472473 kJ/mol
# GULP energy per Si atom -5588.039373 kJ/mol
# Density = 2.172079 g / cm^3
# Si number density = 21.770339 Si / 1000 Ang^3
#
#
#
# Elastic Constant Matrix: (Units=GPa)
#
#
# Indices 1 2 3 4 5 6 
#
# 1 132.1957 51.1249 62.4192 0.5880 6.1363 -0.5612
# 2 51.1249 198.6879 40.6847 -5.2871 18.1297 3.6704
# 3 62.4192 40.6847 124.2756 -1.1573 7.4787 1.0620
# 4 0.5880 -5.2871 -1.1573 44.0595 2.9721 6.2079
# 5 6.1363 18.1297 7.4787 2.9721 30.6647 -2.5367
# 6 -0.5612 3.6704 1.0620 6.2079 -2.5367 47.5027
#
#
#
# Elastic Compliance Matrix: (Units=1/GPa)
#
#
# Indices 1 2 3 4 5 6 
#
# 1 0.010462 -0.001771 -0.004695 -0.000551 0.000189 0.000448
# 2 -0.001771 0.005995 -0.000868 0.001041 -0.003143 -0.000769
# 3 -0.004695 -0.000868 0.010770 0.000373 -0.001239 -0.000344
# 4 -0.000551 0.001041 0.000373 0.023521 -0.003152 -0.003337
# 5 0.000189 -0.003143 -0.001239 -0.003152 0.035251 0.002567
# 6 0.000448 -0.000769 -0.000344 -0.003337 0.002567 0.021697
#
#
# Mechanical properties :
#
#
# Convention : Reuss Voigt Hill
#
# Bulk Modulus (GPa) = 79.62302 84.84631 82.23467
# Shear Modulus (GPa) = 39.50992 44.50742 42.00867
#
# Velocity S-wave (km/s) = 4.26473 4.52642 4.39752
# Velocity P-wave (km/s) = 7.80410 8.14714 7.97747
#
# Compressibility (1/GPa) = 0.01255918
#
# Stress axis : x y z
#
# Youngs Moduli (GPa) = 95.58489 166.80526 92.85078
#
# Poissons Ratio (x) = 0.29536 0.43596
# Poissons Ratio (y) = 0.16925 0.08058
# Poissons Ratio (z) = 0.44880 0.14476
#
# Static dielectric constant tensor:
#      x y z
#    x 1.856410 0.006220 0.006950 
#    y 0.006220 1.736710 -0.006600 
#    z 0.006950 -0.006600 1.852510 
# 
# From -- ./inp_files/8042.got.cif
#   From: 2010.05.17/outbox.cif.g08.bks.cpg/sg2_5_cif.got.tgz:8042.got - 2010.06.03 11:33:40.
