data_PCOD9024085
_publ_section_title
;
Structure prediction by ZEFSAII (Michael W. Deem and Ramdas Pophale) SiO2 
 PCOD9024085
Probable space group: P -1
;
_chemical_formula_sum "Si O2"
_cell_formula_units_Z 16
_cell_length_a 5.206032
_cell_length_b 20.462711
_cell_length_c 9.058717
_cell_angle_alpha 60.209020
_cell_angle_beta 103.311626
_cell_angle_gamma 122.342347
_cell_volume 706.732919
_symmetry_space_group_name_H-M "P -1"
_symmetry_group_IT_number 2
_symmetry_cell_setting 'triclinic'
loop_
_space_group_symop_operation_xyz
x,y,z
-x,-y,-z
loop_
_atom_site_type_symbol
_atom_site_label
_atom_site_fract_x
_atom_site_fract_y
_atom_site_fract_z
Si Si1 0.399517 0.610191 0.836425
Si Si2 0.663859 0.271722 0.827566
Si Si3 0.278495 0.243483 0.531542
Si Si4 0.444361 0.856115 0.476153
Si Si5 0.272812 0.982284 0.174878
Si Si6 0.823698 0.137814 0.944892
Si Si7 0.275994 0.127621 0.185664
Si Si8 0.947878 0.590632 0.049803
O O1 0.536850 0.680523 0.647515
O O2 0.679414 0.611621 0.958902
O O3 0.187342 0.624402 0.907848
O O4 0.200502 0.513256 0.853156
O O5 0.432592 0.274440 0.677240
O O6 0.842000 0.228624 0.819453
O O7 0.497792 0.203101 0.016223
O O8 0.880937 0.362495 0.831326
O O9 0.354537 0.168713 0.574274
O O10 0.920213 0.211298 0.506493
O O11 0.459903 0.945309 0.329051
O O12 0.569118 0.859743 0.651750
O O13 0.066916 0.901578 0.129140
O O14 0.170164 0.030638 0.222282
O O15 0.477711 0.062302 0.003520
O O16 0.983243 0.139561 0.118148
#
# Coordination Sequence:
#
# PCOD9024085 Si02
#       8
#     2   2   2   2   2   2   2   2
#     4  10  22  45  67 103 131 170 207 267 320 383
#     4  11  24  40  64  98 128 177 216 265 322 392
#     4  12  26  43  66  95 139 168 215 267 327 380
#     4  12  27  42  66  96 130 174 218 277 320 383
#     4  10  22  41  60  93 124 174 218 275 327 380
#     4  10  22  40  63  91 128 170 221 270 327 381
#     4  11  24  39  66  89 129 173 226 271 324 384
#     4  10  23  42  74  97 133 167 216 257 322 391
#
# _framework density 22.639385000000001
#
# number of rings (size 3 to 8) (size 9 to 14) (size 15 to 20)
#    0.000    1.250    1.250    3.750    8.750    1.000 
#    0.000    0.000    0.000    6.000    0.000    0.000 
#    0.000    0.000    0.000    0.000    0.000    0.000 
#
# Total GULP energy -89432.637670 kJ/mol
# GULP energy per Si atom -5589.539854 kJ/mol
# Density = 2.258786 g / cm^3
# Si number density = 22.639385 Si / 1000 Ang^3
#
#
#
# Elastic Constant Matrix: (Units=GPa)
#
#
# Indices 1 2 3 4 5 6 
#
# 1 75.5464 28.7879 5.6704 11.7151 0.2728 15.6064
# 2 28.7879 107.7612 28.3545 30.0685 3.7621 13.6158
# 3 5.6704 28.3545 95.0983 24.3449 7.9616 12.1460
# 4 11.7151 30.0685 24.3449 45.7827 10.6938 6.7677
# 5 0.2728 3.7621 7.9616 10.6938 33.8773 -0.0232
# 6 15.6064 13.6158 12.1460 6.7677 -0.0232 19.2682
#
#
#
# Elastic Compliance Matrix: (Units=1/GPa)
#
#
# Indices 1 2 3 4 5 6 
#
# 1 0.017037 -0.003057 0.001843 -0.001583 0.000260 -0.012245
# 2 -0.003057 0.012695 -0.001627 -0.006459 0.001034 -0.003199
# 3 0.001843 -0.001627 0.013181 -0.005086 -0.001331 -0.006867
# 4 -0.001583 -0.006459 -0.005086 0.031346 -0.007971 -0.001968
# 5 0.000260 0.001034 -0.001331 -0.007971 0.032232 0.002736
# 6 -0.012245 -0.003199 -0.006867 -0.001968 0.002736 0.069101
#
#
# Mechanical properties :
#
#
# Convention : Reuss Voigt Hill
#
# Bulk Modulus (GPa) = 26.85924 44.89236 35.87580
# Shear Modulus (GPa) = 25.81504 34.15851 29.98678
#
# Velocity S-wave (km/s) = 3.38045 3.88855 3.64337
# Velocity P-wave (km/s) = 5.20829 6.32720 5.79482
#
# Compressibility (1/GPa) = 0.03723114
#
# Stress axis : x y z
#
# Youngs Moduli (GPa) = 58.69427 78.77220 75.86547
#
# Poissons Ratio (x) = 0.24078 -0.13981
# Poissons Ratio (y) = 0.17941 0.12346
# Poissons Ratio (z) = -0.10816 0.12819
#
# Static dielectric constant tensor:
#      x y z
#    x 1.929800 0.006710 -0.041590 
#    y 0.006710 1.837160 0.006450 
#    z -0.041590 0.006450 1.841400 
# 
# From -- ./inp_files/51148.got.cif
#   From: 2010.05.17/outbox.cif.g08.bks.cpg/sg2_26_cif.got.tgz:51148.got - 2010.06.03 11:33:40.
