data_PCOD9024812
_publ_section_title
;
Structure prediction by ZEFSAII (Michael W. Deem and Ramdas Pophale) SiO2 
 PCOD9024812
Probable space group: P -1
;
_chemical_formula_sum "Si O2"
_cell_formula_units_Z 14
_cell_length_a 20.187433
_cell_length_b 22.751166
_cell_length_c 11.494057
_cell_angle_alpha 44.117478
_cell_angle_beta 42.479386
_cell_angle_gamma 11.732594
_cell_volume 724.602654
_symmetry_space_group_name_H-M "P -1"
_symmetry_group_IT_number 2
_symmetry_cell_setting 'triclinic'
loop_
_space_group_symop_operation_xyz
x,y,z
-x,-y,-z
loop_
_atom_site_type_symbol
_atom_site_label
_atom_site_fract_x
_atom_site_fract_y
_atom_site_fract_z
Si Si1 0.927953 0.794159 0.863183
Si Si2 0.795532 0.822274 0.337717
Si Si3 0.925649 0.377824 0.486832
Si Si4 0.898456 0.169074 0.452551
Si Si5 0.156708 0.058511 0.473430
Si Si6 0.792235 0.692959 0.879297
Si Si7 0.246283 0.393585 0.150548
O O1 0.933911 0.795420 0.713887
O O2 0.951895 0.873173 0.750301
O O3 0.226959 0.495805 0.957363
O O4 0.583535 0.031998 0.005685
O O5 0.993317 0.682831 0.396029
O O6 0.032876 0.584661 0.271630
O O7 0.500000 0.000000 0.500000
O O8 0.605701 0.059948 0.193244
O O9 0.986699 0.234424 0.559364
O O10 0.178398 0.233942 0.297576
O O11 0.552457 0.719364 0.459266
O O12 0.500000 0.500000 0.500000
O O13 0.023649 0.084291 0.543041
O O14 0.000000 0.000000 0.500000
O O15 0.918839 0.538232 0.821045
O O16 0.000000 0.500000 0.000000
#
# Coordination Sequence:
#
# PCOD9024812 Si02
#       7
#     2   2   2   2   2   2   2
#     4  10  24  37  62  92 128 149 208 245 309 377
#     4  12  25  38  59  80 124 178 227 236 281 341
#     4  12  23  39  58  89 128 175 200 251 283 357
#     4  10  22  40  66  92 123 152 190 257 330 379
#     4  10  24  38  62  92 127 147 213 241 315 369
#     4  12  23  36  60  87 132 167 194 244 312 352
#     4  12  24  40  55  86 123 165 213 252 277 357
#
# _framework density 19.320933
#
# number of rings (size 3 to 8) (size 9 to 14) (size 15 to 20)
#    0.857    0.000    4.286    3.000    6.000    1.143 
#    0.000    0.000    0.000    0.000    0.000   20.000 
#    0.000    0.000    0.000    0.000    0.000    0.000 
#
# Total GULP energy -78117.868780 kJ/mol
# GULP energy per Si atom -5579.847770 kJ/mol
# Density = 1.927696 g / cm^3
# Si number density = 19.320933 Si / 1000 Ang^3
#
#
#
# Elastic Constant Matrix: (Units=GPa)
#
#
# Indices 1 2 3 4 5 6 
#
# 1 161.6387 28.0517 36.7078 -8.6338 18.7869 8.5078
# 2 28.0517 59.8394 22.1518 -3.9080 5.5060 -4.2366
# 3 36.7078 22.1518 39.4144 -19.5791 8.4763 -10.3706
# 4 -8.6338 -3.9080 -19.5791 26.3999 3.5851 4.2135
# 5 18.7869 5.5060 8.4763 3.5851 39.3823 -4.1704
# 6 8.5078 -4.2366 -10.3706 4.2135 -4.1704 37.7055
#
#
#
# Elastic Compliance Matrix: (Units=1/GPa)
#
#
# Indices 1 2 3 4 5 6 
#
# 1 0.009075 -0.000576 -0.011148 -0.004333 -0.001975 -0.004913
# 2 -0.000576 0.022726 -0.017943 -0.010230 0.001794 -0.000910
# 3 -0.011148 -0.017943 0.077207 0.050193 -0.011790 0.014822
# 4 -0.004333 -0.010230 0.050193 0.073387 -0.013570 0.003932
# 5 -0.001975 0.001794 -0.011790 -0.013570 0.030094 0.002249
# 6 -0.004913 -0.000910 0.014822 0.003932 0.002249 0.031414
#
#
# Mechanical properties :
#
#
# Convention : Reuss Voigt Hill
#
# Bulk Modulus (GPa) = 20.13154 48.30169 34.21662
# Shear Modulus (GPa) = 15.63496 32.29631 23.96563
#
# Velocity S-wave (km/s) = 2.84777 4.09292 3.52575
# Velocity P-wave (km/s) = 4.61034 6.88403 5.85855
#
# Compressibility (1/GPa) = 0.04967329
#
# Stress axis : x y z
#
# Youngs Moduli (GPa) = 110.19136 44.00221 12.95221
#
# Poissons Ratio (x) = 0.02536 0.14440
# Poissons Ratio (y) = 0.06351 0.23240
# Poissons Ratio (z) = 1.22846 0.78952
#
# Static dielectric constant tensor:
#      x y z
#    x 1.735450 0.029350 0.003850 
#    y 0.029350 1.693820 -0.016350 
#    z 0.003850 -0.016350 1.697140 
# 
# From -- ./inp_files/472878.got.cif
#   From: 2010.05.17/outbox.cif.g08.bks.cpg/sg2_237_cif.got.tgz:472878.got - 2010.06.03 11:33:40.
