data_PCOD9024344
_publ_section_title
;
Structure prediction by ZEFSAII (Michael W. Deem and Ramdas Pophale) SiO2 
 PCOD9024344
Probable space group: P -1
;
_chemical_formula_sum "Si O2"
_cell_formula_units_Z 16
_cell_length_a 9.318522
_cell_length_b 7.731317
_cell_length_c 15.790050
_cell_angle_alpha 128.060429
_cell_angle_beta 89.256663
_cell_angle_gamma 62.760935
_cell_volume 722.124374
_symmetry_space_group_name_H-M "P -1"
_symmetry_group_IT_number 2
_symmetry_cell_setting 'triclinic'
loop_
_space_group_symop_operation_xyz
x,y,z
-x,-y,-z
loop_
_atom_site_type_symbol
_atom_site_label
_atom_site_fract_x
_atom_site_fract_y
_atom_site_fract_z
Si Si1 0.094730 0.349408 0.260428
Si Si2 0.519450 0.962273 0.889205
Si Si3 0.229211 0.422941 0.783253
Si Si4 0.165474 0.516177 0.000720
Si Si5 0.868217 0.430643 0.513418
Si Si6 0.404675 0.616527 0.711973
Si Si7 0.500118 0.153147 0.460376
Si Si8 0.963995 0.035866 0.264097
O O1 0.291850 0.108271 0.158442
O O2 0.121169 0.536176 0.376857
O O3 0.010298 0.224930 0.275724
O O4 0.956212 0.497257 0.230021
O O5 0.506231 0.722930 0.786409
O O6 0.352510 0.237003 0.934253
O O7 0.500000 0.000000 0.000000
O O8 0.185611 0.567820 0.918129
O O9 0.325813 0.518815 0.753098
O O10 0.359901 0.093581 0.676392
O O11 0.000000 0.500000 0.000000
O O12 0.115043 0.737810 0.139852
O O13 0.681848 0.656541 0.535309
O O14 0.000000 0.500000 0.500000
O O15 0.936440 0.132891 0.390375
O O16 0.521170 0.374900 0.569561
O O17 0.226987 0.863538 0.740718
O O18 0.500000 0.000000 0.500000
#
# Coordination Sequence:
#
# PCOD9024344 Si02
#       8
#     2   2   2   2   2   2   2   2
#     4  10  22  40  64  93 127 158 201 259 316 350
#     4  12  26  43  58  92 131 158 198 266 317 347
#     4  10  22  41  70  90 119 167 212 244 294 384
#     4  12  24  42  64  90 122 161 217 249 295 375
#     4   9  17  36  61  94 127 151 200 261 305 351
#     4   9  20  41  65  89 123 165 202 247 308 365
#     4   9  17  36  63  93 117 162 213 243 292 372
#     4   9  20  39  66  90 118 172 203 242 303 374
#
# _framework density 22.156846000000002
#
# number of rings (size 3 to 8) (size 9 to 14) (size 15 to 20)
#    0.000    2.000    1.250    3.750    1.750    1.500 
#   13.500    2.500    0.000    0.000    0.000    0.000 
#    0.000    0.000    0.000    0.000    0.000    0.000 
#
# Total GULP energy -89290.984288 kJ/mol
# GULP energy per Si atom -5580.686518 kJ/mol
# Density = 2.210642 g / cm^3
# Si number density = 22.156846 Si / 1000 Ang^3
#
#
#
# Elastic Constant Matrix: (Units=GPa)
#
#
# Indices 1 2 3 4 5 6 
#
# 1 72.5099 23.8655 12.9090 4.4064 -0.2477 -19.8424
# 2 23.8655 56.7503 26.2272 -3.0920 3.1321 -17.7014
# 3 12.9090 26.2272 99.7318 17.0585 7.0918 -15.5164
# 4 4.4064 -3.0920 17.0585 32.6589 -5.8935 -4.8229
# 5 -0.2477 3.1321 7.0918 -5.8935 38.5382 -3.9499
# 6 -19.8424 -17.7014 -15.5164 -4.8229 -3.9499 29.9663
#
#
#
# Elastic Compliance Matrix: (Units=1/GPa)
#
#
# Indices 1 2 3 4 5 6 
#
# 1 0.017965 -0.005200 0.000668 -0.001737 0.001075 0.009031
# 2 -0.005200 0.026231 -0.006091 0.008126 0.001261 0.010372
# 3 0.000668 -0.006091 0.013438 -0.007904 -0.002963 0.002140
# 4 -0.001737 0.008126 -0.007904 0.038047 0.007282 0.006640
# 5 0.001075 0.001261 -0.002963 0.007282 0.028002 0.004786
# 6 0.009031 0.010372 0.002140 0.006640 0.004786 0.048285
#
#
# Mechanical properties :
#
#
# Convention : Reuss Voigt Hill
#
# Bulk Modulus (GPa) = 27.48228 39.44393 33.46311
# Shear Modulus (GPa) = 24.34948 31.29870 27.82409
#
# Velocity S-wave (km/s) = 3.31865 3.76253 3.54754
# Velocity P-wave (km/s) = 5.20721 6.05940 5.64940
#
# Compressibility (1/GPa) = 0.03638708
#
# Stress axis : x y z
#
# Youngs Moduli (GPa) = 55.66488 38.12243 74.41695
#
# Poissons Ratio (x) = 0.19826 -0.04972
# Poissons Ratio (y) = 0.28948 0.45328
# Poissons Ratio (z) = -0.03719 0.23220
#
# Static dielectric constant tensor:
#      x y z
#    x 1.788440 0.050840 -0.013470 
#    y 0.050840 1.843140 -0.043580 
#    z -0.013470 -0.043580 1.885080 
# 
# From -- ./inp_files/271372.got.cif
#   From: 2010.05.17/outbox.cif.g08.bks.cpg/sg2_136_cif.got.tgz:271372.got - 2010.06.03 11:33:40.
