data_PCOD9024456
_publ_section_title
;
Structure prediction by ZEFSAII (Michael W. Deem and Ramdas Pophale) SiO2 
 PCOD9024456
Probable space group: P -1
;
_chemical_formula_sum "Si O2"
_cell_formula_units_Z 14
_cell_length_a 7.138743
_cell_length_b 9.304728
_cell_length_c 11.933154
_cell_angle_alpha 60.289894
_cell_angle_beta 84.765573
_cell_angle_gamma 96.687112
_cell_volume 673.497318
_symmetry_space_group_name_H-M "P -1"
_symmetry_group_IT_number 2
_symmetry_cell_setting 'triclinic'
loop_
_space_group_symop_operation_xyz
x,y,z
-x,-y,-z
loop_
_atom_site_type_symbol
_atom_site_label
_atom_site_fract_x
_atom_site_fract_y
_atom_site_fract_z
Si Si1 0.608364 0.129209 0.112245
Si Si2 0.129940 0.102342 0.857038
Si Si3 0.193674 0.934323 0.488961
Si Si4 0.988988 0.696105 0.415063
Si Si5 0.608792 0.548914 0.591109
Si Si6 0.562012 0.211765 0.835493
Si Si7 0.448942 0.767410 0.691371
O O1 0.572273 0.249541 0.167309
O O2 0.787762 0.038887 0.165261
O O3 0.438628 0.966755 0.158008
O O4 0.640390 0.211342 0.956544
O O5 0.032800 0.222016 0.736641
O O6 0.331034 0.206775 0.854413
O O7 0.000000 0.000000 0.000000
O O8 0.266564 0.832910 0.625918
O O9 0.152316 0.808235 0.435260
O O10 0.366984 0.084792 0.392597
O O11 0.000000 0.000000 0.500000
O O12 0.786852 0.692898 0.492430
O O13 0.000000 0.500000 0.500000
O O14 0.500000 0.500000 0.500000
O O15 0.659826 0.375869 0.701296
O O16 0.487540 0.616328 0.669384
#
# Coordination Sequence:
#
# PCOD9024456 Si02
#       7
#     2   2   2   2   2   2   2
#     4   9  21  42  65  95 120 184 224 262 342 401
#     4  10  22  40  64  98 131 174 225 278 328 401
#     4  11  24  41  60  99 131 173 226 269 348 397
#     4  12  26  38  68 100 136 172 226 282 337 404
#     4  12  23  43  64  98 136 174 222 281 348 393
#     4   9  22  39  66  90 130 171 228 265 334 412
#     4  11  25  41  68  91 142 179 214 293 332 406
#
# _framework density 20.787018
#
# number of rings (size 3 to 8) (size 9 to 14) (size 15 to 20)
#    0.857    0.571    2.857    1.714   12.000    0.571 
#    0.000    0.000    0.000    1.714    0.000    0.000 
#    0.000    0.000    0.000    0.000    0.000    0.000 
#
# Total GULP energy -78091.675888 kJ/mol
# GULP energy per Si atom -5577.976849 kJ/mol
# Density = 2.073971 g / cm^3
# Si number density = 20.787018 Si / 1000 Ang^3
#
#
#
# Elastic Constant Matrix: (Units=GPa)
#
#
# Indices 1 2 3 4 5 6 
#
# 1 65.9194 19.1042 26.8117 6.4438 9.9698 -0.1347
# 2 19.1042 111.1892 49.4665 20.9675 8.1608 -9.7859
# 3 26.8117 49.4665 150.4934 3.1893 10.4575 -4.5553
# 4 6.4438 20.9675 3.1893 35.9086 1.6031 -8.5151
# 5 9.9698 8.1608 10.4575 1.6031 36.8167 0.4990
# 6 -0.1347 -9.7859 -4.5553 -8.5151 0.4990 32.1919
#
#
#
# Elastic Compliance Matrix: (Units=1/GPa)
#
#
# Indices 1 2 3 4 5 6 
#
# 1 0.017284 -0.001330 -0.002381 -0.002239 -0.003595 -0.001205
# 2 -0.001330 0.012156 -0.003505 -0.006122 -0.001094 0.001591
# 3 -0.002381 -0.003505 0.008270 0.001932 -0.001020 0.000622
# 4 -0.002239 -0.006122 0.001932 0.033375 -0.000137 0.007233
# 5 -0.003595 -0.001094 -0.001020 -0.000137 0.028686 -0.000973
# 6 -0.001205 0.001591 0.000622 0.007233 -0.000973 0.033559
#
#
# Mechanical properties :
#
#
# Convention : Reuss Voigt Hill
#
# Bulk Modulus (GPa) = 42.95989 57.59631 50.27810
# Shear Modulus (GPa) = 32.14972 36.46475 34.30723
#
# Velocity S-wave (km/s) = 3.93698 4.19287 4.06694
# Velocity P-wave (km/s) = 6.43257 7.15599 6.80390
#
# Compressibility (1/GPa) = 0.02327753
#
# Stress axis : x y z
#
# Youngs Moduli (GPa) = 57.85596 82.26191 120.92201
#
# Poissons Ratio (x) = 0.10944 0.28795
# Poissons Ratio (y) = 0.07697 0.42380
# Poissons Ratio (z) = 0.13777 0.28831
#
# Static dielectric constant tensor:
#      x y z
#    x 1.825120 -0.052480 -0.015570 
#    y -0.052480 1.781320 0.003040 
#    z -0.015570 0.003040 1.730670 
# 
# From -- ./inp_files/375679.got.cif
#   From: 2010.05.17/outbox.cif.g08.bks.cpg/sg2_188_cif.got.tgz:375679.got - 2010.06.03 11:33:40.
