data_PCOD9024497
_publ_section_title
;
Structure prediction by ZEFSAII (Michael W. Deem and Ramdas Pophale) SiO2 
 PCOD9024497
Probable space group: P -1
;
_chemical_formula_sum "Si O2"
_cell_formula_units_Z 14
_cell_length_a 9.523419
_cell_length_b 9.334535
_cell_length_c 22.969666
_cell_angle_alpha 48.518824
_cell_angle_beta 27.403788
_cell_angle_gamma 47.896206
_cell_volume 683.669305
_symmetry_space_group_name_H-M "P -1"
_symmetry_group_IT_number 2
_symmetry_cell_setting 'triclinic'
loop_
_space_group_symop_operation_xyz
x,y,z
-x,-y,-z
loop_
_atom_site_type_symbol
_atom_site_label
_atom_site_fract_x
_atom_site_fract_y
_atom_site_fract_z
Si Si1 0.887399 0.795696 0.885407
Si Si2 0.414404 0.977784 0.604272
Si Si3 0.758623 0.992739 0.995606
Si Si4 0.142261 0.603069 0.127152
Si Si5 0.773830 0.592678 0.156029
Si Si6 0.195589 0.414153 0.621844
Si Si7 0.187199 0.412442 0.396938
O O1 0.930403 0.562930 0.939468
O O2 0.557681 0.892861 0.951571
O O3 0.954478 0.881465 0.899629
O O4 0.136276 0.863525 0.734893
O O5 0.307472 0.185786 0.620875
O O6 0.500000 0.000000 0.500000
O O7 0.691573 0.822021 0.576701
O O8 0.719334 0.819199 0.098726
O O9 0.887818 0.163505 0.930474
O O10 0.874704 0.557616 0.195603
O O11 0.039409 0.566348 0.240914
O O12 0.500000 0.500000 0.000000
O O13 0.480879 0.514339 0.262669
O O14 0.500000 0.500000 0.500000
O O15 0.009895 0.528654 0.604511
O O16 0.000000 0.500000 0.500000
#
# Coordination Sequence:
#
# PCOD9024497 Si02
#       7
#     2   2   2   2   2   2   2
#     4  10  22  40  65 102 128 175 226 280 336 407
#     4  11  23  42  73  99 135 177 230 282 344 408
#     4  11  22  40  68  93 137 175 225 280 340 398
#     4  12  26  46  66 104 147 182 227 289 346 401
#     4  11  24  41  69  98 133 181 229 275 345 412
#     4  12  27  49  71 101 145 182 230 292 345 412
#     4  11  24  45  73 103 133 182 236 283 346 419
#
# _framework density 20.477736
#
# number of rings (size 3 to 8) (size 9 to 14) (size 15 to 20)
#    0.000    0.857    4.286    2.571    4.000    2.857 
#    2.571    0.000    0.000    0.000    0.000    0.000 
#    0.000    0.000    0.000    0.000    0.000    0.000 
#
# Total GULP energy -78076.275232 kJ/mol
# GULP energy per Si atom -5576.876802 kJ/mol
# Density = 2.043113 g / cm^3
# Si number density = 20.477736 Si / 1000 Ang^3
#
#
#
# Elastic Constant Matrix: (Units=GPa)
#
#
# Indices 1 2 3 4 5 6 
#
# 1 151.1831 53.9247 42.0086 -2.8103 4.2608 -10.7392
# 2 53.9247 128.4500 9.4783 -5.7163 5.8507 -4.1351
# 3 42.0086 9.4783 72.6112 4.4623 10.2562 -3.7686
# 4 -2.8103 -5.7163 4.4623 28.4095 7.5343 1.0390
# 5 4.2608 5.8507 10.2562 7.5343 33.4099 -2.8326
# 6 -10.7392 -4.1351 -3.7686 1.0390 -2.8326 36.0833
#
#
#
# Elastic Compliance Matrix: (Units=1/GPa)
#
#
# Indices 1 2 3 4 5 6 
#
# 1 0.009399 -0.003525 -0.005058 0.000685 0.000980 0.001922
# 2 -0.003525 0.009363 0.000968 0.001896 -0.001922 -0.000080
# 3 -0.005058 0.000968 0.017316 -0.001860 -0.004410 0.000121
# 4 0.000685 0.001896 -0.001860 0.038282 -0.008613 -0.001552
# 5 0.000980 -0.001922 -0.004410 -0.008613 0.033651 0.002500
# 6 0.001922 -0.000080 0.000121 -0.001552 0.002500 0.028530
#
#
# Mechanical properties :
#
#
# Convention : Reuss Voigt Hill
#
# Bulk Modulus (GPa) = 47.96910 62.56306 55.26608
# Shear Modulus (GPa) = 31.50210 36.03606 33.76908
#
# Velocity S-wave (km/s) = 3.92645 4.19951 4.06527
# Velocity P-wave (km/s) = 6.63565 7.35748 7.00587
#
# Compressibility (1/GPa) = 0.02084675
#
# Stress axis : x y z
#
# Youngs Moduli (GPa) = 106.39512 106.80613 57.75124
#
# Poissons Ratio (x) = 0.37647 0.29212
# Poissons Ratio (y) = 0.37502 -0.05589
# Poissons Ratio (z) = 0.53818 -0.10337
#
# Static dielectric constant tensor:
#      x y z
#    x 1.738410 0.007420 0.008050 
#    y 0.007420 1.800720 0.036970 
#    z 0.008050 0.036970 1.802520 
# 
# From -- ./inp_files/186235.got.cif
#   From: 2010.05.17/outbox.cif.g08.bks.cpg/sg2_94_cif.got.tgz:186235.got - 2010.06.03 11:33:40.
