data_PCOD9024321
_publ_section_title
;
Structure prediction by ZEFSAII (Michael W. Deem and Ramdas Pophale) SiO2 
 PCOD9024321
Probable space group: P -1
;
_chemical_formula_sum "Si O2"
_cell_formula_units_Z 14
_cell_length_a 11.319457
_cell_length_b 14.316408
_cell_length_c 14.028193
_cell_angle_alpha 158.820736
_cell_angle_beta 129.101185
_cell_angle_gamma 53.924612
_cell_volume 637.371571
_symmetry_space_group_name_H-M "P -1"
_symmetry_group_IT_number 2
_symmetry_cell_setting 'triclinic'
loop_
_space_group_symop_operation_xyz
x,y,z
-x,-y,-z
loop_
_atom_site_type_symbol
_atom_site_label
_atom_site_fract_x
_atom_site_fract_y
_atom_site_fract_z
Si Si1 0.469033 0.096492 0.470630
Si Si2 0.092378 0.236059 0.817081
Si Si3 0.934360 0.696216 0.787093
Si Si4 0.568067 0.617923 0.936264
Si Si5 0.878608 0.783301 0.618725
Si Si6 0.447039 0.672860 0.726254
Si Si7 0.250865 0.086100 0.944468
O O1 0.570557 0.345328 0.732970
O O2 0.296309 0.193559 0.472634
O O3 0.500000 0.000000 0.500000
O O4 0.492683 0.855389 0.181425
O O5 0.124626 0.147008 0.858407
O O6 0.260440 0.291847 0.913732
O O7 0.000000 0.000000 0.500000
O O8 0.000000 0.500000 0.000000
O O9 0.889099 0.717692 0.674030
O O10 0.035062 0.441863 0.608096
O O11 0.790082 0.722975 0.808095
O O12 0.036728 0.947194 0.099171
O O13 0.467665 0.559301 0.734010
O O14 0.500000 0.500000 0.500000
O O15 0.288987 0.817093 0.761027
O O16 0.589284 0.875470 0.992431
#
# Coordination Sequence:
#
# PCOD9024321 Si02
#       7
#     2   2   2   2   2   2   2
#     4  12  26  46  70  97 135 186 238 285 336 409
#     4  11  26  45  67 100 142 182 222 276 340 423
#     4  10  22  40  64  92 128 169 210 281 337 394
#     4  11  26  45  73  99 138 180 231 292 348 396
#     4  10  23  40  62  93 128 165 225 274 333 385
#     4  10  24  40  71 102 136 171 229 288 349 417
#     4  10  24  40  66 100 133 174 227 272 349 417
#
# _framework density 21.965209000000002
#
# number of rings (size 3 to 8) (size 9 to 14) (size 15 to 20)
#    0.000    1.429    0.000    3.000   14.000    4.571 
#    0.000    0.000    0.000    0.000    0.000    0.000 
#    0.000    0.000    0.000    0.000    0.000    0.000 
#
# Total GULP energy -78191.318041 kJ/mol
# GULP energy per Si atom -5585.094146 kJ/mol
# Density = 2.191522 g / cm^3
# Si number density = 21.965209 Si / 1000 Ang^3
#
#
#
# Elastic Constant Matrix: (Units=GPa)
#
#
# Indices 1 2 3 4 5 6 
#
# 1 103.6305 51.8794 45.5900 10.2353 -14.0330 -1.8769
# 2 51.8794 146.4535 74.6508 17.7682 -9.9626 -6.4024
# 3 45.5900 74.6508 140.3296 26.8395 -16.7969 -4.1497
# 4 10.2353 17.7682 26.8395 16.7294 -8.9869 -0.7249
# 5 -14.0330 -9.9626 -16.7969 -8.9869 44.9860 9.5336
# 6 -1.8769 -6.4024 -4.1497 -0.7249 9.5336 31.3745
#
#
#
# Elastic Compliance Matrix: (Units=1/GPa)
#
#
# Indices 1 2 3 4 5 6 
#
# 1 0.012524 -0.003279 -0.002165 0.000716 0.002732 -0.001020
# 2 -0.003279 0.010380 -0.003919 -0.003307 -0.001207 0.001694
# 3 -0.002165 -0.003919 0.012804 -0.014946 0.000174 0.000366
# 4 0.000716 -0.003307 -0.014946 0.093964 0.013654 -0.004587
# 5 0.002732 -0.001207 0.000174 0.013654 0.027311 -0.008043
# 6 -0.001020 0.001694 0.000366 -0.004587 -0.008043 0.034544
#
#
# Mechanical properties :
#
#
# Convention : Reuss Voigt Hill
#
# Bulk Modulus (GPa) = 58.87788 81.62823 70.25306
# Shear Modulus (GPa) = 23.15746 33.17088 28.16417
#
# Velocity S-wave (km/s) = 3.25049 3.89029 3.58469
# Velocity P-wave (km/s) = 6.39928 7.57775 7.01331
#
# Compressibility (1/GPa) = 0.01698431
#
# Stress axis : x y z
#
# Youngs Moduli (GPa) = 79.84612 96.33821 78.09886
#
# Poissons Ratio (x) = 0.31586 0.16907
# Poissons Ratio (y) = 0.26179 0.30604
# Poissons Ratio (z) = 0.17285 0.37751
#
# Static dielectric constant tensor:
#      x y z
#    x 1.862150 0.047790 0.091230 
#    y 0.047790 1.820440 0.015280 
#    z 0.091230 0.015280 1.867550 
# 
# From -- ./inp_files/522061.got.cif
#   From: 2010.05.17/outbox.cif.g08.bks.cpg/sg2_262_cif.got.tgz:522061.got - 2010.06.03 11:33:40.
