data_PCOD9024921
_publ_section_title
;
Structure prediction by ZEFSAII (Michael W. Deem and Ramdas Pophale) SiO2 
 PCOD9024921
Probable space group: P -1
;
_chemical_formula_sum "Si O2"
_cell_formula_units_Z 16
_cell_length_a 5.003854
_cell_length_b 21.729004
_cell_length_c 15.726547
_cell_angle_alpha 158.776138
_cell_angle_beta 98.899337
_cell_angle_gamma 76.563031
_cell_volume 592.689564
_symmetry_space_group_name_H-M "P -1"
_symmetry_group_IT_number 2
_symmetry_cell_setting 'triclinic'
loop_
_space_group_symop_operation_xyz
x,y,z
-x,-y,-z
loop_
_atom_site_type_symbol
_atom_site_label
_atom_site_fract_x
_atom_site_fract_y
_atom_site_fract_z
Si Si1 0.788282 0.159319 0.283338
Si Si2 0.621124 0.118783 0.398955
Si Si3 0.694298 0.727536 0.857423
Si Si4 0.179181 0.220515 0.252431
Si Si5 0.781538 0.622573 0.082581
Si Si6 0.903885 0.981249 0.567196
Si Si7 0.291420 0.663110 0.889355
Si Si8 0.277849 0.479697 0.818114
O O1 0.789676 0.186311 0.418294
O O2 0.476506 0.175549 0.255182
O O3 0.948400 0.274550 0.384198
O O4 0.917407 0.949325 0.007780
O O5 0.353826 0.280734 0.598342
O O6 0.821093 0.078136 0.436950
O O7 0.559795 0.938307 0.130232
O O8 0.492556 0.640728 0.789862
O O9 0.983272 0.691212 0.874219
O O10 0.766793 0.679670 0.701276
O O11 0.747794 0.825843 0.361252
O O12 0.490517 0.570906 0.996323
O O13 0.000000 0.500000 0.000000
O O14 0.959391 0.579676 0.948656
O O15 0.715854 0.160149 0.828769
O O16 0.000000 0.000000 0.500000
O O17 0.347507 0.507190 0.758907
#
# Coordination Sequence:
#
# PCOD9024921 Si02
#       8
#     2   2   2   2   2   2   2   2
#     4   9  18  33  58  91 123 155 201 251 308 361
#     4  10  24  40  64  95 126 165 210 261 308 374
#     4  10  22  40  66  96 126 161 209 257 313 368
#     4   9  17  34  61  91 122 156 197 255 306 366
#     4  12  26  43  64  90 122 169 213 265 314 366
#     4  11  24  44  66  92 126 167 215 262 310 368
#     4  11  24  41  63  92 128 168 207 260 309 370
#     4  12  26  43  63  89 128 170 209 257 319 368
#
# _framework density 26.995584000000001
#
# number of rings (size 3 to 8) (size 9 to 14) (size 15 to 20)
#    0.000    1.500    2.500    1.875    3.500    8.500 
#    0.000    0.000    0.000    4.500    0.000    0.000 
#    0.000    0.000    0.000    0.000    0.000    0.000 
#
# Total GULP energy -89740.598930 kJ/mol
# GULP energy per Si atom -5608.787433 kJ/mol
# Density = 2.693414 g / cm^3
# Si number density = 26.995584 Si / 1000 Ang^3
#
#
#
# Elastic Constant Matrix: (Units=GPa)
#
#
# Indices 1 2 3 4 5 6 
#
# 1 134.5406 38.8657 22.2015 -3.2116 5.9283 19.8504
# 2 38.8657 197.3121 27.6272 0.6957 -5.8457 21.8909
# 3 22.2015 27.6272 115.7468 15.3136 9.2753 6.9694
# 4 -3.2116 0.6957 15.3136 30.9756 0.9926 -7.9996
# 5 5.9283 -5.8457 9.2753 0.9926 29.4780 -5.3447
# 6 19.8504 21.8909 6.9694 -7.9996 -5.3447 46.8373
#
#
#
# Elastic Compliance Matrix: (Units=1/GPa)
#
#
# Indices 1 2 3 4 5 6 
#
# 1 0.008531 -0.001266 -0.001077 0.000744 -0.002195 -0.002987
# 2 -0.001266 0.005718 -0.001090 -0.000245 0.001404 -0.001856
# 3 -0.001077 -0.001090 0.010220 -0.005517 -0.003371 -0.001882
# 4 0.000744 -0.000245 -0.005517 0.036876 0.001583 0.007099
# 5 -0.002195 0.001404 -0.003371 0.001583 0.036597 0.005222
# 6 -0.002987 -0.001856 -0.001882 0.007099 0.005222 0.025572
#
#
# Mechanical properties :
#
#
# Convention : Reuss Voigt Hill
#
# Bulk Modulus (GPa) = 56.80907 69.44316 63.12612
# Shear Modulus (GPa) = 36.69729 45.38519 41.04124
#
# Velocity S-wave (km/s) = 3.69098 4.10470 3.90333
# Velocity P-wave (km/s) = 6.26530 6.94583 6.61432
#
# Compressibility (1/GPa) = 0.01760282
#
# Stress axis : x y z
#
# Youngs Moduli (GPa) = 117.21538 174.87224 97.84948
#
# Poissons Ratio (x) = 0.22137 0.10538
# Poissons Ratio (y) = 0.14838 0.10670
# Poissons Ratio (z) = 0.12624 0.19069
#
# Static dielectric constant tensor:
#      x y z
#    x 2.037490 0.078130 -0.049100 
#    y 0.078130 2.135470 -0.060830 
#    z -0.049100 -0.060830 2.211530 
# 
# From -- ./inp_files/485318.got.cif
#   From: 2010.05.17/outbox.cif.g08.bks.cpg/sg2_243_cif.got.tgz:485318.got - 2010.06.03 11:33:40.
