data_PCOD9024766
_publ_section_title
;
Structure prediction by ZEFSAII (Michael W. Deem and Ramdas Pophale) SiO2 
 PCOD9024766
Probable space group: P -1
;
_chemical_formula_sum "Si O2"
_cell_formula_units_Z 14
_cell_length_a 6.971501
_cell_length_b 10.156420
_cell_length_c 12.065822
_cell_angle_alpha 69.762707
_cell_angle_beta 93.577126
_cell_angle_gamma 131.739161
_cell_volume 580.677954
_symmetry_space_group_name_H-M "P -1"
_symmetry_group_IT_number 2
_symmetry_cell_setting 'triclinic'
loop_
_space_group_symop_operation_xyz
x,y,z
-x,-y,-z
loop_
_atom_site_type_symbol
_atom_site_label
_atom_site_fract_x
_atom_site_fract_y
_atom_site_fract_z
Si Si1 0.724608 0.555355 0.224995
Si Si2 0.774068 0.496014 0.780727
Si Si3 0.434329 0.050931 0.868675
Si Si4 0.750760 0.299598 0.415306
Si Si5 0.615119 0.402402 0.035311
Si Si6 0.334340 0.962239 0.337763
Si Si7 0.055344 0.987517 0.152762
O O1 0.443580 0.491074 0.242521
O O2 0.772582 0.478278 0.353021
O O3 0.726139 0.452852 0.148549
O O4 0.931269 0.786445 0.150118
O O5 0.641055 0.283013 0.802242
O O6 0.016656 0.647745 0.666711
O O7 0.817273 0.497913 0.913599
O O8 0.485105 0.984770 0.778932
O O9 0.148398 0.985698 0.871986
O O10 0.500000 0.000000 0.000000
O O11 0.751306 0.227310 0.555173
O O12 0.485009 0.120585 0.393670
O O13 0.347537 0.179571 0.067652
O O14 0.500000 0.500000 0.000000
O O15 0.107146 0.952312 0.287615
#
# Coordination Sequence:
#
# PCOD9024766 Si02
#       7
#     2   2   2   2   2   2   2
#     4  10  23  43  70 102 142 185 229 289 347 408
#     4  10  24  42  65 102 136 183 233 281 349 412
#     4  11  26  44  72 107 136 180 231 287 355 413
#     4  11  25  46  70  99 143 185 242 283 336 420
#     4  10  22  40  66 104 138 183 226 277 354 399
#     4  11  26  46  70 103 137 190 233 289 348 405
#     4  11  24  47  70 104 145 179 228 290 349 416
#
# _framework density 24.109750999999999
#
# number of rings (size 3 to 8) (size 9 to 14) (size 15 to 20)
#    0.000    1.429    1.429    1.714    4.000   15.429 
#    0.000    5.714    0.000    0.000    0.000    0.000 
#    0.000    0.000    0.000    0.000    0.000    0.000 
#
# Total GULP energy -78280.618948 kJ/mol
# GULP energy per Si atom -5591.472782 kJ/mol
# Density = 2.405488 g / cm^3
# Si number density = 24.109751 Si / 1000 Ang^3
#
#
#
# Elastic Constant Matrix: (Units=GPa)
#
#
# Indices 1 2 3 4 5 6 
#
# 1 150.0742 29.0089 70.7339 -2.6946 27.6199 0.9023
# 2 29.0089 78.9983 23.8735 4.6491 8.6846 4.6935
# 3 70.7339 23.8735 147.1494 -6.1784 34.5143 16.8742
# 4 -2.6946 4.6491 -6.1784 33.6512 4.5951 7.6801
# 5 27.6199 8.6846 34.5143 4.5951 36.1668 -0.1008
# 6 0.9023 4.6935 16.8742 7.6801 -0.1008 32.7008
#
#
#
# Elastic Compliance Matrix: (Units=1/GPa)
#
#
# Indices 1 2 3 4 5 6 
#
# 1 0.009358 -0.002128 -0.003570 0.000430 -0.003278 0.001778
# 2 -0.002128 0.014002 -0.001144 -0.002062 -0.000386 -0.000877
# 3 -0.003570 -0.001144 0.011784 0.004842 -0.008879 -0.006983
# 4 0.000430 -0.002062 0.004842 0.034496 -0.008865 -0.010344
# 5 -0.003278 -0.000386 -0.008879 -0.008865 0.039865 0.006933
# 6 0.001778 -0.000877 -0.006983 -0.010344 0.006933 0.036711
#
#
# Mechanical properties :
#
#
# Convention : Reuss Voigt Hill
#
# Bulk Modulus (GPa) = 46.60012 69.27272 57.93642
# Shear Modulus (GPa) = 29.93064 37.34413 33.63739
#
# Velocity S-wave (km/s) = 3.52722 3.93990 3.73926
# Velocity P-wave (km/s) = 5.99655 7.03504 6.53645
#
# Compressibility (1/GPa) = 0.02145917
#
# Stress axis : x y z
#
# Youngs Moduli (GPa) = 106.86487 71.42063 84.85916
#
# Poissons Ratio (x) = 0.15198 0.30294
# Poissons Ratio (y) = 0.22740 0.09710
# Poissons Ratio (z) = 0.38150 0.08172
#
# Static dielectric constant tensor:
#      x y z
#    x 1.930560 0.026280 0.022260 
#    y 0.026280 2.010280 0.034890 
#    z 0.022260 0.034890 1.953830 
# 
# From -- ./inp_files/389763.got.cif
#   From: 2010.05.17/outbox.cif.g08.bks.cpg/sg2_195_cif.got.tgz:389763.got - 2010.06.03 11:33:40.
