data_PCOD9024962
_publ_section_title
;
Structure prediction by ZEFSAII (Michael W. Deem and Ramdas Pophale) SiO2 
 PCOD9024962
Probable space group: P -1
;
_chemical_formula_sum "Si O2"
_cell_formula_units_Z 14
_cell_length_a 5.293421
_cell_length_b 11.652176
_cell_length_c 18.632848
_cell_angle_alpha 142.176294
_cell_angle_beta 117.956191
_cell_angle_gamma 49.028550
_cell_volume 529.124858
_symmetry_space_group_name_H-M "P -1"
_symmetry_group_IT_number 2
_symmetry_cell_setting 'triclinic'
loop_
_space_group_symop_operation_xyz
x,y,z
-x,-y,-z
loop_
_atom_site_type_symbol
_atom_site_label
_atom_site_fract_x
_atom_site_fract_y
_atom_site_fract_z
Si Si1 0.979484 0.619165 0.719568
Si Si2 0.548907 0.149579 0.507807
Si Si3 0.632487 0.643194 0.557598
Si Si4 0.050213 0.971855 0.079343
Si Si5 0.205014 0.272954 0.871468
Si Si6 0.909945 0.445531 0.144424
Si Si7 0.272340 0.819417 0.307005
O O1 0.211097 0.368528 0.601668
O O2 0.868404 0.615340 0.784220
O O3 0.674290 0.740573 0.683903
O O4 0.137641 0.770051 0.800187
O O5 0.596585 0.206591 0.462384
O O6 0.801090 0.148845 0.601150
O O7 0.448506 0.964654 0.396702
O O8 0.500000 0.500000 0.500000
O O9 0.000000 0.500000 0.500000
O O10 0.426675 0.852263 0.104910
O O11 0.961741 0.786464 0.992496
O O12 0.000000 0.000000 0.000000
O O13 0.172325 0.369422 0.833621
O O14 0.014910 0.139371 0.767628
O O15 0.000000 0.500000 0.000000
O O16 0.549986 0.563579 0.197675
#
# Coordination Sequence:
#
# PCOD9024962 Si02
#       7
#     2   2   2   2   2   2   2
#     4   9  21  41  66  97 135 187 228 290 368 430
#     4   9  21  43  68 103 139 191 232 299 358 444
#     4  10  22  40  66  97 142 189 241 296 368 440
#     4  10  22  43  67  96 139 178 228 298 366 426
#     4  12  25  40  72 105 131 187 243 294 357 437
#     4  10  22  43  67  95 140 178 233 298 355 428
#     4  10  22  43  69 100 141 182 244 289 362 427
#
# _framework density 26.458783
#
# number of rings (size 3 to 8) (size 9 to 14) (size 15 to 20)
#    0.000    2.000    1.429    0.429    4.000    2.286 
#    0.000    6.429    0.000    0.000    0.000    0.000 
#    0.000    0.000    0.000    0.000    0.000    0.000 
#
# Total GULP energy -77956.462958 kJ/mol
# GULP energy per Si atom -5568.318783 kJ/mol
# Density = 2.639856 g / cm^3
# Si number density = 26.458783 Si / 1000 Ang^3
#
#
#
# Elastic Constant Matrix: (Units=GPa)
#
#
# Indices 1 2 3 4 5 6 
#
# 1 58.1402 54.5528 27.0224 -16.5439 12.3452 -6.7831
# 2 54.5528 175.7342 51.0441 -25.3610 4.6114 -3.3450
# 3 27.0224 51.0441 157.8772 -11.0588 19.3532 1.0884
# 4 -16.5439 -25.3610 -11.0588 74.6367 -0.3906 4.5918
# 5 12.3452 4.6114 19.3532 -0.3906 27.2095 1.1644
# 6 -6.7831 -3.3450 1.0884 4.5918 1.1644 33.2391
#
#
#
# Elastic Compliance Matrix: (Units=1/GPa)
#
#
# Indices 1 2 3 4 5 6 
#
# 1 0.028889 -0.007869 -0.000816 0.003237 -0.011364 0.005081
# 2 -0.007869 0.008698 -0.001809 0.001018 0.003437 -0.000932
# 3 -0.000816 -0.001809 0.007669 0.000346 -0.004752 -0.000481
# 4 0.003237 0.001018 0.000346 0.014579 -0.001626 -0.001205
# 5 -0.011364 0.003437 -0.004752 -0.001626 0.044817 -0.003163
# 6 0.005081 -0.000932 -0.000481 -0.001205 -0.003163 0.031321
#
#
# Mechanical properties :
#
#
# Convention : Reuss Voigt Hill
#
# Bulk Modulus (GPa) = 41.20595 72.99892 57.10244
# Shear Modulus (GPa) = 30.29394 44.29255 37.29324
#
# Velocity S-wave (km/s) = 3.38738 4.09592 3.75838
# Velocity P-wave (km/s) = 5.55937 7.07236 6.36101
#
# Compressibility (1/GPa) = 0.02426834
#
# Stress axis : x y z
#
# Youngs Moduli (GPa) = 34.61474 114.97406 130.40322
#
# Poissons Ratio (x) = 0.90474 0.10638
# Poissons Ratio (y) = 0.27239 0.23587
# Poissons Ratio (z) = 0.02824 0.20796
#
# Static dielectric constant tensor:
#      x y z
#    x 1.689840 0.024890 -0.368330 
#    y 0.024890 2.203510 0.027220 
#    z -0.368330 0.027220 1.885570 
# 
# From -- ./inp_files/549329.got.cif
#   From: 2010.05.17/outbox.cif.g08.bks.cpg/sg2_275_cif.got.tgz:549329.got - 2010.06.03 11:33:40.
