data_PCOD9024004
_publ_section_title
;
Structure prediction by ZEFSAII (Michael W. Deem and Ramdas Pophale) SiO2 
 PCOD9024004
Probable space group: P -1
;
_chemical_formula_sum "Si O2"
_cell_formula_units_Z 14
_cell_length_a 12.864097
_cell_length_b 17.479694
_cell_length_c 8.613934
_cell_angle_alpha 147.150055
_cell_angle_beta 50.148106
_cell_angle_gamma 141.123003
_cell_volume 658.958456
_symmetry_space_group_name_H-M "P -1"
_symmetry_group_IT_number 2
_symmetry_cell_setting 'triclinic'
loop_
_space_group_symop_operation_xyz
x,y,z
-x,-y,-z
loop_
_atom_site_type_symbol
_atom_site_label
_atom_site_fract_x
_atom_site_fract_y
_atom_site_fract_z
Si Si1 0.554328 0.198212 0.311832
Si Si2 0.109361 0.639624 0.887218
Si Si3 0.419263 0.411516 0.760708
Si Si4 0.100673 0.941720 0.718198
Si Si5 0.802129 0.297165 0.723909
Si Si6 0.963073 0.828676 0.317965
Si Si7 0.482998 0.237191 0.801680
O O1 0.743330 0.338807 0.315873
O O2 0.454125 0.268039 0.444784
O O3 0.530276 0.218740 0.550407
O O4 0.500000 0.000000 0.000000
O O5 0.924148 0.467920 0.795840
O O6 0.170533 0.676379 0.070978
O O7 0.086248 0.778295 0.066708
O O8 0.224030 0.316477 0.792657
O O9 0.500000 0.500000 0.000000
O O10 0.485530 0.578953 0.876852
O O11 0.287592 0.097127 0.762572
O O12 0.132029 0.819080 0.576347
O O13 0.994879 0.849860 0.507912
O O14 0.000000 0.000000 0.000000
O O15 0.611117 0.220492 0.749313
O O16 0.000000 0.000000 0.500000
#
# Coordination Sequence:
#
# PCOD9024004 Si02
#       7
#     2   2   2   2   2   2   2
#     4  11  23  40  65  97 131 170 218 267 321 384
#     4  10  22  40  65  96 127 167 218 259 322 383
#     4  10  22  40  62  95 131 167 211 271 324 374
#     4  11  26  42  66  97 131 170 218 267 327 396
#     4  10  22  43  64  91 133 171 208 265 321 390
#     4  11  21  42  67  93 131 172 213 268 322 381
#     4  11  23  45  65  94 131 170 217 272 325 381
#
# _framework density 21.245647000000002
#
# number of rings (size 3 to 8) (size 9 to 14) (size 15 to 20)
#    0.000    1.429    1.429    4.714    2.000    4.000 
#    0.000    1.429    0.000    0.000    0.000    0.000 
#    0.000    0.000    0.000    0.000    0.000    0.000 
#
# Total GULP energy -78042.606689 kJ/mol
# GULP energy per Si atom -5574.471906 kJ/mol
# Density = 2.119729 g / cm^3
# Si number density = 21.245647 Si / 1000 Ang^3
#
#
#
# Elastic Constant Matrix: (Units=GPa)
#
#
# Indices 1 2 3 4 5 6 
#
# 1 123.7939 29.9479 38.5218 0.2993 -21.7704 23.2399
# 2 29.9479 93.3846 24.9467 -10.9814 2.7854 18.9756
# 3 38.5218 24.9467 81.0810 1.8984 -27.7155 3.9297
# 4 0.2993 -10.9814 1.8984 37.2573 7.4214 -13.2203
# 5 -21.7704 2.7854 -27.7155 7.4214 37.2917 12.5983
# 6 23.2399 18.9756 3.9297 -13.2203 12.5983 35.0620
#
#
#
# Elastic Compliance Matrix: (Units=1/GPa)
#
#
# Indices 1 2 3 4 5 6 
#
# 1 0.016010 -0.003454 0.001898 -0.012945 0.020789 -0.021306
# 2 -0.003454 0.014326 -0.006252 0.006922 -0.009542 0.001276
# 3 0.001898 -0.006252 0.023800 -0.014089 0.027367 -0.015688
# 4 -0.012945 0.006922 -0.014089 0.053271 -0.043362 0.042080
# 5 0.020789 -0.009542 0.027367 -0.043362 0.088895 -0.059974
# 6 -0.021306 0.001276 -0.015688 0.042080 -0.059974 0.081126
#
#
# Mechanical properties :
#
#
# Convention : Reuss Voigt Hill
#
# Bulk Modulus (GPa) = 25.96079 53.89914 39.92997
# Shear Modulus (GPa) = 16.34605 35.57840 25.96223
#
# Velocity S-wave (km/s) = 2.77679 4.09665 3.49951
# Velocity P-wave (km/s) = 4.74622 6.91385 5.92992
#
# Compressibility (1/GPa) = 0.03851962
#
# Stress axis : x y z
#
# Youngs Moduli (GPa) = 62.46156 69.80450 42.01675
#
# Poissons Ratio (x) = 0.24113 -0.07977
# Poissons Ratio (y) = 0.21577 0.26269
# Poissons Ratio (z) = -0.11858 0.43642
#
# Static dielectric constant tensor:
#      x y z
#    x 1.786980 -0.004690 -0.011010 
#    y -0.004690 1.774700 0.131870 
#    z -0.011010 0.131870 1.873880 
# 
# From -- ./inp_files/156701.got.cif
#   From: 2010.05.17/outbox.cif.g08.bks.cpg/sg2_79_cif.got.tgz:156701.got - 2010.06.03 11:33:40.
