data_PCOD9024158
_publ_section_title
;
Structure prediction by ZEFSAII (Michael W. Deem and Ramdas Pophale) SiO2 
 PCOD9024158
Probable space group: P -1
;
_chemical_formula_sum "Si O2"
_cell_formula_units_Z 15
_cell_length_a 10.000830
_cell_length_b 11.249429
_cell_length_c 12.122165
_cell_angle_alpha 35.297677
_cell_angle_beta 107.632681
_cell_angle_gamma 121.059401
_cell_volume 655.534472
_symmetry_space_group_name_H-M "P -1"
_symmetry_group_IT_number 2
_symmetry_cell_setting 'triclinic'
loop_
_space_group_symop_operation_xyz
x,y,z
-x,-y,-z
loop_
_atom_site_type_symbol
_atom_site_label
_atom_site_fract_x
_atom_site_fract_y
_atom_site_fract_z
Si Si1 0.868103 0.731681 0.884057
Si Si2 0.994983 0.855418 0.215255
Si Si3 0.681482 0.686675 0.525912
Si Si4 0.000000 0.000000 0.500000
Si Si5 0.495874 0.832396 0.223753
Si Si6 0.400861 0.236187 0.323167
Si Si7 0.771453 0.342448 0.549506
Si Si8 0.260604 0.716565 0.673736
O O1 0.686984 0.674083 0.849498
O O2 0.957150 0.801893 0.737301
O O3 0.854577 0.507151 0.113915
O O4 0.939864 0.957037 0.812019
O O5 0.828118 0.617384 0.377225
O O6 0.108990 0.741287 0.308215
O O7 0.000000 0.000000 0.000000
O O8 0.655703 0.848526 0.305772
O O9 0.610049 0.429380 0.652476
O O10 0.570778 0.651110 0.634640
O O11 0.858362 0.799484 0.534519
O O12 0.397511 0.836514 0.303245
O O13 0.500000 0.000000 0.000000
O O14 0.558426 0.246368 0.304118
O O15 0.266171 0.960657 0.522335
O O16 0.778590 0.320023 0.437210
#
# Coordination Sequence:
#
# PCOD9024158 Si02
#       8
#     2   2   2   1   2   2   2   2
#     4  11  22  40  63  94 126 175 212 262 339 385
#     4  11  23  40  67  97 133 170 215 276 338 392
#     4  10  23  46  67  94 138 181 225 276 333 397
#     4  10  24  44  64  94 138 174 224 272 320 420
#     4  11  25  44  69  98 134 180 229 278 332 398
#     4  10  22  40  63  95 130 162 219 274 319 395
#     4  11  23  41  64  99 128 165 223 274 324 397
#     4  11  21  39  65  95 126 163 215 274 327 384
#
# _framework density 22.882092
#
# number of rings (size 3 to 8) (size 9 to 14) (size 15 to 20)
#    0.000    1.333    4.000    1.200    0.000    6.400 
#    0.000    3.333    0.000    0.000    0.000    0.000 
#    0.000    0.000    0.000    0.000    0.000    0.000 
#
# Total GULP energy -83567.583542 kJ/mol
# GULP energy per Si atom -5571.172236 kJ/mol
# Density = 2.283001 g / cm^3
# Si number density = 22.882092 Si / 1000 Ang^3
#
#
#
# Elastic Constant Matrix: (Units=GPa)
#
#
# Indices 1 2 3 4 5 6 
#
# 1 12.9636 3.3717 23.6572 8.5618 -4.6695 1.4968
# 2 3.3717 99.2003 38.2377 23.2906 5.7978 9.0972
# 3 23.6572 38.2377 199.0321 28.1636 -7.1649 -6.3230
# 4 8.5618 23.2906 28.1636 41.3104 1.1383 2.9890
# 5 -4.6695 5.7978 -7.1649 1.1383 29.9870 6.1793
# 6 1.4968 9.0972 -6.3230 2.9890 6.1793 31.8801
#
#
#
# Elastic Compliance Matrix: (Units=1/GPa)
#
#
# Indices 1 2 3 4 5 6 
#
# 1 0.117687 0.005013 -0.012025 -0.018707 0.017454 -0.010970
# 2 0.005013 0.012672 -0.002289 -0.006337 -0.001262 -0.003467
# 3 -0.012025 -0.002289 0.007156 -0.001292 -0.000249 0.002807
# 4 -0.018707 -0.006337 -0.001292 0.032627 -0.003235 -0.000002
# 5 0.017454 -0.001262 -0.000249 -0.003235 0.037930 -0.007558
# 6 -0.010970 -0.003467 0.002807 -0.000002 -0.007558 0.034894
#
#
# Mechanical properties :
#
#
# Convention : Reuss Voigt Hill
#
# Bulk Modulus (GPa) = 8.40945 49.08104 28.74524
# Shear Modulus (GPa) = 16.59990 37.03080 26.81535
#
# Velocity S-wave (km/s) = 2.69635 4.02721 3.42701
# Velocity P-wave (km/s) = 3.65743 6.56664 5.31496
#
# Compressibility (1/GPa) = 0.11891386
#
# Stress axis : x y z
#
# Youngs Moduli (GPa) = 8.49711 78.91320 139.73432
#
# Poissons Ratio (x) = -0.39558 1.68025
# Poissons Ratio (y) = -0.04260 0.31988
# Poissons Ratio (z) = 0.10217 0.18065
#
# Static dielectric constant tensor:
#      x y z
#    x 2.103970 0.019020 -0.006470 
#    y 0.019020 1.837390 -0.028210 
#    z -0.006470 -0.028210 1.769070 
# 
# From -- ./inp_files/65859.got.cif
#   From: 2010.05.17/outbox.cif.g08.bks.cpg/sg2_33_cif.got.tgz:65859.got - 2010.06.03 11:33:40.
