data_PCOD9024417
_publ_section_title
;
Structure prediction by ZEFSAII (Michael W. Deem and Ramdas Pophale) SiO2 
 PCOD9024417
Probable space group: P -1
;
_chemical_formula_sum "Si O2"
_cell_formula_units_Z 16
_cell_length_a 12.164898
_cell_length_b 8.976393
_cell_length_c 12.507706
_cell_angle_alpha 128.090487
_cell_angle_beta 92.125430
_cell_angle_gamma 120.206422
_cell_volume 798.619861
_symmetry_space_group_name_H-M "P -1"
_symmetry_group_IT_number 2
_symmetry_cell_setting 'triclinic'
loop_
_space_group_symop_operation_xyz
x,y,z
-x,-y,-z
loop_
_atom_site_type_symbol
_atom_site_label
_atom_site_fract_x
_atom_site_fract_y
_atom_site_fract_z
Si Si1 0.124815 0.225408 0.681097
Si Si2 0.840055 0.108812 0.352139
Si Si3 0.930111 0.583133 0.687145
Si Si4 0.512225 0.735412 0.134777
Si Si5 0.971327 0.691513 0.071717
Si Si6 0.279176 0.470121 0.178267
Si Si7 0.813889 0.036181 0.968645
Si Si8 0.356742 0.778846 0.960056
O O1 0.050940 0.253569 0.787935
O O2 0.247722 0.514205 0.772927
O O3 0.199498 0.127567 0.692113
O O4 0.000000 0.000000 0.500000
O O5 0.891331 0.328899 0.533476
O O6 0.975815 0.226655 0.326903
O O7 0.684424 0.992350 0.242710
O O8 0.784652 0.507816 0.704918
O O9 0.052659 0.735565 0.851559
O O10 0.441335 0.688656 0.229613
O O11 0.500000 0.500000 0.000000
O O12 0.411054 0.732696 0.046606
O O13 0.109711 0.945543 0.129167
O O14 0.833169 0.588350 0.945027
O O15 0.000000 0.500000 0.000000
O O16 0.261717 0.225004 0.089509
O O17 0.719587 0.109848 0.969651
O O18 0.500000 0.000000 0.000000
#
# Coordination Sequence:
#
# PCOD9024417 Si02
#       8
#     2   2   2   2   2   2   2   2
#     4  12  24  40  65  98 128 167 215 273 326 373
#     4  11  23  40  64  92 133 167 211 267 329 389
#     4  10  22  40  64  96 126 168 212 269 325 383
#     4  12  22  41  64  91 126 168 214 261 323 392
#     4  11  20  39  62  95 128 163 216 268 315 383
#     4  11  22  38  68  93 127 168 218 263 321 385
#     4  11  21  38  66  94 122 165 217 263 313 380
#     4  12  24  40  63  95 131 172 216 262 322 395
#
# _framework density 20.034562999999999
#
# number of rings (size 3 to 8) (size 9 to 14) (size 15 to 20)
#    0.000    0.750    3.750    6.000    1.750    1.500 
#    0.000    0.000    0.000    1.500    0.000    0.000 
#    0.000    0.000    0.000    0.000    0.000    0.000 
#
# Total GULP energy -89268.042172 kJ/mol
# GULP energy per Si atom -5579.252636 kJ/mol
# Density = 1.998896 g / cm^3
# Si number density = 20.034563 Si / 1000 Ang^3
#
#
#
# Elastic Constant Matrix: (Units=GPa)
#
#
# Indices 1 2 3 4 5 6 
#
# 1 78.4056 26.6313 20.8627 1.8568 -17.0314 -4.6221
# 2 26.6313 106.7070 27.0507 13.7755 -10.3130 13.2482
# 3 20.8627 27.0507 90.5015 3.3282 -15.3026 8.4325
# 4 1.8568 13.7755 3.3282 24.1465 2.8995 -1.6533
# 5 -17.0314 -10.3130 -15.3026 2.8995 23.8975 -3.9691
# 6 -4.6221 13.2482 8.4325 -1.6533 -3.9691 51.8240
#
#
#
# Elastic Compliance Matrix: (Units=1/GPa)
#
#
# Indices 1 2 3 4 5 6 
#
# 1 0.016621 -0.003175 -0.001471 -0.000252 0.010112 0.003300
# 2 -0.003175 0.012141 -0.002016 -0.006859 0.001999 -0.003125
# 3 -0.001471 -0.002016 0.013272 -0.001442 0.006536 -0.001321
# 4 -0.000252 -0.006859 -0.001442 0.046849 -0.009291 0.002748
# 5 0.010112 0.001999 0.006536 -0.009291 0.055776 0.003303
# 6 0.003300 -0.003125 -0.001321 0.002748 0.003303 0.020945
#
#
# Mechanical properties :
#
#
# Convention : Reuss Voigt Hill
#
# Bulk Modulus (GPa) = 34.82905 47.18929 41.00917
# Shear Modulus (GPa) = 26.52538 33.37822 29.95180
#
# Velocity S-wave (km/s) = 3.64260 4.08613 3.87073
# Velocity P-wave (km/s) = 5.92568 6.77252 6.36320
#
# Compressibility (1/GPa) = 0.02871166
#
# Stress axis : x y z
#
# Youngs Moduli (GPa) = 60.16432 82.36225 75.34438
#
# Poissons Ratio (x) = 0.26151 0.11082
# Poissons Ratio (y) = 0.19103 0.15187
# Poissons Ratio (z) = 0.08849 0.16602
#
# Static dielectric constant tensor:
#      x y z
#    x 1.850540 0.020510 0.028320 
#    y 0.020510 1.785870 -0.020160 
#    z 0.028320 -0.020160 1.702970 
# 
# From -- ./inp_files/392601.got.cif
#   From: 2010.05.17/outbox.cif.g08.bks.cpg/sg2_197_cif.got.tgz:392601.got - 2010.06.03 11:33:40.
