data_PCOD9024097
_publ_section_title
;
Structure prediction by ZEFSAII (Michael W. Deem and Ramdas Pophale) SiO2 
 PCOD9024097
Probable space group: P -1
;
_chemical_formula_sum "Si O2"
_cell_formula_units_Z 14
_cell_length_a 13.055392
_cell_length_b 6.499294
_cell_length_c 11.858182
_cell_angle_alpha 91.948432
_cell_angle_beta 36.346097
_cell_angle_gamma 99.458770
_cell_volume 579.827982
_symmetry_space_group_name_H-M "P -1"
_symmetry_group_IT_number 2
_symmetry_cell_setting 'triclinic'
loop_
_space_group_symop_operation_xyz
x,y,z
-x,-y,-z
loop_
_atom_site_type_symbol
_atom_site_label
_atom_site_fract_x
_atom_site_fract_y
_atom_site_fract_z
Si Si1 0.678395 0.957506 0.748116
Si Si2 0.585505 0.720532 0.277230
Si Si3 0.877799 0.901556 0.349071
Si Si4 0.639812 0.353189 0.901053
Si Si5 0.785712 0.752416 0.876361
Si Si6 0.217995 0.493134 0.709637
Si Si7 0.181144 0.927125 0.810893
O O1 0.787995 0.888703 0.549342
O O2 0.747513 0.883499 0.803802
O O3 0.689716 0.207878 0.754772
O O4 0.474344 0.825724 0.918611
O O5 0.386147 0.613514 0.486853
O O6 0.703043 0.611550 0.256141
O O7 0.662239 0.969016 0.241413
O O8 0.632644 0.694788 0.105384
O O9 0.899997 0.682101 0.271282
O O10 0.754656 0.976691 0.366665
O O11 0.049895 0.092605 0.207194
O O12 0.803582 0.523743 0.810466
O O13 0.500000 0.500000 0.000000
O O14 0.136642 0.677817 0.834268
O O15 0.000000 0.000000 0.000000
#
# Coordination Sequence:
#
# PCOD9024097 Si02
#       7
#     2   2   2   2   2   2   2
#     4  10  22  40  63  92 126 165 208 259 313 372
#     4  10  22  43  64  98 122 168 216 258 316 378
#     4  11  24  40  61  96 126 163 211 260 318 376
#     4   9  21  40  62  87 123 168 210 256 305 375
#     4  11  22  39  62  94 130 160 212 256 317 377
#     4  10  24  42  70  90 128 168 212 267 315 377
#     4  11  23  43  64  95 127 165 213 264 318 375
#
# _framework density 24.145094
#
# number of rings (size 3 to 8) (size 9 to 14) (size 15 to 20)
#    0.000    1.714    1.429    1.714    0.000   10.857 
#    0.000    0.000    0.000    0.000    0.000    0.000 
#    0.000    0.000    0.000    0.000    0.000    0.000 
#
# Total GULP energy -78196.816128 kJ/mol
# GULP energy per Si atom -5585.486866 kJ/mol
# Density = 2.409014 g / cm^3
# Si number density = 24.145094 Si / 1000 Ang^3
#
#
#
# Elastic Constant Matrix: (Units=GPa)
#
#
# Indices 1 2 3 4 5 6 
#
# 1 52.9836 36.3720 21.2267 13.8590 18.8598 14.4725
# 2 36.3720 223.1682 30.6981 21.7575 -4.8004 37.5976
# 3 21.2267 30.6981 97.6030 10.7703 22.9139 4.2001
# 4 13.8590 21.7575 10.7703 31.7557 9.9074 -5.4691
# 5 18.8598 -4.8004 22.9139 9.9074 42.1255 -6.6740
# 6 14.4725 37.5976 4.2001 -5.4691 -6.6740 36.9482
#
#
#
# Elastic Compliance Matrix: (Units=1/GPa)
#
#
# Indices 1 2 3 4 5 6 
#
# 1 0.032431 -0.001876 -0.001421 -0.010614 -0.013792 -0.014694
# 2 -0.001876 0.006550 -0.001447 -0.005029 0.002599 -0.006040
# 3 -0.001421 -0.001447 0.012607 -0.000812 -0.006300 -0.000662
# 4 -0.010614 -0.005029 -0.000812 0.043461 -0.003189 0.015224
# 5 -0.013792 0.002599 -0.006300 -0.003189 0.035889 0.009484
# 6 -0.014694 -0.006040 -0.000662 0.015224 0.009484 0.043009
#
#
# Mechanical properties :
#
#
# Convention : Reuss Voigt Hill
#
# Bulk Modulus (GPa) = 23.75463 61.14982 42.45222
# Shear Modulus (GPa) = 25.32055 41.19640 33.25848
#
# Velocity S-wave (km/s) = 3.24185 4.13510 3.71542
# Velocity P-wave (km/s) = 4.88594 6.94116 6.00217
#
# Compressibility (1/GPa) = 0.04209706
#
# Stress axis : x y z
#
# Youngs Moduli (GPa) = 30.83508 152.68068 79.32076
#
# Poissons Ratio (x) = 0.28647 0.11275
# Poissons Ratio (y) = 0.05786 0.11480
# Poissons Ratio (z) = 0.04383 0.22098
#
# Static dielectric constant tensor:
#      x y z
#    x 1.978740 0.020850 -0.036970 
#    y 0.020850 2.027620 -0.009830 
#    z -0.036970 -0.009830 1.948670 
# 
# From -- ./inp_files/406861.got.cif
#   From: 2010.05.17/outbox.cif.g08.bks.cpg/sg2_204_cif.got.tgz:406861.got - 2010.06.03 11:33:40.
