data_PCOD9024193
_publ_section_title
;
Structure prediction by ZEFSAII (Michael W. Deem and Ramdas Pophale) SiO2 
 PCOD9024193
Probable space group: P -1
;
_chemical_formula_sum "Si O2"
_cell_formula_units_Z 14
_cell_length_a 8.866486
_cell_length_b 11.902293
_cell_length_c 13.793225
_cell_angle_alpha 54.984833
_cell_angle_beta 51.465656
_cell_angle_gamma 97.490668
_cell_volume 604.487956
_symmetry_space_group_name_H-M "P -1"
_symmetry_group_IT_number 2
_symmetry_cell_setting 'triclinic'
loop_
_space_group_symop_operation_xyz
x,y,z
-x,-y,-z
loop_
_atom_site_type_symbol
_atom_site_label
_atom_site_fract_x
_atom_site_fract_y
_atom_site_fract_z
Si Si1 0.709664 0.925758 0.530111
Si Si2 0.635327 0.720546 0.860286
Si Si3 0.335275 0.986654 0.202184
Si Si4 0.136355 0.930851 0.109700
Si Si5 0.636026 0.151253 0.554319
Si Si6 0.191968 0.550974 0.806553
Si Si7 0.953569 0.819809 0.034564
O O1 0.679416 0.810227 0.691880
O O2 0.532391 0.764220 0.593716
O O3 0.569543 0.995015 0.581409
O O4 0.056783 0.140442 0.275153
O O5 0.518339 0.788805 0.934969
O O6 0.500000 0.500000 0.000000
O O7 0.097768 0.881790 0.263738
O O8 0.212939 0.846805 0.417180
O O9 0.588245 0.019209 0.050080
O O10 0.903841 0.775697 0.192504
O O11 0.198209 0.125929 0.972560
O O12 0.849441 0.376764 0.307275
O O13 0.312872 0.032587 0.773222
O O14 0.000000 0.500000 0.000000
O O15 0.133940 0.363836 0.895722
#
# Coordination Sequence:
#
# PCOD9024193 Si02
#       7
#     2   2   2   2   2   2   2
#     4  10  23  39  58 101 134 168 212 263 335 406
#     4  10  23  39  67  96 133 168 212 269 334 401
#     4   9  20  41  68  90 132 179 217 273 326 380
#     4   9  20  41  67  94 126 181 226 269 324 374
#     4  10  22  40  63  97 135 169 216 271 328 405
#     4  12  25  38  68 100 134 175 216 268 346 392
#     4  10  22  41  67  97 133 172 224 275 318 393
#
# _framework density 23.160098000000001
#
# number of rings (size 3 to 8) (size 9 to 14) (size 15 to 20)
#    0.000    2.000    1.429    0.429    6.000    0.000 
#    0.000    7.143    0.000    0.000    0.000    0.000 
#    0.000    0.000    0.000    0.000    0.000    0.000 
#
# Total GULP energy -78131.028406 kJ/mol
# GULP energy per Si atom -5580.787743 kJ/mol
# Density = 2.310738 g / cm^3
# Si number density = 23.160098 Si / 1000 Ang^3
#
#
#
# Elastic Constant Matrix: (Units=GPa)
#
#
# Indices 1 2 3 4 5 6 
#
# 1 129.7404 76.2764 37.0600 -3.2676 14.9692 2.1595
# 2 76.2764 163.4762 50.6861 -24.0879 19.5106 -15.2910
# 3 37.0600 50.6861 61.2124 -13.8561 9.2941 -8.1016
# 4 -3.2676 -24.0879 -13.8561 21.1134 2.1340 12.5983
# 5 14.9692 19.5106 9.2941 2.1340 26.5433 0.8051
# 6 2.1595 -15.2910 -8.1016 12.5983 0.8051 56.0867
#
#
#
# Elastic Compliance Matrix: (Units=1/GPa)
#
#
# Indices 1 2 3 4 5 6 
#
# 1 0.011929 -0.005097 -0.004388 -0.006100 -0.000920 -0.001099
# 2 -0.005097 0.011832 -0.003373 0.010689 -0.005520 0.000613
# 3 -0.004388 -0.003373 0.025399 0.012539 -0.004953 0.000173
# 4 -0.006100 0.010689 0.012539 0.075321 -0.014507 -0.011750
# 5 -0.000920 -0.005520 -0.004953 -0.014507 0.045138 0.000426
# 6 -0.001099 0.000613 0.000173 -0.011750 0.000426 0.020697
#
#
# Mechanical properties :
#
#
# Convention : Reuss Voigt Hill
#
# Bulk Modulus (GPa) = 42.65378 75.83044 59.24211
# Shear Modulus (GPa) = 22.33671 33.44244 27.88958
#
# Velocity S-wave (km/s) = 3.10893 3.80408 3.47393
# Velocity P-wave (km/s) = 5.59858 7.21856 6.45956
#
# Compressibility (1/GPa) = 0.02344458
#
# Stress axis : x y z
#
# Youngs Moduli (GPa) = 83.83208 84.51537 39.37119
#
# Poissons Ratio (x) = 0.43078 0.17276
# Poissons Ratio (y) = 0.42730 0.13279
# Poissons Ratio (z) = 0.36785 0.28505
#
# Static dielectric constant tensor:
#      x y z
#    x 1.939740 0.027360 0.007700 
#    y 0.027360 1.910720 0.064710 
#    z 0.007700 0.064710 1.905180 
# 
# From -- ./inp_files/364367.got.cif
#   From: 2010.05.17/outbox.cif.g08.bks.cpg/sg2_183_cif.got.tgz:364367.got - 2010.06.03 11:33:40.
