data_PCOD9024451
_publ_section_title
;
Structure prediction by ZEFSAII (Michael W. Deem and Ramdas Pophale) SiO2 
 PCOD9024451
Probable space group: P -1
;
_chemical_formula_sum "Si O2"
_cell_formula_units_Z 13
_cell_length_a 5.563617
_cell_length_b 19.837175
_cell_length_c 19.938631
_cell_angle_alpha 166.090078
_cell_angle_beta 116.761816
_cell_angle_gamma 64.626011
_cell_volume 471.966184
_symmetry_space_group_name_H-M "P -1"
_symmetry_group_IT_number 2
_symmetry_cell_setting 'triclinic'
loop_
_space_group_symop_operation_xyz
x,y,z
-x,-y,-z
loop_
_atom_site_type_symbol
_atom_site_label
_atom_site_fract_x
_atom_site_fract_y
_atom_site_fract_z
Si Si1 0.042143 0.132584 0.525035
Si Si2 0.618663 0.309777 0.906447
Si Si3 0.499689 0.913204 0.186103
Si Si4 0.788713 0.579365 0.398248
Si Si5 0.000000 0.500000 0.000000
Si Si6 0.332159 0.664274 0.721198
Si Si7 0.309173 0.831763 0.736315
O O1 0.909616 0.279962 0.714493
O O2 0.215724 0.850917 0.286786
O O3 0.224461 0.395437 0.774877
O O4 0.808528 0.002642 0.322555
O O5 0.627985 0.102483 0.770642
O O6 0.308756 0.363302 0.904710
O O7 0.369227 0.137855 0.338727
O O8 0.411521 0.608126 0.853304
O O9 0.841009 0.391588 0.288819
O O10 0.082061 0.702688 0.534345
O O11 0.216967 0.810545 0.782474
O O12 0.435782 0.362539 0.422227
O O13 0.592204 0.852882 0.958900
#
# Coordination Sequence:
#
# PCOD9024451 Si02
#       7
#     2   2   2   2   1   2   2
#     4  12  27  48  74 104 144 184 224 290 356 410
#     4  12  27  48  74 104 144 184 224 290 356 410
#     4  12  28  45  65 102 140 180 238 278 332 432
#     4  12  24  42  68  94 134 186 230 284 342 404
#     4  12  26  50  80 112 136 174 242 286 344 432
#     4  10  22  40  64  97 133 173 229 290 346 406
#     4  10  22  40  64  97 133 173 229 290 346 406
#
# _framework density 27.544346000000001
#
# number of rings (size 3 to 8) (size 9 to 14) (size 15 to 20)
#    0.000    0.615    0.000    7.846    0.000   11.692 
#    0.000    6.154    0.000    0.000    0.000    0.000 
#    0.000    0.000    0.000    0.000    0.000    0.000 
#
# Total GULP energy -72606.051297 kJ/mol
# GULP energy per Si atom -5585.080869 kJ/mol
# Density = 2.748165 g / cm^3
# Si number density = 27.544346 Si / 1000 Ang^3
#
#
#
# Elastic Constant Matrix: (Units=GPa)
#
#
# Indices 1 2 3 4 5 6 
#
# 1 91.2663 38.9015 43.8238 -15.5467 9.7848 -25.0511
# 2 38.9015 64.8569 33.6670 3.0351 15.4535 -5.7967
# 3 43.8238 33.6670 192.6049 -19.4907 8.9393 -22.2567
# 4 -15.5467 3.0351 -19.4907 51.7264 -17.4669 11.5471
# 5 9.7848 15.4535 8.9393 -17.4669 62.3037 -3.2627
# 6 -25.0511 -5.7967 -22.2567 11.5471 -3.2627 48.4683
#
#
#
# Elastic Compliance Matrix: (Units=1/GPa)
#
#
# Indices 1 2 3 4 5 6 
#
# 1 0.018469 -0.010447 -0.001192 0.004734 0.001541 0.006725
# 2 -0.010447 0.024663 -0.002644 -0.007155 -0.006228 -0.002379
# 3 -0.001192 -0.002644 0.006277 0.002024 0.000589 0.001508
# 4 0.004734 -0.007155 0.002024 0.025181 0.007645 -0.002964
# 5 0.001541 -0.006228 0.000589 0.007645 0.019402 -0.000193
# 6 0.006725 -0.002379 0.001508 -0.002964 -0.000193 0.025209
#
#
# Mechanical properties :
#
#
# Convention : Reuss Voigt Hill
#
# Bulk Modulus (GPa) = 47.97422 64.61255 56.29339
# Shear Modulus (GPa) = 32.31743 47.98871 40.15307
#
# Velocity S-wave (km/s) = 3.42904 4.17854 3.82221
# Velocity P-wave (km/s) = 5.75610 6.84023 6.32145
#
# Compressibility (1/GPa) = 0.02084453
#
# Stress axis : x y z
#
# Youngs Moduli (GPa) = 54.14396 40.54583 159.31144
#
# Poissons Ratio (x) = 0.42359 0.18982
# Poissons Ratio (y) = 0.56565 0.42122
# Poissons Ratio (z) = 0.06451 0.10720
#
# Static dielectric constant tensor:
#      x y z
#    x 1.977340 -0.003600 -0.131820 
#    y -0.003600 2.157850 -0.072650 
#    z -0.131820 -0.072650 1.968730 
# 
# From -- ./inp_files/605237.got.cif
#   From: 2010.05.17/outbox.cif.g08.bks.cpg/sg2_303_cif.got.tgz:605237.got - 2010.06.03 11:33:40.
