data_PCOD9024223
_publ_section_title
;
Structure prediction by ZEFSAII (Michael W. Deem and Ramdas Pophale) SiO2 
 PCOD9024223
Probable space group: P -1
;
_chemical_formula_sum "Si O2"
_cell_formula_units_Z 16
_cell_length_a 26.104802
_cell_length_b 14.399959
_cell_length_c 9.293213
_cell_angle_alpha 46.597636
_cell_angle_beta 143.259176
_cell_angle_gamma 160.781051
_cell_volume 643.532608
_symmetry_space_group_name_H-M "P -1"
_symmetry_group_IT_number 2
_symmetry_cell_setting 'triclinic'
loop_
_space_group_symop_operation_xyz
x,y,z
-x,-y,-z
loop_
_atom_site_type_symbol
_atom_site_label
_atom_site_fract_x
_atom_site_fract_y
_atom_site_fract_z
Si Si1 0.597157 0.844652 0.545204
Si Si2 0.293809 0.823208 0.776563
Si Si3 0.790415 0.777341 0.824757
Si Si4 0.367840 0.635730 0.511638
Si Si5 0.105288 0.817937 0.503227
Si Si6 0.014793 0.667432 0.790247
Si Si7 0.103965 0.967122 0.925222
Si Si8 0.438673 0.850933 0.714642
O O1 0.412244 0.562264 0.325012
O O2 0.499549 0.723188 0.612607
O O3 0.672230 0.082583 0.407958
O O4 0.791170 0.016430 0.784204
O O5 0.196482 0.812801 0.649323
O O6 0.125934 0.486531 0.753617
O O7 0.495967 0.078864 0.049611
O O8 0.783545 0.906230 0.593911
O O9 0.795500 0.793834 0.993273
O O10 0.000000 0.000000 0.000000
O O11 0.446466 0.740372 0.741116
O O12 0.128100 0.298749 0.312338
O O13 0.408445 0.834883 0.334787
O O14 0.101451 0.791796 0.693025
O O15 0.784787 0.402378 0.546430
O O16 0.118214 0.923404 0.843464
O O17 0.000000 0.500000 0.000000
#
# Coordination Sequence:
#
# PCOD9024223 Si02
#       8
#     2   2   2   2   2   2   2   2
#     4  12  25  44  73 100 139 192 230 290 357 417
#     4  11  25  41  72 106 144 172 240 299 351 413
#     4  12  26  48  73  99 147 192 237 288 353 422
#     4  10  22  40  64 101 137 183 234 279 355 417
#     4  11  26  45  68 111 139 184 235 299 349 421
#     4  11  25  43  71 104 145 184 232 294 367 417
#     4  11  23  44  67 101 135 188 235 286 347 425
#     4  10  23  38  65 103 143 180 225 296 353 422
#
# _framework density 24.862763999999999
#
# number of rings (size 3 to 8) (size 9 to 14) (size 15 to 20)
#    0.000    1.000    2.500    3.375   12.250    1.000 
#    0.000    2.500    0.000    0.000    0.000    0.000 
#    0.000    0.000    0.000    0.000    0.000    0.000 
#
# Total GULP energy -89268.486365 kJ/mol
# GULP energy per Si atom -5579.280398 kJ/mol
# Density = 2.480618 g / cm^3
# Si number density = 24.862764 Si / 1000 Ang^3
#
#
#
# Elastic Constant Matrix: (Units=GPa)
#
#
# Indices 1 2 3 4 5 6 
#
# 1 112.8789 -11.8426 4.3548 -4.6125 -15.4803 0.9048
# 2 -11.8426 32.0604 -21.2576 4.2961 -7.0769 -3.3305
# 3 4.3548 -21.2576 63.9889 15.9406 -5.6149 7.5505
# 4 -4.6125 4.2961 15.9406 26.6274 -2.6964 -9.0227
# 5 -15.4803 -7.0769 -5.6149 -2.6964 44.2067 12.0641
# 6 0.9048 -3.3305 7.5505 -9.0227 12.0641 30.3553
#
#
#
# Elastic Compliance Matrix: (Units=1/GPa)
#
#
# Indices 1 2 3 4 5 6 
#
# 1 0.010209 0.006707 0.002713 -0.001347 0.005706 -0.002911
# 2 0.006707 0.061460 0.031883 -0.032202 0.019364 -0.018655
# 3 0.002713 0.031883 0.038290 -0.033541 0.014872 -0.021987
# 4 -0.001347 -0.032202 -0.033541 0.071963 -0.014198 0.031883
# 5 0.005706 0.019364 0.014872 -0.014198 0.034064 -0.019503
# 6 -0.002911 -0.018655 -0.021987 0.031883 -0.019503 0.053680
#
#
# Mechanical properties :
#
#
# Convention : Reuss Voigt Hill
#
# Bulk Modulus (GPa) = 5.19299 16.82638 11.00969
# Shear Modulus (GPa) = 19.90068 36.08278 27.99173
#
# Velocity S-wave (km/s) = 2.83224 3.81370 3.35901
# Velocity P-wave (km/s) = 3.57612 5.11613 4.41381
#
# Compressibility (1/GPa) = 0.19256713
#
# Stress axis : x y z
#
# Youngs Moduli (GPa) = 97.95411 16.27063 26.11650
#
# Poissons Ratio (x) = -0.10913 -0.07086
# Poissons Ratio (y) = -0.65701 -0.83268
# Poissons Ratio (z) = -0.26576 -0.51876
#
# Static dielectric constant tensor:
#      x y z
#    x 2.129220 0.061090 -0.003050 
#    y 0.061090 1.951690 0.024040 
#    z -0.003050 0.024040 2.005250 
# 
# From -- ./inp_files/357397.got.cif
#   From: 2010.05.17/outbox.cif.g08.bks.cpg/sg2_179_cif.got.tgz:357397.got - 2010.06.03 11:33:40.
