data_PCOD9024767
_publ_section_title
;
Structure prediction by ZEFSAII (Michael W. Deem and Ramdas Pophale) SiO2 
 PCOD9024767
Probable space group: P -1
;
_chemical_formula_sum "Si O2"
_cell_formula_units_Z 14
_cell_length_a 10.435508
_cell_length_b 14.487801
_cell_length_c 6.632821
_cell_angle_alpha 47.472374
_cell_angle_beta 65.332816
_cell_angle_gamma 51.272676
_cell_volume 576.502640
_symmetry_space_group_name_H-M "P -1"
_symmetry_group_IT_number 2
_symmetry_cell_setting 'triclinic'
loop_
_space_group_symop_operation_xyz
x,y,z
-x,-y,-z
loop_
_atom_site_type_symbol
_atom_site_label
_atom_site_fract_x
_atom_site_fract_y
_atom_site_fract_z
Si Si1 0.089667 0.347647 0.055306
Si Si2 0.556157 0.060866 0.690760
Si Si3 0.830669 0.026505 0.847230
Si Si4 0.877135 0.289780 0.962519
Si Si5 0.675425 0.335476 0.404013
Si Si6 0.686109 0.547875 0.391283
Si Si7 0.287365 0.118665 0.545745
O O1 0.246378 0.345258 0.856800
O O2 0.120881 0.244085 0.377302
O O3 0.000000 0.500000 0.000000
O O4 0.994212 0.319689 0.985135
O O5 0.714039 0.059008 0.678564
O O6 0.382697 0.180671 0.524859
O O7 0.622053 0.954083 0.614603
O O8 0.500000 0.000000 0.000000
O O9 0.809055 0.184780 0.650009
O O10 0.009081 0.882150 0.915511
O O11 0.745489 0.988274 0.140338
O O12 0.726012 0.320227 0.160813
O O13 0.804895 0.411658 0.657143
O O14 0.673210 0.473128 0.304380
O O15 0.494544 0.362885 0.523720
#
# Coordination Sequence:
#
# PCOD9024767 Si02
#       7
#     2   2   2   2   2   2   2
#     4  12  24  45  74 103 140 180 237 297 352 416
#     4   9  20  38  62 101 138 175 225 285 350 408
#     4  11  24  41  74 104 139 183 237 296 352 418
#     4  12  25  48  71 106 140 185 239 297 357 409
#     4  11  27  49  69 102 145 189 240 280 354 436
#     4  11  27  48  72 101 142 192 237 284 353 433
#     4  10  22  40  66 104 142 177 228 294 352 407
#
# _framework density 24.284365000000001
#
# number of rings (size 3 to 8) (size 9 to 14) (size 15 to 20)
#    0.000    1.143    2.857    2.143    6.000    2.857 
#    2.571    0.000    0.000    0.000    0.000    0.000 
#    0.000    0.000    0.000    0.000    0.000    0.000 
#
# Total GULP energy -78195.549271 kJ/mol
# GULP energy per Si atom -5585.396376 kJ/mol
# Density = 2.422909 g / cm^3
# Si number density = 24.284365 Si / 1000 Ang^3
#
#
#
# Elastic Constant Matrix: (Units=GPa)
#
#
# Indices 1 2 3 4 5 6 
#
# 1 77.5201 8.5666 22.3737 9.1059 2.2599 -9.8541
# 2 8.5666 96.4456 20.3382 9.3987 -3.3129 -17.7707
# 3 22.3737 20.3382 105.0821 10.8143 3.9441 -1.0180
# 4 9.1059 9.3987 10.8143 40.0522 -7.7712 -5.9037
# 5 2.2599 -3.3129 3.9441 -7.7712 42.3176 7.0085
# 6 -9.8541 -17.7707 -1.0180 -5.9037 7.0085 23.0673
#
#
#
# Elastic Compliance Matrix: (Units=1/GPa)
#
#
# Indices 1 2 3 4 5 6 
#
# 1 0.014843 0.000693 -0.002935 -0.002126 -0.001982 0.006803
# 2 0.000693 0.012721 -0.002367 -0.001176 -0.000675 0.009896
# 3 -0.002935 -0.002367 0.010848 -0.002324 -0.000987 -0.002894
# 4 -0.002126 -0.001176 -0.002324 0.027827 0.004724 0.003770
# 5 -0.001982 -0.000675 -0.000987 0.004724 0.025984 -0.008096
# 6 0.006803 0.009896 -0.002894 0.003770 -0.008096 0.057178
#
#
# Mechanical properties :
#
#
# Convention : Reuss Voigt Hill
#
# Bulk Modulus (GPa) = 34.25530 42.40051 38.32790
# Shear Modulus (GPa) = 29.69994 36.27204 32.98599
#
# Velocity S-wave (km/s) = 3.50094 3.86895 3.68954
# Velocity P-wave (km/s) = 5.52075 6.12016 5.82816
#
# Compressibility (1/GPa) = 0.02919257
#
# Stress axis : x y z
#
# Youngs Moduli (GPa) = 67.37265 78.61022 92.18495
#
# Poissons Ratio (x) = -0.05450 0.27059
# Poissons Ratio (y) = -0.04671 0.21825
# Poissons Ratio (z) = 0.19776 0.18611
#
# Static dielectric constant tensor:
#      x y z
#    x 1.951870 0.006320 -0.116700 
#    y 0.006320 1.932030 0.097390 
#    z -0.116700 0.097390 1.771270 
# 
# From -- ./inp_files/76955.got.cif
#   From: 2010.05.17/outbox.cif.g08.bks.cpg/sg2_39_cif.got.tgz:76955.got - 2010.06.03 11:33:40.
