data_PCOD9024457
_publ_section_title
;
Structure prediction by ZEFSAII (Michael W. Deem and Ramdas Pophale) SiO2 
 PCOD9024457
Probable space group: P -1
;
_chemical_formula_sum "Si O2"
_cell_formula_units_Z 13
_cell_length_a 9.304921
_cell_length_b 18.751683
_cell_length_c 9.293095
_cell_angle_alpha 138.135410
_cell_angle_beta 113.431672
_cell_angle_gamma 36.746050
_cell_volume 561.181988
_symmetry_space_group_name_H-M "P -1"
_symmetry_group_IT_number 2
_symmetry_cell_setting 'triclinic'
loop_
_space_group_symop_operation_xyz
x,y,z
-x,-y,-z
loop_
_atom_site_type_symbol
_atom_site_label
_atom_site_fract_x
_atom_site_fract_y
_atom_site_fract_z
Si Si1 0.839625 0.331085 0.747755
Si Si2 0.417075 0.004322 0.130345
Si Si3 0.589506 0.072170 0.546344
Si Si4 0.835121 0.410829 0.574869
Si Si5 0.000000 0.500000 0.000000
Si Si6 0.685166 0.639297 0.616058
Si Si7 0.519072 0.312908 0.705064
O O1 0.704083 0.421380 0.672765
O O2 0.701460 0.315662 0.762419
O O3 0.767326 0.487924 0.027450
O O4 0.159076 0.116020 0.542103
O O5 0.543209 0.010618 0.310952
O O6 0.088326 0.197418 0.300538
O O7 0.500000 0.000000 0.000000
O O8 0.528493 0.822742 0.908354
O O9 0.305345 0.266757 0.801107
O O10 0.663650 0.141268 0.598731
O O11 0.675598 0.543458 0.573494
O O12 0.959821 0.445276 0.756962
O O13 0.553616 0.689375 0.483897
O O14 0.000000 0.500000 0.500000
#
# Coordination Sequence:
#
# PCOD9024457 Si02
#       7
#     2   2   2   2   1   2   2
#     4  11  26  43  68  95 133 183 220 269 325 395
#     4  11  22  38  63 100 125 166 214 267 343 384
#     4  11  22  42  68  98 131 169 222 277 327 390
#     4  11  25  39  62 101 132 167 220 269 332 389
#     4  10  22  40  64  98 132 160 216 280 326 374
#     4  12  23  41  68  96 133 169 214 280 329 390
#     4  11  24  46  67  95 133 179 228 264 327 396
#
# _framework density 23.165389999999999
#
# number of rings (size 3 to 8) (size 9 to 14) (size 15 to 20)
#    0.000    0.923    4.615    2.308    4.308    1.846 
#    0.000    0.769    0.000    0.000    0.000    0.000 
#    0.000    0.000    0.000    0.000    0.000    0.000 
#
# Total GULP energy -72492.096350 kJ/mol
# GULP energy per Si atom -5576.315104 kJ/mol
# Density = 2.311266 g / cm^3
# Si number density = 23.165390 Si / 1000 Ang^3
#
#
#
# Elastic Constant Matrix: (Units=GPa)
#
#
# Indices 1 2 3 4 5 6 
#
# 1 55.3172 30.1797 22.3614 11.9572 7.7028 31.8694
# 2 30.1797 78.0531 36.6352 17.6056 10.3487 30.7493
# 3 22.3614 36.6352 173.6182 31.2393 4.8448 1.0721
# 4 11.9572 17.6056 31.2393 41.2929 9.9352 2.2940
# 5 7.7028 10.3487 4.8448 9.9352 34.5544 -0.1390
# 6 31.8694 30.7493 1.0721 2.2940 -0.1390 44.2007
#
#
#
# Elastic Compliance Matrix: (Units=1/GPa)
#
#
# Indices 1 2 3 4 5 6 
#
# 1 0.036335 -0.000487 -0.003373 -0.004854 -0.006188 -0.025545
# 2 -0.000487 0.022158 -0.003551 -0.004657 -0.004750 -0.014751
# 3 -0.003373 -0.003551 0.007575 -0.003975 0.001916 0.004931
# 4 -0.004854 -0.004657 -0.003975 0.031793 -0.006086 0.005167
# 5 -0.006188 -0.004750 0.001916 -0.006086 0.033256 0.008140
# 6 -0.025545 -0.014751 0.004931 0.005167 0.008140 0.050942
#
#
# Mechanical properties :
#
#
# Convention : Reuss Voigt Hill
#
# Bulk Modulus (GPa) = 19.51411 53.92678 36.72045
# Shear Modulus (GPa) = 23.36845 38.53040 30.94943
#
# Velocity S-wave (km/s) = 3.17955 4.08275 3.65913
# Velocity P-wave (km/s) = 4.68204 6.74942 5.80845
#
# Compressibility (1/GPa) = 0.05124498
#
# Stress axis : x y z
#
# Youngs Moduli (GPa) = 27.52186 45.12947 132.01617
#
# Poissons Ratio (x) = 0.02198 0.44532
# Poissons Ratio (y) = 0.01340 0.46883
# Poissons Ratio (z) = 0.09284 0.16027
#
# Static dielectric constant tensor:
#      x y z
#    x 1.710560 0.002260 -0.011430 
#    y 0.002260 1.856350 0.002500 
#    z -0.011430 0.002500 1.853760 
# 
# From -- ./inp_files/108040.got.cif
#   From: 2010.05.17/outbox.cif.g08.bks.cpg/sg2_55_cif.got.tgz:108040.got - 2010.06.03 11:33:40.
