data_PCOD9024551
_publ_section_title
;
Structure prediction by ZEFSAII (Michael W. Deem and Ramdas Pophale) SiO2 
 PCOD9024551
Probable space group: P -1
;
_chemical_formula_sum "Si O2"
_cell_formula_units_Z 16
_cell_length_a 13.859446
_cell_length_b 5.772379
_cell_length_c 8.610941
_cell_angle_alpha 90.465409
_cell_angle_beta 114.043843
_cell_angle_gamma 89.882631
_cell_volume 629.098472
_symmetry_space_group_name_H-M "P -1"
_symmetry_group_IT_number 2
_symmetry_cell_setting 'triclinic'
loop_
_space_group_symop_operation_xyz
x,y,z
-x,-y,-z
loop_
_atom_site_type_symbol
_atom_site_label
_atom_site_fract_x
_atom_site_fract_y
_atom_site_fract_z
Si Si1 0.629750 0.524780 0.241951
Si Si2 0.053242 0.253923 0.581219
Si Si3 0.263995 0.456424 0.197319
Si Si4 0.932522 0.457060 0.110866
Si Si5 0.542376 0.901922 0.365933
Si Si6 0.739287 0.225965 0.521737
Si Si7 0.880982 0.853697 0.676036
Si Si8 0.428561 0.221234 0.081785
O O1 0.730880 0.382241 0.364053
O O2 0.542873 0.337905 0.129705
O O3 0.572805 0.638416 0.355275
O O4 0.636757 0.722732 0.116810
O O5 0.073583 0.321437 0.774542
O O6 0.146868 0.233447 0.516230
O O7 0.000000 0.500000 0.500000
O O8 0.000000 0.000000 0.500000
O O9 0.297647 0.636339 0.350674
O O10 0.193382 0.264909 0.243774
O O11 0.360454 0.342887 0.171728
O O12 0.186542 0.581946 0.024148
O O13 0.999847 0.238828 0.219497
O O14 0.000000 0.500000 0.000000
O O15 0.655841 0.026722 0.432267
O O16 0.461086 0.976157 0.176205
O O17 0.500000 0.000000 0.500000
O O18 0.852303 0.123955 0.646222
#
# Coordination Sequence:
#
# PCOD9024551 Si02
#       8
#     2   2   2   2   2   2   2   2
#     4  10  22  41  62  93 132 171 226 285 350 425
#     4  10  23  46  74 103 136 188 245 294 361 432
#     4  11  23  42  63  96 135 174 237 284 356 420
#     4   9  22  44  67  99 139 184 230 297 355 424
#     4  11  21  38  64  93 127 172 224 279 353 418
#     4  11  23  37  63  95 127 181 222 289 342 430
#     4  10  23  42  67  95 136 177 232 285 355 415
#     4  10  22  40  65  91 130 175 223 285 355 418
#
# _framework density 25.433219999999999
#
# number of rings (size 3 to 8) (size 9 to 14) (size 15 to 20)
#    0.000    1.750    0.000    3.375    5.250    4.500 
#    9.000    0.000    0.000    0.000    0.000    0.000 
#    0.000    0.000    0.000    0.000    0.000    0.000 
#
# Total GULP energy -89195.115643 kJ/mol
# GULP energy per Si atom -5574.694728 kJ/mol
# Density = 2.537533 g / cm^3
# Si number density = 25.433220 Si / 1000 Ang^3
#
#
#
# Elastic Constant Matrix: (Units=GPa)
#
#
# Indices 1 2 3 4 5 6 
#
# 1 50.9543 15.0888 29.9661 -16.3817 10.2838 -17.5876
# 2 15.0888 91.9807 69.0688 -22.0918 15.4627 -31.8234
# 3 29.9661 69.0688 150.8581 -10.0751 -2.0820 -17.1005
# 4 -16.3817 -22.0918 -10.0751 45.9124 -10.8023 4.1238
# 5 10.2838 15.4627 -2.0820 -10.8023 41.5568 8.6896
# 6 -17.5876 -31.8234 -17.1005 4.1238 8.6896 46.3590
#
#
#
# Elastic Compliance Matrix: (Units=1/GPa)
#
#
# Indices 1 2 3 4 5 6 
#
# 1 0.037533 0.017180 -0.012022 0.012648 -0.017981 0.023844
# 2 0.017180 0.037226 -0.016635 0.012700 -0.021671 0.028868
# 3 -0.012022 -0.016635 0.015068 -0.005307 0.011054 -0.012021
# 4 0.012648 0.012700 -0.005307 0.029857 -0.002313 0.009337
# 5 -0.017981 -0.021671 0.011054 -0.002313 0.041809 -0.025251
# 6 0.023844 0.028868 -0.012021 0.009337 -0.025251 0.049901
#
#
# Mechanical properties :
#
#
# Convention : Reuss Voigt Hill
#
# Bulk Modulus (GPa) = 14.95337 58.00448 36.47892
# Shear Modulus (GPa) = 19.48261 38.74361 29.11311
#
# Velocity S-wave (km/s) = 2.77073 3.90724 3.38699
# Velocity P-wave (km/s) = 4.01598 6.57354 5.44700
#
# Compressibility (1/GPa) = 0.06687455
#
# Stress axis : x y z
#
# Youngs Moduli (GPa) = 26.64292 26.86330 66.36497
#
# Poissons Ratio (x) = -0.46152 0.79784
# Poissons Ratio (y) = -0.45773 1.10395
# Poissons Ratio (z) = 0.32030 0.44686
#
# Static dielectric constant tensor:
#      x y z
#    x 2.082810 0.044430 -0.023160 
#    y 0.044430 2.083580 -0.061290 
#    z -0.023160 -0.061290 2.130090 
# 
# From -- ./inp_files/288908.got.cif
#   From: 2010.05.17/outbox.cif.g08.bks.cpg/sg2_145_cif.got.tgz:288908.got - 2010.06.03 11:33:40.
