data_PCOD9024927
_publ_section_title
;
Structure prediction by ZEFSAII (Michael W. Deem and Ramdas Pophale) SiO2 
 PCOD9024927
Probable space group: P -1
;
_chemical_formula_sum "Si O2"
_cell_formula_units_Z 14
_cell_length_a 8.910268
_cell_length_b 19.401152
_cell_length_c 10.972118
_cell_angle_alpha 148.118494
_cell_angle_beta 136.656592
_cell_angle_gamma 43.912015
_cell_volume 659.337969
_symmetry_space_group_name_H-M "P -1"
_symmetry_group_IT_number 2
_symmetry_cell_setting 'triclinic'
loop_
_space_group_symop_operation_xyz
x,y,z
-x,-y,-z
loop_
_atom_site_type_symbol
_atom_site_label
_atom_site_fract_x
_atom_site_fract_y
_atom_site_fract_z
Si Si1 0.984275 0.131271 0.602149
Si Si2 0.644697 0.975407 0.927363
Si Si3 0.897173 0.638474 0.310630
Si Si4 0.275549 0.788420 0.822636
Si Si5 0.769685 0.656797 0.977742
Si Si6 0.553476 0.224236 0.625757
Si Si7 0.871194 0.096366 0.838385
O O1 0.728117 0.228203 0.623822
O O2 0.154359 0.221342 0.859314
O O3 0.000000 0.000000 0.500000
O O4 0.061947 0.054759 0.405702
O O5 0.528873 0.907584 0.654301
O O6 0.887446 0.873878 0.956172
O O7 0.500000 0.000000 0.000000
O O8 0.681405 0.115039 0.112518
O O9 0.804642 0.668724 0.162343
O O10 0.679789 0.662595 0.308631
O O11 0.061618 0.731505 0.583559
O O12 0.058553 0.484910 0.174876
O O13 0.508751 0.671946 0.812999
O O14 0.234009 0.884640 0.062075
O O15 0.707095 0.194281 0.792749
#
# Coordination Sequence:
#
# PCOD9024927 Si02
#       7
#     2   2   2   2   2   2   2
#     4  10  22  40  66  96 129 167 208 267 329 379
#     4  12  25  39  64 101 136 170 212 271 333 388
#     4  11  25  44  66  94 129 180 221 262 318 387
#     4  12  24  41  69  96 133 169 218 274 321 386
#     4  11  25  45  66  92 133 175 222 266 317 388
#     4  11  23  41  65  95 134 170 214 269 326 386
#     4  11  22  39  64 100 132 164 214 267 333 383
#
# _framework density 21.233422000000001
#
# number of rings (size 3 to 8) (size 9 to 14) (size 15 to 20)
#    0.000    0.857    4.286    3.429    4.000    1.714 
#    0.000    0.000    0.000    4.286    0.000    0.000 
#    0.000    0.000    0.000    0.000    0.000    0.000 
#
# Total GULP energy -78144.901538 kJ/mol
# GULP energy per Si atom -5581.778681 kJ/mol
# Density = 2.118509 g / cm^3
# Si number density = 21.233422 Si / 1000 Ang^3
#
#
#
# Elastic Constant Matrix: (Units=GPa)
#
#
# Indices 1 2 3 4 5 6 
#
# 1 96.9715 37.4899 15.6717 17.7423 -18.6958 -32.5390
# 2 37.4899 98.0041 23.3148 -22.0001 -11.1881 -24.4184
# 3 15.6717 23.3148 60.6175 -6.9380 -8.4676 -2.0912
# 4 17.7423 -22.0001 -6.9380 31.0346 -12.5167 2.8974
# 5 -18.6958 -11.1881 -8.4676 -12.5167 28.8204 0.3731
# 6 -32.5390 -24.4184 -2.0912 2.8974 0.3731 43.2104
#
#
#
# Elastic Compliance Matrix: (Units=1/GPa)
#
#
# Indices 1 2 3 4 5 6 
#
# 1 0.023316 -0.009419 -0.004411 -0.022090 0.000404 0.013499
# 2 -0.009419 0.022404 -0.001175 0.026126 0.013542 0.003642
# 3 -0.004411 -0.001175 0.019921 0.009128 0.006547 -0.003690
# 4 -0.022090 0.026126 0.009128 0.079408 0.033072 -0.007039
# 5 0.000404 0.013542 0.006547 0.033072 0.056431 0.005569
# 6 0.013499 0.003642 -0.003690 -0.007039 0.005569 0.035612
#
#
# Mechanical properties :
#
#
# Convention : Reuss Voigt Hill
#
# Bulk Modulus (GPa) = 28.06503 45.39399 36.72951
# Shear Modulus (GPa) = 17.92246 32.55419 25.23833
#
# Velocity S-wave (km/s) = 2.90844 3.91980 3.45137
# Velocity P-wave (km/s) = 4.95225 6.47391 5.76351
#
# Compressibility (1/GPa) = 0.03563153
#
# Stress axis : x y z
#
# Youngs Moduli (GPa) = 42.88887 44.63422 50.19777
#
# Poissons Ratio (x) = 0.42041 0.22145
# Poissons Ratio (y) = 0.40397 0.05896
# Poissons Ratio (z) = 0.18920 0.05243
#
# Static dielectric constant tensor:
#      x y z
#    x 1.810340 -0.028710 -0.034360 
#    y -0.028710 1.805540 -0.032560 
#    z -0.034360 -0.032560 1.768930 
# 
# From -- ./inp_files/403461.got.cif
#   From: 2010.05.17/outbox.cif.g08.bks.cpg/sg2_202_cif.got.tgz:403461.got - 2010.06.03 11:33:40.
