data_PCOD9024011
_publ_section_title
;
Structure prediction by ZEFSAII (Michael W. Deem and Ramdas Pophale) SiO2 
 PCOD9024011
Probable space group: P -1
;
_chemical_formula_sum "Si O2"
_cell_formula_units_Z 16
_cell_length_a 9.821345
_cell_length_b 13.591036
_cell_length_c 24.399664
_cell_angle_alpha 32.332065
_cell_angle_beta 155.119932
_cell_angle_gamma 136.118703
_cell_volume 717.528302
_symmetry_space_group_name_H-M "P -1"
_symmetry_group_IT_number 2
_symmetry_cell_setting 'triclinic'
loop_
_space_group_symop_operation_xyz
x,y,z
-x,-y,-z
loop_
_atom_site_type_symbol
_atom_site_label
_atom_site_fract_x
_atom_site_fract_y
_atom_site_fract_z
Si Si1 0.339072 0.782228 0.700687
Si Si2 0.181798 0.429416 0.437379
Si Si3 0.653502 0.832375 0.898607
Si Si4 0.346689 0.144582 0.717981
Si Si5 0.740173 0.960427 0.554248
Si Si6 0.423291 0.242937 0.910035
Si Si7 0.290144 0.631969 0.939424
Si Si8 0.718175 0.152646 0.951404
O O1 0.370808 0.873744 0.728741
O O2 0.994741 0.712909 0.595878
O O3 0.398742 0.929925 0.605089
O O4 0.616645 0.583409 0.902984
O O5 0.500000 0.500000 0.500000
O O6 0.312959 0.338849 0.584784
O O7 0.874082 0.591693 0.261725
O O8 0.574392 0.659920 0.986408
O O9 0.623724 0.997586 0.854755
O O10 0.991085 0.808367 0.999482
O O11 0.401361 0.175464 0.786307
O O12 0.021794 0.072444 0.619394
O O13 0.940828 0.739073 0.733921
O O14 0.500000 0.000000 0.500000
O O15 0.635461 0.266913 0.922744
O O16 0.660339 0.238128 0.051383
O O17 0.245466 0.067344 0.917833
#
# Coordination Sequence:
#
# PCOD9024011 Si02
#       8
#     2   2   2   2   2   2   2   2
#     4  10  24  41  66 100 132 165 228 269 318 404
#     4  10  22  41  66  94 130 170 205 271 333 380
#     4  11  22  39  67  97 126 176 219 268 332 388
#     4  10  22  40  63  92 129 165 220 270 315 397
#     4  10  22  40  64  93 130 175 209 270 340 381
#     4  10  22  40  62  96 127 168 226 266 319 399
#     4  10  22  43  65  93 135 168 222 274 322 398
#     4  11  22  38  68  90 126 175 217 271 325 384
#
# _framework density 22.298770999999999
#
# number of rings (size 3 to 8) (size 9 to 14) (size 15 to 20)
#    0.000    1.750    2.500    1.500    5.250    5.500 
#    4.500    2.500    0.000    0.000    0.000    0.000 
#    0.000    0.000    0.000    0.000    0.000    0.000 
#
# Total GULP energy -89084.695995 kJ/mol
# GULP energy per Si atom -5567.793500 kJ/mol
# Density = 2.224802 g / cm^3
# Si number density = 22.298771 Si / 1000 Ang^3
#
#
#
# Elastic Constant Matrix: (Units=GPa)
#
#
# Indices 1 2 3 4 5 6 
#
# 1 81.4640 -27.7949 58.1353 31.9453 -26.1191 -12.2606
# 2 -27.7949 -2.1532 43.2241 37.1998 -15.3642 -19.8508
# 3 58.1353 43.2241 72.0501 -51.4609 -16.3690 6.2710
# 4 31.9453 37.1998 -51.4609 -1.6947 4.5418 -2.3013
# 5 -26.1191 -15.3642 -16.3690 4.5418 36.0548 8.8399
# 6 -12.2606 -19.8508 6.2710 -2.3013 8.8399 19.9786
#
#
#
# Elastic Compliance Matrix: (Units=1/GPa)
#
#
# Indices 1 2 3 4 5 6 
#
# 1 0.008414 -0.005806 0.001337 0.004890 0.004179 -0.002311
# 2 -0.005806 0.018271 0.008369 0.021817 0.001213 0.013941
# 3 0.001337 0.008369 0.007471 -0.002406 0.007440 0.003221
# 4 0.004890 0.021817 -0.002406 0.023091 0.002188 0.027125
# 5 0.004179 0.001213 0.007440 0.002188 0.038102 -0.015173
# 6 -0.002311 0.013941 0.003221 0.027125 -0.015173 0.071314
#
#
# Mechanical properties :
#
#
# Convention : Reuss Voigt Hill
#
# Bulk Modulus (GPa) = 23.83447 33.16556 28.50002
# Shear Modulus (GPa) = 28.92675 16.05415 22.49045
#
# Velocity S-wave (km/s) = 3.60562 2.68611 3.17929
# Velocity P-wave (km/s) = 5.29584 4.95236 5.12697
#
# Compressibility (1/GPa) = 0.04195604
#
# Stress axis : x y z
#
# Youngs Moduli (GPa) = 118.84320 54.73010 133.84397
#
# Poissons Ratio (x) = 0.31779 -0.17898
# Poissons Ratio (y) = 0.69006 -1.12009
# Poissons Ratio (z) = -0.15892 -0.45802
#
# Static dielectric constant tensor:
#      x y z
#    x 1.838290 0.003420 -0.016340 
#    y 0.003420 1.894360 -0.051930 
#    z -0.016340 -0.051930 1.928750 
# 
# From -- ./inp_files/589514.got.cif
#   From: 2010.05.17/outbox.cif.g08.bks.cpg/sg2_295_cif.got.tgz:589514.got - 2010.06.03 11:33:40.
