data_PCOD9024216
_publ_section_title
;
Structure prediction by ZEFSAII (Michael W. Deem and Ramdas Pophale) SiO2 
 PCOD9024216
Probable space group: P -1
;
_chemical_formula_sum "Si O2"
_cell_formula_units_Z 16
_cell_length_a 8.015700
_cell_length_b 5.511446
_cell_length_c 18.175027
_cell_angle_alpha 121.846265
_cell_angle_beta 89.509758
_cell_angle_gamma 98.799881
_cell_volume 671.545357
_symmetry_space_group_name_H-M "P -1"
_symmetry_group_IT_number 2
_symmetry_cell_setting 'triclinic'
loop_
_space_group_symop_operation_xyz
x,y,z
-x,-y,-z
loop_
_atom_site_type_symbol
_atom_site_label
_atom_site_fract_x
_atom_site_fract_y
_atom_site_fract_z
Si Si1 0.465691 0.327823 0.548297
Si Si2 0.145045 0.897505 0.033481
Si Si3 0.898039 0.785555 0.406214
Si Si4 0.618174 0.871826 0.699342
Si Si5 0.884179 0.360858 0.732335
Si Si6 0.591103 0.718745 0.828626
Si Si7 0.310932 0.165204 0.729004
Si Si8 0.910246 0.698564 0.135497
O O1 0.500000 0.500000 0.500000
O O2 0.274293 0.346152 0.573910
O O3 0.587837 0.527421 0.636219
O O4 0.500000 0.000000 0.500000
O O5 0.056272 0.862778 0.108726
O O6 0.325520 0.110420 0.072876
O O7 0.171766 0.582428 0.955380
O O8 0.000000 0.000000 0.000000
O O9 0.820713 0.895126 0.347854
O O10 0.022344 0.589015 0.337883
O O11 0.000000 0.000000 0.500000
O O12 0.600775 0.942688 0.796656
O O13 0.789243 0.026399 0.685766
O O14 0.457820 0.984318 0.683413
O O15 0.734823 0.530940 0.777936
O O16 0.011296 0.415718 0.809236
O O17 0.412083 0.499466 0.791666
O O18 0.214919 0.104812 0.797687
#
# Coordination Sequence:
#
# PCOD9024216 Si02
#       8
#     2   2   2   2   2   2   2   2
#     4  12  27  48  72 103 143 185 237 301 362 429
#     4  11  22  39  66 100 138 174 227 288 352 422
#     4  11  24  44  69 102 135 177 234 295 353 413
#     4  11  23  44  68  95 136 186 229 283 360 425
#     4  10  22  43  68 100 134 181 235 286 349 425
#     4  11  22  41  69  96 130 183 227 279 356 415
#     4  10  24  44  66  98 138 180 237 287 349 427
#     4  10  22  40  64 100 137 178 229 287 350 414
#
# _framework density 23.825644
#
# number of rings (size 3 to 8) (size 9 to 14) (size 15 to 20)
#    0.000    1.250    3.750    1.500    3.500    2.500 
#    2.250    4.375    0.000    0.000    0.000    0.000 
#    0.000    0.000    0.000    0.000    0.000    0.000 
#
# Total GULP energy -89322.567805 kJ/mol
# GULP energy per Si atom -5582.660488 kJ/mol
# Density = 2.377142 g / cm^3
# Si number density = 23.825644 Si / 1000 Ang^3
#
#
#
# Elastic Constant Matrix: (Units=GPa)
#
#
# Indices 1 2 3 4 5 6 
#
# 1 95.6133 19.1373 40.1018 4.4257 2.6855 19.0538
# 2 19.1373 65.5481 33.5724 9.5773 0.6345 16.7384
# 3 40.1018 33.5724 116.6700 -1.5532 11.5129 25.4575
# 4 4.4257 9.5773 -1.5532 42.6889 14.9489 5.9883
# 5 2.6855 0.6345 11.5129 14.9489 52.5932 -8.6200
# 6 19.0538 16.7384 25.4575 5.9883 -8.6200 31.8056
#
#
#
# Elastic Compliance Matrix: (Units=1/GPa)
#
#
# Indices 1 2 3 4 5 6 
#
# 1 0.012939 -0.000900 -0.003033 -0.000298 -0.000719 -0.004989
# 2 -0.000900 0.019692 -0.004371 -0.004123 0.001075 -0.005258
# 3 -0.003033 -0.004371 0.013507 0.005071 -0.005697 -0.009193
# 4 -0.000298 -0.004123 0.005071 0.029972 -0.011270 -0.010408
# 5 -0.000719 0.001075 -0.005697 -0.011270 0.025703 0.013513
# 6 -0.004989 -0.005258 -0.009193 -0.010408 0.013513 0.050177
#
#
# Mechanical properties :
#
#
# Convention : Reuss Voigt Hill
#
# Bulk Modulus (GPa) = 33.86263 51.49494 42.67879
# Shear Modulus (GPa) = 28.02046 37.75220 32.88633
#
# Velocity S-wave (km/s) = 3.43310 3.98492 3.71926
# Velocity P-wave (km/s) = 5.47343 6.54469 6.03288
#
# Compressibility (1/GPa) = 0.02953108
#
# Stress axis : x y z
#
# Youngs Moduli (GPa) = 77.28476 50.78195 74.03583
#
# Poissons Ratio (x) = 0.04569 0.22455
# Poissons Ratio (y) = 0.06953 0.32360
# Poissons Ratio (z) = 0.23440 0.22196
#
# Static dielectric constant tensor:
#      x y z
#    x 1.968510 -0.028720 0.042540 
#    y -0.028720 2.029740 -0.007230 
#    z 0.042540 -0.007230 1.993490 
# 
# From -- ./inp_files/553047.got.cif
#   From: 2010.05.17/outbox.cif.g08.bks.cpg/sg2_277_cif.got.tgz:553047.got - 2010.06.03 11:33:40.
