data_PCOD9024623
_publ_section_title
;
Structure prediction by ZEFSAII (Michael W. Deem and Ramdas Pophale) SiO2 
 PCOD9024623
Probable space group: P -1
;
_chemical_formula_sum "Si O2"
_cell_formula_units_Z 8
_cell_length_a 7.382681
_cell_length_b 5.079552
_cell_length_c 11.508803
_cell_angle_alpha 106.903179
_cell_angle_beta 52.351462
_cell_angle_gamma 112.284604
_cell_volume 315.165770
_symmetry_space_group_name_H-M "P -1"
_symmetry_group_IT_number 2
_symmetry_cell_setting 'triclinic'
loop_
_space_group_symop_operation_xyz
x,y,z
-x,-y,-z
loop_
_atom_site_type_symbol
_atom_site_label
_atom_site_fract_x
_atom_site_fract_y
_atom_site_fract_z
Si Si1 0.251865 0.272808 0.068639
Si Si2 0.373653 0.259029 0.646520
Si Si3 0.099762 0.739241 0.587091
Si Si4 0.233002 0.805764 0.856410
O O1 0.113887 0.301541 0.243539
O O2 0.052129 0.304730 0.058113
O O3 0.500000 0.500000 0.000000
O O4 0.289416 0.966897 0.977424
O O5 0.638308 0.306640 0.500642
O O6 0.337855 0.547893 0.748949
O O7 0.187644 0.090160 0.599179
O O8 0.326042 0.044314 0.749349
O O9 0.000000 0.500000 0.500000
#
# Coordination Sequence:
#
# PCOD9024623 Si02
#       4
#     2   2   2   2
#     4  10  22  40  65  95 128 166 209 259 314 373
#     4  10  23  44  67  92 125 166 212 260 310 368
#     4  10  22  40  65  95 128 166 209 259 314 373
#     4  10  23  44  67  92 125 166 212 260 310 368
#
# _framework density 25.383467
#
# number of rings (size 3 to 8) (size 9 to 14) (size 15 to 20)
#    0.000    2.000    0.000    1.500    0.000   22.000 
#    0.000   15.000    0.000    0.000    0.000    0.000 
#    0.000    0.000    0.000    0.000    0.000    0.000 
#
# Total GULP energy -44661.162488 kJ/mol
# GULP energy per Si atom -5582.645311 kJ/mol
# Density = 2.532569 g / cm^3
# Si number density = 25.383467 Si / 1000 Ang^3
#
#
#
# Elastic Constant Matrix: (Units=GPa)
#
#
# Indices 1 2 3 4 5 6 
#
# 1 50.9746 78.3634 50.6952 1.9586 2.9080 27.7666
# 2 78.3634 226.9791 148.5777 27.2919 -8.5035 38.8056
# 3 50.6952 148.5777 285.4084 35.7252 -2.3653 28.1909
# 4 1.9586 27.2919 35.7252 76.6616 17.0588 -4.6359
# 5 2.9080 -8.5035 -2.3653 17.0588 45.5103 8.4770
# 6 27.7666 38.8056 28.1909 -4.6359 8.4770 69.9415
#
#
#
# Elastic Compliance Matrix: (Units=1/GPa)
#
#
# Indices 1 2 3 4 5 6 
#
# 1 0.051029 -0.016816 -0.000115 0.005645 -0.006719 -0.009694
# 2 -0.016816 0.012975 -0.003259 -0.003725 0.004731 -0.000030
# 3 -0.000115 -0.003259 0.005457 -0.001482 0.000327 -0.000483
# 4 0.005645 -0.003725 -0.001482 0.016827 -0.007906 0.002497
# 5 -0.006719 0.004731 0.000327 -0.007906 0.026991 -0.003885
# 6 -0.009694 -0.000030 -0.000483 0.002497 -0.003885 0.018994
#
#
# Mechanical properties :
#
#
# Convention : Reuss Voigt Hill
#
# Bulk Modulus (GPa) = 34.38596 124.29276 79.33936
# Shear Modulus (GPa) = 27.42044 57.47107 42.44575
#
# Velocity S-wave (km/s) = 3.29028 4.76343 4.09367
# Velocity P-wave (km/s) = 5.29250 8.90652 7.32587
#
# Compressibility (1/GPa) = 0.02908164
#
# Stress axis : x y z
#
# Youngs Moduli (GPa) = 19.59657 77.07221 183.25882
#
# Poissons Ratio (x) = 1.29601 0.02107
# Poissons Ratio (y) = 0.32953 0.59727
# Poissons Ratio (z) = 0.00225 0.25119
#
# Static dielectric constant tensor:
#      x y z
#    x 2.156330 -0.114160 0.072620 
#    y -0.114160 2.086380 0.031450 
#    z 0.072620 0.031450 1.989590 
# 
# From -- ./inp_files/16281.got.cif
#   From: 2010.05.17/outbox.cif.g08.bks.cpg/sg2_9_cif.got.tgz:16281.got - 2010.06.03 11:33:40.
