data_PCOD9024536
_publ_section_title
;
Structure prediction by ZEFSAII (Michael W. Deem and Ramdas Pophale) SiO2 
 PCOD9024536
Probable space group: P -1
;
_chemical_formula_sum "Si O2"
_cell_formula_units_Z 16
_cell_length_a 11.909489
_cell_length_b 13.354967
_cell_length_c 6.874077
_cell_angle_alpha 58.371927
_cell_angle_beta 85.558764
_cell_angle_gamma 106.989521
_cell_volume 853.842628
_symmetry_space_group_name_H-M "P -1"
_symmetry_group_IT_number 2
_symmetry_cell_setting 'triclinic'
loop_
_space_group_symop_operation_xyz
x,y,z
-x,-y,-z
loop_
_atom_site_type_symbol
_atom_site_label
_atom_site_fract_x
_atom_site_fract_y
_atom_site_fract_z
Si Si1 0.671252 0.546545 0.844470
Si Si2 0.466593 0.697484 0.149920
Si Si3 0.872016 0.944587 0.187679
Si Si4 0.098451 0.243046 0.300139
Si Si5 0.414120 0.854175 0.701122
Si Si6 0.486652 0.657756 0.641124
Si Si7 0.823392 0.101973 0.372559
Si Si8 0.253150 0.151344 0.092288
O O1 0.620265 0.433877 0.807778
O O2 0.815644 0.615100 0.787631
O O3 0.616587 0.650587 0.681595
O O4 0.608598 0.476798 0.123215
O O5 0.468315 0.674922 0.400682
O O6 0.422935 0.806869 0.967048
O O7 0.607513 0.749653 0.006967
O O8 0.887623 0.848117 0.440412
O O9 0.841476 0.046317 0.217393
O O10 0.773070 0.881500 0.097572
O O11 0.000000 0.000000 0.000000
O O12 0.161882 0.210816 0.134361
O O13 0.955629 0.201540 0.322635
O O14 0.461686 0.767036 0.649589
O O15 0.277296 0.838197 0.687764
O O16 0.500000 0.000000 0.500000
O O17 0.774808 0.979714 0.650086
#
# Coordination Sequence:
#
# PCOD9024536 Si02
#       8
#     2   2   2   2   2   2   2   2
#     4  10  22  40  65  90 120 154 205 258 302 345
#     4  11  23  40  64  92 121 158 207 251 297 353
#     4  11  20  36  57  91 120 152 201 247 302 360
#     4  11  21  37  59  87 122 155 195 251 305 351
#     4  11  24  40  58  88 128 165 199 238 300 370
#     4  10  22  41  61  91 122 157 204 251 298 353
#     4  11  23  38  56  85 126 160 192 242 303 359
#     4  11  20  35  60  88 119 155 195 249 304 350
#
# _framework density 18.738814000000001
#
# number of rings (size 3 to 8) (size 9 to 14) (size 15 to 20)
#    0.000    1.250    3.750    4.125    3.500    2.500 
#    0.000    2.500    0.000    1.500    0.000    0.000 
#    0.000    0.000    0.000    0.000    0.000    0.000 
#
# Total GULP energy -89345.383590 kJ/mol
# GULP energy per Si atom -5584.086474 kJ/mol
# Density = 1.869616 g / cm^3
# Si number density = 18.738814 Si / 1000 Ang^3
#
#
#
# Elastic Constant Matrix: (Units=GPa)
#
#
# Indices 1 2 3 4 5 6 
#
# 1 112.7958 58.2383 45.1708 -8.9782 11.0956 18.8425
# 2 58.2383 93.4402 47.8196 0.4844 4.9823 19.8757
# 3 45.1708 47.8196 121.4657 14.2235 11.3971 5.2205
# 4 -8.9782 0.4844 14.2235 28.4552 2.2263 4.5538
# 5 11.0956 4.9823 11.3971 2.2263 26.9606 -4.3401
# 6 18.8425 19.8757 5.2205 4.5538 -4.3401 30.8200
#
#
#
# Elastic Compliance Matrix: (Units=1/GPa)
#
#
# Indices 1 2 3 4 5 6 
#
# 1 0.016047 -0.006361 -0.003619 0.008580 -0.005762 -0.007175
# 2 -0.006361 0.018758 -0.004834 0.001318 -0.000138 -0.007604
# 3 -0.003619 -0.004834 0.012357 -0.007785 -0.001527 0.004172
# 4 0.008580 0.001318 -0.007785 0.044140 -0.006085 -0.012155
# 5 -0.005762 -0.000138 -0.001527 -0.006085 0.042364 0.010736
# 6 -0.007175 -0.007604 0.004172 -0.012155 0.010736 0.044338
#
#
# Mechanical properties :
#
#
# Convention : Reuss Voigt Hill
#
# Bulk Modulus (GPa) = 57.02830 70.01768 63.52299
# Shear Modulus (GPa) = 23.42159 29.01203 26.21681
#
# Velocity S-wave (km/s) = 3.53922 3.93903 3.74446
# Velocity P-wave (km/s) = 6.87028 7.62457 7.25723
#
# Compressibility (1/GPa) = 0.01753515
#
# Stress axis : x y z
#
# Youngs Moduli (GPa) = 62.31523 53.30985 80.92379
#
# Poissons Ratio (x) = 0.33909 0.29288
# Poissons Ratio (y) = 0.39637 0.39119
# Poissons Ratio (z) = 0.22553 0.25770
#
# Static dielectric constant tensor:
#      x y z
#    x 1.662590 0.021050 -0.012800 
#    y 0.021050 1.669170 0.004400 
#    z -0.012800 0.004400 1.664890 
# 
# From -- ./inp_files/68587.got.cif
#   From: 2010.05.17/outbox.cif.g08.bks.cpg/sg2_35_cif.got.tgz:68587.got - 2010.06.03 11:33:40.
