data_PCOD9024187
_publ_section_title
;
Structure prediction by ZEFSAII (Michael W. Deem and Ramdas Pophale) SiO2 
 PCOD9024187
Probable space group: P -1
;
_chemical_formula_sum "Si O2"
_cell_formula_units_Z 16
_cell_length_a 24.270220
_cell_length_b 8.796794
_cell_length_c 8.479028
_cell_angle_alpha 52.510678
_cell_angle_beta 52.294725
_cell_angle_gamma 32.139914
_cell_volume 744.011839
_symmetry_space_group_name_H-M "P -1"
_symmetry_group_IT_number 2
_symmetry_cell_setting 'triclinic'
loop_
_space_group_symop_operation_xyz
x,y,z
-x,-y,-z
loop_
_atom_site_type_symbol
_atom_site_label
_atom_site_fract_x
_atom_site_fract_y
_atom_site_fract_z
Si Si1 0.687013 0.911245 0.367124
Si Si2 0.881191 0.411804 0.525747
Si Si3 0.886311 0.997906 0.922858
Si Si4 0.506437 0.937331 0.340110
Si Si5 0.407741 0.843541 0.969910
Si Si6 0.049529 0.403643 0.191106
Si Si7 0.785369 0.861689 0.662341
Si Si8 0.702054 0.284667 0.280283
O O1 0.805801 0.585104 0.395259
O O2 0.604848 0.934645 0.578113
O O3 0.654210 0.991895 0.190604
O O4 0.674565 0.145551 0.322291
O O5 0.805868 0.638824 0.656195
O O6 0.969183 0.395186 0.372533
O O7 0.915666 0.128109 0.693783
O O8 0.873682 0.847250 0.917936
O O9 0.981339 0.721619 0.041344
O O10 0.778737 0.244049 0.055759
O O11 0.600627 0.601131 0.331016
O O12 0.500000 0.000000 0.500000
O O13 0.535130 0.080389 0.122812
O O14 0.500000 0.500000 0.000000
O O15 0.323284 0.940729 0.179419
O O16 0.117562 0.317865 0.275589
O O17 0.774133 0.066923 0.438538
#
# Coordination Sequence:
#
# PCOD9024187 Si02
#       8
#     2   2   2   2   2   2   2   2
#     4  10  22  42  68  93 135 172 216 274 327 397
#     4  11  24  44  64 101 130 171 226 267 330 389
#     4  11  24  42  68  92 135 174 221 271 326 387
#     4  10  22  40  63  97 127 168 217 265 327 397
#     4  11  24  43  65  98 132 172 220 271 335 392
#     4  11  24  45  64  96 136 172 226 269 327 386
#     4  11  23  41  68  94 135 173 215 277 326 386
#     4  11  22  43  66  98 133 172 221 268 333 392
#
# _framework density 21.505034999999999
#
# number of rings (size 3 to 8) (size 9 to 14) (size 15 to 20)
#    0.000    1.250    2.500    4.125    1.750    5.500 
#    2.250    3.750    0.000    0.000    0.000    0.000 
#    0.000    0.000    0.000    0.000    0.000    0.000 
#
# Total GULP energy -89419.582508 kJ/mol
# GULP energy per Si atom -5588.723907 kJ/mol
# Density = 2.145609 g / cm^3
# Si number density = 21.505035 Si / 1000 Ang^3
#
#
#
# Elastic Constant Matrix: (Units=GPa)
#
#
# Indices 1 2 3 4 5 6 
#
# 1 31.5439 -2.1076 26.3213 1.3433 -7.1289 -8.5615
# 2 -2.1076 64.9175 31.8602 12.8037 -16.9749 13.1385
# 3 26.3213 31.8602 108.5573 0.7103 -18.0851 -5.0316
# 4 1.3433 12.8037 0.7103 36.6535 11.2787 -2.1201
# 5 -7.1289 -16.9749 -18.0851 11.2787 32.3748 1.6727
# 6 -8.5615 13.1385 -5.0316 -2.1201 1.6727 23.7452
#
#
#
# Elastic Compliance Matrix: (Units=1/GPa)
#
#
# Indices 1 2 3 4 5 6 
#
# 1 0.047833 0.011233 -0.012500 -0.008784 0.012152 0.006742
# 2 0.011233 0.035390 -0.009968 -0.021173 0.023934 -0.021220
# 3 -0.012500 -0.009968 0.015147 0.004306 -0.001260 0.004691
# 4 -0.008784 -0.021173 0.004306 0.044035 -0.026761 0.015277
# 5 0.012152 0.023934 -0.001260 -0.026761 0.055529 -0.015429
# 6 0.006742 -0.021220 0.004691 0.015277 -0.015429 0.059731
#
#
# Mechanical properties :
#
#
# Convention : Reuss Voigt Hill
#
# Bulk Modulus (GPa) = 13.17512 35.24071 24.20792
# Shear Modulus (GPa) = 16.37006 28.48437 22.42721
#
# Velocity S-wave (km/s) = 2.76201 3.64338 3.23287
# Velocity P-wave (km/s) = 4.03874 5.84138 5.02161
#
# Compressibility (1/GPa) = 0.07590063
#
# Stress axis : x y z
#
# Youngs Moduli (GPa) = 20.90591 28.25686 66.01764
#
# Poissons Ratio (x) = -0.31742 0.82524
# Poissons Ratio (y) = -0.23484 0.65806
# Poissons Ratio (z) = 0.26133 0.28166
#
# Static dielectric constant tensor:
#      x y z
#    x 1.755620 0.007030 0.008060 
#    y 0.007030 1.801750 0.024550 
#    z 0.008060 0.024550 1.821070 
# 
# From -- ./inp_files/187100.got.cif
#   From: 2010.05.17/outbox.cif.g08.bks.cpg/sg2_94_cif.got.tgz:187100.got - 2010.06.03 11:33:40.
