data_PCOD9024946
_publ_section_title
;
Structure prediction by ZEFSAII (Michael W. Deem and Ramdas Pophale) SiO2 
 PCOD9024946
Probable space group: P -1
;
_chemical_formula_sum "Si O2"
_cell_formula_units_Z 14
_cell_length_a 5.127142
_cell_length_b 12.039085
_cell_length_c 9.645951
_cell_angle_alpha 98.391338
_cell_angle_beta 66.781964
_cell_angle_gamma 92.939848
_cell_volume 541.314965
_symmetry_space_group_name_H-M "P -1"
_symmetry_group_IT_number 2
_symmetry_cell_setting 'triclinic'
loop_
_space_group_symop_operation_xyz
x,y,z
-x,-y,-z
loop_
_atom_site_type_symbol
_atom_site_label
_atom_site_fract_x
_atom_site_fract_y
_atom_site_fract_z
Si Si1 0.786048 0.707985 0.013806
Si Si2 0.797649 0.843726 0.787917
Si Si3 0.591855 0.200665 0.473540
Si Si4 0.064414 0.262065 0.706863
Si Si5 0.233375 0.568906 0.381231
Si Si6 0.244065 0.947016 0.341561
Si Si7 0.572201 0.370115 0.157947
O O1 0.769477 0.718091 0.182624
O O2 0.548503 0.634144 0.974615
O O3 0.778109 0.827369 0.955706
O O4 0.095931 0.654644 0.908423
O O5 0.610331 0.734954 0.763416
O O6 0.134611 0.837306 0.679214
O O7 0.667942 0.952578 0.759865
O O8 0.255767 0.221521 0.528603
O O9 0.675965 0.325620 0.526723
O O10 0.566890 0.111142 0.590028
O O11 0.909770 0.374431 0.712211
O O12 0.854694 0.157771 0.750302
O O13 0.481511 0.482913 0.273727
O O14 0.000000 0.500000 0.500000
O O15 0.000000 0.000000 0.500000
#
# Coordination Sequence:
#
# PCOD9024946 Si02
#       7
#     2   2   2   2   2   2   2
#     4  10  25  44  66  98 136 179 218 266 334 392
#     4   9  21  40  67  96 132 175 218 272 329 395
#     4  10  22  40  66  97 129 170 221 278 330 387
#     4  11  26  40  65  97 132 171 223 275 327 400
#     4  11  23  40  65  95 132 170 223 275 331 387
#     4   9  21  41  63  99 129 170 216 276 333 387
#     4  10  24  43  66  97 136 176 223 266 330 393
#
# _framework density 25.862945
#
# number of rings (size 3 to 8) (size 9 to 14) (size 15 to 20)
#    0.857    1.143    1.429    0.000    8.000    5.714 
#    0.000    1.429    0.000    0.000    0.000    0.000 
#    0.000    0.000    0.000    0.000    0.000    0.000 
#
# Total GULP energy -78232.907742 kJ/mol
# GULP energy per Si atom -5588.064839 kJ/mol
# Density = 2.580408 g / cm^3
# Si number density = 25.862945 Si / 1000 Ang^3
#
#
#
# Elastic Constant Matrix: (Units=GPa)
#
#
# Indices 1 2 3 4 5 6 
#
# 1 46.4930 28.8134 7.2044 -7.1977 -20.0575 -2.9362
# 2 28.8134 157.8084 40.9540 -26.9459 0.6481 -4.1597
# 3 7.2044 40.9540 89.8755 -14.9011 -13.8132 -6.7378
# 4 -7.1977 -26.9459 -14.9011 30.8862 -1.8069 -9.0362
# 5 -20.0575 0.6481 -13.8132 -1.8069 31.7927 17.0154
# 6 -2.9362 -4.1597 -6.7378 -9.0362 17.0154 37.0100
#
#
#
# Elastic Compliance Matrix: (Units=1/GPa)
#
#
# Indices 1 2 3 4 5 6 
#
# 1 0.041111 -0.008956 0.005814 0.003074 0.035340 -0.012184
# 2 -0.008956 0.010274 -0.004133 0.006022 -0.010525 0.006001
# 3 0.005814 -0.004133 0.015069 0.005352 0.011191 -0.001098
# 4 0.003074 0.006022 0.005352 0.044694 -0.000228 0.012913
# 5 0.035340 -0.010525 0.011191 -0.000228 0.075451 -0.031086
# 6 -0.012184 0.006001 -0.001098 0.012913 -0.031086 0.043972
#
#
# Mechanical properties :
#
#
# Convention : Reuss Voigt Hill
#
# Bulk Modulus (GPa) = 19.26685 49.79120 34.52902
# Shear Modulus (GPa) = 19.05314 34.41810 26.73562
#
# Velocity S-wave (km/s) = 2.71716 3.65195 3.21867
# Velocity P-wave (km/s) = 4.16049 6.08901 5.21468
#
# Compressibility (1/GPa) = 0.05190261
#
# Stress axis : x y z
#
# Youngs Moduli (GPa) = 24.32443 97.32888 66.36193
#
# Poissons Ratio (x) = 0.87170 -0.38580
# Poissons Ratio (y) = 0.21786 0.27428
# Poissons Ratio (z) = -0.14141 0.40227
#
# Static dielectric constant tensor:
#      x y z
#    x 2.137990 0.009230 0.032820 
#    y 0.009230 2.000220 -0.041730 
#    z 0.032820 -0.041730 2.103660 
# 
# From -- ./inp_files/78171.got.cif
#   From: 2010.05.17/outbox.cif.g08.bks.cpg/sg2_40_cif.got.tgz:78171.got - 2010.06.03 11:33:40.
