data_PCOD9024578
_publ_section_title
;
Structure prediction by ZEFSAII (Michael W. Deem and Ramdas Pophale) SiO2 
 PCOD9024578
Probable space group: P -1
;
_chemical_formula_sum "Si O2"
_cell_formula_units_Z 12
_cell_length_a 7.923130
_cell_length_b 8.824359
_cell_length_c 12.799982
_cell_angle_alpha 41.358010
_cell_angle_beta 58.648640
_cell_angle_gamma 51.151320
_cell_volume 458.403401
_symmetry_space_group_name_H-M "P -1"
_symmetry_group_IT_number 2
_symmetry_cell_setting 'triclinic'
loop_
_space_group_symop_operation_xyz
x,y,z
-x,-y,-z
loop_
_atom_site_type_symbol
_atom_site_label
_atom_site_fract_x
_atom_site_fract_y
_atom_site_fract_z
Si Si1 0.169910 0.163556 0.895182
Si Si2 0.406223 0.294140 0.364557
Si Si3 0.706846 0.566088 0.901998
Si Si4 0.813589 0.980796 0.696866
Si Si5 0.909885 0.197387 0.760174
Si Si6 0.270960 0.618388 0.649904
O O1 0.239786 0.895207 0.068477
O O2 0.304439 0.332204 0.769490
O O3 0.942252 0.327589 0.948644
O O4 0.890645 0.852427 0.198812
O O5 0.311630 0.329535 0.262351
O O6 0.207728 0.504910 0.381591
O O7 0.601417 0.366763 0.295868
O O8 0.500000 0.000000 0.500000
O O9 0.693820 0.799191 0.857867
O O10 0.500000 0.500000 0.000000
O O11 0.917957 0.062042 0.718936
O O12 0.682448 0.227612 0.540015
O O13 0.017565 0.784746 0.667127
#
# Coordination Sequence:
#
# PCOD9024578 Si02
#       6
#     2   2   2   2   2   2
#     4   9  22  44  61  92 129 165 207 258 314 373
#     4  11  23  44  62  90 131 166 206 262 315 368
#     4  10  22  40  65  93 128 168 207 252 316 376
#     4  10  22  41  64  96 124 167 213 252 312 376
#     4  10  23  42  62  93 129 162 216 257 308 372
#     4  10  22  41  66  90 129 166 205 256 315 377
#
# _framework density 26.177816
#
# number of rings (size 3 to 8) (size 9 to 14) (size 15 to 20)
#    0.000    2.000    1.667    0.000    7.000    3.333 
#    6.000    0.000    0.000    0.000    0.000    0.000 
#    0.000    0.000    0.000    0.000    0.000    0.000 
#
# Total GULP energy -67023.356627 kJ/mol
# GULP energy per Si atom -5585.279719 kJ/mol
# Density = 2.611823 g / cm^3
# Si number density = 26.177816 Si / 1000 Ang^3
#
#
#
# Elastic Constant Matrix: (Units=GPa)
#
#
# Indices 1 2 3 4 5 6 
#
# 1 111.9643 32.6504 22.1189 -21.3328 -19.8461 29.2204
# 2 32.6504 86.2713 46.1349 -22.5177 -14.2693 20.5438
# 3 22.1189 46.1349 71.4908 -38.2719 -8.5874 -2.8051
# 4 -21.3328 -22.5177 -38.2719 38.0537 3.6814 -12.3402
# 5 -19.8461 -14.2693 -8.5874 3.6814 47.4690 -10.6639
# 6 29.2204 20.5438 -2.8051 -12.3402 -10.6639 51.2416
#
#
#
# Elastic Compliance Matrix: (Units=1/GPa)
#
#
# Indices 1 2 3 4 5 6 
#
# 1 0.011952 -0.001606 -0.000897 0.002974 0.003026 -0.004875
# 2 -0.001606 0.024160 -0.023278 -0.014413 0.000484 -0.013415
# 3 -0.000897 -0.023278 0.060378 0.054833 0.005474 0.027494
# 4 0.002974 -0.014413 0.054833 0.083158 0.006789 0.028523
# 5 0.003026 0.000484 0.005474 0.006789 0.024070 0.005024
# 6 -0.004875 -0.013415 0.027494 0.028523 0.005024 0.037094
#
#
# Mechanical properties :
#
#
# Convention : Reuss Voigt Hill
#
# Bulk Modulus (GPa) = 22.25796 52.39276 37.32536
# Shear Modulus (GPa) = 16.26803 38.60768 27.43785
#
# Velocity S-wave (km/s) = 2.49558 3.84451 3.24100
# Velocity P-wave (km/s) = 4.10182 6.30592 5.31929
#
# Compressibility (1/GPa) = 0.04492774
#
# Stress axis : x y z
#
# Youngs Moduli (GPa) = 83.66553 41.39006 16.56221
#
# Poissons Ratio (x) = 0.06647 0.01486
# Poissons Ratio (y) = 0.13437 0.38554
# Poissons Ratio (z) = 0.07507 0.96350
#
# Static dielectric constant tensor:
#      x y z
#    x 2.059360 -0.025000 -0.125200 
#    y -0.025000 2.575780 -0.384500 
#    z -0.125200 -0.384500 2.466530 
# 
# From -- ./inp_files/488815.got.cif
#   From: 2010.05.17/outbox.cif.g08.bks.cpg/sg2_245_cif.got.tgz:488815.got - 2010.06.03 11:33:40.
