data_PCOD9024484
_publ_section_title
;
Structure prediction by ZEFSAII (Michael W. Deem and Ramdas Pophale) SiO2 
 PCOD9024484
Probable space group: P -1
;
_chemical_formula_sum "Si O2"
_cell_formula_units_Z 16
_cell_length_a 12.355342
_cell_length_b 5.497970
_cell_length_c 24.480528
_cell_angle_alpha 107.086011
_cell_angle_beta 29.952452
_cell_angle_gamma 117.949609
_cell_volume 709.264950
_symmetry_space_group_name_H-M "P -1"
_symmetry_group_IT_number 2
_symmetry_cell_setting 'triclinic'
loop_
_space_group_symop_operation_xyz
x,y,z
-x,-y,-z
loop_
_atom_site_type_symbol
_atom_site_label
_atom_site_fract_x
_atom_site_fract_y
_atom_site_fract_z
Si Si1 0.074350 0.603819 0.258082
Si Si2 0.069489 0.222751 0.555573
Si Si3 0.788497 0.182679 0.573824
Si Si4 0.711784 0.374711 0.131028
Si Si5 0.397414 0.214728 0.990097
Si Si6 0.562017 0.657807 0.310052
Si Si7 0.738081 0.825330 0.073571
Si Si8 0.020560 0.045598 0.767574
O O1 0.360767 0.800331 0.135383
O O2 0.024948 0.273414 0.251515
O O3 0.001000 0.655471 0.353456
O O4 0.945439 0.727177 0.279630
O O5 0.313733 0.455923 0.435922
O O6 0.847940 0.089894 0.600312
O O7 0.149253 0.974094 0.513286
O O8 0.525262 0.162742 0.680074
O O9 0.000000 0.500000 0.500000
O O10 0.665879 0.485474 0.216162
O O11 0.613986 0.522315 0.138210
O O12 0.618115 0.038900 0.146164
O O13 0.000000 0.500000 0.000000
O O14 0.256433 0.222237 0.996919
O O15 0.500000 0.500000 0.000000
O O16 0.207447 0.980566 0.097536
O O17 0.753975 0.840397 0.282706
O O18 0.000000 0.000000 0.000000
#
# Coordination Sequence:
#
# PCOD9024484 Si02
#       8
#     2   2   2   2   2   2   2   2
#     4  11  27  45  72  98 140 189 242 285 347 431
#     4  10  24  45  69 103 139 185 237 290 359 421
#     4   9  22  44  68  99 136 183 229 290 357 417
#     4  10  23  39  63 102 137 177 218 285 346 409
#     4  10  24  47  70 100 143 190 233 292 360 428
#     4  11  25  42  73 101 148 178 235 294 363 417
#     4  10  22  40  65 100 134 175 234 285 342 413
#     4  11  26  46  70 105 138 188 234 294 352 422
#
# _framework density 22.558568000000001
#
# number of rings (size 3 to 8) (size 9 to 14) (size 15 to 20)
#    0.000    1.750    0.000    1.875    8.750   11.000 
#    0.000    0.000    0.000    0.000    0.000    0.000 
#    0.000    0.000    0.000    0.000    0.000    0.000 
#
# Total GULP energy -89309.919961 kJ/mol
# GULP energy per Si atom -5581.869998 kJ/mol
# Density = 2.250722 g / cm^3
# Si number density = 22.558568 Si / 1000 Ang^3
#
#
#
# Elastic Constant Matrix: (Units=GPa)
#
#
# Indices 1 2 3 4 5 6 
#
# 1 117.1909 40.4288 34.9713 16.7259 4.1080 11.9996
# 2 40.4288 103.7665 35.0937 31.3628 4.3584 -10.2188
# 3 34.9713 35.0937 133.6994 26.3677 8.9084 18.3949
# 4 16.7259 31.3628 26.3677 33.6366 7.1918 1.6773
# 5 4.1080 4.3584 8.9084 7.1918 39.8313 -0.2796
# 6 11.9996 -10.2188 18.3949 1.6773 -0.2796 44.2958
#
#
#
# Elastic Compliance Matrix: (Units=1/GPa)
#
#
# Indices 1 2 3 4 5 6 
#
# 1 0.010654 -0.003911 -0.001192 -0.000481 -0.000341 -0.003277
# 2 -0.003911 0.015925 -0.001651 -0.012175 0.001270 0.005888
# 3 -0.001192 -0.001651 0.009859 -0.005187 -0.000993 -0.003962
# 4 -0.000481 -0.012175 -0.005187 0.046768 -0.005919 -0.002333
# 5 -0.000341 0.001270 -0.000993 -0.005919 0.026301 0.001188
# 6 -0.003277 0.005888 -0.003962 -0.002333 0.001188 0.026563
#
#
# Mechanical properties :
#
#
# Convention : Reuss Voigt Hill
#
# Bulk Modulus (GPa) = 43.60898 63.96049 53.78473
# Shear Modulus (GPa) = 31.80233 39.83028 35.81630
#
# Velocity S-wave (km/s) = 3.75876 4.20651 3.98892
# Velocity P-wave (km/s) = 6.18151 7.21163 6.71635
#
# Compressibility (1/GPa) = 0.02293106
#
# Stress axis : x y z
#
# Youngs Moduli (GPa) = 93.86038 62.79238 101.43458
#
# Poissons Ratio (x) = 0.24559 0.12089
# Poissons Ratio (y) = 0.36710 0.16743
# Poissons Ratio (z) = 0.11186 0.10365
#
# Static dielectric constant tensor:
#      x y z
#    x 1.907670 -0.110300 0.031910 
#    y -0.110300 1.862500 0.050870 
#    z 0.031910 0.050870 1.777500 
# 
# From -- ./inp_files/609213.got.cif
#   From: 2010.05.17/outbox.cif.g08.bks.cpg/sg2_305_cif.got.tgz:609213.got - 2010.06.03 11:33:40.
