data_PCOD9024100
_publ_section_title
;
Structure prediction by ZEFSAII (Michael W. Deem and Ramdas Pophale) SiO2 
 PCOD9024100
Probable space group: P -1
;
_chemical_formula_sum "Si O2"
_cell_formula_units_Z 12
_cell_length_a 13.988696
_cell_length_b 9.474699
_cell_length_c 5.467040
_cell_angle_alpha 114.902431
_cell_angle_beta 79.195673
_cell_angle_gamma 136.024272
_cell_volume 448.598811
_symmetry_space_group_name_H-M "P -1"
_symmetry_group_IT_number 2
_symmetry_cell_setting 'triclinic'
loop_
_space_group_symop_operation_xyz
x,y,z
-x,-y,-z
loop_
_atom_site_type_symbol
_atom_site_label
_atom_site_fract_x
_atom_site_fract_y
_atom_site_fract_z
Si Si1 0.661573 0.414422 0.957551
Si Si2 0.071024 0.736830 0.246026
Si Si3 0.933414 0.090265 0.144811
Si Si4 0.628532 0.017838 0.781907
Si Si5 0.336806 0.497111 0.474315
Si Si6 0.367496 0.215764 0.013998
O O1 0.735761 0.551948 0.269858
O O2 0.526519 0.374156 0.965245
O O3 0.614688 0.183810 0.861719
O O4 0.737242 0.517777 0.739815
O O5 0.011874 0.745804 0.530258
O O6 0.230450 0.871974 0.337144
O O7 0.066763 0.838268 0.078028
O O8 0.000000 0.500000 0.000000
O O9 0.766856 0.884296 0.143908
O O10 0.000000 0.000000 0.000000
O O11 0.484964 0.762542 0.604317
O O12 0.661059 0.991078 0.018987
O O13 0.363631 0.344730 0.319323
#
# Coordination Sequence:
#
# PCOD9024100 Si02
#       6
#     2   2   2   2   2   2
#     4  11  22  37  59  90 127 165 202 250 310 374
#     4  11  25  45  68  94 127 168 216 266 316 373
#     4  11  25  45  68  94 127 168 216 266 316 373
#     4  10  22  40  63  92 127 163 205 256 313 375
#     4  11  22  37  59  90 127 165 202 250 310 374
#     4  10  22  40  63  92 127 163 205 256 313 375
#
# _framework density 26.749960999999999
#
# number of rings (size 3 to 8) (size 9 to 14) (size 15 to 20)
#    0.000    1.333    0.000    7.000    0.000    8.000 
#    0.000    0.000    0.000    0.000    0.000    0.000 
#    0.000    0.000    0.000    0.000    0.000    0.000 
#
# Total GULP energy -67032.006085 kJ/mol
# GULP energy per Si atom -5586.000507 kJ/mol
# Density = 2.668908 g / cm^3
# Si number density = 26.749961 Si / 1000 Ang^3
#
#
#
# Elastic Constant Matrix: (Units=GPa)
#
#
# Indices 1 2 3 4 5 6 
#
# 1 151.7708 51.6446 70.2986 5.2790 -23.8948 -14.3262
# 2 51.6446 90.7848 46.5672 -3.1469 -6.9637 -19.7789
# 3 70.2986 46.5672 206.5958 -21.3165 -16.9039 -7.4695
# 4 5.2790 -3.1469 -21.3165 43.1966 -5.8867 -0.1579
# 5 -23.8948 -6.9637 -16.9039 -5.8867 37.0980 -1.0313
# 6 -14.3262 -19.7789 -7.4695 -0.1579 -1.0313 57.3567
#
#
#
# Elastic Compliance Matrix: (Units=1/GPa)
#
#
# Indices 1 2 3 4 5 6 
#
# 1 0.009814 -0.003975 -0.002275 -0.002031 0.004240 0.000855
# 2 -0.003975 0.015093 -0.001872 0.000625 -0.000371 0.003963
# 3 -0.002275 -0.001872 0.006538 0.003602 0.001725 -0.000322
# 4 -0.002031 0.000625 0.003602 0.025844 0.004561 0.000331
# 5 0.004240 -0.000371 0.001725 0.004561 0.031175 0.001729
# 6 0.000855 0.003963 -0.000322 0.000331 0.001729 0.019005
#
#
# Mechanical properties :
#
#
# Convention : Reuss Voigt Hill
#
# Bulk Modulus (GPa) = 65.78600 87.35248 76.56924
# Shear Modulus (GPa) = 38.82605 46.23966 42.53286
#
# Velocity S-wave (km/s) = 3.81391 4.16214 3.99183
# Velocity P-wave (km/s) = 6.63633 7.47154 7.06629
#
# Compressibility (1/GPa) = 0.01520080
#
# Stress axis : x y z
#
# Youngs Moduli (GPa) = 101.89326 66.25534 152.96038
#
# Poissons Ratio (x) = 0.26335 0.34802
# Poissons Ratio (y) = 0.40501 0.28634
# Poissons Ratio (z) = 0.23183 0.12403
#
# Static dielectric constant tensor:
#      x y z
#    x 2.098020 0.046930 0.062530 
#    y 0.046930 2.184590 -0.040470 
#    z 0.062530 -0.040470 2.264460 
# 
# From -- ./inp_files/91130.got.cif
#   From: 2010.05.17/outbox.cif.g08.bks.cpg/sg2_46_cif.got.tgz:91130.got - 2010.06.03 11:33:40.
