data_PCOD9024713
_publ_section_title
;
Structure prediction by ZEFSAII (Michael W. Deem and Ramdas Pophale) SiO2 
 PCOD9024713
Probable space group: P -1
;
_chemical_formula_sum "Si O2"
_cell_formula_units_Z 13
_cell_length_a 14.572873
_cell_length_b 8.817308
_cell_length_c 5.011090
_cell_angle_alpha 79.191617
_cell_angle_beta 53.413184
_cell_angle_gamma 78.397753
_cell_volume 504.575690
_symmetry_space_group_name_H-M "P -1"
_symmetry_group_IT_number 2
_symmetry_cell_setting 'triclinic'
loop_
_space_group_symop_operation_xyz
x,y,z
-x,-y,-z
loop_
_atom_site_type_symbol
_atom_site_label
_atom_site_fract_x
_atom_site_fract_y
_atom_site_fract_z
Si Si1 0.060397 0.234359 0.780606
Si Si2 0.265630 0.413014 0.335713
Si Si3 0.847729 0.949946 0.842679
Si Si4 0.376051 0.124136 0.892230
Si Si5 0.500000 0.500000 0.000000
Si Si6 0.396245 0.822706 0.332025
Si Si7 0.182740 0.718013 0.045768
O O1 0.147790 0.358798 0.666820
O O2 0.111320 0.143593 0.460054
O O3 0.069683 0.110473 0.041276
O O4 0.932448 0.306284 0.907139
O O5 0.320475 0.279100 0.085236
O O6 0.371584 0.445581 0.327967
O O7 0.232438 0.568040 0.171207
O O8 0.718183 0.909655 0.151896
O O9 0.845493 0.133566 0.761542
O O10 0.509036 0.148456 0.612806
O O11 0.376629 0.976930 0.137930
O O12 0.545618 0.321675 0.893648
O O13 0.280227 0.773408 0.669205
#
# Coordination Sequence:
#
# PCOD9024713 Si02
#       7
#     2   2   2   2   1   2   2
#     4  11  26  47  69 101 142 187 230 283 346 413
#     4  10  23  41  65  99 141 179 230 287 344 410
#     4  11  24  45  73  99 137 183 236 285 340 411
#     4   9  21  44  67 100 138 183 229 284 352 409
#     4  10  22  40  66 100 134 176 230 286 342 400
#     4  10  22  42  71 101 141 181 231 288 346 416
#     4  12  24  41  68 102 137 184 234 286 344 411
#
# _framework density 25.764219000000001
#
# number of rings (size 3 to 8) (size 9 to 14) (size 15 to 20)
#    0.000    1.538    0.000    4.154    0.000    9.231 
#    0.000    4.615    0.000    0.000    0.000    0.000 
#    0.000    0.000    0.000    0.000    0.000    0.000 
#
# Total GULP energy -72594.407645 kJ/mol
# GULP energy per Si atom -5584.185203 kJ/mol
# Density = 2.570558 g / cm^3
# Si number density = 25.764219 Si / 1000 Ang^3
#
#
#
# Elastic Constant Matrix: (Units=GPa)
#
#
# Indices 1 2 3 4 5 6 
#
# 1 108.2698 6.4476 45.7125 -4.0468 -42.9014 -0.8443
# 2 6.4476 127.7365 44.2154 -14.9787 4.4980 -2.0193
# 3 45.7125 44.2154 108.8742 1.5991 -32.9271 -11.2984
# 4 -4.0468 -14.9787 1.5991 26.9974 7.2127 -9.3690
# 5 -42.9014 4.4980 -32.9271 7.2127 67.2756 -4.0731
# 6 -0.8443 -2.0193 -11.2984 -9.3690 -4.0731 28.6884
#
#
#
# Elastic Compliance Matrix: (Units=1/GPa)
#
#
# Indices 1 2 3 4 5 6 
#
# 1 0.013485 0.000533 -0.003890 0.000827 0.006577 0.000106
# 2 0.000533 0.010932 -0.005987 0.007729 -0.004128 0.000365
# 3 -0.003890 -0.005987 0.015801 -0.004825 0.006475 0.005031
# 4 0.000827 0.007729 -0.004825 0.048200 -0.006704 0.013457
# 5 0.006577 -0.004128 0.006475 -0.006704 0.023440 0.003592
# 6 0.000106 0.000365 0.005031 0.013457 0.003592 0.041772
#
#
# Mechanical properties :
#
#
# Convention : Reuss Voigt Hill
#
# Bulk Modulus (GPa) = 46.45022 59.73685 53.09353
# Shear Modulus (GPa) = 27.85595 41.15929 34.50762
#
# Velocity S-wave (km/s) = 3.29171 4.00126 3.66370
# Velocity P-wave (km/s) = 5.70221 6.67705 6.20880
#
# Compressibility (1/GPa) = 0.02152842
#
# Stress axis : x y z
#
# Youngs Moduli (GPa) = 74.15678 91.47709 63.28717
#
# Poissons Ratio (x) = -0.04875 0.24620
# Poissons Ratio (y) = -0.03952 0.37892
# Poissons Ratio (z) = 0.28849 0.54771
#
# Static dielectric constant tensor:
#      x y z
#    x 3.629560 0.384190 -0.070970 
#    y 0.384190 2.065820 0.019720 
#    z -0.070970 0.019720 2.029600 
# 
# From -- ./inp_files/88501.got.cif
#   From: 2010.05.17/outbox.cif.g08.bks.cpg/sg2_45_cif.got.tgz:88501.got - 2010.06.03 11:33:40.
