data_PCOD9024014
_publ_section_title
;
Structure prediction by ZEFSAII (Michael W. Deem and Ramdas Pophale) SiO2 
 PCOD9024014
Probable space group: P -1
;
_chemical_formula_sum "Si O2"
_cell_formula_units_Z 14
_cell_length_a 25.439091
_cell_length_b 6.938532
_cell_length_c 22.213525
_cell_angle_alpha 153.858192
_cell_angle_beta 162.516298
_cell_angle_gamma 33.530584
_cell_volume 511.359536
_symmetry_space_group_name_H-M "P -1"
_symmetry_group_IT_number 2
_symmetry_cell_setting 'triclinic'
loop_
_space_group_symop_operation_xyz
x,y,z
-x,-y,-z
loop_
_atom_site_type_symbol
_atom_site_label
_atom_site_fract_x
_atom_site_fract_y
_atom_site_fract_z
Si Si1 0.532014 0.415602 0.244685
Si Si2 0.158823 0.856776 0.170865
Si Si3 0.859216 0.763022 0.508789
Si Si4 0.005066 0.931933 0.837192
Si Si5 0.910953 0.894507 0.464900
Si Si6 0.324820 0.696692 0.197101
Si Si7 0.475215 0.558789 0.090950
O O1 0.696499 0.691445 0.536501
O O2 0.384452 0.360781 0.120405
O O3 0.530943 0.943608 0.081242
O O4 0.511027 0.685317 0.235599
O O5 0.107680 0.793237 0.166741
O O6 0.238305 0.542142 0.122999
O O7 0.000000 0.000000 0.000000
O O8 0.979026 0.022209 0.764359
O O9 0.911904 0.954618 0.554522
O O10 0.924932 0.285600 0.437763
O O11 0.653166 0.773168 0.306859
O O12 0.911145 0.399106 0.584996
O O13 0.191388 0.928359 0.074427
O O14 0.740932 0.496151 0.160909
O O15 0.500000 0.000000 0.500000
#
# Coordination Sequence:
#
# PCOD9024014 Si02
#       7
#     2   2   2   2   2   2   2
#     4  10  17  31  52  88 109 147 193 224 288 342
#     4   9  17  30  52  79 108 144 189 233 272 326
#     4  11  23  36  55  86 118 152 188 228 286 347
#     4  11  18  37  58  80 113 150 188 239 283 334
#     4  11  23  36  55  86 118 152 188 228 286 347
#     4   9  19  31  56  89 109 145 201 238 277 339
#     4  11  19  34  56  81 123 148 185 235 284 347
#
# _framework density 27.377998999999999
#
# number of rings (size 3 to 8) (size 9 to 14) (size 15 to 20)
#    0.000    1.714    2.857    3.429    0.000    0.000 
#    0.000    0.000    0.000    8.571    0.000    0.000 
#    0.000    0.000    0.000    0.000    0.000    0.000 
#
# Total GULP energy -77980.386107 kJ/mol
# GULP energy per Si atom -5570.027579 kJ/mol
# Density = 2.731569 g / cm^3
# Si number density = 27.377999 Si / 1000 Ang^3
#
#
#
# Elastic Constant Matrix: (Units=GPa)
#
#
# Indices 1 2 3 4 5 6 
#
# 1 206.2190 14.1271 79.1522 1.5756 -26.9296 -38.4431
# 2 14.1271 43.5305 25.2456 2.5511 -9.6621 -34.8553
# 3 79.1522 25.2456 224.0810 -10.0474 -20.2933 -12.2606
# 4 1.5756 2.5511 -10.0474 30.0276 -3.6339 -6.2841
# 5 -26.9296 -9.6621 -20.2933 -3.6339 55.6725 3.6497
# 6 -38.4431 -34.8553 -12.2606 -6.2841 3.6497 39.5733
#
#
#
# Elastic Compliance Matrix: (Units=1/GPa)
#
#
# Indices 1 2 3 4 5 6 
#
# 1 0.012259 0.028654 -0.004811 0.003612 0.007052 0.035579
# 2 0.028654 0.156730 -0.015870 0.016737 0.025798 0.161241
# 3 -0.004811 -0.015870 0.006940 0.000332 -0.001461 -0.016314
# 4 0.003612 0.016737 0.000332 0.037464 0.005659 0.023780
# 5 0.007052 0.025798 -0.001461 0.005659 0.023864 0.027819
# 6 0.035579 0.161241 -0.016314 0.023780 0.027819 0.198007
#
#
# Mechanical properties :
#
#
# Convention : Reuss Voigt Hill
#
# Bulk Modulus (GPa) = 5.21174 78.98670 42.09922
# Shear Modulus (GPa) = 10.34606 48.74170 29.54388
#
# Velocity S-wave (km/s) = 1.94607 4.22397 3.28855
# Velocity P-wave (km/s) = 2.63767 7.25963 5.46166
#
# Compressibility (1/GPa) = 0.19187453
#
# Stress axis : x y z
#
# Youngs Moduli (GPa) = 81.57361 6.38041 144.09124
#
# Poissons Ratio (x) = -0.18282 0.69324
# Poissons Ratio (y) = -2.33741 2.28672
# Poissons Ratio (z) = 0.39246 0.10126
#
# Static dielectric constant tensor:
#      x y z
#    x 2.210700 0.086790 0.190540 
#    y 0.086790 2.320670 -0.085510 
#    z 0.190540 -0.085510 2.315200 
# 
# From -- ./inp_files/170503.got.cif
#   From: 2010.05.17/outbox.cif.g08.bks.cpg/sg2_86_cif.got.tgz:170503.got - 2010.06.03 11:33:40.
