data_PCOD9024225
_publ_section_title
;
Structure prediction by ZEFSAII (Michael W. Deem and Ramdas Pophale) SiO2 
 PCOD9024225
Probable space group: P -1
;
_chemical_formula_sum "Si O2"
_cell_formula_units_Z 15
_cell_length_a 10.089448
_cell_length_b 19.916359
_cell_length_c 6.484105
_cell_angle_alpha 117.210597
_cell_angle_beta 106.814634
_cell_angle_gamma 34.510709
_cell_volume 646.524914
_symmetry_space_group_name_H-M "P -1"
_symmetry_group_IT_number 2
_symmetry_cell_setting 'triclinic'
loop_
_space_group_symop_operation_xyz
x,y,z
-x,-y,-z
loop_
_atom_site_type_symbol
_atom_site_label
_atom_site_fract_x
_atom_site_fract_y
_atom_site_fract_z
Si Si1 0.272921 0.019992 0.012537
Si Si2 0.000000 0.000000 0.500000
Si Si3 0.008460 0.586342 0.658892
Si Si4 0.446719 0.733801 0.087207
Si Si5 0.633377 0.853638 0.637778
Si Si6 0.812917 0.191516 0.317219
Si Si7 0.503558 0.578643 0.222939
Si Si8 0.310150 0.228846 0.866841
O O1 0.296755 0.099468 0.155456
O O2 0.027944 0.111033 0.142179
O O3 0.476853 0.887245 0.046407
O O4 0.354590 0.962149 0.732257
O O5 0.206800 0.872188 0.270918
O O6 0.115019 0.905352 0.627368
O O7 0.268789 0.507016 0.649546
O O8 0.000000 0.500000 0.500000
O O9 0.814026 0.710685 0.598638
O O10 0.920372 0.652678 0.938238
O O11 0.519232 0.632577 0.120824
O O12 0.629774 0.721038 0.154044
O O13 0.401376 0.734906 0.829238
O O14 0.678635 0.840413 0.397746
O O15 0.727901 0.299380 0.571765
O O16 0.500000 0.500000 0.000000
#
# Coordination Sequence:
#
# PCOD9024225 Si02
#       8
#     2   1   2   2   2   2   2   2
#     4  10  23  42  65 104 131 174 221 282 348 405
#     4  10  22  40  64 102 134 170 218 276 332 420
#     4  11  25  47  68  98 138 183 237 278 331 403
#     4  11  24  41  68 100 133 180 221 278 338 405
#     4  10  24  42  69  97 136 174 227 285 333 406
#     4  11  24  43  70  97 139 177 217 280 350 404
#     4  11  28  46  65 102 140 180 234 280 334 411
#     4  11  23  42  72  97 131 177 228 285 336 400
#
# _framework density 23.200963000000002
#
# number of rings (size 3 to 8) (size 9 to 14) (size 15 to 20)
#    0.000    1.333    1.333    2.400    5.600    5.867 
#    0.000    0.000    0.000    0.000    0.000    0.000 
#    0.000    0.000    0.000    0.000    0.000    0.000 
#
# Total GULP energy -83597.475349 kJ/mol
# GULP energy per Si atom -5573.165023 kJ/mol
# Density = 2.314816 g / cm^3
# Si number density = 23.200963 Si / 1000 Ang^3
#
#
#
# Elastic Constant Matrix: (Units=GPa)
#
#
# Indices 1 2 3 4 5 6 
#
# 1 53.2991 15.7877 14.2943 15.2219 -6.3912 -2.6339
# 2 15.7877 31.5437 32.2070 12.3025 -10.1454 -16.1166
# 3 14.2943 32.2070 123.4808 7.8796 -11.5901 -9.9545
# 4 15.2219 12.3025 7.8796 36.7169 0.8852 -6.6724
# 5 -6.3912 -10.1454 -11.5901 0.8852 32.5745 6.3038
# 6 -2.6339 -16.1166 -9.9545 -6.6724 6.3038 26.1638
#
#
#
# Elastic Compliance Matrix: (Units=1/GPa)
#
#
# Indices 1 2 3 4 5 6 
#
# 1 0.024567 -0.013413 0.000727 -0.007370 0.002656 -0.008032
# 2 -0.013413 0.080131 -0.014658 -0.011670 0.010270 0.036982
# 3 0.000727 -0.014658 0.011442 0.001350 0.000457 -0.004368
# 4 -0.007370 -0.011670 0.001350 0.034580 -0.006096 0.002870
# 5 0.002656 0.010270 0.000457 -0.006096 0.035388 -0.003313
# 6 -0.008032 0.036982 -0.004368 0.002870 -0.003313 0.060061
#
#
# Mechanical properties :
#
#
# Convention : Reuss Voigt Hill
#
# Bulk Modulus (GPa) = 16.27282 36.98907 26.63095
# Shear Modulus (GPa) = 15.55987 28.82668 22.19328
#
# Velocity S-wave (km/s) = 2.59251 3.52870 3.09620
# Velocity P-wave (km/s) = 3.99882 5.70788 4.92800
#
# Compressibility (1/GPa) = 0.06145216
#
# Stress axis : x y z
#
# Youngs Moduli (GPa) = 40.70581 12.47961 87.39713
#
# Poissons Ratio (x) = 0.16738 -0.06350
# Poissons Ratio (y) = 0.54597 1.28103
# Poissons Ratio (z) = -0.02958 0.18292
#
# Static dielectric constant tensor:
#      x y z
#    x 1.944980 -0.048680 0.020590 
#    y -0.048680 1.848670 -0.005340 
#    z 0.020590 -0.005340 2.065770 
# 
# From -- ./inp_files/68414.got.cif
#   From: 2010.05.17/outbox.cif.g08.bks.cpg/sg2_35_cif.got.tgz:68414.got - 2010.06.03 11:33:40.
