data_PCOD9024554
_publ_section_title
;
Structure prediction by ZEFSAII (Michael W. Deem and Ramdas Pophale) SiO2 
 PCOD9024554
Probable space group: P -1
;
_chemical_formula_sum "Si O2"
_cell_formula_units_Z 16
_cell_length_a 12.519006
_cell_length_b 16.181230
_cell_length_c 12.298139
_cell_angle_alpha 148.852007
_cell_angle_beta 144.004258
_cell_angle_gamma 58.260624
_cell_volume 633.876009
_symmetry_space_group_name_H-M "P -1"
_symmetry_group_IT_number 2
_symmetry_cell_setting 'triclinic'
loop_
_space_group_symop_operation_xyz
x,y,z
-x,-y,-z
loop_
_atom_site_type_symbol
_atom_site_label
_atom_site_fract_x
_atom_site_fract_y
_atom_site_fract_z
Si Si1 0.874254 0.336271 0.514754
Si Si2 0.388531 0.102440 0.575878
Si Si3 0.321531 0.644533 0.233514
Si Si4 0.182718 0.513813 0.589762
Si Si5 0.297762 0.486349 0.258849
Si Si6 0.667176 0.706108 0.426798
Si Si7 0.121744 0.932963 0.634038
Si Si8 0.180598 0.933697 0.446179
O O1 0.814912 0.407163 0.438554
O O2 0.814908 0.430803 0.668640
O O3 0.787871 0.126216 0.256674
O O4 0.129584 0.427497 0.803500
O O5 0.234647 0.126041 0.392633
O O6 0.500000 0.000000 0.500000
O O7 0.304386 0.040959 0.559377
O O8 0.590008 0.315147 0.990368
O O9 0.392938 0.623025 0.386309
O O10 0.513741 0.738211 0.413442
O O11 0.195038 0.750453 0.247948
O O12 0.179654 0.323916 0.400520
O O13 0.000000 0.500000 0.500000
O O14 0.500000 0.500000 0.500000
O O15 0.101887 0.272225 0.818126
O O16 0.500000 0.500000 0.000000
O O17 0.258666 0.006267 0.716876
O O18 0.041979 0.072608 0.752543
#
# Coordination Sequence:
#
# PCOD9024554 Si02
#       8
#     2   2   2   2   2   2   2   2
#     4  11  21  40  65  91 126 165 218 264 312 376
#     4  11  24  43  69  93 127 172 210 268 329 387
#     4  11  20  41  65  91 125 169 217 265 318 385
#     4  11  26  42  66  99 125 164 219 267 320 385
#     4  11  22  37  64  94 124 168 220 263 310 376
#     4  10  22  40  65  92 119 170 212 264 320 380
#     4  10  23  41  64  93 128 180 210 261 321 386
#     4  11  22  40  65  92 129 169 218 254 331 385
#
# _framework density 25.241530999999998
#
# number of rings (size 3 to 8) (size 9 to 14) (size 15 to 20)
#    0.000    1.250    3.750    3.000   10.500    0.000 
#    0.000    5.625    0.000    0.000    0.000    0.000 
#    0.000    0.000    0.000    0.000    0.000    0.000 
#
# Total GULP energy -89265.382994 kJ/mol
# GULP energy per Si atom -5579.086437 kJ/mol
# Density = 2.518408 g / cm^3
# Si number density = 25.241531 Si / 1000 Ang^3
#
#
#
# Elastic Constant Matrix: (Units=GPa)
#
#
# Indices 1 2 3 4 5 6 
#
# 1 131.8676 65.1253 9.2312 7.9987 6.0992 20.1361
# 2 65.1253 244.2608 20.7044 -5.2120 -6.7712 34.7031
# 3 9.2312 20.7044 29.2578 -10.8515 1.4900 11.8510
# 4 7.9987 -5.2120 -10.8515 22.7426 3.5519 3.5995
# 5 6.0992 -6.7712 1.4900 3.5519 22.4321 1.8778
# 6 20.1361 34.7031 11.8510 3.5995 1.8778 55.2172
#
#
#
# Elastic Compliance Matrix: (Units=1/GPa)
#
#
# Indices 1 2 3 4 5 6 
#
# 1 0.009443 -0.002315 -0.002445 -0.004486 -0.002302 -0.001093
# 2 -0.002315 0.005270 -0.001780 0.001162 0.002342 -0.002242
# 3 -0.002445 -0.001780 0.051007 0.027504 -0.006736 -0.010501
# 4 -0.004486 0.001162 0.027504 0.061770 -0.009308 -0.008707
# 5 -0.002302 0.002342 -0.006736 -0.009308 0.047851 -0.000207
# 6 -0.001093 -0.002242 -0.010501 -0.008707 -0.000207 0.022746
#
#
# Mechanical properties :
#
#
# Convention : Reuss Voigt Hill
#
# Bulk Modulus (GPa) = 18.99619 66.16755 42.58187
# Shear Modulus (GPa) = 21.86144 40.76673 31.31408
#
# Velocity S-wave (km/s) = 2.94613 4.02315 3.52600
# Velocity P-wave (km/s) = 4.37208 6.91749 5.78648
#
# Compressibility (1/GPa) = 0.05264214
#
# Stress axis : x y z
#
# Youngs Moduli (GPa) = 105.89603 189.74772 19.60501
#
# Poissons Ratio (x) = 0.43921 0.04793
# Poissons Ratio (y) = 0.24512 0.03489
# Poissons Ratio (z) = 0.25892 0.33767
#
# Static dielectric constant tensor:
#      x y z
#    x 1.990530 0.086430 -0.051090 
#    y 0.086430 2.176440 -0.082910 
#    z -0.051090 -0.082910 2.171350 
# 
# From -- ./inp_files/379193.got.cif
#   From: 2010.05.17/outbox.cif.g08.bks.cpg/sg2_190_cif.got.tgz:379193.got - 2010.06.03 11:33:40.
