data_PCOD9024818
_publ_section_title
;
Structure prediction by ZEFSAII (Michael W. Deem and Ramdas Pophale) SiO2 
 PCOD9024818
Probable space group: P -1
;
_chemical_formula_sum "Si O2"
_cell_formula_units_Z 14
_cell_length_a 19.405794
_cell_length_b 17.355605
_cell_length_c 8.642610
_cell_angle_alpha 53.356810
_cell_angle_beta 42.916928
_cell_angle_gamma 20.415032
_cell_volume 640.411316
_symmetry_space_group_name_H-M "P -1"
_symmetry_group_IT_number 2
_symmetry_cell_setting 'triclinic'
loop_
_space_group_symop_operation_xyz
x,y,z
-x,-y,-z
loop_
_atom_site_type_symbol
_atom_site_label
_atom_site_fract_x
_atom_site_fract_y
_atom_site_fract_z
Si Si1 0.599424 0.063558 0.606424
Si Si2 0.797710 0.572506 0.909069
Si Si3 0.276568 0.687480 0.920236
Si Si4 0.916075 0.876015 0.064218
Si Si5 0.755534 0.146923 0.735784
Si Si6 0.821417 0.041350 0.415615
Si Si7 0.325924 0.185149 0.421885
O O1 0.801684 0.946379 0.518375
O O2 0.657890 0.072566 0.342838
O O3 0.642554 0.919285 0.645841
O O4 0.353520 0.285118 0.852455
O O5 0.641162 0.743090 0.810037
O O6 0.914010 0.365957 0.945973
O O7 0.046740 0.422657 0.668731
O O8 0.524016 0.410994 0.857125
O O9 0.316998 0.761197 0.706907
O O10 0.090665 0.798513 0.966141
O O11 0.109728 0.824298 0.184989
O O12 0.830818 0.994940 0.902996
O O13 0.701434 0.159590 0.636584
O O14 0.000000 0.000000 0.500000
O O15 0.500000 0.000000 0.500000
#
# Coordination Sequence:
#
# PCOD9024818 Si02
#       7
#     2   2   2   2   2   2   2
#     4  10  22  40  66  92 127 164 208 254 323 378
#     4  10  22  42  68  91 132 162 198 266 321 379
#     4  10  22  42  60  87 134 169 214 265 313 372
#     4  10  23  41  60  96 127 171 217 257 313 372
#     4  12  24  37  63  91 125 175 224 261 308 367
#     4  10  22  41  64  90 127 175 208 265 324 363
#     4  10  23  44  69  97 122 158 209 260 322 388
#
# _framework density 21.860951
#
# number of rings (size 3 to 8) (size 9 to 14) (size 15 to 20)
#    0.000    1.714    1.429    1.714    2.000    6.857 
#    0.000    5.714    0.000    0.000    0.000    0.000 
#    0.000    0.000    0.000    0.000    0.000    0.000 
#
# Total GULP energy -78044.940462 kJ/mol
# GULP energy per Si atom -5574.638604 kJ/mol
# Density = 2.181119 g / cm^3
# Si number density = 21.860951 Si / 1000 Ang^3
#
#
#
# Elastic Constant Matrix: (Units=GPa)
#
#
# Indices 1 2 3 4 5 6 
#
# 1 51.7852 44.4042 25.4214 -3.6983 2.7173 20.7880
# 2 44.4042 149.4080 68.3065 -16.0083 13.1349 13.6935
# 3 25.4214 68.3065 148.4231 3.0074 21.4797 10.4437
# 4 -3.6983 -16.0083 3.0074 35.0675 2.5967 1.8682
# 5 2.7173 13.1349 21.4797 2.5967 21.9003 6.9385
# 6 20.7880 13.6935 10.4437 1.8682 6.9385 29.2105
#
#
#
# Elastic Compliance Matrix: (Units=1/GPa)
#
#
# Indices 1 2 3 4 5 6 
#
# 1 0.036842 -0.008598 -0.002162 0.000663 0.010192 -0.023879
# 2 -0.008598 0.011471 -0.003547 0.004772 -0.003720 0.002588
# 3 -0.002162 -0.003547 0.009744 -0.002220 -0.007411 0.001620
# 4 0.000663 0.004772 -0.002220 0.031379 -0.003509 -0.003089
# 5 0.010192 -0.003720 -0.007411 -0.003509 0.059635 -0.016801
# 6 -0.023879 0.002588 0.001620 -0.003089 -0.016801 0.053624
#
#
# Mechanical properties :
#
#
# Convention : Reuss Voigt Hill
#
# Bulk Modulus (GPa) = 33.96236 69.54229 51.75232
# Shear Modulus (GPa) = 20.73627 31.33463 26.03545
#
# Velocity S-wave (km/s) = 3.08320 3.79008 3.45477
# Velocity P-wave (km/s) = 5.31453 7.14375 6.29593
#
# Compressibility (1/GPa) = 0.02944436
#
# Stress axis : x y z
#
# Youngs Moduli (GPa) = 27.14270 87.17622 102.63122
#
# Poissons Ratio (x) = 0.74951 0.22185
# Poissons Ratio (y) = 0.23336 0.36403
# Poissons Ratio (z) = 0.05867 0.30921
#
# Static dielectric constant tensor:
#      x y z
#    x 1.879230 -0.001990 -0.005280 
#    y -0.001990 1.789240 -0.018340 
#    z -0.005280 -0.018340 1.848600 
# 
# From -- ./inp_files/134036.got.cif
#   From: 2010.05.17/outbox.cif.g08.bks.cpg/sg2_68_cif.got.tgz:134036.got - 2010.06.03 11:33:40.
