data_PCOD9024779
_publ_section_title
;
Structure prediction by ZEFSAII (Michael W. Deem and Ramdas Pophale) SiO2 
 PCOD9024779
Probable space group: P -1
;
_chemical_formula_sum "Si O2"
_cell_formula_units_Z 14
_cell_length_a 8.200444
_cell_length_b 16.615616
_cell_length_c 6.154781
_cell_angle_alpha 81.729104
_cell_angle_beta 90.046990
_cell_angle_gamma 129.244397
_cell_volume 638.254152
_symmetry_space_group_name_H-M "P -1"
_symmetry_group_IT_number 2
_symmetry_cell_setting 'triclinic'
loop_
_space_group_symop_operation_xyz
x,y,z
-x,-y,-z
loop_
_atom_site_type_symbol
_atom_site_label
_atom_site_fract_x
_atom_site_fract_y
_atom_site_fract_z
Si Si1 0.869266 0.412894 0.844218
Si Si2 0.408588 0.412858 0.222777
Si Si3 0.809667 0.547116 0.482440
Si Si4 0.596013 0.759708 0.936775
Si Si5 0.347413 0.059116 0.391761
Si Si6 0.987659 0.903483 0.126121
Si Si7 0.330848 0.949325 0.826692
O O1 0.824925 0.470172 0.651229
O O2 0.003514 0.389547 0.718869
O O3 0.649642 0.310174 0.975468
O O4 0.000000 0.500000 0.000000
O O5 0.597342 0.469496 0.374017
O O6 0.213579 0.388746 0.366533
O O7 0.369032 0.313647 0.156506
O O8 0.500000 0.500000 0.000000
O O9 0.655151 0.851171 0.736229
O O10 0.739722 0.805531 0.137888
O O11 0.572672 0.090396 0.308604
O O12 0.137413 0.950768 0.321419
O O13 0.335540 0.034166 0.654351
O O14 0.104026 0.878966 0.967925
O O15 0.000000 0.000000 0.000000
O O16 0.500000 0.000000 0.000000
#
# Coordination Sequence:
#
# PCOD9024779 Si02
#       7
#     2   2   2   2   2   2   2
#     4  11  21  43  64  91 131 174 220 274 325 390
#     4  11  21  43  64  92 132 171 216 278 323 387
#     4  10  22  40  66  87 127 183 211 270 338 373
#     4  11  22  40  65  98 127 171 223 267 326 390
#     4   9  20  41  68  91 129 170 210 269 325 390
#     4   9  20  39  62  93 128 164 212 268 326 383
#     4   9  18  41  65  88 129 167 207 266 333 380
#
# _framework density 21.934835
#
# number of rings (size 3 to 8) (size 9 to 14) (size 15 to 20)
#    0.000    2.000    2.857    0.000    0.000    2.286 
#   15.429    0.000   12.571    0.000    0.000    0.000 
#    0.000    0.000    0.000    0.000    0.000    0.000 
#
# Total GULP energy -78083.737925 kJ/mol
# GULP energy per Si atom -5577.409852 kJ/mol
# Density = 2.188491 g / cm^3
# Si number density = 21.934835 Si / 1000 Ang^3
#
#
#
# Elastic Constant Matrix: (Units=GPa)
#
#
# Indices 1 2 3 4 5 6 
#
# 1 105.7579 39.1243 36.7780 3.7859 -17.5571 0.5027
# 2 39.1243 92.7298 37.0926 3.6411 -5.4989 8.8987
# 3 36.7780 37.0926 115.2332 3.8556 9.2105 4.5591
# 4 3.7859 3.6411 3.8556 13.1960 1.8445 3.7365
# 5 -17.5571 -5.4989 9.2105 1.8445 50.5162 3.2212
# 6 0.5027 8.8987 4.5591 3.7365 3.2212 37.4259
#
#
#
# Elastic Compliance Matrix: (Units=1/GPa)
#
#
# Indices 1 2 3 4 5 6 
#
# 1 0.012856 -0.003867 -0.003182 -0.002625 0.004660 0.000995
# 2 -0.003867 0.014088 -0.003228 -0.001161 0.001004 -0.002875
# 3 -0.003182 -0.003228 0.011043 -0.000901 -0.003428 -0.000150
# 4 -0.002625 -0.001161 -0.000901 0.079632 -0.003320 -0.007243
# 5 0.004660 0.001004 -0.003428 -0.003320 0.022365 -0.001477
# 6 0.000995 -0.002875 -0.000150 -0.007243 -0.001477 0.028258
#
#
# Mechanical properties :
#
#
# Convention : Reuss Voigt Hill
#
# Bulk Modulus (GPa) = 57.36817 59.96786 58.66801
# Shear Modulus (GPa) = 25.69274 33.60937 29.65105
#
# Velocity S-wave (km/s) = 3.42617 3.91863 3.68064
# Velocity P-wave (km/s) = 6.47010 6.91900 6.69831
#
# Compressibility (1/GPa) = 0.01743127
#
# Stress axis : x y z
#
# Youngs Moduli (GPa) = 77.78701 70.98259 90.55582
#
# Poissons Ratio (x) = 0.27451 0.28817
# Poissons Ratio (y) = 0.30082 0.29233
# Poissons Ratio (z) = 0.24753 0.22914
#
# Static dielectric constant tensor:
#      x y z
#    x 1.880260 0.022880 -0.066350 
#    y 0.022880 1.790550 0.003270 
#    z -0.066350 0.003270 1.866500 
# 
# From -- ./inp_files/51379.got.cif
#   From: 2010.05.17/outbox.cif.g08.bks.cpg/sg2_26_cif.got.tgz:51379.got - 2010.06.03 11:33:40.
