data_PCOD9024751
_publ_section_title
;
Structure prediction by ZEFSAII (Michael W. Deem and Ramdas Pophale) SiO2 
 PCOD9024751
Probable space group: P -1
;
_chemical_formula_sum "Si O2"
_cell_formula_units_Z 14
_cell_length_a 12.636818
_cell_length_b 11.377013
_cell_length_c 17.408876
_cell_angle_alpha 149.550229
_cell_angle_beta 46.494576
_cell_angle_gamma 146.734548
_cell_volume 691.005959
_symmetry_space_group_name_H-M "P -1"
_symmetry_group_IT_number 2
_symmetry_cell_setting 'triclinic'
loop_
_space_group_symop_operation_xyz
x,y,z
-x,-y,-z
loop_
_atom_site_type_symbol
_atom_site_label
_atom_site_fract_x
_atom_site_fract_y
_atom_site_fract_z
Si Si1 0.973717 0.284821 0.097020
Si Si2 0.855480 0.620899 0.777880
Si Si3 0.182991 0.654302 0.939011
Si Si4 0.491160 0.639658 0.813040
Si Si5 0.333530 0.682787 0.449210
Si Si6 0.387444 0.596481 0.016781
Si Si7 0.586695 0.893143 0.226869
O O1 0.007249 0.351330 0.209841
O O2 0.858353 0.320875 0.114599
O O3 0.190191 0.526170 0.088059
O O4 0.898548 0.940564 0.933886
O O5 0.840971 0.525506 0.642570
O O6 0.636687 0.353274 0.768937
O O7 0.342210 0.001881 0.088552
O O8 0.287125 0.512005 0.807978
O O9 0.000000 0.500000 0.000000
O O10 0.573750 0.469618 0.662824
O O11 0.453080 0.627867 0.915911
O O12 0.500000 0.000000 0.500000
O O13 0.300722 0.797151 0.606624
O O14 0.337964 0.286392 0.897672
O O15 0.556177 0.885592 0.147188
#
# Coordination Sequence:
#
# PCOD9024751 Si02
#       7
#     2   2   2   2   2   2   2
#     4  10  18  31  52  82 116 142 188 242 274 328
#     4   9  17  30  53  80 110 147 177 232 294 326
#     4  11  22  36  57  85 115 153 195 241 270 337
#     4  11  21  35  59  86 110 153 198 227 289 341
#     4  10  17  33  57  85 115 148 183 238 295 336
#     4  10  17  31  53  87 110 147 194 224 286 347
#     4   9  18  30  55  82 117 146 179 237 289 342
#
# _framework density 20.260318000000002
#
# number of rings (size 3 to 8) (size 9 to 14) (size 15 to 20)
#    0.000    2.000    5.714    0.000    0.000    0.000 
#    0.000    0.714    6.286   11.143    0.000    0.000 
#    0.000    0.000    0.000    0.000    0.000    0.000 
#
# Total GULP energy -78049.842608 kJ/mol
# GULP energy per Si atom -5574.988758 kJ/mol
# Density = 2.021420 g / cm^3
# Si number density = 20.260318 Si / 1000 Ang^3
#
#
#
# Elastic Constant Matrix: (Units=GPa)
#
#
# Indices 1 2 3 4 5 6 
#
# 1 159.9819 15.1490 58.6247 -8.7353 20.0452 6.2426
# 2 15.1490 67.2463 10.1077 -6.7289 1.5070 -1.3983
# 3 58.6247 10.1077 116.5817 -9.0715 25.8821 1.2833
# 4 -8.7353 -6.7289 -9.0715 22.6332 -4.1253 3.2007
# 5 20.0452 1.5070 25.8821 -4.1253 33.0084 -2.0377
# 6 6.2426 -1.3983 1.2833 3.2007 -2.0377 25.3066
#
#
#
# Elastic Compliance Matrix: (Units=1/GPa)
#
#
# Indices 1 2 3 4 5 6 
#
# 1 0.008008 -0.001170 -0.003313 0.001331 -0.002182 -0.002216
# 2 -0.001170 0.015633 -0.000708 0.004004 0.001100 0.000771
# 3 -0.003313 -0.000708 0.012078 0.002136 -0.007201 -0.000684
# 4 0.001331 0.004004 0.002136 0.048143 0.002977 -0.006065
# 5 -0.002182 0.001100 -0.007201 0.002977 0.037813 0.003632
# 6 -0.002216 0.000771 -0.000684 -0.006065 0.003632 0.041199
#
#
# Mechanical properties :
#
#
# Convention : Reuss Voigt Hill
#
# Bulk Modulus (GPa) = 39.46992 56.84142 48.15567
# Shear Modulus (GPa) = 27.51768 33.51821 30.51794
#
# Velocity S-wave (km/s) = 3.68938 4.07182 3.88531
# Velocity P-wave (km/s) = 6.13779 7.08680 6.62930
#
# Compressibility (1/GPa) = 0.02533575
#
# Stress axis : x y z
#
# Youngs Moduli (GPa) = 124.87264 63.96829 82.79831
#
# Poissons Ratio (x) = 0.07485 0.27432
# Poissons Ratio (y) = 0.14611 0.05863
# Poissons Ratio (z) = 0.41372 0.04530
#
# Static dielectric constant tensor:
#      x y z
#    x 1.803500 0.031670 0.040490 
#    y 0.031670 1.814190 -0.056090 
#    z 0.040490 -0.056090 1.760440 
# 
# From -- ./inp_files/348575.got.cif
#   From: 2010.05.17/outbox.cif.g08.bks.cpg/sg2_175_cif.got.tgz:348575.got - 2010.06.03 11:33:40.
