data_PCOD9024371
_publ_section_title
;
Structure prediction by ZEFSAII (Michael W. Deem and Ramdas Pophale) SiO2 
 PCOD9024371
Probable space group: P -1
;
_chemical_formula_sum "Si O2"
_cell_formula_units_Z 16
_cell_length_a 14.305208
_cell_length_b 14.042034
_cell_length_c 14.085037
_cell_angle_alpha 129.312342
_cell_angle_beta 31.526238
_cell_angle_gamma 148.503053
_cell_volume 726.486914
_symmetry_space_group_name_H-M "P -1"
_symmetry_group_IT_number 2
_symmetry_cell_setting 'triclinic'
loop_
_space_group_symop_operation_xyz
x,y,z
-x,-y,-z
loop_
_atom_site_type_symbol
_atom_site_label
_atom_site_fract_x
_atom_site_fract_y
_atom_site_fract_z
Si Si1 0.060657 0.825270 0.522350
Si Si2 0.299707 0.176646 0.774910
Si Si3 0.956927 0.761948 0.861994
Si Si4 0.174353 0.828765 0.207104
Si Si5 0.771482 0.487396 0.687507
Si Si6 0.587251 0.152136 0.380537
Si Si7 0.872157 0.892958 0.440346
Si Si8 0.208428 0.586572 0.788392
O O1 0.163815 0.857185 0.345892
O O2 0.824058 0.609708 0.630941
O O3 0.309327 0.934270 0.450810
O O4 0.012257 0.947084 0.635465
O O5 0.481185 0.267720 0.772569
O O6 0.499293 0.236781 0.555558
O O7 0.067215 0.944910 0.831230
O O8 0.179509 0.250771 0.932915
O O9 0.226533 0.825381 0.695561
O O10 0.778133 0.576586 0.831934
O O11 0.006721 0.830091 0.280510
O O12 0.978893 0.605302 0.232234
O O13 0.500000 0.000000 0.000000
O O14 0.000000 0.500000 0.500000
O O15 0.749248 0.268479 0.217676
O O16 0.529172 0.714738 0.619546
O O17 0.000000 0.000000 0.500000
O O18 0.000000 0.500000 0.000000
#
# Coordination Sequence:
#
# PCOD9024371 Si02
#       8
#     2   2   2   2   2   2   2   2
#     4  10  22  40  64  94 126 170 221 268 337 399
#     4  11  23  42  67  94 133 174 224 275 328 402
#     4  11  24  43  65  97 133 175 225 270 337 395
#     4  11  22  42  64  96 131 174 222 276 339 406
#     4  12  22  40  69  95 134 178 217 278 337 393
#     4  11  21  44  65  94 132 175 216 277 336 397
#     4   9  20  41  65  89 127 169 210 278 335 387
#     4  11  23  42  66  95 131 168 225 275 342 411
#
# _framework density 22.023796999999998
#
# number of rings (size 3 to 8) (size 9 to 14) (size 15 to 20)
#    0.000    1.250    2.500    4.875    0.000    0.000 
#   18.000    1.250    0.000    0.000    0.000    0.000 
#    0.000    0.000    0.000    0.000    0.000    0.000 
#
# Total GULP energy -89140.985477 kJ/mol
# GULP energy per Si atom -5571.311592 kJ/mol
# Density = 2.197367 g / cm^3
# Si number density = 22.023797 Si / 1000 Ang^3
#
#
#
# Elastic Constant Matrix: (Units=GPa)
#
#
# Indices 1 2 3 4 5 6 
#
# 1 71.3157 2.2891 32.7963 -2.7902 -8.0660 8.6095
# 2 2.2891 80.4386 19.6466 -1.6149 -3.3754 20.8687
# 3 32.7963 19.6466 101.0027 -1.3265 -0.5038 -3.3807
# 4 -2.7902 -1.6149 -1.3265 38.3683 8.8969 3.0494
# 5 -8.0660 -3.3754 -0.5038 8.8969 32.3851 -3.6752
# 6 8.6095 20.8687 -3.3807 3.0494 -3.6752 41.1545
#
#
#
# Elastic Compliance Matrix: (Units=1/GPa)
#
#
# Indices 1 2 3 4 5 6 
#
# 1 0.018052 0.002649 -0.006528 0.000730 0.003861 -0.005365
# 2 0.002649 0.015753 -0.004202 0.001210 0.000894 -0.008897
# 3 -0.006528 -0.004202 0.012977 -0.000260 -0.001283 0.004467
# 4 0.000730 0.001210 -0.000260 0.028268 -0.007869 -0.003585
# 5 0.003861 0.000894 -0.001283 -0.007869 0.034334 0.002282
# 6 -0.005365 -0.008897 0.004467 -0.003585 0.002282 0.030769
#
#
# Mechanical properties :
#
#
# Convention : Reuss Voigt Hill
#
# Bulk Modulus (GPa) = 32.65664 40.24678 36.45171
# Shear Modulus (GPa) = 30.02627 35.58326 32.80476
#
# Velocity S-wave (km/s) = 3.69637 4.02390 3.86361
# Velocity P-wave (km/s) = 5.75131 6.31688 6.04072
#
# Compressibility (1/GPa) = 0.03062165
#
# Stress axis : x y z
#
# Youngs Moduli (GPa) = 55.39537 63.48076 77.05740
#
# Poissons Ratio (x) = -0.16818 0.50301
# Poissons Ratio (y) = -0.14676 0.32378
# Poissons Ratio (z) = 0.36160 0.26674
#
# Static dielectric constant tensor:
#      x y z
#    x 1.819940 0.047360 0.021750 
#    y 0.047360 2.126980 0.233730 
#    z 0.021750 0.233730 2.103420 
# 
# From -- ./inp_files/534362.got.cif
#   From: 2010.05.17/outbox.cif.g08.bks.cpg/sg2_268_cif.got.tgz:534362.got - 2010.06.03 11:33:40.
