data_PCOD9024635
_publ_section_title
;
Structure prediction by ZEFSAII (Michael W. Deem and Ramdas Pophale) SiO2 
 PCOD9024635
Probable space group: P -1
;
_chemical_formula_sum "Si O2"
_cell_formula_units_Z 14
_cell_length_a 13.578936
_cell_length_b 8.175782
_cell_length_c 10.393501
_cell_angle_alpha 74.143764
_cell_angle_beta 148.682834
_cell_angle_gamma 94.615493
_cell_volume 549.276893
_symmetry_space_group_name_H-M "P -1"
_symmetry_group_IT_number 2
_symmetry_cell_setting 'triclinic'
loop_
_space_group_symop_operation_xyz
x,y,z
-x,-y,-z
loop_
_atom_site_type_symbol
_atom_site_label
_atom_site_fract_x
_atom_site_fract_y
_atom_site_fract_z
Si Si1 0.566743 0.137300 0.636086
Si Si2 0.968714 0.682287 0.342777
Si Si3 0.283573 0.319737 0.473557
Si Si4 0.307018 0.446730 0.120504
Si Si5 0.403749 0.644243 0.756266
Si Si6 0.347928 0.167005 0.859064
Si Si7 0.892008 0.296494 0.949110
O O1 0.497023 0.178461 0.697410
O O2 0.428142 0.329473 0.393951
O O3 0.787708 0.142830 0.846795
O O4 0.500000 0.000000 0.500000
O O5 0.847005 0.830922 0.276585
O O6 0.000000 0.500000 0.500000
O O7 0.169361 0.706340 0.504697
O O8 0.830314 0.655502 0.078422
O O9 0.275517 0.301289 0.624842
O O10 0.187988 0.531708 0.274634
O O11 0.127715 0.238250 0.240754
O O12 0.483439 0.453770 0.222398
O O13 0.179608 0.626531 0.004580
O O14 0.500000 0.500000 0.000000
O O15 0.511953 0.788247 0.883518
O O16 0.500000 0.000000 0.000000
#
# Coordination Sequence:
#
# PCOD9024635 Si02
#       7
#     2   2   2   2   2   2   2
#     4  11  26  42  65  94 132 172 215 281 345 392
#     4  11  22  40  67 101 131 174 226 270 323 399
#     4  10  23  42  70  95 132 171 229 274 328 403
#     4  10  22  40  65  95 131 164 226 268 323 399
#     4  11  24  39  69  98 130 180 217 274 327 391
#     4  11  26  43  65 103 143 174 218 275 344 402
#     4  10  23  42  71 100 121 177 229 281 328 392
#
# _framework density 25.488056
#
# number of rings (size 3 to 8) (size 9 to 14) (size 15 to 20)
#    0.000    1.429    2.857    2.571    8.000    3.429 
#    2.571    0.000    0.000    0.000    0.000    0.000 
#    0.000    0.000    0.000    0.000    0.000    0.000 
#
# Total GULP energy -78050.863540 kJ/mol
# GULP energy per Si atom -5575.061681 kJ/mol
# Density = 2.543004 g / cm^3
# Si number density = 25.488056 Si / 1000 Ang^3
#
#
#
# Elastic Constant Matrix: (Units=GPa)
#
#
# Indices 1 2 3 4 5 6 
#
# 1 142.3410 13.8914 28.6094 -0.8657 28.6561 -13.8514
# 2 13.8914 50.7166 -2.6551 7.0386 13.1797 -7.9516
# 3 28.6094 -2.6551 108.7815 17.8859 19.8595 14.7650
# 4 -0.8657 7.0386 17.8859 43.4187 2.1666 11.5442
# 5 28.6561 13.1797 19.8595 2.1666 51.3201 4.0640
# 6 -13.8514 -7.9516 14.7650 11.5442 4.0640 33.9712
#
#
#
# Elastic Compliance Matrix: (Units=1/GPa)
#
#
# Indices 1 2 3 4 5 6 
#
# 1 0.008893 -0.000678 -0.002256 0.000123 -0.004313 0.004922
# 2 -0.000678 0.023829 0.002052 -0.006343 -0.006852 0.007385
# 3 -0.002256 0.002052 0.011601 -0.004001 -0.003292 -0.003729
# 4 0.000123 -0.006343 -0.004001 0.028122 0.002679 -0.009572
# 5 -0.004313 -0.006852 -0.003292 0.002679 0.025279 -0.005866
# 6 0.004922 0.007385 -0.003729 -0.009572 -0.005866 0.038747
#
#
# Mechanical properties :
#
#
# Convention : Reuss Voigt Hill
#
# Bulk Modulus (GPa) = 23.49788 42.39229 32.94508
# Shear Modulus (GPa) = 32.80318 43.20822 38.00570
#
# Velocity S-wave (km/s) = 3.59137 4.12179 3.86569
# Velocity P-wave (km/s) = 5.14164 6.27061 5.73398
#
# Compressibility (1/GPa) = 0.04255703
#
# Stress axis : x y z
#
# Youngs Moduli (GPa) = 112.44544 41.96515 86.19818
#
# Poissons Ratio (x) = 0.02847 0.19449
# Poissons Ratio (y) = 0.07629 -0.17684
# Poissons Ratio (z) = 0.25372 -0.08609
#
# Static dielectric constant tensor:
#      x y z
#    x 1.880380 0.067830 0.069500 
#    y 0.067830 2.198180 0.015570 
#    z 0.069500 0.015570 2.010860 
# 
# From -- ./inp_files/447389.got.cif
#   From: 2010.05.17/outbox.cif.g08.bks.cpg/sg2_224_cif.got.tgz:447389.got - 2010.06.03 11:33:40.
