data_PCOD9024210
_publ_section_title
;
Structure prediction by ZEFSAII (Michael W. Deem and Ramdas Pophale) SiO2 
 PCOD9024210
Probable space group: P -1
;
_chemical_formula_sum "Si O2"
_cell_formula_units_Z 16
_cell_length_a 19.521572
_cell_length_b 16.160015
_cell_length_c 7.582668
_cell_angle_alpha 125.769366
_cell_angle_beta 46.139257
_cell_angle_gamma 158.987934
_cell_volume 600.209241
_symmetry_space_group_name_H-M "P -1"
_symmetry_group_IT_number 2
_symmetry_cell_setting 'triclinic'
loop_
_space_group_symop_operation_xyz
x,y,z
-x,-y,-z
loop_
_atom_site_type_symbol
_atom_site_label
_atom_site_fract_x
_atom_site_fract_y
_atom_site_fract_z
Si Si1 0.290272 0.967483 0.748170
Si Si2 0.562312 0.674644 0.573601
Si Si3 0.542890 0.857583 0.979435
Si Si4 0.388290 0.286211 0.859223
Si Si5 0.045168 0.093603 0.341084
Si Si6 0.925420 0.651577 0.440399
Si Si7 0.802597 0.415115 0.039310
Si Si8 0.102332 0.685775 0.422741
O O1 0.296862 0.924512 0.488818
O O2 0.029580 0.693895 0.918414
O O3 0.440402 0.073483 0.773972
O O4 0.348131 0.143540 0.859702
O O5 0.500000 0.500000 0.500000
O O6 0.463965 0.662592 0.864602
O O7 0.521499 0.657665 0.421917
O O8 0.820004 0.915092 0.442767
O O9 0.391960 0.759793 0.975402
O O10 0.807203 0.100667 0.765247
O O11 0.142643 0.098001 0.055046
O O12 0.500000 0.500000 0.000000
O O13 0.165087 0.321499 0.398258
O O14 0.000000 0.000000 0.500000
O O15 0.931403 0.607566 0.569463
O O16 0.784761 0.443975 0.301693
O O17 0.839159 0.328869 0.866602
O O18 0.000000 0.500000 0.500000
#
# Coordination Sequence:
#
# PCOD9024210 Si02
#       8
#     2   2   2   2   2   2   2   2
#     4  10  22  44  65  96 145 169 229 295 340 423
#     4  11  24  40  62  93 138 178 230 288 334 419
#     4  10  22  40  64 100 129 181 227 281 351 413
#     4  12  25  43  65 101 137 183 228 282 353 419
#     4  11  23  42  68 100 136 183 223 282 359 415
#     4  10  22  43  65  97 140 172 229 287 340 425
#     4  10  22  40  73  96 130 184 226 280 359 413
#     4  10  22  44  67  96 133 181 230 293 348 403
#
# _framework density 26.65737
#
# number of rings (size 3 to 8) (size 9 to 14) (size 15 to 20)
#    0.000    1.500    0.000    6.000    5.250    1.000 
#    9.000    0.000    0.000    0.000    0.000    0.000 
#    0.000    0.000    0.000    0.000    0.000    0.000 
#
# Total GULP energy -89288.861999 kJ/mol
# GULP energy per Si atom -5580.553875 kJ/mol
# Density = 2.659670 g / cm^3
# Si number density = 26.657370 Si / 1000 Ang^3
#
#
#
# Elastic Constant Matrix: (Units=GPa)
#
#
# Indices 1 2 3 4 5 6 
#
# 1 156.9567 44.3842 43.1149 34.2737 12.0078 2.8419
# 2 44.3842 121.3001 23.5138 32.1673 8.7975 9.9295
# 3 43.1149 23.5138 109.4592 39.3313 6.8774 -3.8323
# 4 34.2737 32.1673 39.3313 38.6164 -0.0735 4.7910
# 5 12.0078 8.7975 6.8774 -0.0735 45.8228 15.4707
# 6 2.8419 9.9295 -3.8323 4.7910 15.4707 52.1317
#
#
#
# Elastic Compliance Matrix: (Units=1/GPa)
#
#
# Indices 1 2 3 4 5 6 
#
# 1 0.008335 -0.001337 -0.000844 -0.005537 -0.002104 0.000872
# 2 -0.001337 0.011189 0.001787 -0.009903 -0.001932 -0.000443
# 3 -0.000844 0.001787 0.015554 -0.017023 -0.003666 0.003501
# 4 -0.005537 -0.009903 -0.017023 0.057256 0.008290 -0.006785
# 5 -0.002104 -0.001932 -0.003666 0.008290 0.026110 -0.008297
# 6 0.000872 -0.000443 0.003501 -0.006785 -0.008297 0.022562
#
#
# Mechanical properties :
#
#
# Convention : Reuss Voigt Hill
#
# Bulk Modulus (GPa) = 29.16100 67.74910 48.45505
# Shear Modulus (GPa) = 32.63195 45.76106 39.19650
#
# Velocity S-wave (km/s) = 3.50255 4.14773 3.83872
# Velocity P-wave (km/s) = 5.22686 6.95760 6.15338
#
# Compressibility (1/GPa) = 0.03429238
#
# Stress axis : x y z
#
# Youngs Moduli (GPa) = 119.97224 89.37088 64.29226
#
# Poissons Ratio (x) = 0.11946 0.05424
# Poissons Ratio (y) = 0.16036 -0.11490
# Poissons Ratio (z) = 0.10121 -0.15972
#
# Static dielectric constant tensor:
#      x y z
#    x 2.259670 -0.200720 0.070610 
#    y -0.200720 2.446380 -0.127630 
#    z 0.070610 -0.127630 2.264820 
# 
# From -- ./inp_files/348881.got.cif
#   From: 2010.05.17/outbox.cif.g08.bks.cpg/sg2_175_cif.got.tgz:348881.got - 2010.06.03 11:33:40.
