data_PCOD9024086
_publ_section_title
;
Structure prediction by ZEFSAII (Michael W. Deem and Ramdas Pophale) SiO2 
 PCOD9024086
Probable space group: P -1
;
_chemical_formula_sum "Si O2"
_cell_formula_units_Z 14
_cell_length_a 12.358146
_cell_length_b 9.397877
_cell_length_c 9.449631
_cell_angle_alpha 97.899179
_cell_angle_beta 74.036242
_cell_angle_gamma 147.355374
_cell_volume 559.723254
_symmetry_space_group_name_H-M "P -1"
_symmetry_group_IT_number 2
_symmetry_cell_setting 'triclinic'
loop_
_space_group_symop_operation_xyz
x,y,z
-x,-y,-z
loop_
_atom_site_type_symbol
_atom_site_label
_atom_site_fract_x
_atom_site_fract_y
_atom_site_fract_z
Si Si1 0.939860 0.755063 0.663549
Si Si2 0.556737 0.436561 0.079704
Si Si3 0.712288 0.421915 0.442427
Si Si4 0.933558 0.396244 0.243988
Si Si5 0.262763 0.911374 0.010224
Si Si6 0.972072 0.864327 0.162583
Si Si7 0.623964 0.760284 0.573450
O O1 0.003984 0.686486 0.721959
O O2 0.741412 0.512883 0.602128
O O3 0.928581 0.883063 0.780452
O O4 0.134634 0.988715 0.518405
O O5 0.790616 0.699425 0.091717
O O6 0.416372 0.294776 0.253479
O O7 0.496241 0.216692 0.003920
O O8 0.500000 0.500000 0.000000
O O9 0.812378 0.372359 0.389884
O O10 0.850256 0.659493 0.310599
O O11 0.478107 0.201649 0.442533
O O12 0.146100 0.696517 0.145548
O O13 0.778165 0.210260 0.139704
O O14 0.129990 0.916607 0.053031
O O15 0.500000 0.500000 0.500000
#
# Coordination Sequence:
#
# PCOD9024086 Si02
#       7
#     2   2   2   2   2   2   2
#     4  12  22  39  68  97 131 163 217 269 317 386
#     4  11  23  40  65  96 127 165 215 267 317 379
#     4  10  22  40  63  91 131 170 207 263 327 376
#     4  10  23  43  64  94 128 176 218 255 317 397
#     4  10  23  45  65  86 137 173 207 269 322 372
#     4  10  22  40  64  98 122 166 219 265 319 379
#     4  11  23  40  63  97 131 163 210 268 325 374
#
# _framework density 25.012360999999999
#
# number of rings (size 3 to 8) (size 9 to 14) (size 15 to 20)
#    0.000    1.429    2.857    3.429    2.000    2.857 
#    0.000   15.714    0.000    0.000    0.000    0.000 
#    0.000    0.000    0.000    0.000    0.000    0.000 
#
# Total GULP energy -78519.588207 kJ/mol
# GULP energy per Si atom -5608.542015 kJ/mol
# Density = 2.495543 g / cm^3
# Si number density = 25.012361 Si / 1000 Ang^3
#
#
#
# Elastic Constant Matrix: (Units=GPa)
#
#
# Indices 1 2 3 4 5 6 
#
# 1 102.3304 21.7624 9.0214 -0.0355 2.9196 -0.2903
# 2 21.7624 84.8964 33.6772 18.8677 6.0446 -8.9119
# 3 9.0214 33.6772 84.6544 7.0657 9.5408 3.8460
# 4 -0.0355 18.8677 7.0657 36.9246 -2.7555 3.6312
# 5 2.9196 6.0446 9.5408 -2.7555 36.3059 5.2146
# 6 -0.2903 -8.9119 3.8460 3.6312 5.2146 36.9899
#
#
#
# Elastic Compliance Matrix: (Units=1/GPa)
#
#
# Indices 1 2 3 4 5 6 
#
# 1 0.010439 -0.003152 0.000048 0.001688 -0.000079 -0.000837
# 2 -0.003152 0.017719 -0.005962 -0.008714 -0.002667 0.006095
# 3 0.000048 -0.005962 0.014545 0.000342 -0.002428 -0.002639
# 4 0.001688 -0.008714 0.000342 0.032394 0.004537 -0.005942
# 5 -0.000079 -0.002667 -0.002428 0.004537 0.029698 -0.005023
# 6 -0.000837 0.006095 -0.002639 -0.005942 -0.005023 0.030062
#
#
# Mechanical properties :
#
#
# Convention : Reuss Voigt Hill
#
# Bulk Modulus (GPa) = 40.70186 44.53367 42.61777
# Shear Modulus (GPa) = 31.02138 35.87210 33.44674
#
# Velocity S-wave (km/s) = 3.52553 3.79116 3.66075
# Velocity P-wave (km/s) = 5.73415 6.08335 5.91133
#
# Compressibility (1/GPa) = 0.02456890
#
# Stress axis : x y z
#
# Youngs Moduli (GPa) = 95.79548 56.43789 68.75447
#
# Poissons Ratio (x) = 0.17791 -0.00327
# Poissons Ratio (y) = 0.30197 0.40991
# Poissons Ratio (z) = -0.00456 0.33648
#
# Static dielectric constant tensor:
#      x y z
#    x 1.949520 0.003910 0.006130 
#    y 0.003910 2.039230 -0.014490 
#    z 0.006130 -0.014490 1.946830 
# 
# From -- ./inp_files/186580.got.cif
#   From: 2010.05.17/outbox.cif.g08.bks.cpg/sg2_94_cif.got.tgz:186580.got - 2010.06.03 11:33:40.
