data_PCOD9024437
_publ_section_title
;
Structure prediction by ZEFSAII (Michael W. Deem and Ramdas Pophale) SiO2 
 PCOD9024437
Probable space group: P -1
;
_chemical_formula_sum "Si O2"
_cell_formula_units_Z 16
_cell_length_a 15.541739
_cell_length_b 11.875433
_cell_length_c 15.748011
_cell_angle_alpha 153.204044
_cell_angle_beta 35.004715
_cell_angle_gamma 133.701850
_cell_volume 742.492815
_symmetry_space_group_name_H-M "P -1"
_symmetry_group_IT_number 2
_symmetry_cell_setting 'triclinic'
loop_
_space_group_symop_operation_xyz
x,y,z
-x,-y,-z
loop_
_atom_site_type_symbol
_atom_site_label
_atom_site_fract_x
_atom_site_fract_y
_atom_site_fract_z
Si Si1 0.768640 0.394148 0.388414
Si Si2 0.365453 0.731852 0.760481
Si Si3 0.428035 0.952282 0.288595
Si Si4 0.613524 0.972493 0.312677
Si Si5 0.909948 0.705518 0.986661
Si Si6 0.316757 0.022007 0.155113
Si Si7 0.179467 0.827191 0.304669
Si Si8 0.897174 0.761313 0.229619
O O1 0.740891 0.350649 0.281525
O O2 0.943629 0.282041 0.180642
O O3 0.740308 0.689328 0.629652
O O4 0.656534 0.238208 0.423030
O O5 0.500000 0.500000 0.500000
O O6 0.448608 0.961390 0.815638
O O7 0.289230 0.820562 0.970145
O O8 0.522588 0.866984 0.238282
O O9 0.332094 0.756993 0.191502
O O10 0.290462 0.192574 0.578224
O O11 0.500000 0.000000 0.500000
O O12 0.766521 0.819532 0.123627
O O13 0.895450 0.413039 0.818862
O O14 0.918219 0.817488 0.150549
O O15 0.239189 0.960864 0.264621
O O16 0.500000 0.000000 0.000000
O O17 0.928303 0.976910 0.416555
O O18 0.000000 0.500000 0.000000
#
# Coordination Sequence:
#
# PCOD9024437 Si02
#       8
#     2   2   2   2   2   2   2   2
#     4  11  27  43  64 103 138 175 229 272 345 398
#     4  11  22  38  64  95 138 175 219 274 337 393
#     4   9  21  42  60 101 125 171 232 276 327 390
#     4  11  23  46  75  93 126 184 239 278 325 395
#     4  12  26  44  69  97 140 185 218 280 337 399
#     4  12  22  39  68 102 141 174 216 282 336 404
#     4  10  24  40  64 105 134 172 233 263 344 399
#     4  10  22  40  64  96 142 172 213 273 340 402
#
# _framework density 21.549029999999998
#
# number of rings (size 3 to 8) (size 9 to 14) (size 15 to 20)
#    0.750    0.500    3.750    1.125    5.250    3.500 
#    0.000    3.750    0.000    7.500    0.000    0.000 
#    0.000    0.000    0.000    0.000    0.000    0.000 
#
# Total GULP energy -89327.773590 kJ/mol
# GULP energy per Si atom -5582.985849 kJ/mol
# Density = 2.149998 g / cm^3
# Si number density = 21.549030 Si / 1000 Ang^3
#
#
#
# Elastic Constant Matrix: (Units=GPa)
#
#
# Indices 1 2 3 4 5 6 
#
# 1 110.1215 10.5179 45.7508 -8.0331 -7.4722 -11.8866
# 2 10.5179 59.1864 19.1104 -8.0242 15.8457 -2.1288
# 3 45.7508 19.1104 103.5612 -5.4799 9.3104 -3.0024
# 4 -8.0331 -8.0242 -5.4799 29.5786 4.9693 -2.6798
# 5 -7.4722 15.8457 9.3104 4.9693 46.0612 -8.6551
# 6 -11.8866 -2.1288 -3.0024 -2.6798 -8.6551 28.2699
#
#
#
# Elastic Compliance Matrix: (Units=1/GPa)
#
#
# Indices 1 2 3 4 5 6 
#
# 1 0.012575 -0.001204 -0.005461 0.001878 0.004516 0.006177
# 2 -0.001204 0.020699 -0.002304 0.006065 -0.007687 -0.000971
# 3 -0.005461 -0.002304 0.012747 0.000594 -0.003112 -0.002012
# 4 0.001878 0.006065 0.000594 0.037258 -0.005318 0.003213
# 5 0.004516 -0.007687 -0.003112 -0.005318 0.027992 0.009055
# 6 0.006177 -0.000971 -0.002012 0.003213 0.009055 0.040761
#
#
# Mechanical properties :
#
#
# Convention : Reuss Voigt Hill
#
# Bulk Modulus (GPa) = 35.60802 47.06970 41.33886
# Shear Modulus (GPa) = 27.88177 33.94792 30.91485
#
# Velocity S-wave (km/s) = 3.60095 3.97341 3.79176
# Velocity P-wave (km/s) = 5.81801 6.55295 6.19638
#
# Compressibility (1/GPa) = 0.02808356
#
# Stress axis : x y z
#
# Youngs Moduli (GPa) = 79.52480 48.31150 78.45287
#
# Poissons Ratio (x) = 0.05815 0.42840
# Poissons Ratio (y) = 0.09573 0.18075
# Poissons Ratio (z) = 0.43425 0.11131
#
# Static dielectric constant tensor:
#      x y z
#    x 1.749280 0.033100 -0.021980 
#    y 0.033100 1.800910 -0.038220 
#    z -0.021980 -0.038220 1.816730 
# 
# From -- ./inp_files/532778.got.cif
#   From: 2010.05.17/outbox.cif.g08.bks.cpg/sg2_267_cif.got.tgz:532778.got - 2010.06.03 11:33:40.
