data_PCOD9024169
_publ_section_title
;
Structure prediction by ZEFSAII (Michael W. Deem and Ramdas Pophale) SiO2 
 PCOD9024169
Probable space group: P -1
;
_chemical_formula_sum "Si O2"
_cell_formula_units_Z 16
_cell_length_a 20.448470
_cell_length_b 9.486567
_cell_length_c 12.456528
_cell_angle_alpha 36.709051
_cell_angle_beta 145.209769
_cell_angle_gamma 145.724606
_cell_volume 717.270941
_symmetry_space_group_name_H-M "P -1"
_symmetry_group_IT_number 2
_symmetry_cell_setting 'triclinic'
loop_
_space_group_symop_operation_xyz
x,y,z
-x,-y,-z
loop_
_atom_site_type_symbol
_atom_site_label
_atom_site_fract_x
_atom_site_fract_y
_atom_site_fract_z
Si Si1 0.644082 0.740815 0.802170
Si Si2 0.217238 0.357006 0.753852
Si Si3 0.732821 0.632511 0.427627
Si Si4 0.685646 0.058202 0.477659
Si Si5 0.514871 0.232380 0.798107
Si Si6 0.416135 0.931268 0.309226
Si Si7 0.733917 0.140062 0.059304
Si Si8 0.977826 0.257906 0.198283
O O1 0.544130 0.492614 0.746485
O O2 0.738603 0.944441 0.713598
O O3 0.581359 0.884502 0.701407
O O4 0.706852 0.641217 0.037569
O O5 0.293203 0.422677 0.701385
O O6 0.208141 0.630976 0.590636
O O7 0.099757 0.047562 0.769889
O O8 0.659208 0.376889 0.562012
O O9 0.884790 0.709217 0.597417
O O10 0.708164 0.886574 0.254701
O O11 0.612071 0.876112 0.384962
O O12 0.552891 0.027050 0.374724
O O13 0.653769 0.292815 0.891449
O O14 0.500000 0.000000 0.000000
O O15 0.324688 0.957970 0.079142
O O16 0.889585 0.280784 0.161138
O O17 0.000000 0.500000 0.000000
#
# Coordination Sequence:
#
# PCOD9024169 Si02
#       8
#     2   2   2   2   2   2   2   2
#     4  12  22  40  60  89 131 171 209 256 316 382
#     4  11  22  36  63  93 123 164 207 265 318 369
#     4  11  21  39  67  96 125 163 207 277 323 362
#     4  11  25  39  60  95 131 168 217 256 328 373
#     4  11  25  42  61  91 135 182 206 252 315 397
#     4  11  22  37  63  99 123 164 215 268 313 378
#     4  10  22  40  63  96 128 165 214 258 320 373
#     4  11  21  41  68  99 127 157 215 275 324 368
#
# _framework density 22.306771999999999
#
# number of rings (size 3 to 8) (size 9 to 14) (size 15 to 20)
#    0.000    1.000    6.250    2.250    1.750    1.500 
#    0.000    0.000    0.000    6.000    0.000    0.000 
#    0.000    0.000    0.000    0.000    0.000    0.000 
#
# Total GULP energy -89180.872650 kJ/mol
# GULP energy per Si atom -5573.804541 kJ/mol
# Density = 2.225600 g / cm^3
# Si number density = 22.306772 Si / 1000 Ang^3
#
#
#
# Elastic Constant Matrix: (Units=GPa)
#
#
# Indices 1 2 3 4 5 6 
#
# 1 61.3897 45.2931 21.9420 2.8489 -0.7842 -7.5228
# 2 45.2931 105.7471 26.3217 -24.9094 -9.4433 -5.4576
# 3 21.9420 26.3217 111.0300 -9.1564 -22.6678 -0.6480
# 4 2.8489 -24.9094 -9.1564 35.6107 2.1658 -5.5906
# 5 -0.7842 -9.4433 -22.6678 2.1658 39.9578 -0.2559
# 6 -7.5228 -5.4576 -0.6480 -5.5906 -0.2559 39.5466
#
#
#
# Elastic Compliance Matrix: (Units=1/GPa)
#
#
# Indices 1 2 3 4 5 6 
#
# 1 0.029887 -0.015278 -0.004374 -0.013671 -0.004754 0.001542
# 2 -0.015278 0.019984 0.000336 0.015379 0.003793 0.002056
# 3 -0.004374 0.000336 0.011321 0.003097 0.006248 -0.000122
# 4 -0.013671 0.015379 0.003097 0.041407 0.002914 0.005445
# 5 -0.004754 0.003793 0.006248 0.002914 0.029218 0.000322
# 6 0.001542 0.002056 -0.000122 0.005445 0.000322 0.026633
#
#
# Mechanical properties :
#
#
# Convention : Reuss Voigt Hill
#
# Bulk Modulus (GPa) = 44.32090 51.69786 48.00938
# Shear Modulus (GPa) = 24.43776 35.33035 29.88405
#
# Velocity S-wave (km/s) = 3.31347 3.98407 3.66414
# Velocity P-wave (km/s) = 5.87799 6.66257 6.28254
#
# Compressibility (1/GPa) = 0.02256272
#
# Stress axis : x y z
#
# Youngs Moduli (GPa) = 33.45928 50.03987 88.32897
#
# Poissons Ratio (x) = 0.76450 0.38631
# Poissons Ratio (y) = 0.51118 -0.02971
# Poissons Ratio (z) = 0.14633 -0.01683
#
# Static dielectric constant tensor:
#      x y z
#    x 1.896540 0.001820 -0.017700 
#    y 0.001820 1.898410 -0.017660 
#    z -0.017700 -0.017660 1.923020 
# 
# From -- ./inp_files/469161.got.cif
#   From: 2010.05.17/outbox.cif.g08.bks.cpg/sg2_235_cif.got.tgz:469161.got - 2010.06.03 11:33:40.
