data_PCOD9024650
_publ_section_title
;
Structure prediction by ZEFSAII (Michael W. Deem and Ramdas Pophale) SiO2 
 PCOD9024650
Probable space group: P -1
;
_chemical_formula_sum "Si O2"
_cell_formula_units_Z 16
_cell_length_a 11.837811
_cell_length_b 6.269475
_cell_length_c 28.134937
_cell_angle_alpha 48.269186
_cell_angle_beta 27.793044
_cell_angle_gamma 58.556530
_cell_volume 712.930025
_symmetry_space_group_name_H-M "P -1"
_symmetry_group_IT_number 2
_symmetry_cell_setting 'triclinic'
loop_
_space_group_symop_operation_xyz
x,y,z
-x,-y,-z
loop_
_atom_site_type_symbol
_atom_site_label
_atom_site_fract_x
_atom_site_fract_y
_atom_site_fract_z
Si Si1 0.002954 0.790772 0.209449
Si Si2 0.150869 0.795350 0.257331
Si Si3 0.978693 0.884037 0.579188
Si Si4 0.221691 0.364333 0.991562
Si Si5 0.564805 0.933451 0.799644
Si Si6 0.748314 0.175573 0.358889
Si Si7 0.459775 0.903429 0.649133
Si Si8 0.738539 0.602557 0.141612
O O1 0.922185 0.454304 0.275816
O O2 0.172270 0.822196 0.188752
O O3 0.732531 0.882057 0.302628
O O4 0.152355 0.030077 0.082799
O O5 0.110065 0.461894 0.336993
O O6 0.345786 0.974026 0.194333
O O7 0.907731 0.926866 0.334867
O O8 0.787046 0.005186 0.667592
O O9 0.000000 0.000000 0.500000
O O10 0.257588 0.949206 0.486716
O O11 0.998749 0.516866 0.070696
O O12 0.458663 0.590099 0.887949
O O13 0.244204 0.368522 0.925727
O O14 0.351173 0.123174 0.841869
O O15 0.661106 0.273389 0.325588
O O16 0.500000 0.000000 0.500000
O O17 0.453029 0.684725 0.728124
#
# Coordination Sequence:
#
# PCOD9024650 Si02
#       8
#     2   2   2   2   2   2   2   2
#     4  10  23  43  67  96 128 168 217 269 325 380
#     4  11  24  41  62  95 130 167 216 266 324 385
#     4  12  26  44  65  96 137 173 210 266 329 388
#     4  10  23  44  67  94 132 171 217 273 323 382
#     4  12  24  41  65  94 131 175 218 263 324 389
#     4  11  22  39  66  94 126 169 216 267 322 387
#     4  10  22  40  65  96 128 168 217 266 324 386
#     4  10  23  42  67  98 128 170 221 272 325 382
#
# _framework density 22.442596000000002
#
# number of rings (size 3 to 8) (size 9 to 14) (size 15 to 20)
#    0.000    1.250    0.000    5.625    0.000   12.500 
#    0.000    4.375    0.000    0.000    0.000    0.000 
#    0.000    0.000    0.000    0.000    0.000    0.000 
#
# Total GULP energy -89339.205177 kJ/mol
# GULP energy per Si atom -5583.700324 kJ/mol
# Density = 2.239152 g / cm^3
# Si number density = 22.442596 Si / 1000 Ang^3
#
#
#
# Elastic Constant Matrix: (Units=GPa)
#
#
# Indices 1 2 3 4 5 6 
#
# 1 68.6294 4.6089 33.2052 -7.7234 22.6522 1.8556
# 2 4.6089 100.6486 40.2472 6.4875 12.0793 -13.2240
# 3 33.2052 40.2472 113.2780 4.0258 7.7565 -3.3756
# 4 -7.7234 6.4875 4.0258 33.6983 -7.4354 -2.8027
# 5 22.6522 12.0793 7.7565 -7.4354 34.3568 -4.3559
# 6 1.8556 -13.2240 -3.3756 -2.8027 -4.3559 29.1260
#
#
#
# Elastic Compliance Matrix: (Units=1/GPa)
#
#
# Indices 1 2 3 4 5 6 
#
# 1 0.022772 0.002931 -0.006889 0.002060 -0.014408 -0.002875
# 2 0.002931 0.013108 -0.004951 -0.002091 -0.005344 0.004190
# 3 -0.006889 -0.004951 0.012439 -0.001416 0.003164 -0.000030
# 4 0.002060 -0.002091 -0.001416 0.032533 0.007112 0.002949
# 5 -0.014408 -0.005344 0.003164 0.007112 0.042049 0.005831
# 6 -0.002875 0.004190 -0.000030 0.002949 0.005831 0.037572
#
#
# Mechanical properties :
#
#
# Convention : Reuss Voigt Hill
#
# Bulk Modulus (GPa) = 32.78618 48.74208 40.76413
# Shear Modulus (GPa) = 26.53097 33.06918 29.80007
#
# Velocity S-wave (km/s) = 3.44200 3.84278 3.64790
# Velocity P-wave (km/s) = 5.51698 6.43856 5.99550
#
# Compressibility (1/GPa) = 0.03050066
#
# Stress axis : x y z
#
# Youngs Moduli (GPa) = 43.91273 76.28960 80.39204
#
# Poissons Ratio (x) = -0.22357 0.55381
# Poissons Ratio (y) = -0.12869 0.39803
# Poissons Ratio (z) = 0.30251 0.37772
#
# Static dielectric constant tensor:
#      x y z
#    x 1.893070 0.006480 -0.023740 
#    y 0.006480 1.838900 0.018890 
#    z -0.023740 0.018890 1.941080 
# 
# From -- ./inp_files/475993.got.cif
#   From: 2010.05.17/outbox.cif.g08.bks.cpg/sg2_238_cif.got.tgz:475993.got - 2010.06.03 11:33:40.
