data_PCOD9024965
_publ_section_title
;
Structure prediction by ZEFSAII (Michael W. Deem and Ramdas Pophale) SiO2 
 PCOD9024965
Probable space group: P -1
;
_chemical_formula_sum "Si O2"
_cell_formula_units_Z 12
_cell_length_a 8.309705
_cell_length_b 9.022306
_cell_length_c 8.896228
_cell_angle_alpha 69.307506
_cell_angle_beta 119.645996
_cell_angle_gamma 134.975886
_cell_volume 410.050703
_symmetry_space_group_name_H-M "P -1"
_symmetry_group_IT_number 2
_symmetry_cell_setting 'triclinic'
loop_
_space_group_symop_operation_xyz
x,y,z
-x,-y,-z
loop_
_atom_site_type_symbol
_atom_site_label
_atom_site_fract_x
_atom_site_fract_y
_atom_site_fract_z
Si Si1 0.288947 0.949476 0.102179
Si Si2 0.898085 0.634071 0.235246
Si Si3 0.470358 0.331600 0.845267
Si Si4 0.947078 0.604883 0.600004
Si Si5 0.000000 0.000000 0.500000
Si Si6 0.567362 0.833040 0.424586
Si Si7 0.000000 0.500000 0.000000
O O1 0.479938 0.959230 0.295359
O O2 0.051256 0.839279 0.133902
O O3 0.396331 0.159787 0.995211
O O4 0.199367 0.761394 0.016335
O O5 0.640844 0.565296 0.185265
O O6 0.022916 0.660186 0.441072
O O7 0.929287 0.475765 0.224325
O O8 0.671112 0.800418 0.328975
O O9 0.754633 0.487248 0.880137
O O10 0.662336 0.395124 0.546932
O O11 0.995998 0.803522 0.613046
O O12 0.185334 0.058283 0.415234
#
# Coordination Sequence:
#
# PCOD9024965 Si02
#       7
#     2   2   2   2   1   2   1
#     4  10  23  43  65  95 135 173 218 270 326 397
#     4  10  22  44  66  93 146 169 207 287 334 375
#     4  11  22  42  67  98 133 176 215 271 331 392
#     4  10  23  44  64  98 133 175 220 272 327 387
#     4  12  22  40  72  96 120 182 224 264 324 396
#     4  10  22  40  67  96 132 167 224 276 317 391
#     4  10  22  40  66  98 126 176 222 262 318 388
#
# _framework density 29.264672999999998
#
# number of rings (size 3 to 8) (size 9 to 14) (size 15 to 20)
#    0.000    1.667    1.667    3.000    0.000    8.667 
#    0.000   12.500    0.000    0.000    0.000    0.000 
#    0.000    0.000    0.000    0.000    0.000    0.000 
#
# Total GULP energy -66836.575378 kJ/mol
# GULP energy per Si atom -5569.714615 kJ/mol
# Density = 2.919807 g / cm^3
# Si number density = 29.264673 Si / 1000 Ang^3
#
#
#
# Elastic Constant Matrix: (Units=GPa)
#
#
# Indices 1 2 3 4 5 6 
#
# 1 225.1752 65.3705 11.2729 -12.2684 37.2714 14.6209
# 2 65.3705 138.2311 39.4811 -26.3410 12.0564 -6.5892
# 3 11.2729 39.4811 103.8445 -23.3004 -1.9065 0.4108
# 4 -12.2684 -26.3410 -23.3004 54.0915 1.7599 8.3216
# 5 37.2714 12.0564 -1.9065 1.7599 38.3783 -9.5705
# 6 14.6209 -6.5892 0.4108 8.3216 -9.5705 45.4746
#
#
#
# Elastic Compliance Matrix: (Units=1/GPa)
#
#
# Indices 1 2 3 4 5 6 
#
# 1 0.006630 -0.002640 0.000464 0.001275 -0.006681 -0.004158
# 2 -0.002640 0.009950 -0.002894 0.002747 -0.000400 0.001730
# 3 0.000464 -0.002894 0.011559 0.003852 0.000541 -0.001264
# 4 0.001275 0.002747 0.003852 0.022693 -0.004219 -0.005087
# 5 -0.006681 -0.000400 0.000541 -0.004219 0.035465 0.010321
# 6 -0.004158 0.001730 -0.001264 -0.005087 0.010321 0.026692
#
#
# Mechanical properties :
#
#
# Convention : Reuss Voigt Hill
#
# Bulk Modulus (GPa) = 55.56274 77.72220 66.64247
# Shear Modulus (GPa) = 38.72095 50.99730 44.85913
#
# Velocity S-wave (km/s) = 3.64143 4.17900 3.91944
# Velocity P-wave (km/s) = 6.05867 7.06410 6.58061
#
# Compressibility (1/GPa) = 0.01799767
#
# Stress axis : x y z
#
# Youngs Moduli (GPa) = 150.84048 100.49973 86.51275
#
# Poissons Ratio (x) = 0.26534 -0.04014
# Poissons Ratio (y) = 0.39825 0.25039
# Poissons Ratio (z) = -0.06998 0.29088
#
# Static dielectric constant tensor:
#      x y z
#    x 2.201040 0.097070 0.410600 
#    y 0.097070 2.573650 0.507190 
#    z 0.410600 0.507190 2.356100 
# 
# From -- ./inp_files/32999.got.cif
#   From: 2010.05.17/outbox.cif.g08.bks.cpg/sg2_17_cif.got.tgz:32999.got - 2010.06.03 11:33:40.
