data_PCOD9024511
_publ_section_title
;
Structure prediction by ZEFSAII (Michael W. Deem and Ramdas Pophale) SiO2 
 PCOD9024511
Probable space group: P -1
;
_chemical_formula_sum "Si O2"
_cell_formula_units_Z 11
_cell_length_a 14.574194
_cell_length_b 6.458091
_cell_length_c 9.191324
_cell_angle_alpha 51.561951
_cell_angle_beta 35.284910
_cell_angle_gamma 58.594051
_cell_volume 391.242629
_symmetry_space_group_name_H-M "P -1"
_symmetry_group_IT_number 2
_symmetry_cell_setting 'triclinic'
loop_
_space_group_symop_operation_xyz
x,y,z
-x,-y,-z
loop_
_atom_site_type_symbol
_atom_site_label
_atom_site_fract_x
_atom_site_fract_y
_atom_site_fract_z
Si Si1 0.500000 0.500000 0.500000
Si Si2 0.492772 0.964434 0.197050
Si Si3 0.378424 0.696580 0.874849
Si Si4 0.903329 0.321374 0.377381
Si Si5 0.212338 0.246519 0.178025
Si Si6 0.885390 0.879667 0.080158
O O1 0.367069 0.756483 0.499382
O O2 0.493582 0.646526 0.612137
O O3 0.529833 0.202716 0.147611
O O4 0.641979 0.736782 0.137053
O O5 0.500000 0.000000 0.000000
O O6 0.242908 0.910395 0.907785
O O7 0.282049 0.422674 0.139256
O O8 0.820267 0.604961 0.345539
O O9 0.042149 0.352847 0.304514
O O10 0.802446 0.067873 0.657242
O O11 0.003465 0.218629 0.154024
O O12 0.000000 0.000000 0.000000
#
# Coordination Sequence:
#
# PCOD9024511 Si02
#       6
#     1   2   2   2   2   2
#     4  10  26  46  74  98 144 190 252 302 354 422
#     4  11  25  46  71 104 142 191 247 301 362 427
#     4  11  23  45  73 105 146 190 244 297 359 432
#     4  10  22  40  65 105 144 182 226 284 363 441
#     4  10  22  41  67  99 145 182 231 291 351 439
#     4  11  22  38  67 103 142 186 230 286 363 432
#
# _framework density 28.115546999999999
#
# number of rings (size 3 to 8) (size 9 to 14) (size 15 to 20)
#    0.000    1.455    3.636    0.545    0.000    8.000 
#    0.000    1.818    0.000    3.273    0.000    0.000 
#    0.000    0.000    0.000    0.000    0.000    0.000 
#
# Total GULP energy -61412.532736 kJ/mol
# GULP energy per Si atom -5582.957521 kJ/mol
# Density = 2.805156 g / cm^3
# Si number density = 28.115547 Si / 1000 Ang^3
#
#
#
# Elastic Constant Matrix: (Units=GPa)
#
#
# Indices 1 2 3 4 5 6 
#
# 1 190.7211 88.6850 61.0086 -8.7905 -0.7516 41.0480
# 2 88.6850 187.5640 64.1160 -31.7028 -3.2693 30.0533
# 3 61.0086 64.1160 137.9288 -27.4613 8.1557 16.0451
# 4 -8.7905 -31.7028 -27.4613 61.5686 -1.2222 -0.8914
# 5 -0.7516 -3.2693 8.1557 -1.2222 48.2803 14.9306
# 6 41.0480 30.0533 16.0451 -0.8914 14.9306 64.4182
#
#
#
# Elastic Compliance Matrix: (Units=1/GPa)
#
#
# Indices 1 2 3 4 5 6 
#
# 1 0.007865 -0.002572 -0.002186 -0.001201 0.001403 -0.003610
# 2 -0.002572 0.008019 -0.001869 0.002930 0.001494 -0.001942
# 3 -0.002186 -0.001869 0.009766 0.003050 -0.001825 0.000297
# 4 -0.001201 0.002930 0.003050 0.018932 0.000521 -0.001220
# 5 0.001403 0.001494 -0.001825 0.000521 0.023167 -0.006499
# 6 -0.003610 -0.001942 0.000297 -0.001220 -0.006499 0.020145
#
#
# Mechanical properties :
#
#
# Convention : Reuss Voigt Hill
#
# Bulk Modulus (GPa) = 80.66210 104.87034 92.76622
# Shear Modulus (GPa) = 47.49251 55.01370 51.25311
#
# Velocity S-wave (km/s) = 4.11443 4.42826 4.27423
# Velocity P-wave (km/s) = 7.16402 7.97037 7.57793
#
# Compressibility (1/GPa) = 0.01239740
#
# Stress axis : x y z
#
# Youngs Moduli (GPa) = 127.13910 124.70450 102.39452
#
# Poissons Ratio (x) = 0.32074 0.22379
# Poissons Ratio (y) = 0.32700 0.19138
# Poissons Ratio (z) = 0.27787 0.23307
#
# Static dielectric constant tensor:
#      x y z
#    x 2.322470 -0.150970 0.077830 
#    y -0.150970 2.232020 -0.113460 
#    z 0.077830 -0.113460 2.425790 
# 
# From -- ./inp_files/89442.got.cif
#   From: 2010.05.17/outbox.cif.g08.bks.cpg/sg2_45_cif.got.tgz:89442.got - 2010.06.03 11:33:40.
