data_PCOD9024599
_publ_section_title
;
Structure prediction by ZEFSAII (Michael W. Deem and Ramdas Pophale) SiO2 
 PCOD9024599
Probable space group: P -1
;
_chemical_formula_sum "Si O2"
_cell_formula_units_Z 16
_cell_length_a 13.526356
_cell_length_b 11.338887
_cell_length_c 25.537948
_cell_angle_alpha 30.265550
_cell_angle_beta 22.535275
_cell_angle_gamma 38.209505
_cell_volume 755.127975
_symmetry_space_group_name_H-M "P -1"
_symmetry_group_IT_number 2
_symmetry_cell_setting 'triclinic'
loop_
_space_group_symop_operation_xyz
x,y,z
-x,-y,-z
loop_
_atom_site_type_symbol
_atom_site_label
_atom_site_fract_x
_atom_site_fract_y
_atom_site_fract_z
Si Si1 0.323659 0.368870 0.345588
Si Si2 0.182191 0.785582 0.001389
Si Si3 0.466052 0.812082 0.042682
Si Si4 0.387099 0.060921 0.187870
Si Si5 0.279594 0.541940 0.414725
Si Si6 0.460233 0.004068 0.686570
Si Si7 0.073987 0.289755 0.705688
Si Si8 0.052623 0.664348 0.657955
O O1 0.475089 0.564072 0.161233
O O2 0.376676 0.432835 0.355475
O O3 0.018609 0.395656 0.474300
O O4 0.406348 0.123768 0.377656
O O5 0.363714 0.820488 0.950418
O O6 0.377666 0.819890 0.843421
O O7 0.018548 0.539986 0.185577
O O8 0.000000 0.000000 0.000000
O O9 0.181493 0.822840 0.152937
O O10 0.646768 0.852328 0.888502
O O11 0.500000 0.000000 0.000000
O O12 0.144900 0.134790 0.311978
O O13 0.418193 0.785144 0.272393
O O14 0.271374 0.360256 0.535612
O O15 0.206360 0.120039 0.745620
O O16 0.661335 0.212589 0.527370
O O17 0.015721 0.528592 0.673071
#
# Coordination Sequence:
#
# PCOD9024599 Si02
#       8
#     2   2   2   2   2   2   2   2
#     4  10  22  42  65  95 129 169 224 270 325 393
#     4  12  26  43  68  98 140 174 219 272 336 403
#     4  11  22  43  70  93 133 174 219 282 332 388
#     4  12  23  41  68  98 130 171 224 274 331 401
#     4  10  22  40  65  94 125 173 221 272 323 388
#     4  12  25  45  68  99 139 178 217 278 333 399
#     4  11  25  42  65  95 139 173 221 272 334 393
#     4  12  25  42  67 102 134 178 219 272 336 397
#
# _framework density 21.188461
#
# number of rings (size 3 to 8) (size 9 to 14) (size 15 to 20)
#    0.000    0.750    5.000    2.250    5.250    1.500 
#    0.000    0.625    0.000    0.000    0.000    0.000 
#    0.000    0.000    0.000    0.000    0.000    0.000 
#
# Total GULP energy -89428.998479 kJ/mol
# GULP energy per Si atom -5589.312405 kJ/mol
# Density = 2.114023 g / cm^3
# Si number density = 21.188461 Si / 1000 Ang^3
#
#
#
# Elastic Constant Matrix: (Units=GPa)
#
#
# Indices 1 2 3 4 5 6 
#
# 1 92.8438 32.5744 24.8743 3.1416 8.4150 28.9185
# 2 32.5744 78.8832 3.7111 4.3105 -9.6008 31.4245
# 3 24.8743 3.7111 77.1150 -9.5204 11.8222 12.2235
# 4 3.1416 4.3105 -9.5204 27.6633 9.3152 2.6540
# 5 8.4150 -9.6008 11.8222 9.3152 37.8950 -0.4397
# 6 28.9185 31.4245 12.2235 2.6540 -0.4397 24.2593
#
#
#
# Elastic Compliance Matrix: (Units=1/GPa)
#
#
# Indices 1 2 3 4 5 6 
#
# 1 0.018074 0.000880 -0.001781 0.000517 -0.003616 -0.021910
# 2 0.000880 0.028874 0.003566 -0.001530 0.005920 -0.039973
# 3 -0.001781 0.003566 0.017448 0.009032 -0.006508 -0.012394
# 4 0.000517 -0.001530 0.009032 0.045128 -0.014511 -0.008385
# 5 -0.003616 0.005920 -0.006508 -0.014511 0.034314 0.002131
# 6 -0.021910 -0.039973 -0.012394 -0.008385 0.002131 0.126319
#
#
# Mechanical properties :
#
#
# Convention : Reuss Voigt Hill
#
# Bulk Modulus (GPa) = 14.34186 41.24018 27.79102
# Shear Modulus (GPa) = 17.35703 30.47567 23.91635
#
# Velocity S-wave (km/s) = 2.86523 3.79663 3.36332
# Velocity P-wave (km/s) = 4.21063 6.22294 5.31293
#
# Compressibility (1/GPa) = 0.06972596
#
# Stress axis : x y z
#
# Youngs Moduli (GPa) = 55.32874 34.63332 57.31345
#
# Poissons Ratio (x) = -0.03048 0.10209
# Poissons Ratio (y) = -0.04869 -0.20440
# Poissons Ratio (z) = 0.09855 -0.12352
#
# Static dielectric constant tensor:
#      x y z
#    x 1.738430 0.006340 0.019600 
#    y 0.006340 1.751990 0.016100 
#    z 0.019600 0.016100 1.827510 
# 
# From -- ./inp_files/187706.got.cif
#   From: 2010.05.17/outbox.cif.g08.bks.cpg/sg2_94_cif.got.tgz:187706.got - 2010.06.03 11:33:40.
