data_PCOD9024485
_publ_section_title
;
Structure prediction by ZEFSAII (Michael W. Deem and Ramdas Pophale) SiO2 
 PCOD9024485
Probable space group: P -1
;
_chemical_formula_sum "Si O2"
_cell_formula_units_Z 10
_cell_length_a 6.998441
_cell_length_b 8.120250
_cell_length_c 10.567624
_cell_angle_alpha 43.323522
_cell_angle_beta 67.572085
_cell_angle_gamma 87.639009
_cell_volume 353.441667
_symmetry_space_group_name_H-M "P -1"
_symmetry_group_IT_number 2
_symmetry_cell_setting 'triclinic'
loop_
_space_group_symop_operation_xyz
x,y,z
-x,-y,-z
loop_
_atom_site_type_symbol
_atom_site_label
_atom_site_fract_x
_atom_site_fract_y
_atom_site_fract_z
Si Si1 0.715219 0.077358 0.995024
Si Si2 0.297937 0.721309 0.736359
Si Si3 0.926380 0.634117 0.561313
Si Si4 0.868367 0.828005 0.869525
Si Si5 0.470379 0.280918 0.530937
O O1 0.831811 0.384530 0.813466
O O2 0.856703 0.944589 0.948471
O O3 0.500000 0.000000 0.000000
O O4 0.623824 0.966619 0.217362
O O5 0.287378 0.641650 0.636178
O O6 0.087974 0.769007 0.815308
O O7 0.500000 0.000000 0.500000
O O8 0.316057 0.462288 0.938041
O O9 0.708796 0.688852 0.538850
O O10 0.000000 0.500000 0.500000
O O11 0.107356 0.928326 0.363558
O O12 0.500000 0.500000 0.500000
#
# Coordination Sequence:
#
# PCOD9024485 Si02
#       5
#     2   2   2   2   2
#     4  11  22  41  71  99 135 175 230 279 325 398
#     4  11  22  42  67  99 136 178 220 275 342 404
#     4  10  22  40  65 100 135 168 227 278 329 393
#     4  10  22  40  66  96 136 178 216 277 340 393
#     4  12  22  42  71  99 132 182 226 274 337 397
#
# _framework density 28.293212
#
# number of rings (size 3 to 8) (size 9 to 14) (size 15 to 20)
#    0.000    1.200    6.000    0.000    0.000    3.200 
#    0.000    2.000    0.000    0.000    0.000    0.000 
#    0.000    0.000    0.000    0.000    0.000    0.000 
#
# Total GULP energy -55755.796396 kJ/mol
# GULP energy per Si atom -5575.579640 kJ/mol
# Density = 2.822882 g / cm^3
# Si number density = 28.293212 Si / 1000 Ang^3
#
#
#
# Elastic Constant Matrix: (Units=GPa)
#
#
# Indices 1 2 3 4 5 6 
#
# 1 81.2099 40.7536 64.7397 8.0610 -16.1412 -24.5635
# 2 40.7536 105.1961 42.9804 -15.2005 -8.3958 -38.3011
# 3 64.7397 42.9804 271.6126 -65.4342 -0.8640 -11.9238
# 4 8.0610 -15.2005 -65.4342 99.1923 -5.6031 -12.2060
# 5 -16.1412 -8.3958 -0.8640 -5.6031 38.1949 -3.5149
# 6 -24.5635 -38.3011 -11.9238 -12.2060 -3.5149 38.0614
#
#
#
# Elastic Compliance Matrix: (Units=1/GPa)
#
#
# Indices 1 2 3 4 5 6 
#
# 1 0.023833 -0.003204 -0.005804 -0.004520 0.009472 0.009764
# 2 -0.003204 0.019211 0.000046 0.005974 0.005560 0.019708
# 3 -0.005804 0.000046 0.006066 0.004312 -0.001726 -0.000576
# 4 -0.004520 0.005974 0.004312 0.015550 0.002672 0.009679
# 5 0.009472 0.005560 -0.001726 0.002672 0.033148 0.015085
# 6 0.009764 0.019708 -0.000576 0.009679 0.015085 0.056723
#
#
# Mechanical properties :
#
#
# Convention : Reuss Voigt Hill
#
# Bulk Modulus (GPa) = 32.06629 83.88510 57.97569
# Shear Modulus (GPa) = 27.34490 55.72604 41.53547
#
# Velocity S-wave (km/s) = 3.11220 4.44282 3.83565
# Velocity P-wave (km/s) = 4.92672 7.48539 6.33655
#
# Compressibility (1/GPa) = 0.03118540
#
# Stress axis : x y z
#
# Youngs Moduli (GPa) = 41.95914 52.05359 164.85936
#
# Poissons Ratio (x) = 0.16678 0.95680
# Poissons Ratio (y) = 0.13444 -0.00753
# Poissons Ratio (z) = 0.24352 -0.00238
#
# Static dielectric constant tensor:
#      x y z
#    x 2.224010 -0.031860 -0.016520 
#    y -0.031860 1.895520 -0.274310 
#    z -0.016520 -0.274310 2.196120 
# 
# From -- ./inp_files/265611.got.cif
#   From: 2010.05.17/outbox.cif.g08.bks.cpg/sg2_133_cif.got.tgz:265611.got - 2010.06.03 11:33:40.
