data_PCOD9024783
_publ_section_title
;
Structure prediction by ZEFSAII (Michael W. Deem and Ramdas Pophale) SiO2 
 PCOD9024783
Probable space group: P -1
;
_chemical_formula_sum "Si O2"
_cell_formula_units_Z 14
_cell_length_a 8.828127
_cell_length_b 8.553529
_cell_length_c 9.096406
_cell_angle_alpha 102.742280
_cell_angle_beta 80.882011
_cell_angle_gamma 89.382470
_cell_volume 660.756122
_symmetry_space_group_name_H-M "P -1"
_symmetry_group_IT_number 2
_symmetry_cell_setting 'triclinic'
loop_
_space_group_symop_operation_xyz
x,y,z
-x,-y,-z
loop_
_atom_site_type_symbol
_atom_site_label
_atom_site_fract_x
_atom_site_fract_y
_atom_site_fract_z
Si Si1 0.677685 0.828720 0.146598
Si Si2 0.161058 0.776956 0.294483
Si Si3 0.342934 0.917735 0.556065
Si Si4 0.320641 0.658436 0.738337
Si Si5 0.825655 0.052348 0.980278
Si Si6 0.088498 0.429852 0.827056
Si Si7 0.456338 0.583074 0.176727
O O1 0.775911 0.669398 0.132545
O O2 0.510463 0.766833 0.190851
O O3 0.723032 0.959602 0.285422
O O4 0.719481 0.903224 0.000040
O O5 0.218315 0.878890 0.444184
O O6 0.277538 0.618934 0.234601
O O7 0.000163 0.693794 0.284906
O O8 0.165808 0.891878 0.175994
O O9 0.371813 0.750265 0.604227
O O10 0.500000 0.000000 0.500000
O O11 0.264334 0.796831 0.892838
O O12 0.166775 0.558336 0.737993
O O13 0.456789 0.533382 0.743836
O O14 0.000000 0.000000 0.000000
O O15 0.000000 0.500000 0.000000
O O16 0.500000 0.500000 0.000000
#
# Coordination Sequence:
#
# PCOD9024783 Si02
#       7
#     2   2   2   2   2   2   2
#     4  10  22  40  66  87 135 168 204 277 322 368
#     4  12  23  38  69  94 131 170 218 259 323 385
#     4  11  25  45  61  95 136 174 214 262 318 389
#     4  10  23  41  68  89 133 170 210 270 328 369
#     4  11  20  39  65  98 124 166 213 271 324 372
#     4  11  20  42  68  97 127 164 216 274 319 377
#     4  11  21  39  65  97 119 168 226 268 313 377
#
# _framework density 21.187847000000001
#
# number of rings (size 3 to 8) (size 9 to 14) (size 15 to 20)
#    0.000    1.143    5.714    0.857    0.000    3.429 
#    0.000    0.000    0.000    0.000    0.000    0.000 
#    0.000    0.000    0.000    0.000    0.000    0.000 
#
# Total GULP energy -78001.229035 kJ/mol
# GULP energy per Si atom -5571.516360 kJ/mol
# Density = 2.113962 g / cm^3
# Si number density = 21.187847 Si / 1000 Ang^3
#
#
#
# Elastic Constant Matrix: (Units=GPa)
#
#
# Indices 1 2 3 4 5 6 
#
# 1 57.9079 23.7505 3.6417 -22.1067 8.1671 5.7788
# 2 23.7505 115.2420 29.2321 -38.8720 7.8209 18.4967
# 3 3.6417 29.2321 62.7261 -14.8554 23.3636 10.3538
# 4 -22.1067 -38.8720 -14.8554 47.4559 1.1682 -6.7831
# 5 8.1671 7.8209 23.3636 1.1682 32.1120 5.6239
# 6 5.7788 18.4967 10.3538 -6.7831 5.6239 44.0894
#
#
#
# Elastic Compliance Matrix: (Units=1/GPa)
#
#
# Indices 1 2 3 4 5 6 
#
# 1 0.023560 -0.001650 0.006152 0.011702 -0.010366 -0.000718
# 2 -0.001650 0.013328 -0.003559 0.008574 0.000015 -0.003222
# 3 0.006152 -0.003559 0.027251 0.008737 -0.020536 -0.001749
# 4 0.011702 0.008574 0.008737 0.036606 -0.012766 0.000078
# 5 -0.010366 0.000015 -0.020536 -0.012766 0.049549 -0.002110
# 6 -0.000718 -0.003222 -0.001749 0.000078 -0.002110 0.024819
#
#
# Mechanical properties :
#
#
# Convention : Reuss Voigt Hill
#
# Bulk Modulus (GPa) = 15.14592 38.79162 26.96877
# Shear Modulus (GPa) = 25.61016 36.68158 31.14587
#
# Velocity S-wave (km/s) = 3.48044 4.16535 3.83820
# Velocity P-wave (km/s) = 4.82858 6.44063 5.69196
#
# Compressibility (1/GPa) = 0.06602437
#
# Stress axis : x y z
#
# Youngs Moduli (GPa) = 42.44571 75.02769 36.69648
#
# Poissons Ratio (x) = 0.12381 -0.22576
# Poissons Ratio (y) = 0.07005 0.13060
# Poissons Ratio (z) = -0.26113 0.26702
#
# Static dielectric constant tensor:
#      x y z
#    x 1.813200 0.047750 -0.027950 
#    y 0.047750 1.804620 0.010590 
#    z -0.027950 0.010590 1.804780 
# 
# From -- ./inp_files/154178.got.cif
#   From: 2010.05.17/outbox.cif.g08.bks.cpg/sg2_78_cif.got.tgz:154178.got - 2010.06.03 11:33:40.
