data_PCOD9024052
_publ_section_title
;
Structure prediction by ZEFSAII (Michael W. Deem and Ramdas Pophale) SiO2 
 PCOD9024052
Probable space group: P -1
;
_chemical_formula_sum "Si O2"
_cell_formula_units_Z 16
_cell_length_a 8.721263
_cell_length_b 16.864889
_cell_length_c 10.518039
_cell_angle_alpha 60.215893
_cell_angle_beta 113.696562
_cell_angle_gamma 61.064432
_cell_volume 627.404815
_symmetry_space_group_name_H-M "P -1"
_symmetry_group_IT_number 2
_symmetry_cell_setting 'triclinic'
loop_
_space_group_symop_operation_xyz
x,y,z
-x,-y,-z
loop_
_atom_site_type_symbol
_atom_site_label
_atom_site_fract_x
_atom_site_fract_y
_atom_site_fract_z
Si Si1 0.630670 0.956492 0.284278
Si Si2 0.316212 0.891053 0.513427
Si Si3 0.444243 0.168222 0.814477
Si Si4 0.193577 0.814013 0.317317
Si Si5 0.732751 0.548493 0.500121
Si Si6 0.569173 0.483755 0.280191
Si Si7 0.776194 0.225039 0.226397
Si Si8 0.132920 0.254774 0.064200
O O1 0.927420 0.862993 0.533198
O O2 0.499698 0.087087 0.027807
O O3 0.717821 0.822209 0.350034
O O4 0.328957 0.089678 0.176123
O O5 0.334249 0.830834 0.434372
O O6 0.341633 0.802334 0.703472
O O7 0.954918 0.102097 0.255953
O O8 0.608710 0.824529 0.687635
O O9 0.268787 0.346671 0.629570
O O10 0.813742 0.010208 0.013296
O O11 0.399102 0.696928 0.353887
O O12 0.232641 0.703450 0.503141
O O13 0.715968 0.480791 0.439240
O O14 0.014600 0.389760 0.820434
O O15 0.196462 0.629326 0.077087
O O16 0.512855 0.570799 0.067963
#
# Coordination Sequence:
#
# PCOD9024052 Si02
#       8
#     2   2   2   2   2   2   2   2
#     4  10  22  40  63  88 129 157 205 261 304 365
#     4  10  22  40  65  89 126 165 206 253 307 364
#     4  11  22  39  63  94 120 163 209 256 306 364
#     4  11  22  41  63  91 127 161 206 259 301 369
#     4  11  24  40  64  91 124 166 208 252 312 366
#     4  11  24  40  65  91 127 165 206 252 312 364
#     4  10  22  42  63  91 125 164 207 248 312 371
#     4  10  23  42  60  93 127 163 202 258 306 366
#
# _framework density 25.501874999999998
#
# number of rings (size 3 to 8) (size 9 to 14) (size 15 to 20)
#    0.000    1.500    1.250    4.125    3.500    8.000 
#    4.500    0.000    0.000    0.000    0.000    0.000 
#    0.000    0.000    0.000    0.000    0.000    0.000 
#
# Total GULP energy -89766.654754 kJ/mol
# GULP energy per Si atom -5610.415922 kJ/mol
# Density = 2.544383 g / cm^3
# Si number density = 25.501875 Si / 1000 Ang^3
#
#
#
# Elastic Constant Matrix: (Units=GPa)
#
#
# Indices 1 2 3 4 5 6 
#
# 1 58.3783 8.9760 30.9765 -4.5590 3.8075 12.4637
# 2 8.9760 114.4557 22.2829 -7.5780 -1.3161 18.7406
# 3 30.9765 22.2829 107.5866 -14.4237 -19.3804 10.8993
# 4 -4.5590 -7.5780 -14.4237 35.0170 8.6737 3.6517
# 5 3.8075 -1.3161 -19.3804 8.6737 49.5784 -10.0354
# 6 12.4637 18.7406 10.8993 3.6517 -10.0354 36.8467
#
#
#
# Elastic Compliance Matrix: (Units=1/GPa)
#
#
# Indices 1 2 3 4 5 6 
#
# 1 0.023024 0.001006 -0.006785 0.002930 -0.006603 -0.008381
# 2 0.001006 0.010119 -0.001825 0.002713 -0.002172 -0.005807
# 3 -0.006785 -0.001825 0.012856 0.002686 0.005140 0.000554
# 4 0.002930 0.002713 0.002686 0.033117 -0.006564 -0.008235
# 5 -0.006603 -0.002172 0.005140 -0.006564 0.025693 0.009466
# 6 -0.008381 -0.005807 0.000554 -0.008235 0.009466 0.036159
#
#
# Mechanical properties :
#
#
# Convention : Reuss Voigt Hill
#
# Bulk Modulus (GPa) = 32.47636 44.98795 38.73216
# Shear Modulus (GPa) = 30.04089 38.83411 34.43750
#
# Velocity S-wave (km/s) = 3.43591 3.90653 3.67875
# Velocity P-wave (km/s) = 5.33883 6.16663 5.76760
#
# Compressibility (1/GPa) = 0.03079163
#
# Stress axis : x y z
#
# Youngs Moduli (GPa) = 43.43278 98.82509 77.78304
#
# Poissons Ratio (x) = -0.09939 0.52775
# Poissons Ratio (y) = -0.04368 0.14192
# Poissons Ratio (z) = 0.29469 0.18031
#
# Static dielectric constant tensor:
#      x y z
#    x 2.078800 -0.043070 -0.030780 
#    y -0.043070 1.962050 -0.027170 
#    z -0.030780 -0.027170 1.958790 
# 
# From -- ./inp_files/277642.got.cif
#   From: 2010.05.17/outbox.cif.g08.bks.cpg/sg2_139_cif.got.tgz:277642.got - 2010.06.03 11:33:40.
