data_PCOD9024416
_publ_section_title
;
Structure prediction by ZEFSAII (Michael W. Deem and Ramdas Pophale) SiO2 
 PCOD9024416
Probable space group: P -1
;
_chemical_formula_sum "Si O2"
_cell_formula_units_Z 15
_cell_length_a 9.442076
_cell_length_b 22.877223
_cell_length_c 17.676084
_cell_angle_alpha 17.556785
_cell_angle_beta 142.610514
_cell_angle_gamma 149.267432
_cell_volume 580.795587
_symmetry_space_group_name_H-M "P -1"
_symmetry_group_IT_number 2
_symmetry_cell_setting 'triclinic'
loop_
_space_group_symop_operation_xyz
x,y,z
-x,-y,-z
loop_
_atom_site_type_symbol
_atom_site_label
_atom_site_fract_x
_atom_site_fract_y
_atom_site_fract_z
Si Si1 0.299480 0.358848 0.975357
Si Si2 0.500000 0.000000 0.000000
Si Si3 0.296305 0.638987 0.123270
Si Si4 0.221317 0.899427 0.161359
Si Si5 0.597177 0.966444 0.502393
Si Si6 0.849838 0.474783 0.641778
Si Si7 0.262084 0.125796 0.091384
Si Si8 0.084724 0.247869 0.263353
O O1 0.376640 0.250050 0.210514
O O2 0.202272 0.189767 0.069489
O O3 0.052544 0.386770 0.856401
O O4 0.585195 0.593590 0.783203
O O5 0.660713 0.143189 0.812109
O O6 0.585712 0.246275 0.773524
O O7 0.481018 0.643345 0.126756
O O8 0.029580 0.627617 0.989815
O O9 0.515357 0.898769 0.929083
O O10 0.228107 0.478878 0.365297
O O11 0.026889 0.677448 0.406412
O O12 0.011019 0.970143 0.955818
O O13 0.500000 0.000000 0.500000
O O14 0.382686 0.965589 0.354177
O O15 0.904777 0.184093 0.342288
O O16 0.000000 0.000000 0.500000
#
# Coordination Sequence:
#
# PCOD9024416 Si02
#       8
#     2   1   2   2   2   2   2   2
#     4  11  23  42  68  95 130 173 221 265 326 382
#     4  10  22  40  64  96 126 162 214 268 316 384
#     4  10  24  40  62  94 135 170 214 265 323 388
#     4  11  22  43  67  96 132 167 217 266 331 384
#     4   9  22  42  63  93 130 172 215 266 318 379
#     4  11  23  41  67  99 127 170 216 271 326 384
#     4  10  22  43  65  95 131 174 215 267 323 388
#     4  11  23  42  64  97 132 172 220 269 321 385
#
# _framework density 25.826642
#
# number of rings (size 3 to 8) (size 9 to 14) (size 15 to 20)
#    0.000    1.600    1.333    2.400    0.000   10.667 
#    0.000    6.667    0.000    0.000    0.000    0.000 
#    0.000    0.000    0.000    0.000    0.000    0.000 
#
# Total GULP energy -83722.998423 kJ/mol
# GULP energy per Si atom -5581.533228 kJ/mol
# Density = 2.576786 g / cm^3
# Si number density = 25.826642 Si / 1000 Ang^3
#
#
#
# Elastic Constant Matrix: (Units=GPa)
#
#
# Indices 1 2 3 4 5 6 
#
# 1 118.1401 8.1124 33.9334 16.4038 -42.4332 -2.9990
# 2 8.1124 69.9098 15.6545 9.2199 14.7986 6.8458
# 3 33.9334 15.6545 120.1522 7.4210 -30.0943 0.2649
# 4 16.4038 9.2199 7.4210 39.3595 4.9258 0.6079
# 5 -42.4332 14.7986 -30.0943 4.9258 50.2715 6.6234
# 6 -2.9990 6.8458 0.2649 0.6079 6.6234 27.5621
#
#
#
# Elastic Compliance Matrix: (Units=1/GPa)
#
#
# Indices 1 2 3 4 5 6 
#
# 1 0.014917 -0.003947 0.000468 -0.007226 0.014848 -0.000810
# 2 -0.003947 0.018184 -0.003886 -0.000513 -0.010652 -0.002337
# 3 0.000468 -0.003886 0.010972 -0.002399 0.008484 -0.001075
# 4 -0.007226 -0.000513 -0.002399 0.030288 -0.010514 0.001223
# 5 0.014848 -0.010652 0.008484 -0.010514 0.042432 -0.005785
# 6 -0.000810 -0.002337 -0.001075 0.001223 -0.005785 0.038148
#
#
# Mechanical properties :
#
#
# Convention : Reuss Voigt Hill
#
# Bulk Modulus (GPa) = 34.07709 47.06697 40.57203
# Shear Modulus (GPa) = 27.86296 40.13872 34.00084
#
# Velocity S-wave (km/s) = 3.28814 3.94656 3.63230
# Velocity P-wave (km/s) = 5.25728 6.24747 5.77364
#
# Compressibility (1/GPa) = 0.02934523
#
# Stress axis : x y z
#
# Youngs Moduli (GPa) = 67.03820 54.99485 91.13803
#
# Poissons Ratio (x) = 0.21704 -0.04269
# Poissons Ratio (y) = 0.26457 0.35413
# Poissons Ratio (z) = -0.03140 0.21369
#
# Static dielectric constant tensor:
#      x y z
#    x 2.032530 -0.022420 -0.072720 
#    y -0.022420 1.988820 -0.041970 
#    z -0.072720 -0.041970 1.978500 
# 
# From -- ./inp_files/109677.got.cif
#   From: 2010.05.17/outbox.cif.g08.bks.cpg/sg2_55_cif.got.tgz:109677.got - 2010.06.03 11:33:40.
