data_PCOD9024712
_publ_section_title
;
Structure prediction by ZEFSAII (Michael W. Deem and Ramdas Pophale) SiO2 
 PCOD9024712
Probable space group: P -1
;
_chemical_formula_sum "Si O2"
_cell_formula_units_Z 16
_cell_length_a 9.664725
_cell_length_b 19.587398
_cell_length_c 5.113950
_cell_angle_alpha 70.256484
_cell_angle_beta 73.919001
_cell_angle_gamma 42.327337
_cell_volume 612.999590
_symmetry_space_group_name_H-M "P -1"
_symmetry_group_IT_number 2
_symmetry_cell_setting 'triclinic'
loop_
_space_group_symop_operation_xyz
x,y,z
-x,-y,-z
loop_
_atom_site_type_symbol
_atom_site_label
_atom_site_fract_x
_atom_site_fract_y
_atom_site_fract_z
Si Si1 0.997880 0.123262 0.825569
Si Si2 0.918329 0.719726 0.814858
Si Si3 0.599964 0.176105 0.905129
Si Si4 0.863765 0.457482 0.727839
Si Si5 0.738665 0.358999 0.637189
Si Si6 0.447772 0.149100 0.514049
Si Si7 0.664340 0.584703 0.183194
Si Si8 0.750279 0.929936 0.757496
O O1 0.833683 0.119513 0.866436
O O2 0.863513 0.242936 0.813713
O O3 0.117903 0.096679 0.532219
O O4 0.154151 0.060496 0.063881
O O5 0.787781 0.756590 0.569156
O O6 0.796157 0.827843 0.886119
O O7 0.937866 0.642289 0.085726
O O8 0.143395 0.660860 0.665917
O O9 0.527985 0.170593 0.674544
O O10 0.456779 0.297152 0.880703
O O11 0.563026 0.132818 0.211932
O O12 0.736049 0.545723 0.900907
O O13 0.769084 0.413519 0.750556
O O14 0.152452 0.492144 0.600434
O O15 0.506435 0.415445 0.660045
O O16 0.519750 0.041517 0.684857
#
# Coordination Sequence:
#
# PCOD9024712 Si02
#       8
#     2   2   2   2   2   2   2   2
#     4  10  22  41  69  99 133 161 212 278 328 374
#     4  11  26  43  66 100 136 165 219 265 324 388
#     4  11  26  47  64  96 134 174 219 265 312 387
#     4  12  22  40  67 102 126 169 206 272 334 379
#     4  10  22  40  66 100 134 162 204 277 330 382
#     4  12  27  45  68  89 133 185 216 258 318 389
#     4  11  25  40  69  98 130 164 217 266 331 376
#     4  11  23  43  70 100 126 165 217 278 330 374
#
# _framework density 26.101156
#
# number of rings (size 3 to 8) (size 9 to 14) (size 15 to 20)
#    0.000    1.000    2.500    3.375    3.500    5.000 
#    0.000    6.875    0.000    0.000    0.000    0.000 
#    0.000    0.000    0.000    0.000    0.000    0.000 
#
# Total GULP energy -89715.096673 kJ/mol
# GULP energy per Si atom -5607.193542 kJ/mol
# Density = 2.604175 g / cm^3
# Si number density = 26.101156 Si / 1000 Ang^3
#
#
#
# Elastic Constant Matrix: (Units=GPa)
#
#
# Indices 1 2 3 4 5 6 
#
# 1 103.7713 27.6912 34.6767 8.1012 13.6663 -2.2134
# 2 27.6912 125.8088 43.8198 -9.7270 17.4780 2.4708
# 3 34.6767 43.8198 123.7653 6.1249 33.9167 2.5026
# 4 8.1012 -9.7270 6.1249 54.5615 4.0218 5.3009
# 5 13.6663 17.4780 33.9167 4.0218 41.4076 8.5812
# 6 -2.2134 2.4708 2.5026 5.3009 8.5812 35.1028
#
#
#
# Elastic Compliance Matrix: (Units=1/GPa)
#
#
# Indices 1 2 3 4 5 6 
#
# 1 0.011143 -0.001701 -0.002076 -0.001774 -0.001415 0.001584
# 2 -0.001701 0.009648 -0.002650 0.002436 -0.001450 -0.000611
# 3 -0.002076 -0.002650 0.011834 -0.001028 -0.008067 0.001339
# 4 -0.001774 0.002436 -0.001028 0.019492 -0.000885 -0.002937
# 5 -0.001415 -0.001450 -0.008067 -0.000885 0.033469 -0.007460
# 6 0.001584 -0.000611 0.001339 -0.002937 -0.007460 0.030802
#
#
# Mechanical properties :
#
#
# Convention : Reuss Voigt Hill
#
# Bulk Modulus (GPa) = 50.58076 62.85785 56.71930
# Shear Modulus (GPa) = 36.80980 42.69157 39.75068
#
# Velocity S-wave (km/s) = 3.75944 4.04867 3.90673
# Velocity P-wave (km/s) = 6.18589 6.78161 6.49059
#
# Compressibility (1/GPa) = 0.01977037
#
# Stress axis : x y z
#
# Youngs Moduli (GPa) = 89.74258 103.64984 84.49982
#
# Poissons Ratio (x) = 0.17633 0.17544
# Poissons Ratio (y) = 0.15267 0.22393
# Poissons Ratio (z) = 0.18632 0.27467
#
# Static dielectric constant tensor:
#      x y z
#    x 2.059150 -0.021190 0.008070 
#    y -0.021190 2.104900 -0.056720 
#    z 0.008070 -0.056720 2.013330 
# 
# From -- ./inp_files/47428.got.cif
#   From: 2010.05.17/outbox.cif.g08.bks.cpg/sg2_24_cif.got.tgz:47428.got - 2010.06.03 11:33:40.
