data_PCOD9024822
_publ_section_title
;
Structure prediction by ZEFSAII (Michael W. Deem and Ramdas Pophale) SiO2 
 PCOD9024822
Probable space group: P -1
;
_chemical_formula_sum "Si O2"
_cell_formula_units_Z 14
_cell_length_a 7.182591
_cell_length_b 12.434560
_cell_length_c 10.066770
_cell_angle_alpha 120.219398
_cell_angle_beta 51.137746
_cell_angle_gamma 112.861539
_cell_volume 601.400503
_symmetry_space_group_name_H-M "P -1"
_symmetry_group_IT_number 2
_symmetry_cell_setting 'triclinic'
loop_
_space_group_symop_operation_xyz
x,y,z
-x,-y,-z
loop_
_atom_site_type_symbol
_atom_site_label
_atom_site_fract_x
_atom_site_fract_y
_atom_site_fract_z
Si Si1 0.444770 0.359121 0.974523
Si Si2 0.218254 0.840522 0.713350
Si Si3 0.034292 0.572841 0.668076
Si Si4 0.901218 0.022071 0.883735
Si Si5 0.552260 0.855813 0.329469
Si Si6 0.859026 0.113079 0.685035
Si Si7 0.958985 0.390216 0.839057
O O1 0.192884 0.350797 0.152377
O O2 0.500000 0.500000 0.000000
O O3 0.435293 0.289843 0.795566
O O4 0.673934 0.340329 0.948330
O O5 0.432819 0.879679 0.537784
O O6 0.231553 0.693355 0.644978
O O7 0.969506 0.879903 0.779946
O O8 0.214681 0.921163 0.899806
O O9 0.036449 0.468405 0.718375
O O10 0.000000 0.500000 0.500000
O O11 0.176590 0.087608 0.783846
O O12 0.768463 0.064121 0.839669
O O13 0.356381 0.878779 0.317814
O O14 0.031185 0.246994 0.706101
O O15 0.000000 0.000000 0.500000
O O16 0.000000 0.500000 0.000000
#
# Coordination Sequence:
#
# PCOD9024822 Si02
#       7
#     2   2   2   2   2   2   2
#     4   9  19  36  63  91 121 170 214 255 327 391
#     4  11  22  39  66  99 124 173 221 267 329 391
#     4  11  21  39  65  92 131 164 216 272 319 395
#     4  11  24  42  68  95 135 169 221 276 325 396
#     4  11  22  44  68  95 131 179 219 268 339 393
#     4  11  23  41  68 100 132 175 225 270 334 399
#     4  10  22  40  66  92 128 174 216 270 330 386
#
# _framework density 23.278994000000001
#
# number of rings (size 3 to 8) (size 9 to 14) (size 15 to 20)
#    0.000    1.429    2.857    3.857    2.000    0.000 
#    0.000    5.000    9.429    0.000    0.000    0.000 
#    0.000    0.000    0.000    0.000    0.000    0.000 
#
# Total GULP energy -77942.336895 kJ/mol
# GULP energy per Si atom -5567.309778 kJ/mol
# Density = 2.322601 g / cm^3
# Si number density = 23.278994 Si / 1000 Ang^3
#
#
#
# Elastic Constant Matrix: (Units=GPa)
#
#
# Indices 1 2 3 4 5 6 
#
# 1 39.0237 16.9353 33.5078 -6.6254 6.9580 10.8456
# 2 16.9353 164.7245 44.0081 7.0795 24.2645 -1.4573
# 3 33.5078 44.0081 182.6535 -3.3194 30.8592 0.3157
# 4 -6.6254 7.0795 -3.3194 53.4849 -1.4383 11.7348
# 5 6.9580 24.2645 30.8592 -1.4383 30.0447 0.0039
# 6 10.8456 -1.4573 0.3157 11.7348 0.0039 28.0332
#
#
#
# Elastic Compliance Matrix: (Units=1/GPa)
#
#
# Indices 1 2 3 4 5 6 
#
# 1 0.039064 -0.002919 -0.006304 0.009000 0.000218 -0.018961
# 2 -0.002919 0.007314 -0.000444 -0.002005 -0.004871 0.002354
# 3 -0.006304 -0.000444 0.007763 -0.001011 -0.006204 0.002752
# 4 0.009000 -0.002005 -0.001011 0.022952 0.001674 -0.013183
# 5 0.000218 -0.004871 -0.006204 0.001674 0.043619 -0.000974
# 6 -0.018961 0.002354 0.002752 -0.013183 -0.000974 0.048618
#
#
# Mechanical properties :
#
#
# Convention : Reuss Voigt Hill
#
# Bulk Modulus (GPa) = 28.72936 63.92268 46.32602
# Shear Modulus (GPa) = 24.96688 41.77594 33.37141
#
# Velocity S-wave (km/s) = 3.27847 4.24084 3.79032
# Velocity P-wave (km/s) = 5.16713 7.17625 6.25291
#
# Compressibility (1/GPa) = 0.03480759
#
# Stress axis : x y z
#
# Youngs Moduli (GPa) = 25.59928 136.72390 128.81130
#
# Poissons Ratio (x) = 0.39906 0.81197
# Poissons Ratio (y) = 0.07472 0.05724
# Poissons Ratio (z) = 0.16137 0.06075
#
# Static dielectric constant tensor:
#      x y z
#    x 2.016490 -0.354300 -0.097130 
#    y -0.354300 2.121630 0.244200 
#    z -0.097130 0.244200 1.950620 
# 
# From -- ./inp_files/181018.got.cif
#   From: 2010.05.17/outbox.cif.g08.bks.cpg/sg2_91_cif.got.tgz:181018.got - 2010.06.03 11:33:40.
