data_PCOD9024942
_publ_section_title
;
Structure prediction by ZEFSAII (Michael W. Deem and Ramdas Pophale) SiO2 
 PCOD9024942
Probable space group: P -1
;
_chemical_formula_sum "Si O2"
_cell_formula_units_Z 13
_cell_length_a 13.827904
_cell_length_b 6.308013
_cell_length_c 7.140065
_cell_angle_alpha 102.250322
_cell_angle_beta 62.607748
_cell_angle_gamma 97.206425
_cell_volume 540.104196
_symmetry_space_group_name_H-M "P -1"
_symmetry_group_IT_number 2
_symmetry_cell_setting 'triclinic'
loop_
_space_group_symop_operation_xyz
x,y,z
-x,-y,-z
loop_
_atom_site_type_symbol
_atom_site_label
_atom_site_fract_x
_atom_site_fract_y
_atom_site_fract_z
Si Si1 0.258479 0.538271 0.431659
Si Si2 0.151670 0.060887 0.032327
Si Si3 0.500000 0.000000 0.000000
Si Si4 0.479601 0.782391 0.360188
Si Si5 0.961306 0.333033 0.165770
Si Si6 0.691275 0.647232 0.299285
Si Si7 0.719239 0.268343 0.951467
O O1 0.353588 0.707278 0.452710
O O2 0.134506 0.574445 0.606069
O O3 0.293639 0.329330 0.485276
O O4 0.266408 0.571896 0.209417
O O5 0.247694 0.164139 0.836547
O O6 0.090926 0.876405 0.929809
O O7 0.064501 0.247787 0.174415
O O8 0.199545 0.932993 0.142688
O O9 0.512231 0.827075 0.126898
O O10 0.399571 0.844655 0.971365
O O11 0.433136 0.371350 0.656484
O O12 0.500000 0.000000 0.500000
O O13 0.000000 0.500000 0.000000
O O14 0.739522 0.422746 0.141249
#
# Coordination Sequence:
#
# PCOD9024942 Si02
#       7
#     2   2   1   2   2   2   2
#     4  11  24  41  66 102 130 176 232 271 329 415
#     4  11  22  43  73  94 131 185 217 280 345 392
#     4  10  22  40  66  96 140 178 216 272 330 406
#     4  11  23  40  68 100 134 177 225 272 339 407
#     4  11  22  44  74  96 132 181 228 279 342 391
#     4  12  23  45  69  97 142 179 217 285 343 391
#     4  11  24  44  65 103 139 177 227 274 340 399
#
# _framework density 24.069430000000001
#
# number of rings (size 3 to 8) (size 9 to 14) (size 15 to 20)
#    0.000    0.923    4.615    2.308    0.000    4.308 
#    2.769    3.077    0.000    0.000    0.000    0.000 
#    0.000    0.000    0.000    0.000    0.000    0.000 
#
# Total GULP energy -72379.874605 kJ/mol
# GULP energy per Si atom -5567.682662 kJ/mol
# Density = 2.401465 g / cm^3
# Si number density = 24.069430 Si / 1000 Ang^3
#
#
#
# Elastic Constant Matrix: (Units=GPa)
#
#
# Indices 1 2 3 4 5 6 
#
# 1 111.4428 37.5077 28.1122 -9.0778 7.1129 -18.6278
# 2 37.5077 62.5111 25.4186 -23.2743 -7.9199 -3.7942
# 3 28.1122 25.4186 89.4830 -45.6956 1.9817 -10.1582
# 4 -9.0778 -23.2743 -45.6956 35.9097 -2.4907 0.1792
# 5 7.1129 -7.9199 1.9817 -2.4907 38.2960 -15.7217
# 6 -18.6278 -3.7942 -10.1582 0.1792 -15.7217 57.2811
#
#
#
# Elastic Compliance Matrix: (Units=1/GPa)
#
#
# Indices 1 2 3 4 5 6 
#
# 1 0.014238 -0.011240 -0.008925 -0.015403 -0.005121 0.000946
# 2 -0.011240 0.032323 0.011915 0.034078 0.011917 0.003763
# 3 -0.008925 0.011915 0.040899 0.058085 0.008812 0.007376
# 4 -0.015403 0.034078 0.058085 0.121278 0.019986 0.012655
# 5 -0.005121 0.011917 0.008812 0.019986 0.034517 0.010098
# 6 0.000946 0.003763 0.007376 0.012655 0.010098 0.022055
#
#
# Mechanical properties :
#
#
# Convention : Reuss Voigt Hill
#
# Bulk Modulus (GPa) = 14.09260 49.50156 31.79708
# Shear Modulus (GPa) = 16.36860 37.79057 27.07959
#
# Velocity S-wave (km/s) = 2.61062 3.96670 3.35783
# Velocity P-wave (km/s) = 3.86715 6.44907 5.31720
#
# Compressibility (1/GPa) = 0.07095924
#
# Stress axis : x y z
#
# Youngs Moduli (GPa) = 70.23510 30.93801 24.45065
#
# Poissons Ratio (x) = 0.34775 0.21823
# Poissons Ratio (y) = 0.78945 -0.29134
# Poissons Ratio (z) = 0.62687 -0.36864
#
# Static dielectric constant tensor:
#      x y z
#    x 2.051050 -0.119870 -0.062440 
#    y -0.119870 1.977410 0.046050 
#    z -0.062440 0.046050 1.966190 
# 
# From -- ./inp_files/287076.got.cif
#   From: 2010.05.17/outbox.cif.g08.bks.cpg/sg2_144_cif.got.tgz:287076.got - 2010.06.03 11:33:40.
