data_PCOD9024369
_publ_section_title
;
Structure prediction by ZEFSAII (Michael W. Deem and Ramdas Pophale) SiO2 
 PCOD9024369
Probable space group: P -1
;
_chemical_formula_sum "Si O2"
_cell_formula_units_Z 13
_cell_length_a 10.389394
_cell_length_b 15.190201
_cell_length_c 13.314372
_cell_angle_alpha 27.968118
_cell_angle_beta 143.511317
_cell_angle_gamma 132.151200
_cell_volume 580.249412
_symmetry_space_group_name_H-M "P -1"
_symmetry_group_IT_number 2
_symmetry_cell_setting 'triclinic'
loop_
_space_group_symop_operation_xyz
x,y,z
-x,-y,-z
loop_
_atom_site_type_symbol
_atom_site_label
_atom_site_fract_x
_atom_site_fract_y
_atom_site_fract_z
Si Si1 0.550774 0.749361 0.188576
Si Si2 0.301425 0.126557 0.300627
Si Si3 0.485174 0.322154 0.532587
Si Si4 0.769870 0.945716 0.442339
Si Si5 0.500000 0.500000 0.000000
Si Si6 0.935902 0.242526 0.802012
Si Si7 0.986664 0.326743 0.529046
O O1 0.492737 0.545725 0.319780
O O2 0.484859 0.760195 0.252987
O O3 0.811299 0.748592 0.340221
O O4 0.415834 0.908661 0.875646
O O5 0.257735 0.053306 0.456959
O O6 0.500000 0.000000 0.500000
O O7 0.368638 0.337449 0.131657
O O8 0.091671 0.127513 0.096390
O O9 0.266327 0.261228 0.411808
O O10 0.683570 0.234140 0.674339
O O11 0.000000 0.000000 0.500000
O O12 0.261429 0.642557 0.695534
O O13 0.001466 0.210202 0.760196
O O14 0.966030 0.461767 0.623127
#
# Coordination Sequence:
#
# PCOD9024369 Si02
#       7
#     2   2   2   2   1   2   2
#     4  10  22  42  66  92 125 171 219 257 319 393
#     4  11  24  40  62  93 128 169 217 264 315 382
#     4  10  22  42  65  88 124 174 215 263 321 381
#     4  12  26  41  62  97 135 169 213 271 323 378
#     4  10  22  40  64  94 126 158 210 272 324 370
#     4   9  18  37  60  86 122 162 207 256 315 375
#     4   9  18  35  63  90 117 157 205 262 315 374
#
# _framework density 22.404159
#
# number of rings (size 3 to 8) (size 9 to 14) (size 15 to 20)
#    0.000    1.846    0.000    3.231    0.000    8.000 
#    0.000    3.077    0.000    0.000    0.000    0.000 
#    0.000    0.000    0.000    0.000    0.000    0.000 
#
# Total GULP energy -72443.159248 kJ/mol
# GULP energy per Si atom -5572.550711 kJ/mol
# Density = 2.235317 g / cm^3
# Si number density = 22.404159 Si / 1000 Ang^3
#
#
#
# Elastic Constant Matrix: (Units=GPa)
#
#
# Indices 1 2 3 4 5 6 
#
# 1 126.2777 41.9465 25.6879 -0.3457 -16.1443 15.7433
# 2 41.9465 95.7511 17.1993 6.3875 -2.2832 28.2463
# 3 25.6879 17.1993 95.2618 3.8362 -12.4645 1.2087
# 4 -0.3457 6.3875 3.8362 23.2764 13.1816 3.7341
# 5 -16.1443 -2.2832 -12.4645 13.1816 30.7235 10.9607
# 6 15.7433 28.2463 1.2087 3.7341 10.9607 35.8735
#
#
#
# Elastic Compliance Matrix: (Units=1/GPa)
#
#
# Indices 1 2 3 4 5 6 
#
# 1 0.010595 -0.002763 -0.001224 -0.002410 0.007495 -0.004472
# 2 -0.002763 0.016164 -0.000918 -0.005954 0.006518 -0.012856
# 3 -0.001224 -0.000918 0.012113 -0.005508 0.006799 -0.000653
# 4 -0.002410 -0.005954 -0.005508 0.063557 -0.034756 0.009935
# 5 0.007495 0.006518 0.006799 -0.034756 0.063341 -0.024386
# 6 -0.004472 -0.012856 -0.000653 0.009935 -0.024386 0.046399
#
#
# Mechanical properties :
#
#
# Convention : Reuss Voigt Hill
#
# Bulk Modulus (GPa) = 34.40777 54.10644 44.25710
# Shear Modulus (GPa) = 21.58295 33.47180 27.52737
#
# Velocity S-wave (km/s) = 3.10715 3.86942 3.50905
# Velocity P-wave (km/s) = 5.31635 6.64574 6.01787
#
# Compressibility (1/GPa) = 0.02906320
#
# Stress axis : x y z
#
# Youngs Moduli (GPa) = 94.38523 61.86614 82.55770
#
# Poissons Ratio (x) = 0.17093 0.10103
# Poissons Ratio (y) = 0.26077 0.07575
# Poissons Ratio (z) = 0.11550 0.05677
#
# Static dielectric constant tensor:
#      x y z
#    x 1.769410 -0.006260 0.011570 
#    y -0.006260 1.881600 -0.049100 
#    z 0.011570 -0.049100 1.803450 
# 
# From -- ./inp_files/398332.got.cif
#   From: 2010.05.17/outbox.cif.g08.bks.cpg/sg2_200_cif.got.tgz:398332.got - 2010.06.03 11:33:40.
