data_PCOD9024362
_publ_section_title
;
Structure prediction by ZEFSAII (Michael W. Deem and Ramdas Pophale) SiO2 
 PCOD9024362
Probable space group: P -1
;
_chemical_formula_sum "Si O2"
_cell_formula_units_Z 14
_cell_length_a 9.272215
_cell_length_b 27.017210
_cell_length_c 6.097603
_cell_angle_alpha 65.547691
_cell_angle_beta 124.301928
_cell_angle_gamma 149.634450
_cell_volume 628.244626
_symmetry_space_group_name_H-M "P -1"
_symmetry_group_IT_number 2
_symmetry_cell_setting 'triclinic'
loop_
_space_group_symop_operation_xyz
x,y,z
-x,-y,-z
loop_
_atom_site_type_symbol
_atom_site_label
_atom_site_fract_x
_atom_site_fract_y
_atom_site_fract_z
Si Si1 0.893677 0.058477 0.825663
Si Si2 0.236260 0.327343 0.532977
Si Si3 0.106302 0.549168 0.251805
Si Si4 0.818309 0.134773 0.317976
Si Si5 0.748093 0.923184 0.616395
Si Si6 0.813020 0.591312 0.953545
Si Si7 0.052232 0.754522 0.131225
O O1 0.979455 0.129948 0.608041
O O2 0.553822 0.978856 0.801572
O O3 0.810601 0.986476 0.729755
O O4 0.163949 0.110519 0.129364
O O5 0.519481 0.368383 0.585656
O O6 0.906008 0.212517 0.384332
O O7 0.232718 0.320296 0.802136
O O8 0.260882 0.396478 0.358824
O O9 0.000000 0.500000 0.500000
O O10 0.004740 0.585777 0.098961
O O11 0.000000 0.500000 0.000000
O O12 0.937373 0.184504 0.092187
O O13 0.396927 0.835523 0.383033
O O14 0.000000 0.000000 0.500000
O O15 0.002569 0.688739 0.060421
O O16 0.500000 0.500000 0.000000
#
# Coordination Sequence:
#
# PCOD9024362 Si02
#       7
#     2   2   2   2   2   2   2
#     4  10  22  40  64  93 140 185 235 292 362 423
#     4  11  25  45  72 105 144 185 245 304 366 443
#     4  12  28  49  77 112 146 190 247 305 378 458
#     4  10  22  42  64  96 137 184 237 295 355 432
#     4  11  22  39  64  99 136 185 238 296 355 434
#     4  11  25  48  76 102 143 189 237 307 376 443
#     4  11  24  42  72 103 142 188 248 300 369 437
#
# _framework density 22.284312
#
# number of rings (size 3 to 8) (size 9 to 14) (size 15 to 20)
#    0.000    1.143    4.286    0.857    4.000    5.143 
#    0.000    0.000    0.000    0.000    0.000    0.000 
#    0.000    0.000    0.000    0.000    0.000    0.000 
#
# Total GULP energy -78075.735815 kJ/mol
# GULP energy per Si atom -5576.838273 kJ/mol
# Density = 2.223359 g / cm^3
# Si number density = 22.284312 Si / 1000 Ang^3
#
#
#
# Elastic Constant Matrix: (Units=GPa)
#
#
# Indices 1 2 3 4 5 6 
#
# 1 97.3409 47.3224 33.7985 -38.1396 9.3226 13.8300
# 2 47.3224 104.5298 77.5002 -31.7856 10.8357 1.1370
# 3 33.7985 77.5002 135.3139 -59.9124 12.1499 5.5435
# 4 -38.1396 -31.7856 -59.9124 50.4510 -18.9024 -1.3056
# 5 9.3226 10.8357 12.1499 -18.9024 36.0254 -7.9622
# 6 13.8300 1.1370 5.5435 -1.3056 -7.9622 37.6824
#
#
#
# Elastic Compliance Matrix: (Units=1/GPa)
#
#
# Indices 1 2 3 4 5 6 
#
# 1 0.022954 -0.012466 0.013270 0.027274 0.005919 -0.007805
# 2 -0.012466 0.023768 -0.018273 -0.018441 -0.006431 0.004548
# 3 0.013270 -0.018273 0.031413 0.039909 0.011264 -0.005177
# 4 0.027274 -0.018441 0.039909 0.087056 0.029358 -0.006105
# 5 0.005919 -0.006431 0.011264 0.029358 0.041107 0.006068
# 6 -0.007805 0.004548 -0.005177 -0.006105 0.006068 0.031097
#
#
# Mechanical properties :
#
#
# Convention : Reuss Voigt Hill
#
# Bulk Modulus (GPa) = 23.14977 72.71409 47.93193
# Shear Modulus (GPa) = 17.43797 36.73598 27.08697
#
# Velocity S-wave (km/s) = 2.80039 4.06459 3.49021
# Velocity P-wave (km/s) = 4.56806 7.39790 6.14801
#
# Compressibility (1/GPa) = 0.04319697
#
# Stress axis : x y z
#
# Youngs Moduli (GPa) = 43.56557 42.07392 31.83431
#
# Poissons Ratio (x) = 0.52449 -0.42245
# Poissons Ratio (y) = 0.54308 0.58172
# Poissons Ratio (z) = -0.57813 0.76883
#
# Static dielectric constant tensor:
#      x y z
#    x 1.839850 0.026110 -0.059330 
#    y 0.026110 1.813300 -0.015720 
#    z -0.059330 -0.015720 1.953760 
# 
# From -- ./inp_files/56376.got.cif
#   From: 2010.05.17/outbox.cif.g08.bks.cpg/sg2_29_cif.got.tgz:56376.got - 2010.06.03 11:33:40.
