data_PCOD9024008
_publ_section_title
;
Structure prediction by ZEFSAII (Michael W. Deem and Ramdas Pophale) SiO2 
 PCOD9024008
Probable space group: P -1
;
_chemical_formula_sum "Si O2"
_cell_formula_units_Z 12
_cell_length_a 11.658639
_cell_length_b 10.438741
_cell_length_c 5.421084
_cell_angle_alpha 63.785409
_cell_angle_beta 60.550265
_cell_angle_gamma 72.638577
_cell_volume 512.622568
_symmetry_space_group_name_H-M "P -1"
_symmetry_group_IT_number 2
_symmetry_cell_setting 'triclinic'
loop_
_space_group_symop_operation_xyz
x,y,z
-x,-y,-z
loop_
_atom_site_type_symbol
_atom_site_label
_atom_site_fract_x
_atom_site_fract_y
_atom_site_fract_z
Si Si1 0.868766 0.887944 0.481501
Si Si2 0.286854 0.451066 0.354111
Si Si3 0.985889 0.195555 0.104095
Si Si4 0.581006 0.016917 0.649893
Si Si5 0.791033 0.485329 0.113961
Si Si6 0.582822 0.336859 0.251829
O O1 0.923116 0.816880 0.738158
O O2 0.710928 0.906024 0.614026
O O3 0.935380 0.818220 0.224442
O O4 0.908872 0.052365 0.311096
O O5 0.196004 0.448075 0.690289
O O6 0.428734 0.361238 0.323446
O O7 0.210212 0.419975 0.211226
O O8 0.330277 0.612625 0.113971
O O9 0.888557 0.341671 0.099302
O O10 0.500000 0.000000 0.500000
O O11 0.617318 0.178936 0.448680
O O12 0.500000 0.000000 0.000000
O O13 0.638660 0.442945 0.302720
#
# Coordination Sequence:
#
# PCOD9024008 Si02
#       6
#     2   2   2   2   2   2
#     4  10  20  36  49  81 105 147 189 215 277 321
#     4   9  19  30  57  79 116 135 172 246 280 324
#     4  10  19  31  59  76 111 137 173 248 274 317
#     4  12  26  38  56  79 118 162 182 215 263 343
#     4  10  17  31  52  88 106 135 167 229 302 319
#     4   9  21  34  53  80 117 138 189 221 280 330
#
# _framework density 23.409033999999998
#
# number of rings (size 3 to 8) (size 9 to 14) (size 15 to 20)
#    1.000    1.000    1.667    2.500    2.333    1.333 
#    0.000    0.000    0.000    0.000    0.000   23.333 
#    0.000    0.000    0.000    0.000    0.000    0.000 
#
# Total GULP energy -67033.184273 kJ/mol
# GULP energy per Si atom -5586.098689 kJ/mol
# Density = 2.335575 g / cm^3
# Si number density = 23.409034 Si / 1000 Ang^3
#
#
#
# Elastic Constant Matrix: (Units=GPa)
#
#
# Indices 1 2 3 4 5 6 
#
# 1 160.4031 56.4622 72.3699 26.7681 32.8135 -19.9495
# 2 56.4622 77.1277 67.5012 3.1818 14.7352 -21.5393
# 3 72.3699 67.5012 154.1690 18.6191 31.6805 -7.0159
# 4 26.7681 3.1818 18.6191 42.5685 6.4677 3.1392
# 5 32.8135 14.7352 31.6805 6.4677 43.5823 2.7057
# 6 -19.9495 -21.5393 -7.0159 3.1392 2.7057 48.0294
#
#
#
# Elastic Compliance Matrix: (Units=1/GPa)
#
#
# Indices 1 2 3 4 5 6 
#
# 1 0.010714 -0.005006 -0.001045 -0.005346 -0.004988 0.002683
# 2 -0.005006 0.027379 -0.009932 0.004749 0.000506 0.008409
# 3 -0.001045 -0.009932 0.012475 -0.003213 -0.004284 -0.002614
# 4 -0.005346 0.004749 -0.003213 0.027968 0.000756 -0.002431
# 5 -0.004988 0.000506 -0.004284 0.000756 0.029792 -0.004199
# 6 0.002683 0.008409 -0.002614 -0.002431 -0.004199 0.025720
#
#
# Mechanical properties :
#
#
# Convention : Reuss Voigt Hill
#
# Bulk Modulus (GPa) = 53.75912 87.15182 70.45547
# Shear Modulus (GPa) = 29.03338 39.86049 34.44693
#
# Velocity S-wave (km/s) = 3.52556 4.13095 3.84021
# Velocity P-wave (km/s) = 6.29188 7.75009 7.05874
#
# Compressibility (1/GPa) = 0.01860150
#
# Stress axis : x y z
#
# Youngs Moduli (GPa) = 93.33515 36.52438 80.16007
#
# Poissons Ratio (x) = 0.18285 0.08374
# Poissons Ratio (y) = 0.46727 0.79617
# Poissons Ratio (z) = 0.09751 0.36277
#
# Static dielectric constant tensor:
#      x y z
#    x 1.902420 0.061560 0.000670 
#    y 0.061560 1.875800 -0.022000 
#    z 0.000670 -0.022000 1.866190 
# 
# From -- ./inp_files/63992.got.cif
#   From: 2010.05.17/outbox.cif.g08.bks.cpg/sg2_32_cif.got.tgz:63992.got - 2010.06.03 11:33:40.
