data_PCOD9024157
_publ_section_title
;
Structure prediction by ZEFSAII (Michael W. Deem and Ramdas Pophale) SiO2 
 PCOD9024157
Probable space group: P -1
;
_chemical_formula_sum "Si O2"
_cell_formula_units_Z 14
_cell_length_a 14.491239
_cell_length_b 6.474750
_cell_length_c 8.559304
_cell_angle_alpha 57.042992
_cell_angle_beta 93.496984
_cell_angle_gamma 117.082611
_cell_volume 580.939377
_symmetry_space_group_name_H-M "P -1"
_symmetry_group_IT_number 2
_symmetry_cell_setting 'triclinic'
loop_
_space_group_symop_operation_xyz
x,y,z
-x,-y,-z
loop_
_atom_site_type_symbol
_atom_site_label
_atom_site_fract_x
_atom_site_fract_y
_atom_site_fract_z
Si Si1 0.899817 0.323975 0.943348
Si Si2 0.028863 0.319019 0.696752
Si Si3 0.599087 0.221516 0.769776
Si Si4 0.795774 0.158355 0.315957
Si Si5 0.413930 0.820503 0.691229
Si Si6 0.450804 0.341321 0.896878
Si Si7 0.832671 0.672345 0.560098
O O1 0.873208 0.538623 0.753957
O O2 0.931183 0.168144 0.874049
O O3 0.811491 0.143344 0.138073
O O4 0.000000 0.500000 0.000000
O O5 0.122903 0.535785 0.730059
O O6 0.083278 0.206504 0.625557
O O7 0.000000 0.500000 0.500000
O O8 0.554541 0.403777 0.778145
O O9 0.710024 0.425046 0.608892
O O10 0.488154 0.979219 0.782045
O O11 0.621671 0.999191 0.958048
O O12 0.681050 0.117616 0.347970
O O13 0.819226 0.936215 0.500115
O O14 0.384782 0.498267 0.785032
O O15 0.500000 0.000000 0.500000
O O16 0.500000 0.500000 0.000000
#
# Coordination Sequence:
#
# PCOD9024157 Si02
#       7
#     2   2   2   2   2   2   2
#     4   9  22  43  65  94 128 164 220 274 331 389
#     4   9  21  44  65  93 128 165 221 270 332 396
#     4  10  22  40  63  95 129 176 216 260 323 386
#     4  11  24  41  67  98 132 176 216 269 336 384
#     4  11  23  40  62  96 138 170 217 266 321 393
#     4   9  21  39  61  85 133 171 212 263 311 370
#     4  11  23  41  69  94 135 172 217 269 330 399
#
# _framework density 24.0989
#
# number of rings (size 3 to 8) (size 9 to 14) (size 15 to 20)
#    0.000    2.000    0.000    1.714    6.000   10.286 
#    0.000    2.857    0.000    0.000    0.000    0.000 
#    0.000    0.000    0.000    0.000    0.000    0.000 
#
# Total GULP energy -77959.315214 kJ/mol
# GULP energy per Si atom -5568.522515 kJ/mol
# Density = 2.404405 g / cm^3
# Si number density = 24.098900 Si / 1000 Ang^3
#
#
#
# Elastic Constant Matrix: (Units=GPa)
#
#
# Indices 1 2 3 4 5 6 
#
# 1 152.5068 39.6049 36.3685 3.3383 2.5560 -35.4167
# 2 39.6049 58.8576 18.1372 -0.2712 9.7528 -20.0900
# 3 36.3685 18.1372 68.0214 9.6460 -2.3260 -23.3168
# 4 3.3383 -0.2712 9.6460 30.4719 -4.3857 5.6243
# 5 2.5560 9.7528 -2.3260 -4.3857 45.4750 2.5117
# 6 -35.4167 -20.0900 -23.3168 5.6243 2.5117 44.4811
#
#
#
# Elastic Compliance Matrix: (Units=1/GPa)
#
#
# Indices 1 2 3 4 5 6 
#
# 1 0.009179 -0.003940 -0.002115 -0.001240 -0.000152 0.004586
# 2 -0.003940 0.023448 -0.001852 -0.000817 -0.005361 0.006888
# 3 -0.002115 -0.001852 0.020660 -0.008001 0.000287 0.009305
# 4 -0.001240 -0.000817 -0.008001 0.038021 0.004087 -0.010588
# 5 -0.000152 -0.005361 0.000287 0.004087 0.023792 -0.004252
# 6 0.004586 0.006888 0.009305 -0.010588 -0.004252 0.035701
#
#
# Mechanical properties :
#
#
# Convention : Reuss Voigt Hill
#
# Bulk Modulus (GPa) = 26.68539 51.95631 39.32085
# Shear Modulus (GPa) = 27.91657 36.43729 32.17693
#
# Velocity S-wave (km/s) = 3.40724 3.89265 3.65801
# Velocity P-wave (km/s) = 5.15523 6.46607 5.84750
#
# Compressibility (1/GPa) = 0.03747369
#
# Stress axis : x y z
#
# Youngs Moduli (GPa) = 108.94094 42.64763 48.40342
#
# Poissons Ratio (x) = 0.16804 0.10235
# Poissons Ratio (y) = 0.42926 0.08963
# Poissons Ratio (z) = 0.23037 0.07897
#
# Static dielectric constant tensor:
#      x y z
#    x 2.023940 -0.216250 0.044580 
#    y -0.216250 1.403500 -0.175430 
#    z 0.044580 -0.175430 1.977480 
# 
# From -- ./inp_files/288373.got.cif
#   From: 2010.05.17/outbox.cif.g08.bks.cpg/sg2_145_cif.got.tgz:288373.got - 2010.06.03 11:33:40.
