data_PCOD9024614
_publ_section_title
;
Structure prediction by ZEFSAII (Michael W. Deem and Ramdas Pophale) SiO2 
 PCOD9024614
Probable space group: P -1
;
_chemical_formula_sum "Si O2"
_cell_formula_units_Z 16
_cell_length_a 8.885815
_cell_length_b 15.336229
_cell_length_c 9.829761
_cell_angle_alpha 92.172558
_cell_angle_beta 70.145042
_cell_angle_gamma 40.255497
_cell_volume 710.246627
_symmetry_space_group_name_H-M "P -1"
_symmetry_group_IT_number 2
_symmetry_cell_setting 'triclinic'
loop_
_space_group_symop_operation_xyz
x,y,z
-x,-y,-z
loop_
_atom_site_type_symbol
_atom_site_label
_atom_site_fract_x
_atom_site_fract_y
_atom_site_fract_z
Si Si1 0.330684 0.244494 0.612306
Si Si2 0.307304 0.867991 0.066015
Si Si3 0.060963 0.698874 0.455472
Si Si4 0.964844 0.934928 0.404991
Si Si5 0.195779 0.473124 0.534457
Si Si6 0.227828 0.796996 0.822745
Si Si7 0.638763 0.435862 0.103650
Si Si8 0.138340 0.343873 0.968605
O O1 0.237190 0.388550 0.641464
O O2 0.308170 0.234053 0.776825
O O3 0.123933 0.274441 0.593560
O O4 0.648051 0.087752 0.451078
O O5 0.621156 0.757905 0.997550
O O6 0.200421 0.843219 0.208263
O O7 0.304879 0.837701 0.909079
O O8 0.059381 0.051654 0.158484
O O9 0.074809 0.626580 0.577590
O O10 0.378805 0.559771 0.293663
O O11 0.971167 0.840375 0.479429
O O12 0.000000 0.000000 0.500000
O O13 0.509148 0.335783 0.365421
O O14 0.000000 0.500000 0.500000
O O15 0.204345 0.724990 0.923664
O O16 0.500000 0.500000 0.000000
O O17 0.868323 0.404301 0.065003
O O18 0.000000 0.500000 0.000000
#
# Coordination Sequence:
#
# PCOD9024614 Si02
#       8
#     2   2   2   2   2   2   2   2
#     4  11  22  41  67  93 129 171 215 267 325 391
#     4  11  24  41  64  94 133 175 216 267 337 382
#     4  10  22  40  65  95 123 171 223 264 319 391
#     4  12  23  41  63  94 132 168 211 269 332 387
#     4   9  20  39  66  97 125 164 223 269 315 386
#     4  10  22  43  68  92 128 176 220 268 324 399
#     4  11  21  40  67  91 126 167 222 268 316 392
#     4  12  25  39  64  98 131 168 216 274 327 385
#
# _framework density 22.527387999999998
#
# number of rings (size 3 to 8) (size 9 to 14) (size 15 to 20)
#    0.000    1.250    3.750    2.625    3.500    0.500 
#    0.000    1.875    0.000    0.000    0.000    0.000 
#    0.000    0.000    0.000    0.000    0.000    0.000 
#
# Total GULP energy -89315.284218 kJ/mol
# GULP energy per Si atom -5582.205264 kJ/mol
# Density = 2.247611 g / cm^3
# Si number density = 22.527388 Si / 1000 Ang^3
#
#
#
# Elastic Constant Matrix: (Units=GPa)
#
#
# Indices 1 2 3 4 5 6 
#
# 1 105.2135 71.0253 26.7946 -3.6669 -31.6034 -9.9399
# 2 71.0253 157.9704 4.9431 -2.2065 -23.9094 9.8140
# 3 26.7946 4.9431 45.1890 -0.5107 -13.4241 -7.1920
# 4 -3.6669 -2.2065 -0.5107 21.6500 -0.4878 -15.1674
# 5 -31.6034 -23.9094 -13.4241 -0.4878 35.8796 7.4170
# 6 -9.9399 9.8140 -7.1920 -15.1674 7.4170 46.8874
#
#
#
# Elastic Compliance Matrix: (Units=1/GPa)
#
#
# Indices 1 2 3 4 5 6 
#
# 1 0.019882 -0.007649 -0.007472 0.006367 0.008596 0.005370
# 2 -0.007649 0.010254 0.003293 -0.003437 0.002259 -0.004732
# 3 -0.007472 0.003293 0.028177 0.000842 0.005879 0.001391
# 4 0.006367 -0.003437 0.000842 0.062702 -0.000167 0.022508
# 5 0.008596 0.002259 0.005879 -0.000167 0.039999 -0.004130
# 6 0.005370 -0.004732 0.001391 0.022508 -0.004130 0.031604
#
#
# Mechanical properties :
#
#
# Convention : Reuss Voigt Hill
#
# Bulk Modulus (GPa) = 28.85412 57.09989 42.97701
# Shear Modulus (GPa) = 21.94639 34.59074 28.26857
#
# Velocity S-wave (km/s) = 3.12462 3.92279 3.54623
# Velocity P-wave (km/s) = 5.08468 6.77640 5.99056
#
# Compressibility (1/GPa) = 0.03465709
#
# Stress axis : x y z
#
# Youngs Moduli (GPa) = 50.29589 97.52020 35.48999
#
# Poissons Ratio (x) = 0.74594 0.26519
# Poissons Ratio (y) = 0.38472 -0.11687
# Poissons Ratio (z) = 0.37582 -0.32113
#
# Static dielectric constant tensor:
#      x y z
#    x 1.978730 0.134740 0.008080 
#    y 0.134740 1.818170 -0.086190 
#    z 0.008080 -0.086190 1.852350 
# 
# From -- ./inp_files/399044.got.cif
#   From: 2010.05.17/outbox.cif.g08.bks.cpg/sg2_200_cif.got.tgz:399044.got - 2010.06.03 11:33:40.
