data_PCOD9024124
_publ_section_title
;
Structure prediction by ZEFSAII (Michael W. Deem and Ramdas Pophale) SiO2 
 PCOD9024124
Probable space group: P -1
;
_chemical_formula_sum "Si O2"
_cell_formula_units_Z 16
_cell_length_a 12.196815
_cell_length_b 15.269574
_cell_length_c 9.167891
_cell_angle_alpha 99.868504
_cell_angle_beta 88.380081
_cell_angle_gamma 27.591318
_cell_volume 715.814275
_symmetry_space_group_name_H-M "P -1"
_symmetry_group_IT_number 2
_symmetry_cell_setting 'triclinic'
loop_
_space_group_symop_operation_xyz
x,y,z
-x,-y,-z
loop_
_atom_site_type_symbol
_atom_site_label
_atom_site_fract_x
_atom_site_fract_y
_atom_site_fract_z
Si Si1 0.322550 0.993877 0.707178
Si Si2 0.105216 0.183171 0.456330
Si Si3 0.995640 0.752350 0.926099
Si Si4 0.235723 0.886213 0.020516
Si Si5 0.156970 0.804543 0.509702
Si Si6 0.516163 0.658842 0.652987
Si Si7 0.316840 0.141946 0.189228
Si Si8 0.559906 0.390729 0.834969
O O1 0.373845 0.851732 0.654863
O O2 0.580339 0.847182 0.728050
O O3 0.242016 0.088575 0.580530
O O4 0.092546 0.184682 0.884017
O O5 0.298620 0.082486 0.301772
O O6 0.023452 0.141955 0.414883
O O7 0.820394 0.437442 0.544096
O O8 0.835811 0.956948 0.935960
O O9 0.945390 0.694157 0.835314
O O10 0.289076 0.557967 0.832568
O O11 0.460909 0.703940 0.841417
O O12 0.300113 0.795163 0.146958
O O13 0.000000 0.000000 0.000000
O O14 0.360230 0.693655 0.587742
O O15 0.296263 0.666849 0.318366
O O16 0.000000 0.000000 0.500000
O O17 0.500000 0.000000 0.000000
O O18 0.500000 0.500000 0.000000
#
# Coordination Sequence:
#
# PCOD9024124 Si02
#       8
#     2   2   2   2   2   2   2   2
#     4  10  22  45  66  94 128 170 226 273 320 383
#     4  12  24  41  69  92 131 174 211 270 339 384
#     4  10  22  40  63  93 130 171 216 265 319 380
#     4  11  22  35  63  92 136 175 210 253 317 389
#     4  12  25  41  63 102 143 169 213 268 329 404
#     4  11  24  41  64 103 133 171 218 267 330 399
#     4  10  24  45  69  91 123 173 227 277 325 383
#     4  12  23  39  62  95 136 176 213 257 319 401
#
# _framework density 22.352164999999999
#
# number of rings (size 3 to 8) (size 9 to 14) (size 15 to 20)
#    0.000    1.000    2.500    4.500    3.500    0.500 
#    0.000    1.250    0.000    6.750    0.000    0.000 
#    0.000    0.000    0.000    0.000    0.000    0.000 
#
# Total GULP energy -89312.075884 kJ/mol
# GULP energy per Si atom -5582.004743 kJ/mol
# Density = 2.230129 g / cm^3
# Si number density = 22.352165 Si / 1000 Ang^3
#
#
#
# Elastic Constant Matrix: (Units=GPa)
#
#
# Indices 1 2 3 4 5 6 
#
# 1 96.7791 -5.0090 30.5325 2.0498 -1.3270 -10.9699
# 2 -5.0090 60.1147 19.2805 -4.0002 4.1810 7.0808
# 3 30.5325 19.2805 129.6765 -24.7284 -16.2327 9.6437
# 4 2.0498 -4.0002 -24.7284 24.0843 2.7712 -5.8676
# 5 -1.3270 4.1810 -16.2327 2.7712 44.2434 -12.0535
# 6 -10.9699 7.0808 9.6437 -5.8676 -12.0535 22.0696
#
#
#
# Elastic Compliance Matrix: (Units=1/GPa)
#
#
# Indices 1 2 3 4 5 6 
#
# 1 0.012666 0.001269 -0.004286 -0.003594 0.000901 0.007298
# 2 0.001269 0.018919 -0.003528 -0.001738 -0.004844 -0.007005
# 3 -0.004286 -0.003528 0.011941 0.011322 0.003528 -0.001279
# 4 -0.003594 -0.001738 0.011322 0.055305 0.003606 0.010497
# 5 0.000901 -0.004844 0.003528 0.003606 0.028832 0.017166
# 6 0.007298 -0.007005 -0.001279 0.010497 0.017166 0.063912
#
#
# Mechanical properties :
#
#
# Convention : Reuss Voigt Hill
#
# Bulk Modulus (GPa) = 32.85767 41.79758 37.32763
# Shear Modulus (GPa) = 23.27623 34.19722 28.73673
#
# Velocity S-wave (km/s) = 3.23048 3.91567 3.58947
# Velocity P-wave (km/s) = 5.35225 6.25967 5.82366
#
# Compressibility (1/GPa) = 0.03043429
#
# Stress axis : x y z
#
# Youngs Moduli (GPa) = 78.94858 52.85808 83.74479
#
# Poissons Ratio (x) = -0.06706 0.35895
# Poissons Ratio (y) = -0.10016 0.29548
# Poissons Ratio (z) = 0.33839 0.18650
#
# Static dielectric constant tensor:
#      x y z
#    x 1.829220 0.019420 0.016840 
#    y 0.019420 1.866070 -0.005170 
#    z 0.016840 -0.005170 1.912180 
# 
# From -- ./inp_files/273381.got.cif
#   From: 2010.05.17/outbox.cif.g08.bks.cpg/sg2_137_cif.got.tgz:273381.got - 2010.06.03 11:33:40.
