data_PCOD9024233
_publ_section_title
;
Structure prediction by ZEFSAII (Michael W. Deem and Ramdas Pophale) SiO2 
 PCOD9024233
Probable space group: P -1
;
_chemical_formula_sum "Si O2"
_cell_formula_units_Z 15
_cell_length_a 9.067764
_cell_length_b 4.924338
_cell_length_c 19.041487
_cell_angle_alpha 93.722905
_cell_angle_beta 139.334382
_cell_angle_gamma 86.433491
_cell_volume 552.783715
_symmetry_space_group_name_H-M "P -1"
_symmetry_group_IT_number 2
_symmetry_cell_setting 'triclinic'
loop_
_space_group_symop_operation_xyz
x,y,z
-x,-y,-z
loop_
_atom_site_type_symbol
_atom_site_label
_atom_site_fract_x
_atom_site_fract_y
_atom_site_fract_z
Si Si1 0.809394 0.166135 0.891886
Si Si2 0.674844 0.992481 0.343410
Si Si3 0.841722 0.615186 0.681823
Si Si4 0.500000 0.000000 0.000000
Si Si5 0.547372 0.483339 0.908745
Si Si6 0.865871 0.458305 0.340318
Si Si7 0.106825 0.216956 0.866826
Si Si8 0.443415 0.883688 0.401490
O O1 0.572916 0.021445 0.784527
O O2 0.738341 0.418465 0.918895
O O3 0.923852 0.242046 0.861586
O O4 0.000000 0.000000 0.000000
O O5 0.833324 0.765417 0.359686
O O6 0.618050 0.928581 0.402583
O O7 0.799421 0.271121 0.378516
O O8 0.625805 0.427730 0.619168
O O9 0.909065 0.610944 0.623766
O O10 0.031142 0.426674 0.784847
O O11 0.776704 0.916655 0.690799
O O12 0.492136 0.793799 0.068641
O O13 0.776378 0.063393 0.117413
O O14 0.336121 0.584581 0.789271
O O15 0.645209 0.703407 0.002945
O O16 0.500000 0.000000 0.500000
#
# Coordination Sequence:
#
# PCOD9024233 Si02
#       8
#     2   2   2   1   2   2   2   2
#     4  11  22  37  65 101 147 195 259 290 358 433
#     4  11  25  45  72 105 145 193 236 307 364 437
#     4  12  27  46  78 109 144 193 249 308 369 456
#     4   8  22  36  60  94 154 192 248 286 358 404
#     4   9  22  37  61  97 150 199 235 297 347 422
#     4  11  25  45  71 108 153 188 241 288 375 432
#     4  10  22  40  64 103 144 200 251 292 357 431
#     4  12  28  53  79 108 143 187 249 319 386 438
#
# _framework density 27.135387999999999
#
# number of rings (size 3 to 8) (size 9 to 14) (size 15 to 20)
#    0.800    0.533    1.333    3.200    7.467    1.600 
#    0.000    4.000    0.000    0.000    0.000    0.000 
#    0.000    0.000    0.000    0.000    0.000    0.000 
#
# Total GULP energy -83925.103358 kJ/mol
# GULP energy per Si atom -5595.006891 kJ/mol
# Density = 2.707363 g / cm^3
# Si number density = 27.135388 Si / 1000 Ang^3
#
#
#
# Elastic Constant Matrix: (Units=GPa)
#
#
# Indices 1 2 3 4 5 6 
#
# 1 203.6510 9.2734 9.8204 -12.6186 -24.3955 -2.1783
# 2 9.2734 69.6113 -3.5254 -7.0116 -6.7404 7.1163
# 3 9.8204 -3.5254 98.0837 -10.8801 -13.6731 -2.1285
# 4 -12.6186 -7.0116 -10.8801 19.2099 1.5093 -8.6580
# 5 -24.3955 -6.7404 -13.6731 1.5093 41.5725 -3.2381
# 6 -2.1783 7.1163 -2.1285 -8.6580 -3.2381 58.0382
#
#
#
# Elastic Compliance Matrix: (Units=1/GPa)
#
#
# Indices 1 2 3 4 5 6 
#
# 1 0.005552 -0.000101 0.000368 0.004018 0.003296 0.001018
# 2 -0.000101 0.015391 0.001569 0.005865 0.002676 -0.000809
# 3 0.000368 0.001569 0.011703 0.007862 0.004163 0.001656
# 4 0.004018 0.005865 0.007862 0.065327 0.004279 0.009704
# 5 0.003296 0.002676 0.004163 0.004279 0.027803 0.002138
# 6 0.001018 -0.000809 0.001656 0.009704 0.002138 0.018995
#
#
# Mechanical properties :
#
#
# Convention : Reuss Voigt Hill
#
# Bulk Modulus (GPa) = 27.53426 44.72030 36.12728
# Shear Modulus (GPa) = 32.63595 47.48261 40.05928
#
# Velocity S-wave (km/s) = 3.47177 4.18765 3.84640
# Velocity P-wave (km/s) = 5.12249 6.31649 5.75057
#
# Compressibility (1/GPa) = 0.03631840
#
# Stress axis : x y z
#
# Youngs Moduli (GPa) = 180.11868 64.97264 85.44568
#
# Poissons Ratio (x) = 0.00657 -0.03142
# Poissons Ratio (y) = 0.01822 -0.13410
# Poissons Ratio (z) = -0.06623 -0.10197
#
# Static dielectric constant tensor:
#      x y z
#    x 2.140100 0.049460 0.123630 
#    y 0.049460 2.215990 0.226040 
#    z 0.123630 0.226040 2.496320 
# 
# From -- ./inp_files/552629.got.cif
#   From: 2010.05.17/outbox.cif.g08.bks.cpg/sg2_277_cif.got.tgz:552629.got - 2010.06.03 11:33:40.
