data_PCOD9024459
_publ_section_title
;
Structure prediction by ZEFSAII (Michael W. Deem and Ramdas Pophale) SiO2 
 PCOD9024459
Probable space group: P -1
;
_chemical_formula_sum "Si O2"
_cell_formula_units_Z 16
_cell_length_a 13.889433
_cell_length_b 22.858990
_cell_length_c 8.974483
_cell_angle_alpha 120.837080
_cell_angle_beta 70.390781
_cell_angle_gamma 156.670728
_cell_volume 889.132740
_symmetry_space_group_name_H-M "P -1"
_symmetry_group_IT_number 2
_symmetry_cell_setting 'triclinic'
loop_
_space_group_symop_operation_xyz
x,y,z
-x,-y,-z
loop_
_atom_site_type_symbol
_atom_site_label
_atom_site_fract_x
_atom_site_fract_y
_atom_site_fract_z
Si Si1 0.079285 0.242153 0.795705
Si Si2 0.379793 0.472611 0.228772
Si Si3 0.970962 0.646295 0.171967
Si Si4 0.285948 0.816229 0.802411
Si Si5 0.491836 0.914625 0.345792
Si Si6 0.462851 0.146526 0.463752
Si Si7 0.271333 0.546217 0.229582
Si Si8 0.000984 0.272648 0.419241
O O1 0.333564 0.384795 0.746741
O O2 0.955307 0.237685 0.799690
O O3 0.187762 0.317825 0.005570
O O4 0.853776 0.047549 0.643532
O O5 0.400954 0.562371 0.269641
O O6 0.241245 0.389629 0.352337
O O7 0.912220 0.633047 0.354588
O O8 0.218451 0.746609 0.177750
O O9 0.733320 0.470356 0.967123
O O10 0.426043 0.833833 0.698049
O O11 0.038368 0.646762 0.815150
O O12 0.150541 0.769674 0.670076
O O13 0.500000 0.000000 0.000000
O O14 0.476155 0.854987 0.415125
O O15 0.500000 0.000000 0.500000
O O16 0.772196 0.078304 0.331362
O O17 0.595833 0.301584 0.598554
#
# Coordination Sequence:
#
# PCOD9024459 Si02
#       8
#     2   2   2   2   2   2   2   2
#     4  10  19  36  59  78 102 142 186 225 269 308
#     4   9  21  37  55  82 102 138 190 228 261 317
#     4  10  18  35  53  78 108 140 177 218 263 322
#     4  11  20  35  57  80 109 142 179 220 261 321
#     4  10  17  31  53  80 105 137 176 215 264 321
#     4  12  20  34  55  81 111 142 175 220 278 322
#     4  10  23  34  53  81 112 142 176 220 275 318
#     4  10  17  32  57  76 106 131 181 225 260 304
#
# _framework density 17.995062999999998
#
# number of rings (size 3 to 8) (size 9 to 14) (size 15 to 20)
#    0.000    1.750    5.000    3.375    0.000    1.500 
#    0.000    0.000    2.750    0.750    0.000    0.000 
#    0.000    0.000    0.000    0.000    0.000    0.000 
#
# Total GULP energy -89213.279299 kJ/mol
# GULP energy per Si atom -5575.829956 kJ/mol
# Density = 1.795411 g / cm^3
# Si number density = 17.995063 Si / 1000 Ang^3
#
#
#
# Elastic Constant Matrix: (Units=GPa)
#
#
# Indices 1 2 3 4 5 6 
#
# 1 48.3223 27.6219 24.3476 11.3030 -4.6369 -2.2400
# 2 27.6219 94.6639 47.5163 -4.3777 -6.6770 7.5898
# 3 24.3476 47.5163 98.6872 4.1559 -13.1673 -6.7085
# 4 11.3030 -4.3777 4.1559 32.9823 -5.9295 -5.1275
# 5 -4.6369 -6.6770 -13.1673 -5.9295 23.4075 3.2378
# 6 -2.2400 7.5898 -6.7085 -5.1275 3.2378 21.2699
#
#
#
# Elastic Compliance Matrix: (Units=1/GPa)
#
#
# Indices 1 2 3 4 5 6 
#
# 1 0.029076 -0.007755 -0.002977 -0.010424 -0.001120 0.002548
# 2 -0.007755 0.017343 -0.006956 0.004883 0.001884 -0.008309
# 3 -0.002977 -0.006956 0.015332 0.000069 0.005207 0.006229
# 4 -0.010424 0.004883 0.000069 0.036718 0.008002 0.004815
# 5 -0.001120 0.001884 0.005207 0.008002 0.048632 -0.004622
# 6 0.002548 -0.008309 0.006229 0.004815 -0.004622 0.054077
#
#
# Mechanical properties :
#
#
# Convention : Reuss Voigt Hill
#
# Bulk Modulus (GPa) = 37.91487 48.96055 43.43771
# Shear Modulus (GPa) = 20.37934 25.01111 22.69523
#
# Velocity S-wave (km/s) = 3.36891 3.73216 3.55518
# Velocity P-wave (km/s) = 6.02064 6.77044 6.40652
#
# Compressibility (1/GPa) = 0.02637488
#
# Stress axis : x y z
#
# Youngs Moduli (GPa) = 34.39239 57.65974 65.22364
#
# Poissons Ratio (x) = 0.44717 0.19415
# Poissons Ratio (y) = 0.26672 0.45371
# Poissons Ratio (z) = 0.10237 0.40109
#
# Static dielectric constant tensor:
#      x y z
#    x 1.612440 0.024160 0.020460 
#    y 0.024160 1.665820 -0.023500 
#    z 0.020460 -0.023500 1.662410 
# 
# From -- ./inp_files/170490.got.cif
#   From: 2010.05.17/outbox.cif.g08.bks.cpg/sg2_86_cif.got.tgz:170490.got - 2010.06.03 11:33:40.
