data_PCOD9024817
_publ_section_title
;
Structure prediction by ZEFSAII (Michael W. Deem and Ramdas Pophale) SiO2 
 PCOD9024817
Probable space group: P -1
;
_chemical_formula_sum "Si O2"
_cell_formula_units_Z 16
_cell_length_a 10.073702
_cell_length_b 9.704625
_cell_length_c 23.991784
_cell_angle_alpha 31.193184
_cell_angle_beta 136.355909
_cell_angle_gamma 138.878569
_cell_volume 776.992851
_symmetry_space_group_name_H-M "P -1"
_symmetry_group_IT_number 2
_symmetry_cell_setting 'triclinic'
loop_
_space_group_symop_operation_xyz
x,y,z
-x,-y,-z
loop_
_atom_site_type_symbol
_atom_site_label
_atom_site_fract_x
_atom_site_fract_y
_atom_site_fract_z
Si Si1 0.479050 0.696158 0.046024
Si Si2 0.853441 0.173265 0.408330
Si Si3 0.673030 0.331214 0.870611
Si Si4 0.475103 0.866788 0.772737
Si Si5 0.610073 0.757622 0.289843
Si Si6 0.855579 0.176806 0.701383
Si Si7 0.088086 0.841803 0.838121
Si Si8 0.535939 0.143245 0.522083
O O1 0.447006 0.617548 0.129026
O O2 0.506119 0.440335 0.109393
O O3 0.275339 0.755680 0.945766
O O4 0.659043 0.005281 0.985159
O O5 0.720866 0.181366 0.310525
O O6 0.996772 0.491996 0.361568
O O7 0.678808 0.004891 0.458652
O O8 0.000000 0.000000 0.500000
O O9 0.554112 0.355163 0.770979
O O10 0.902723 0.558337 0.861320
O O11 0.444161 0.016794 0.767229
O O12 0.684042 0.073802 0.733454
O O13 0.598927 0.484607 0.416488
O O14 0.825619 0.929301 0.264638
O O15 0.719606 0.109410 0.626423
O O16 0.997965 0.989220 0.806928
O O17 0.500000 0.000000 0.500000
#
# Coordination Sequence:
#
# PCOD9024817 Si02
#       8
#     2   2   2   2   2   2   2   2
#     4  10  23  41  69  91 128 167 214 263 314 374
#     4  11  25  42  64  91 127 171 216 254 313 385
#     4  10  22  40  66  92 127 163 212 263 312 370
#     4  11  25  43  64  94 133 169 207 263 322 373
#     4  11  25  41  63  94 134 165 208 266 322 371
#     4  11  24  40  67  96 123 170 220 254 312 382
#     4  11  23  40  67  98 123 163 221 262 307 381
#     4  11  24  42  65  95 133 166 208 267 316 368
#
# _framework density 20.592209
#
# number of rings (size 3 to 8) (size 9 to 14) (size 15 to 20)
#    0.000    1.250    1.250    3.375    7.000   10.000 
#    0.000    1.250    0.000    0.000    0.000    0.000 
#    0.000    0.000    0.000    0.000    0.000    0.000 
#
# Total GULP energy -89515.610457 kJ/mol
# GULP energy per Si atom -5594.725654 kJ/mol
# Density = 2.054534 g / cm^3
# Si number density = 20.592209 Si / 1000 Ang^3
#
#
#
# Elastic Constant Matrix: (Units=GPa)
#
#
# Indices 1 2 3 4 5 6 
#
# 1 66.4574 42.5299 9.3117 1.7199 12.7374 15.3110
# 2 42.5299 115.0359 32.7219 -26.7809 -1.5413 34.0446
# 3 9.3117 32.7219 72.0979 -7.3437 19.3456 16.3045
# 4 1.7199 -26.7809 -7.3437 22.1535 -2.8220 2.7299
# 5 12.7374 -1.5413 19.3456 -2.8220 33.8499 -4.0442
# 6 15.3110 34.0446 16.3045 2.7299 -4.0442 30.4393
#
#
#
# Elastic Compliance Matrix: (Units=1/GPa)
#
#
# Indices 1 2 3 4 5 6 
#
# 1 0.031898 -0.023372 0.006739 -0.031727 -0.018747 0.006840
# 2 -0.023372 0.044771 -0.006537 0.060397 0.015036 -0.038235
# 3 0.006739 -0.006537 0.022759 -0.001795 -0.017232 -0.010398
# 4 -0.031727 0.060397 -0.001795 0.129848 0.019407 -0.059697
# 5 -0.018747 0.015036 -0.017232 0.019407 0.049546 0.006685
# 6 0.006840 -0.038235 -0.010398 -0.059697 0.006685 0.083987
#
#
# Mechanical properties :
#
#
# Convention : Reuss Voigt Hill
#
# Bulk Modulus (GPa) = 18.83614 46.96868 32.90241
# Shear Modulus (GPa) = 11.71388 28.55705 20.13546
#
# Velocity S-wave (km/s) = 2.38764 3.72800 3.13040
# Velocity P-wave (km/s) = 4.09490 6.43344 5.39246
#
# Compressibility (1/GPa) = 0.05308942
#
# Stress axis : x y z
#
# Youngs Moduli (GPa) = 31.34988 22.33600 43.93888
#
# Poissons Ratio (x) = 0.52203 -0.29612
# Poissons Ratio (y) = 0.73269 0.28723
# Poissons Ratio (z) = -0.21128 0.14601
#
# Static dielectric constant tensor:
#      x y z
#    x 1.713790 -0.006220 -0.009450 
#    y -0.006220 1.722550 -0.004600 
#    z -0.009450 -0.004600 1.756590 
# 
# From -- ./inp_files/562867.got.cif
#   From: 2010.05.17/outbox.cif.g08.bks.cpg/sg2_282_cif.got.tgz:562867.got - 2010.06.03 11:33:40.
