data_PCOD9024280
_publ_section_title
;
Structure prediction by ZEFSAII (Michael W. Deem and Ramdas Pophale) SiO2 
 PCOD9024280
Probable space group: P -1
;
_chemical_formula_sum "Si O2"
_cell_formula_units_Z 8
_cell_length_a 5.000957
_cell_length_b 12.894291
_cell_length_c 10.275727
_cell_angle_alpha 33.162101
_cell_angle_beta 73.025457
_cell_angle_gamma 86.501203
_cell_volume 324.677392
_symmetry_space_group_name_H-M "P -1"
_symmetry_group_IT_number 2
_symmetry_cell_setting 'triclinic'
loop_
_space_group_symop_operation_xyz
x,y,z
-x,-y,-z
loop_
_atom_site_type_symbol
_atom_site_label
_atom_site_fract_x
_atom_site_fract_y
_atom_site_fract_z
Si Si1 0.163634 0.639125 0.153455
Si Si2 0.753546 0.794084 0.404525
Si Si3 0.318933 0.189078 0.902004
Si Si4 0.321015 0.648419 0.842220
O O1 0.175902 0.414204 0.384546
O O2 0.384703 0.758580 0.110588
O O3 0.836621 0.644859 0.219241
O O4 0.278974 0.738721 0.891910
O O5 0.641869 0.816397 0.252147
O O6 0.502638 0.784914 0.555994
O O7 0.057661 0.978990 0.195160
O O8 0.500000 0.500000 0.000000
O O9 0.000000 0.500000 0.000000
#
# Coordination Sequence:
#
# PCOD9024280 Si02
#       4
#     2   2   2   2
#     4  11  23  42  64  92 127 165 208 253 309 371
#     4  10  24  43  64  93 131 160 207 262 306 368
#     4  11  25  40  66  96 122 167 208 252 315 368
#     4  10  22  40  64  90 123 166 204 253 312 362
#
# _framework density 24.639842000000002
#
# number of rings (size 3 to 8) (size 9 to 14) (size 15 to 20)
#    0.000    1.500    0.000    4.500    0.000   16.000 
#    0.000    0.000    0.000    0.000    0.000    0.000 
#    0.000    0.000    0.000    0.000    0.000    0.000 
#
# Total GULP energy -44871.796476 kJ/mol
# GULP energy per Si atom -5608.974560 kJ/mol
# Density = 2.458376 g / cm^3
# Si number density = 24.639842 Si / 1000 Ang^3
#
#
#
# Elastic Constant Matrix: (Units=GPa)
#
#
# Indices 1 2 3 4 5 6 
#
# 1 123.2270 20.1808 10.9872 6.4362 -3.0301 5.4963
# 2 20.1808 87.7678 46.8152 12.4010 14.3178 -3.8512
# 3 10.9872 46.8152 130.1800 13.5660 -20.9159 0.9368
# 4 6.4362 12.4010 13.5660 66.6863 -2.2047 -5.2463
# 5 -3.0301 14.3178 -20.9159 -2.2047 17.9310 -0.4488
# 6 5.4963 -3.8512 0.9368 -5.2463 -0.4488 22.9073
#
#
#
# Elastic Compliance Matrix: (Units=1/GPa)
#
#
# Indices 1 2 3 4 5 6 
#
# 1 0.008997 -0.004469 0.002108 -0.000453 0.007418 -0.002955
# 2 -0.004469 0.029329 -0.017045 -0.002606 -0.044247 0.005236
# 3 0.002108 -0.017045 0.019561 -0.000073 0.036688 -0.003469
# 4 -0.000453 -0.002606 -0.000073 0.015937 0.003964 0.003401
# 5 0.007418 -0.044247 0.036688 0.003964 0.135458 -0.007157
# 6 -0.002955 0.005236 -0.003469 0.003401 -0.007157 0.046024
#
#
# Mechanical properties :
#
#
# Convention : Reuss Voigt Hill
#
# Bulk Modulus (GPa) = 52.42542 55.23788 53.83165
# Shear Modulus (GPa) = 16.64022 39.05104 27.84563
#
# Velocity S-wave (km/s) = 2.60155 3.98537 3.36535
# Velocity P-wave (km/s) = 5.50880 6.60638 6.08240
#
# Compressibility (1/GPa) = 0.01907472
#
# Stress axis : x y z
#
# Youngs Moduli (GPa) = 111.14962 34.09551 51.12254
#
# Poissons Ratio (x) = 0.15237 -0.10777
# Poissons Ratio (y) = 0.49672 0.87141
# Poissons Ratio (z) = -0.23432 0.58117
#
# Static dielectric constant tensor:
#      x y z
#    x 1.871310 -0.035980 0.033220 
#    y -0.035980 1.941660 0.021680 
#    z 0.033220 0.021680 2.030580 
# 
# From -- ./inp_files/463.got.cif
#   From: 2010.05.17/outbox.cif.g08.bks.cpg/sg2_1_cif.got.tgz:463.got - 2010.06.03 11:33:40.
