data_PCOD9024376
_publ_section_title
;
Structure prediction by ZEFSAII (Michael W. Deem and Ramdas Pophale) SiO2 
 PCOD9024376
Probable space group: P -1
;
_chemical_formula_sum "Si O2"
_cell_formula_units_Z 15
_cell_length_a 5.186262
_cell_length_b 17.749299
_cell_length_c 8.162539
_cell_angle_alpha 73.140177
_cell_angle_beta 63.243935
_cell_angle_gamma 108.892985
_cell_volume 543.807259
_symmetry_space_group_name_H-M "P -1"
_symmetry_group_IT_number 2
_symmetry_cell_setting 'triclinic'
loop_
_space_group_symop_operation_xyz
x,y,z
-x,-y,-z
loop_
_atom_site_type_symbol
_atom_site_label
_atom_site_fract_x
_atom_site_fract_y
_atom_site_fract_z
Si Si1 0.739230 0.309598 0.844341
Si Si2 0.866883 0.952636 0.241297
Si Si3 0.510052 0.367538 0.553707
Si Si4 0.264395 0.483256 0.846982
Si Si5 0.500000 0.000000 0.500000
Si Si6 0.284000 0.356022 0.160593
Si Si7 0.622627 0.882628 0.785511
Si Si8 0.175813 0.209377 0.494300
O O1 0.663564 0.345918 0.678052
O O2 0.587574 0.343195 0.011160
O O3 0.131954 0.343263 0.718127
O O4 0.552480 0.197154 0.977779
O O5 0.484992 0.923676 0.412847
O O6 0.976027 0.877992 0.282352
O O7 0.022209 0.031835 0.294732
O O8 0.000000 0.000000 0.000000
O O9 0.711166 0.473450 0.365827
O O10 0.456441 0.297306 0.466497
O O11 0.185193 0.386245 0.004089
O O12 0.615075 0.561423 0.789702
O O13 0.000000 0.500000 0.000000
O O14 0.438082 0.927554 0.720945
O O15 0.040396 0.262996 0.391152
O O16 0.696265 0.832811 0.651640
#
# Coordination Sequence:
#
# PCOD9024376 Si02
#       8
#     2   2   2   2   1   2   2   2
#     4  11  26  45  69 104 143 181 231 295 355 417
#     4  11  23  42  67 102 138 183 240 295 360 420
#     4  11  26  45  68 105 140 181 232 293 354 424
#     4  10  23  43  71  98 135 185 232 280 354 432
#     4  10  22  40  64  94 130 182 232 288 354 410
#     4   9  22  43  66  98 136 184 228 290 350 428
#     4  10  23  45  66  98 138 184 238 290 356 423
#     4   9  20  44  63  97 133 183 233 289 348 422
#
# _framework density 27.583300000000001
#
# number of rings (size 3 to 8) (size 9 to 14) (size 15 to 20)
#    0.000    1.867    0.000    2.400   11.200    1.600 
#   12.000    0.000    0.000    0.000    0.000    0.000 
#    0.000    0.000    0.000    0.000    0.000    0.000 
#
# Total GULP energy -83583.001194 kJ/mol
# GULP energy per Si atom -5572.200080 kJ/mol
# Density = 2.752052 g / cm^3
# Si number density = 27.583300 Si / 1000 Ang^3
#
#
#
# Elastic Constant Matrix: (Units=GPa)
#
#
# Indices 1 2 3 4 5 6 
#
# 1 137.9612 37.3578 62.1327 -20.9678 46.4927 -39.5558
# 2 37.3578 134.2419 41.7626 -8.8299 32.6933 -10.7078
# 3 62.1327 41.7626 175.3635 -39.4414 64.0785 -19.0959
# 4 -20.9678 -8.8299 -39.4414 66.7396 -27.7477 15.2460
# 5 46.4927 32.6933 64.0785 -27.7477 64.4631 -7.6025
# 6 -39.5558 -10.7078 -19.0959 15.2460 -7.6025 50.1647
#
#
#
# Elastic Compliance Matrix: (Units=1/GPa)
#
#
# Indices 1 2 3 4 5 6 
#
# 1 0.012726 -0.000808 -0.001026 -0.001868 -0.007504 0.008903
# 2 -0.000808 0.008743 -0.000652 -0.001164 -0.003611 0.000787
# 3 -0.001026 -0.000652 0.009454 0.001882 -0.007405 0.000957
# 4 -0.001868 -0.001164 0.001882 0.020020 0.007991 -0.005879
# 5 -0.007504 -0.003611 -0.007405 0.007991 0.032734 -0.006974
# 6 0.008903 0.000787 0.000957 -0.005879 -0.006974 0.028216
#
#
# Mechanical properties :
#
#
# Convention : Reuss Voigt Hill
#
# Bulk Modulus (GPa) = 38.53309 81.11921 59.82615
# Shear Modulus (GPa) = 39.83570 56.69438 48.26504
#
# Velocity S-wave (km/s) = 3.80438 4.53856 4.18759
# Velocity P-wave (km/s) = 5.77042 7.54568 6.71696
#
# Compressibility (1/GPa) = 0.02595172
#
# Stress axis : x y z
#
# Youngs Moduli (GPa) = 78.57666 114.38160 105.77321
#
# Poissons Ratio (x) = 0.09240 0.10847
# Poissons Ratio (y) = 0.06348 0.06901
# Poissons Ratio (z) = 0.08058 0.07463
#
# Static dielectric constant tensor:
#      x y z
#    x 1.973350 0.056120 0.089590 
#    y 0.056120 2.277840 -0.011930 
#    z 0.089590 -0.011930 2.138970 
# 
# From -- ./inp_files/137458.got.cif
#   From: 2010.05.17/outbox.cif.g08.bks.cpg/sg2_69_cif.got.tgz:137458.got - 2010.06.03 11:33:40.
