data_PCOD9024400
_publ_section_title
;
Structure prediction by ZEFSAII (Michael W. Deem and Ramdas Pophale) SiO2 
 PCOD9024400
Probable space group: P -1
;
_chemical_formula_sum "Si O2"
_cell_formula_units_Z 16
_cell_length_a 21.901645
_cell_length_b 20.512943
_cell_length_c 7.055169
_cell_angle_alpha 65.216486
_cell_angle_beta 56.186399
_cell_angle_gamma 18.712414
_cell_volume 772.582693
_symmetry_space_group_name_H-M "P -1"
_symmetry_group_IT_number 2
_symmetry_cell_setting 'triclinic'
loop_
_space_group_symop_operation_xyz
x,y,z
-x,-y,-z
loop_
_atom_site_type_symbol
_atom_site_label
_atom_site_fract_x
_atom_site_fract_y
_atom_site_fract_z
Si Si1 0.185730 0.271235 0.024978
Si Si2 0.494686 0.674757 0.734885
Si Si3 0.696157 0.103594 0.840763
Si Si4 0.147457 0.773710 0.471285
Si Si5 0.934489 0.020191 0.897564
Si Si6 0.371304 0.051988 0.344509
Si Si7 0.425551 0.280422 0.755147
Si Si8 0.899289 0.772618 0.064775
O O1 0.434663 0.070965 0.783203
O O2 0.129349 0.249120 0.046922
O O3 0.000000 0.500000 0.000000
O O4 0.198032 0.249088 0.256709
O O5 0.671080 0.453461 0.622183
O O6 0.547541 0.700190 0.509394
O O7 0.490672 0.688285 0.951743
O O8 0.242692 0.878892 0.874731
O O9 0.582300 0.174325 0.768308
O O10 0.896630 0.974571 0.609035
O O11 0.812842 0.931863 0.970231
O O12 0.184659 0.811187 0.240399
O O13 0.134193 0.804403 0.680792
O O14 0.000000 0.000000 0.000000
O O15 0.497733 0.871853 0.228160
O O16 0.247387 0.129755 0.638560
O O17 0.162788 0.528266 0.964654
#
# Coordination Sequence:
#
# PCOD9024400 Si02
#       8
#     2   2   2   2   2   2   2   2
#     4  11  24  45  68  94 129 167 213 268 320 384
#     4  11  23  41  65  94 130 172 217 260 321 379
#     4  11  24  41  63  94 131 170 213 268 316 377
#     4  10  22  41  63  92 134 167 211 270 312 375
#     4  10  22  40  64  95 130 169 215 261 318 375
#     4  11  25  43  66  95 128 168 215 263 323 383
#     4  12  24  40  65  96 126 172 218 260 325 381
#     4  12  24  42  66  93 130 168 214 266 320 380
#
# _framework density 20.709757
#
# number of rings (size 3 to 8) (size 9 to 14) (size 15 to 20)
#    0.000    1.000    5.000    1.500    0.000    5.000 
#    0.000    0.000    0.000    0.000    0.000    0.000 
#    0.000    0.000    0.000    0.000    0.000    0.000 
#
# Total GULP energy -89451.878266 kJ/mol
# GULP energy per Si atom -5590.742392 kJ/mol
# Density = 2.066262 g / cm^3
# Si number density = 20.709757 Si / 1000 Ang^3
#
#
#
# Elastic Constant Matrix: (Units=GPa)
#
#
# Indices 1 2 3 4 5 6 
#
# 1 73.3150 -1.1774 -7.6674 5.6531 5.0314 -1.5696
# 2 -1.1774 61.1434 5.2557 -0.5403 7.8188 9.3461
# 3 -7.6674 5.2557 52.0920 4.4360 -2.0149 -3.4075
# 4 5.6531 -0.5403 4.4360 18.4877 9.6498 0.9379
# 5 5.0314 7.8188 -2.0149 9.6498 41.2372 -0.2733
# 6 -1.5696 9.3461 -3.4075 0.9379 -0.2733 36.9584
#
#
#
# Elastic Compliance Matrix: (Units=1/GPa)
#
#
# Indices 1 2 3 4 5 6 
#
# 1 0.014332 -0.000077 0.002572 -0.004802 -0.000478 0.000983
# 2 -0.000077 0.017929 -0.002631 0.003738 -0.004426 -0.004907
# 3 0.002572 -0.002631 0.020790 -0.007559 0.002989 0.002905
# 4 -0.004802 0.003738 -0.007559 0.065997 -0.015960 -0.003639
# 5 -0.000478 -0.004426 0.002989 -0.015960 0.029041 0.001994
# 6 0.000983 -0.004907 0.002905 -0.003639 0.001994 0.028715
#
#
# Mechanical properties :
#
#
# Convention : Reuss Voigt Hill
#
# Bulk Modulus (GPa) = 18.94666 19.93025 19.43846
# Shear Modulus (GPa) = 25.68479 32.01263 28.84871
#
# Velocity S-wave (km/s) = 3.52551 3.93590 3.73634
# Velocity P-wave (km/s) = 5.07354 5.50451 5.29341
#
# Compressibility (1/GPa) = 0.05277974
#
# Stress axis : x y z
#
# Youngs Moduli (GPa) = 69.77556 55.77642 48.09967
#
# Poissons Ratio (x) = 0.00428 -0.12371
# Poissons Ratio (y) = 0.00535 0.12653
# Poissons Ratio (z) = -0.17946 0.14673
#
# Static dielectric constant tensor:
#      x y z
#    x 1.726440 0.010650 0.013470 
#    y 0.010650 1.724420 0.007280 
#    z 0.013470 0.007280 1.723240 
# 
# From -- ./inp_files/14812.got.cif
#   From: 2010.05.17/outbox.cif.g08.bks.cpg/sg2_8_cif.got.tgz:14812.got - 2010.06.03 11:33:40.
