data_PCOD9024901
_publ_section_title
;
Structure prediction by ZEFSAII (Michael W. Deem and Ramdas Pophale) SiO2 
 PCOD9024901
Probable space group: P -1
;
_chemical_formula_sum "Si O2"
_cell_formula_units_Z 16
_cell_length_a 9.280209
_cell_length_b 11.862297
_cell_length_c 12.828753
_cell_angle_alpha 44.759741
_cell_angle_beta 131.939192
_cell_angle_gamma 120.093478
_cell_volume 738.727095
_symmetry_space_group_name_H-M "P -1"
_symmetry_group_IT_number 2
_symmetry_cell_setting 'triclinic'
loop_
_space_group_symop_operation_xyz
x,y,z
-x,-y,-z
loop_
_atom_site_type_symbol
_atom_site_label
_atom_site_fract_x
_atom_site_fract_y
_atom_site_fract_z
Si Si1 0.496598 0.654985 0.273172
Si Si2 0.336620 0.320424 0.102357
Si Si3 0.908249 0.399492 0.118982
Si Si4 0.509591 0.239197 0.024849
Si Si5 0.083186 0.992308 0.164174
Si Si6 0.545790 0.159509 0.485832
Si Si7 0.673182 0.040137 0.976508
Si Si8 0.690698 0.697040 0.546841
O O1 0.320720 0.767600 0.147780
O O2 0.653998 0.713484 0.395975
O O3 0.424944 0.471817 0.370427
O O4 0.564512 0.685550 0.168006
O O5 0.444637 0.323548 0.042276
O O6 0.193808 0.160984 0.134316
O O7 0.488059 0.298200 0.285364
O O8 0.204295 0.468560 0.958717
O O9 0.740454 0.262246 0.105798
O O10 0.085776 0.321397 0.310871
O O11 0.000000 0.500000 0.000000
O O12 0.414164 0.058937 0.099579
O O13 0.235895 0.857472 0.353380
O O14 0.883686 0.979818 0.141302
O O15 0.000000 0.000000 0.000000
O O16 0.402048 0.177446 0.502537
O O17 0.500000 0.000000 0.500000
O O18 0.500000 0.000000 0.000000
#
# Coordination Sequence:
#
# PCOD9024901 Si02
#       8
#     2   2   2   2   2   2   2   2
#     4  10  22  41  68  92 137 165 218 280 327 385
#     4  11  23  42  66  95 134 175 215 275 327 396
#     4  12  23  42  68  93 127 179 228 258 333 399
#     4  11  23  42  63  98 134 172 213 280 331 388
#     4  11  21  40  67  96 124 177 217 260 333 391
#     4  10  23  38  65  97 137 168 224 270 322 393
#     4  10  22  40  66  95 130 165 216 273 322 379
#     4  11  22  42  68 101 125 176 225 276 323 393
#
# _framework density 21.658875999999999
#
# number of rings (size 3 to 8) (size 9 to 14) (size 15 to 20)
#    0.000    1.250    3.750    1.875    3.500    1.000 
#    4.500    1.250    0.000    0.000    0.000    0.000 
#    0.000    0.000    0.000    0.000    0.000    0.000 
#
# Total GULP energy -89256.596337 kJ/mol
# GULP energy per Si atom -5578.537271 kJ/mol
# Density = 2.160958 g / cm^3
# Si number density = 21.658876 Si / 1000 Ang^3
#
#
#
# Elastic Constant Matrix: (Units=GPa)
#
#
# Indices 1 2 3 4 5 6 
#
# 1 132.6885 30.3499 69.5072 21.7103 18.1226 -6.3995
# 2 30.3499 81.5410 26.2854 11.2910 10.7591 -9.3692
# 3 69.5072 26.2854 150.2745 35.5998 23.8725 -14.8462
# 4 21.7103 11.2910 35.5998 35.7223 -1.7671 1.1649
# 5 18.1226 10.7591 23.8725 -1.7671 45.4191 3.4085
# 6 -6.3995 -9.3692 -14.8462 1.1649 3.4085 37.9192
#
#
#
# Elastic Compliance Matrix: (Units=1/GPa)
#
#
# Indices 1 2 3 4 5 6 
#
# 1 0.010585 -0.002204 -0.003714 -0.002127 -0.001834 0.000018
# 2 -0.002204 0.014344 0.000233 -0.003697 -0.003059 0.003652
# 3 -0.003714 0.000233 0.012227 -0.010453 -0.005786 0.005059
# 4 -0.002127 -0.003697 -0.010453 0.041581 0.009398 -0.007487
# 5 -0.001834 -0.003059 -0.005786 0.009398 0.027336 -0.006077
# 6 0.000018 0.003652 0.005059 -0.007487 -0.006077 0.030034
#
#
# Mechanical properties :
#
#
# Convention : Reuss Voigt Hill
#
# Bulk Modulus (GPa) = 38.78002 68.53209 53.65606
# Shear Modulus (GPa) = 32.03647 39.70288 35.86967
#
# Velocity S-wave (km/s) = 3.85013 4.28612 4.07396
# Velocity P-wave (km/s) = 6.14072 7.49698 6.85248
#
# Compressibility (1/GPa) = 0.02578648
#
# Stress axis : x y z
#
# Youngs Moduli (GPa) = 94.47115 69.71457 81.78927
#
# Poissons Ratio (x) = 0.15367 0.30373
# Poissons Ratio (y) = 0.20824 -0.01906
# Poissons Ratio (z) = 0.35082 -0.01624
#
# Static dielectric constant tensor:
#      x y z
#    x 1.804610 -0.014190 -0.024340 
#    y -0.014190 1.881910 -0.030390 
#    z -0.024340 -0.030390 1.919400 
# 
# From -- ./inp_files/345273.got.cif
#   From: 2010.05.17/outbox.cif.g08.bks.cpg/sg2_173_cif.got.tgz:345273.got - 2010.06.03 11:33:40.
