data_PCOD9024725
_publ_section_title
;
Structure prediction by ZEFSAII (Michael W. Deem and Ramdas Pophale) SiO2 
 PCOD9024725
Probable space group: P -1
;
_chemical_formula_sum "Si O2"
_cell_formula_units_Z 15
_cell_length_a 16.353072
_cell_length_b 19.436064
_cell_length_c 7.147537
_cell_angle_alpha 123.908835
_cell_angle_beta 135.987705
_cell_angle_gamma 24.481616
_cell_volume 616.154507
_symmetry_space_group_name_H-M "P -1"
_symmetry_group_IT_number 2
_symmetry_cell_setting 'triclinic'
loop_
_space_group_symop_operation_xyz
x,y,z
-x,-y,-z
loop_
_atom_site_type_symbol
_atom_site_label
_atom_site_fract_x
_atom_site_fract_y
_atom_site_fract_z
Si Si1 0.322080 0.532109 0.225078
Si Si2 0.687960 0.600454 0.232862
Si Si3 0.000000 0.000000 0.500000
Si Si4 0.244916 0.255374 0.460623
Si Si5 0.391198 0.038957 0.075545
Si Si6 0.790175 0.013429 0.473355
Si Si7 0.439923 0.377645 0.539889
Si Si8 0.935783 0.176351 0.978723
O O1 0.500000 0.500000 0.500000
O O2 0.264299 0.531013 0.331321
O O3 0.119560 0.697174 0.001821
O O4 0.465108 0.366290 0.105806
O O5 0.625396 0.735868 0.343873
O O6 0.677539 0.566238 0.367375
O O7 0.959265 0.435572 0.331988
O O8 0.979677 0.953495 0.582764
O O9 0.019686 0.069580 0.779032
O O10 0.256070 0.197248 0.200236
O O11 0.393505 0.119913 0.666062
O O12 0.500000 0.000000 0.000000
O O13 0.243841 0.047925 0.794127
O O14 0.541385 0.225800 0.401676
O O15 0.879768 0.938267 0.716389
O O16 0.681402 0.288985 0.807576
#
# Coordination Sequence:
#
# PCOD9024725 Si02
#       8
#     2   2   1   2   2   2   2   2
#     4  10  24  41  65 101 138 180 225 279 353 417
#     4  11  24  46  72  95 145 178 233 293 344 433
#     4  10  22  40  66 100 144 178 226 284 350 426
#     4  10  26  47  69 105 131 191 236 292 357 404
#     4  11  25  45  73 102 137 179 247 296 345 417
#     4  11  24  41  72 104 140 185 234 297 356 416
#     4  10  22  43  68 101 136 189 225 277 355 425
#     4  10  24  41  66 107 141 183 232 285 356 421
#
# _framework density 24.344543000000002
#
# number of rings (size 3 to 8) (size 9 to 14) (size 15 to 20)
#    0.000    1.600    0.000    3.200    3.733   13.867 
#    0.000    3.333    0.000    0.000    0.000    0.000 
#    0.000    0.000    0.000    0.000    0.000    0.000 
#
# Total GULP energy -83713.118326 kJ/mol
# GULP energy per Si atom -5580.874555 kJ/mol
# Density = 2.428913 g / cm^3
# Si number density = 24.344543 Si / 1000 Ang^3
#
#
#
# Elastic Constant Matrix: (Units=GPa)
#
#
# Indices 1 2 3 4 5 6 
#
# 1 165.2504 38.2476 53.5876 10.6442 -29.7383 15.1144
# 2 38.2476 65.7127 51.2669 16.7674 0.7174 4.6563
# 3 53.5876 51.2669 131.3708 28.5873 -15.5321 8.3999
# 4 10.6442 16.7674 28.5873 37.9784 8.7125 -2.8459
# 5 -29.7383 0.7174 -15.5321 8.7125 58.3982 6.2244
# 6 15.1144 4.6563 8.3999 -2.8459 6.2244 39.0520
#
#
#
# Elastic Compliance Matrix: (Units=1/GPa)
#
#
# Indices 1 2 3 4 5 6 
#
# 1 0.008447 -0.003622 -0.000958 -0.001378 0.004667 -0.003476
# 2 -0.003622 0.024154 -0.007832 -0.002820 -0.003869 0.000618
# 3 -0.000958 -0.007832 0.013468 -0.007694 0.004647 -0.002893
# 4 -0.001378 -0.002820 -0.007694 0.036271 -0.008826 0.006574
# 5 0.004667 -0.003869 0.004647 -0.008826 0.022807 -0.006623
# 6 -0.003476 0.000618 -0.002893 0.006574 -0.006623 0.029035
#
#
# Mechanical properties :
#
#
# Convention : Reuss Voigt Hill
#
# Bulk Modulus (GPa) = 47.07057 72.05979 59.56518
# Shear Modulus (GPa) = 30.10455 41.70117 35.90286
#
# Velocity S-wave (km/s) = 3.52035 4.14328 3.84445
# Velocity P-wave (km/s) = 5.99174 7.24936 6.65035
#
# Compressibility (1/GPa) = 0.02124470
#
# Stress axis : x y z
#
# Youngs Moduli (GPa) = 118.38445 41.40083 74.25004
#
# Poissons Ratio (x) = 0.14995 0.07115
# Poissons Ratio (y) = 0.42879 0.58153
# Poissons Ratio (z) = 0.11344 0.32425
#
# Static dielectric constant tensor:
#      x y z
#    x 2.018780 -0.038910 0.160170 
#    y -0.038910 2.089170 -0.063710 
#    z 0.160170 -0.063710 2.036100 
# 
# From -- ./inp_files/99961.got.cif
#   From: 2010.05.17/outbox.cif.g08.bks.cpg/sg2_50_cif.got.tgz:99961.got - 2010.06.03 11:33:40.
