data_PCOD9024094
_publ_section_title
;
Structure prediction by ZEFSAII (Michael W. Deem and Ramdas Pophale) SiO2 
 PCOD9024094
Probable space group: P -1
;
_chemical_formula_sum "Si O2"
_cell_formula_units_Z 12
_cell_length_a 15.413977
_cell_length_b 16.403014
_cell_length_c 9.728435
_cell_angle_alpha 36.457502
_cell_angle_beta 27.954171
_cell_angle_gamma 29.679867
_cell_volume 563.675883
_symmetry_space_group_name_H-M "P -1"
_symmetry_group_IT_number 2
_symmetry_cell_setting 'triclinic'
loop_
_space_group_symop_operation_xyz
x,y,z
-x,-y,-z
loop_
_atom_site_type_symbol
_atom_site_label
_atom_site_fract_x
_atom_site_fract_y
_atom_site_fract_z
Si Si1 0.326521 0.177986 0.684467
Si Si2 0.066964 0.628083 0.211671
Si Si3 0.598308 0.093171 0.670935
Si Si4 0.269590 0.892972 0.248709
Si Si5 0.540451 0.316436 0.000995
Si Si6 0.015006 0.840652 0.250273
O O1 0.427386 0.213731 0.628043
O O2 0.451656 0.209837 0.342445
O O3 0.064126 0.284077 0.864465
O O4 0.358922 0.004278 0.915500
O O5 0.335236 0.508478 0.009184
O O6 0.973372 0.759005 0.290379
O O7 0.000000 0.500000 0.500000
O O8 0.640155 0.173196 0.633628
O O9 0.825969 0.934901 0.502142
O O10 0.500000 0.000000 0.000000
O O11 0.355596 0.757568 0.193074
O O12 0.000000 0.000000 0.500000
O O13 0.740877 0.288527 0.852830
O O14 0.000000 0.000000 0.000000
#
# Coordination Sequence:
#
# PCOD9024094 Si02
#       6
#     2   2   2   2   2   2
#     4  10  22  40  63  92 124 176 215 258 309 386
#     4  10  25  40  65  95 132 168 216 264 324 371
#     4  10  23  37  64  95 128 161 217 270 315 370
#     4  11  22  39  65  97 130 165 219 263 324 377
#     4  11  22  41  65  94 127 168 213 272 315 382
#     4  12  22  40  71  97 120 170 227 266 305 379
#
# _framework density 21.288829
#
# number of rings (size 3 to 8) (size 9 to 14) (size 15 to 20)
#    0.000    1.333    3.333    2.000    9.333    0.000 
#    0.000    1.667    3.667    0.000    0.000    0.000 
#    0.000    0.000    0.000    0.000    0.000    0.000 
#
# Total GULP energy -66813.679220 kJ/mol
# GULP energy per Si atom -5567.806602 kJ/mol
# Density = 2.124037 g / cm^3
# Si number density = 21.288829 Si / 1000 Ang^3
#
#
#
# Elastic Constant Matrix: (Units=GPa)
#
#
# Indices 1 2 3 4 5 6 
#
# 1 192.4025 45.9196 14.6838 11.5575 12.2743 -21.1919
# 2 45.9196 40.9150 13.4693 1.6601 19.0065 -2.0847
# 3 14.6838 13.4693 92.3171 25.6097 7.7716 3.6124
# 4 11.5575 1.6601 25.6097 23.6859 8.4178 -9.0677
# 5 12.2743 19.0065 7.7716 8.4178 27.8050 5.6414
# 6 -21.1919 -2.0847 3.6124 -9.0677 5.6414 45.2643
#
#
#
# Elastic Compliance Matrix: (Units=1/GPa)
#
#
# Indices 1 2 3 4 5 6 
#
# 1 0.008108 -0.012283 0.001885 -0.007002 0.006227 0.000901
# 2 -0.012283 0.065332 -0.015054 0.040265 -0.049802 0.012733
# 3 0.001885 -0.015054 0.020413 -0.030922 0.015044 -0.009509
# 4 -0.007002 0.040265 -0.030922 0.106573 -0.053962 0.029119
# 5 0.006227 -0.049802 0.015044 -0.053962 0.083821 -0.021836
# 6 0.000901 0.012733 -0.009509 0.029119 -0.021836 0.032414
#
#
# Mechanical properties :
#
#
# Convention : Reuss Voigt Hill
#
# Bulk Modulus (GPa) = 23.28323 52.64224 37.96274
# Shear Modulus (GPa) = 13.09315 36.12184 24.60749
#
# Velocity S-wave (km/s) = 2.48266 4.12363 3.40352
# Velocity P-wave (km/s) = 4.37935 6.88867 5.77202
#
# Compressibility (1/GPa) = 0.04294937
#
# Stress axis : x y z
#
# Youngs Moduli (GPa) = 123.34206 15.30649 48.98951
#
# Poissons Ratio (x) = 0.18800 -0.09237
# Poissons Ratio (y) = 1.51496 0.73749
# Poissons Ratio (z) = -0.23255 0.23043
#
# Static dielectric constant tensor:
#      x y z
#    x 1.875360 -0.034350 -0.029230 
#    y -0.034350 1.755750 0.010580 
#    z -0.029230 0.010580 1.756450 
# 
# From -- ./inp_files/144576.got.cif
#   From: 2010.05.17/outbox.cif.g08.bks.cpg/sg2_73_cif.got.tgz:144576.got - 2010.06.03 11:33:40.
