data_PCOD9024883
_publ_section_title
;
Structure prediction by ZEFSAII (Michael W. Deem and Ramdas Pophale) SiO2 
 PCOD9024883
Probable space group: P -1
;
_chemical_formula_sum "Si O2"
_cell_formula_units_Z 16
_cell_length_a 8.768815
_cell_length_b 7.979603
_cell_length_c 15.611124
_cell_angle_alpha 77.554462
_cell_angle_beta 70.354427
_cell_angle_gamma 128.262611
_cell_volume 662.008394
_symmetry_space_group_name_H-M "P -1"
_symmetry_group_IT_number 2
_symmetry_cell_setting 'triclinic'
loop_
_space_group_symop_operation_xyz
x,y,z
-x,-y,-z
loop_
_atom_site_type_symbol
_atom_site_label
_atom_site_fract_x
_atom_site_fract_y
_atom_site_fract_z
Si Si1 0.485086 0.528502 0.288511
Si Si2 0.303713 0.456734 0.496030
Si Si3 0.787718 0.275359 0.417001
Si Si4 0.251467 0.579686 0.195984
Si Si5 0.804333 0.026401 0.586530
Si Si6 0.307622 0.139306 0.028236
Si Si7 0.438803 0.080445 0.180581
Si Si8 0.148009 0.328436 0.926586
O O1 0.446948 0.627253 0.363406
O O2 0.312016 0.459851 0.253581
O O3 0.734138 0.679691 0.176805
O O4 0.389815 0.271153 0.370110
O O5 0.500000 0.500000 0.500000
O O6 0.209472 0.533596 0.565199
O O7 0.060959 0.154077 0.554696
O O8 0.881781 0.221785 0.478406
O O9 0.963270 0.393145 0.287684
O O10 0.500000 0.000000 0.500000
O O11 0.399687 0.859308 0.176629
O O12 0.404802 0.664934 0.071330
O O13 0.682562 0.016062 0.692721
O O14 0.295976 0.085797 0.136691
O O15 0.213893 0.251307 0.001179
O O16 0.132041 0.878742 0.029877
O O17 0.704955 0.380060 0.113588
#
# Coordination Sequence:
#
# PCOD9024883 Si02
#       8
#     2   2   2   2   2   2   2   2
#     4  10  22  40  66  94 133 171 222 275 341 402
#     4  12  24  38  64  98 131 174 222 273 340 405
#     4  12  26  45  67  98 139 180 231 280 337 409
#     4  11  23  42  65  94 134 179 222 282 336 399
#     4  11  23  43  69  94 135 178 220 282 341 401
#     4  10  22  43  68  95 131 175 224 284 338 404
#     4  11  22  40  68  94 132 175 218 281 342 397
#     4   9  22  42  67  98 129 172 228 280 340 408
#
# _framework density 24.168876000000001
#
# number of rings (size 3 to 8) (size 9 to 14) (size 15 to 20)
#    0.000    1.250    2.500    3.000    3.500    2.500 
#    0.000    5.000    0.000    0.000    0.000    0.000 
#    0.000    0.000    0.000    0.000    0.000    0.000 
#
# Total GULP energy -89247.916527 kJ/mol
# GULP energy per Si atom -5577.994783 kJ/mol
# Density = 2.411387 g / cm^3
# Si number density = 24.168876 Si / 1000 Ang^3
#
#
#
# Elastic Constant Matrix: (Units=GPa)
#
#
# Indices 1 2 3 4 5 6 
#
# 1 52.5714 9.5517 20.3372 -13.4207 -10.9402 7.1196
# 2 9.5517 85.3529 15.1399 -23.3241 -3.5627 11.1358
# 3 20.3372 15.1399 75.2034 -14.7003 -23.2188 6.4224
# 4 -13.4207 -23.3241 -14.7003 31.8982 1.8146 -1.2583
# 5 -10.9402 -3.5627 -23.2188 1.8146 38.2953 -6.1940
# 6 7.1196 11.1358 6.4224 -1.2583 -6.1940 28.8718
#
#
#
# Elastic Compliance Matrix: (Units=1/GPa)
#
#
# Indices 1 2 3 4 5 6 
#
# 1 0.023755 0.001080 -0.003400 0.008835 0.003705 -0.004338
# 2 0.001080 0.015533 -0.000796 0.011233 -0.000171 -0.005628
# 3 -0.003400 -0.000796 0.018652 0.005997 0.009879 -0.000623
# 4 0.008835 0.011233 0.005997 0.045608 0.004244 -0.004947
# 5 0.003705 -0.000171 0.009879 0.004244 0.033649 0.004359
# 6 -0.004338 -0.005628 -0.000623 -0.004947 0.004359 0.038734
#
#
# Mechanical properties :
#
#
# Convention : Reuss Voigt Hill
#
# Bulk Modulus (GPa) = 19.33910 33.68726 26.51318
# Shear Modulus (GPa) = 25.07529 31.01964 28.04746
#
# Velocity S-wave (km/s) = 3.22452 3.58642 3.41028
# Velocity P-wave (km/s) = 4.67787 5.57839 5.14786
#
# Compressibility (1/GPa) = 0.05170872
#
# Stress axis : x y z
#
# Youngs Moduli (GPa) = 42.09674 64.37872 53.61216
#
# Poissons Ratio (x) = -0.06951 0.18228
# Poissons Ratio (y) = -0.04545 0.04265
# Poissons Ratio (z) = 0.14313 0.05122
#
# Static dielectric constant tensor:
#      x y z
#    x 1.999400 -0.019560 -0.004450 
#    y -0.019560 2.045230 0.001190 
#    z -0.004450 0.001190 2.036630 
# 
# From -- ./inp_files/494869.got.cif
#   From: 2010.05.17/outbox.cif.g08.bks.cpg/sg2_248_cif.got.tgz:494869.got - 2010.06.03 11:33:40.
