data_PCOD9024047
_publ_section_title
;
Structure prediction by ZEFSAII (Michael W. Deem and Ramdas Pophale) SiO2 
 PCOD9024047
Probable space group: P -1
;
_chemical_formula_sum "Si O2"
_cell_formula_units_Z 12
_cell_length_a 12.480276
_cell_length_b 23.140469
_cell_length_c 19.854885
_cell_angle_alpha 17.663472
_cell_angle_beta 27.704136
_cell_angle_gamma 20.496003
_cell_volume 607.809248
_symmetry_space_group_name_H-M "P -1"
_symmetry_group_IT_number 2
_symmetry_cell_setting 'triclinic'
loop_
_space_group_symop_operation_xyz
x,y,z
-x,-y,-z
loop_
_atom_site_type_symbol
_atom_site_label
_atom_site_fract_x
_atom_site_fract_y
_atom_site_fract_z
Si Si1 0.771147 0.121833 0.319291
Si Si2 0.292851 0.398478 0.160772
Si Si3 0.747267 0.431420 0.384483
Si Si4 0.352890 0.843797 0.496568
Si Si5 0.334601 0.727755 0.041458
Si Si6 0.617822 0.099670 0.034014
O O1 0.523065 0.215934 0.294885
O O2 0.643433 0.131292 0.452486
O O3 0.814357 0.326283 0.070995
O O4 0.079853 0.840945 0.442980
O O5 0.007987 0.414907 0.293723
O O6 0.476876 0.304084 0.092682
O O7 0.500000 0.500000 0.500000
O O8 0.585503 0.649039 0.176601
O O9 0.547205 0.549168 0.699988
O O10 0.486685 0.957995 0.260403
O O11 0.000000 0.000000 0.500000
O O12 0.390334 0.827397 0.964875
O O13 0.972842 0.916950 0.017436
#
# Coordination Sequence:
#
# PCOD9024047 Si02
#       6
#     2   2   2   2   2   2
#     4  10  22  40  63  88 117 158 198 238 294 351
#     4  10  22  42  63  86 119 157 199 243 291 349
#     4  12  25  39  60  89 120 155 198 246 296 350
#     4  11  22  39  64  90 119 156 196 242 294 349
#     4  10  22  40  63  88 119 158 196 241 294 347
#     4  11  23  39  60  90 122 154 197 244 292 350
#
# _framework density 19.743036
#
# number of rings (size 3 to 8) (size 9 to 14) (size 15 to 20)
#    0.000    1.333    0.000    6.000    0.000    5.333 
#    0.000    6.667    0.000    0.000    0.000    0.000 
#    0.000    0.000    0.000    0.000    0.000    0.000 
#
# Total GULP energy -67152.888413 kJ/mol
# GULP energy per Si atom -5596.074034 kJ/mol
# Density = 1.969810 g / cm^3
# Si number density = 19.743036 Si / 1000 Ang^3
#
#
#
# Elastic Constant Matrix: (Units=GPa)
#
#
# Indices 1 2 3 4 5 6 
#
# 1 68.0704 40.6916 26.3101 12.9240 -2.5106 -16.1559
# 2 40.6916 104.8839 54.6967 -2.6766 -19.0904 -18.9933
# 3 26.3101 54.6967 92.0192 -2.0688 4.9785 -15.4473
# 4 12.9240 -2.6766 -2.0688 43.7362 -4.0533 -2.0271
# 5 -2.5106 -19.0904 4.9785 -4.0533 30.0074 -0.8510
# 6 -16.1559 -18.9933 -15.4473 -2.0271 -0.8510 16.8355
#
#
#
# Elastic Compliance Matrix: (Units=1/GPa)
#
#
# Indices 1 2 3 4 5 6 
#
# 1 0.023540 -0.007581 -0.000018 -0.007138 -0.003446 0.012987
# 2 -0.007581 0.023101 -0.010586 0.005201 0.016820 0.010550
# 3 -0.000018 -0.010586 0.018418 -0.000470 -0.009731 0.004391
# 4 -0.007138 0.005201 -0.000470 0.025953 0.006353 0.002033
# 5 -0.003446 0.016820 -0.009731 0.006353 0.046489 0.009855
# 6 0.012987 0.010550 0.004391 0.002033 0.009855 0.088535
#
#
# Mechanical properties :
#
#
# Convention : Reuss Voigt Hill
#
# Bulk Modulus (GPa) = 34.85712 56.48558 45.67135
# Shear Modulus (GPa) = 18.38451 27.66749 23.02600
#
# Velocity S-wave (km/s) = 3.05485 3.74756 3.41880
# Velocity P-wave (km/s) = 5.48968 6.88463 6.22634
#
# Compressibility (1/GPa) = 0.02868855
#
# Stress axis : x y z
#
# Youngs Moduli (GPa) = 42.48088 43.28887 54.29573
#
# Poissons Ratio (x) = 0.32817 0.00100
# Poissons Ratio (y) = 0.32204 0.57475
# Poissons Ratio (z) = 0.00078 0.45824
#
# Static dielectric constant tensor:
#      x y z
#    x 1.681680 0.005380 -0.006520 
#    y 0.005380 1.647380 -0.013960 
#    z -0.006520 -0.013960 1.688320 
# 
# From -- ./inp_files/173876.got.cif
#   From: 2010.05.17/outbox.cif.g08.bks.cpg/sg2_87_cif.got.tgz:173876.got - 2010.06.03 11:33:40.
