data_PCOD9024952
_publ_section_title
;
Structure prediction by ZEFSAII (Michael W. Deem and Ramdas Pophale) SiO2 
 PCOD9024952
Probable space group: P -1
;
_chemical_formula_sum "Si O2"
_cell_formula_units_Z 16
_cell_length_a 15.374117
_cell_length_b 8.779902
_cell_length_c 27.103375
_cell_angle_alpha 51.378690
_cell_angle_beta 161.675214
_cell_angle_gamma 118.711694
_cell_volume 799.605057
_symmetry_space_group_name_H-M "P -1"
_symmetry_group_IT_number 2
_symmetry_cell_setting 'triclinic'
loop_
_space_group_symop_operation_xyz
x,y,z
-x,-y,-z
loop_
_atom_site_type_symbol
_atom_site_label
_atom_site_fract_x
_atom_site_fract_y
_atom_site_fract_z
Si Si1 0.655904 0.655214 0.300931
Si Si2 0.087994 0.000252 0.337639
Si Si3 0.545553 0.253396 0.072675
Si Si4 0.180846 0.131943 0.087888
Si Si5 0.318749 0.968719 0.702264
Si Si6 0.357459 0.999097 0.315919
Si Si7 0.849243 0.970676 0.109491
Si Si8 0.358449 0.429752 0.249348
O O1 0.476325 0.520830 0.248861
O O2 0.000000 0.500000 0.500000
O O3 0.678140 0.803102 0.327781
O O4 0.455909 0.823098 0.117002
O O5 0.313916 0.737823 0.514971
O O6 0.326541 0.096238 0.462739
O O7 0.819064 0.099517 0.213576
O O8 0.951534 0.037196 0.202099
O O9 0.625326 0.158931 0.190182
O O10 0.500000 0.500000 0.000000
O O11 0.245067 0.225599 0.898853
O O12 0.403175 0.148523 0.162866
O O13 0.385778 0.995433 0.273033
O O14 0.904895 0.368564 0.905124
O O15 0.000000 0.000000 0.000000
O O16 0.000000 0.000000 0.500000
O O17 0.222243 0.260703 0.198710
O O18 0.117761 0.921099 0.223692
#
# Coordination Sequence:
#
# PCOD9024952 Si02
#       8
#     2   2   2   2   2   2   2   2
#     4  11  23  40  67 101 131 169 224 277 327 395
#     4  10  24  43  67  97 132 178 225 269 329 404
#     4  11  25  47  63  93 135 177 220 278 330 391
#     4  12  21  41  66  99 138 173 214 277 334 394
#     4  11  25  41  65  96 131 169 220 271 336 392
#     4  10  23  41  67  98 138 166 224 272 329 395
#     4  11  22  44  68  97 132 173 227 270 331 402
#     4  10  22  40  66  97 133 172 220 271 333 386
#
# _framework density 20.009878
#
# number of rings (size 3 to 8) (size 9 to 14) (size 15 to 20)
#    0.750    0.500    2.500    4.125    1.750    3.000 
#    2.250    0.625    0.000    0.000    0.000    0.000 
#    0.000    0.000    0.000    0.000    0.000    0.000 
#
# Total GULP energy -89229.385925 kJ/mol
# GULP energy per Si atom -5576.836620 kJ/mol
# Density = 1.996433 g / cm^3
# Si number density = 20.009878 Si / 1000 Ang^3
#
#
#
# Elastic Constant Matrix: (Units=GPa)
#
#
# Indices 1 2 3 4 5 6 
#
# 1 96.8976 -7.1213 39.4739 -3.9742 10.0415 -4.3483
# 2 -7.1213 47.4264 20.2516 13.0619 3.9610 8.1185
# 3 39.4739 20.2516 83.9721 13.2028 0.5918 -3.2752
# 4 -3.9742 13.0619 13.2028 19.5362 -7.7279 -0.7004
# 5 10.0415 3.9610 0.5918 -7.7279 44.0604 13.0196
# 6 -4.3483 8.1185 -3.2752 -0.7004 13.0196 29.8832
#
#
#
# Elastic Compliance Matrix: (Units=1/GPa)
#
#
# Indices 1 2 3 4 5 6 
#
# 1 0.014824 0.004752 -0.008738 0.004476 -0.003337 0.001467
# 2 0.004752 0.031205 -0.007311 -0.017080 -0.004740 -0.006923
# 3 -0.008738 -0.007311 0.019458 -0.010007 -0.000161 0.002683
# 4 0.004476 -0.017080 -0.010007 0.075807 0.013981 -0.000120
# 5 -0.003337 -0.004740 -0.000161 0.013981 0.029851 -0.011893
# 6 0.001467 -0.006923 0.002683 -0.000120 -0.011893 0.041031
#
#
# Mechanical properties :
#
#
# Convention : Reuss Voigt Hill
#
# Bulk Modulus (GPa) = 23.31288 37.05605 30.18446
# Shear Modulus (GPa) = 20.07481 30.40876 25.24179
#
# Velocity S-wave (km/s) = 3.17084 3.90255 3.55557
# Velocity P-wave (km/s) = 5.00816 6.23423 5.65452
#
# Compressibility (1/GPa) = 0.04289475
#
# Stress axis : x y z
#
# Youngs Moduli (GPa) = 67.45773 32.04567 51.39168
#
# Poissons Ratio (x) = -0.15227 0.44904
# Poissons Ratio (y) = -0.32053 0.37571
# Poissons Ratio (z) = 0.58942 0.23427
#
# Static dielectric constant tensor:
#      x y z
#    x 1.705740 -0.006270 -0.022660 
#    y -0.006270 1.722330 0.010740 
#    z -0.022660 0.010740 1.724720 
# 
# From -- ./inp_files/619258.got.cif
#   From: 2010.05.17/outbox.cif.g08.bks.cpg/sg2_310_cif.got.tgz:619258.got - 2010.06.03 11:33:40.
