data_PCOD9024960
_publ_section_title
;
Structure prediction by ZEFSAII (Michael W. Deem and Ramdas Pophale) SiO2 
 PCOD9024960
Probable space group: P -1
;
_chemical_formula_sum "Si O2"
_cell_formula_units_Z 16
_cell_length_a 13.591771
_cell_length_b 10.985800
_cell_length_c 5.849860
_cell_angle_alpha 97.128345
_cell_angle_beta 125.815644
_cell_angle_gamma 101.530962
_cell_volume 661.297937
_symmetry_space_group_name_H-M "P -1"
_symmetry_group_IT_number 2
_symmetry_cell_setting 'triclinic'
loop_
_space_group_symop_operation_xyz
x,y,z
-x,-y,-z
loop_
_atom_site_type_symbol
_atom_site_label
_atom_site_fract_x
_atom_site_fract_y
_atom_site_fract_z
Si Si1 0.199220 0.987118 0.897028
Si Si2 0.142201 0.160332 0.222316
Si Si3 0.474270 0.122860 0.104277
Si Si4 0.497755 0.393071 0.158869
Si Si5 0.108710 0.891237 0.333997
Si Si6 0.287427 0.403151 0.238062
Si Si7 0.278620 0.793395 0.279850
Si Si8 0.924752 0.487055 0.146832
O O1 0.087268 0.887725 0.572349
O O2 0.255371 0.904300 0.121132
O O3 0.147083 0.087529 0.974599
O O4 0.326358 0.070892 0.956759
O O5 0.250698 0.298583 0.372041
O O6 0.147567 0.047281 0.372338
O O7 0.002080 0.173883 0.016018
O O8 0.499431 0.256308 0.028428
O O9 0.570635 0.173092 0.462509
O O10 0.500000 0.000000 0.000000
O O11 0.375759 0.370397 0.157105
O O12 0.624971 0.460544 0.500817
O O13 0.500000 0.500000 0.000000
O O14 0.216735 0.823672 0.438620
O O15 0.155351 0.412712 0.957859
O O16 0.188940 0.653724 0.039796
O O17 0.000000 0.500000 0.500000
O O18 0.000000 0.500000 0.000000
#
# Coordination Sequence:
#
# PCOD9024960 Si02
#       8
#     2   2   2   2   2   2   2   2
#     4  11  23  40  68  99 136 185 239 305 382 447
#     4  10  22  40  66  97 140 183 240 299 377 462
#     4  12  24  46  73 104 144 195 253 323 396 464
#     4  11  27  47  73 109 150 203 262 331 399 480
#     4  10  22  42  65 104 138 185 236 307 373 465
#     4  11  25  47  74 105 151 199 260 323 401 477
#     4  11  25  44  69 103 143 184 252 312 380 461
#     4  12  30  51  79 114 157 212 262 325 399 480
#
# _framework density 24.194842999999999
#
# number of rings (size 3 to 8) (size 9 to 14) (size 15 to 20)
#    0.000    1.000    3.750    1.500    7.000    1.000 
#    0.000    0.000    0.000    0.000    0.000    0.000 
#    0.000    0.000    0.000    0.000    0.000    0.000 
#
# Total GULP energy -89247.097020 kJ/mol
# GULP energy per Si atom -5577.943564 kJ/mol
# Density = 2.413977 g / cm^3
# Si number density = 24.194843 Si / 1000 Ang^3
#
#
#
# Elastic Constant Matrix: (Units=GPa)
#
#
# Indices 1 2 3 4 5 6 
#
# 1 50.5559 8.0669 34.1554 -0.3755 12.2305 7.4905
# 2 8.0669 131.9918 20.9778 17.2412 5.6446 -4.7243
# 3 34.1554 20.9778 131.4754 1.2951 19.3586 -2.1048
# 4 -0.3755 17.2412 1.2951 32.7235 -5.8787 5.4711
# 5 12.2305 5.6446 19.3586 -5.8787 32.5469 3.7045
# 6 7.4905 -4.7243 -2.1048 5.4711 3.7045 27.5438
#
#
#
# Elastic Compliance Matrix: (Units=1/GPa)
#
#
# Indices 1 2 3 4 5 6 
#
# 1 0.026361 -0.000862 -0.006098 0.001322 -0.005052 -0.007366
# 2 -0.000862 0.008651 -0.000753 -0.005409 -0.002048 0.003011
# 3 -0.006098 -0.000753 0.009978 -0.001325 -0.004106 0.003107
# 4 0.001322 -0.005409 -0.001325 0.036747 0.008993 -0.009897
# 5 -0.005052 -0.002048 -0.004106 0.008993 0.037745 -0.006154
# 6 -0.007366 0.003011 0.003107 -0.009897 -0.006154 0.041856
#
#
# Mechanical properties :
#
#
# Convention : Reuss Voigt Hill
#
# Bulk Modulus (GPa) = 33.82657 48.93593 41.38125
# Shear Modulus (GPa) = 26.79279 35.28436 31.03858
#
# Velocity S-wave (km/s) = 3.33134 3.82297 3.58559
# Velocity P-wave (km/s) = 5.36734 6.30527 5.85512
#
# Compressibility (1/GPa) = 0.02956256
#
# Stress axis : x y z
#
# Youngs Moduli (GPa) = 37.93552 115.59994 100.22542
#
# Poissons Ratio (x) = 0.09967 0.61113
# Poissons Ratio (y) = 0.03271 0.07549
# Poissons Ratio (z) = 0.23131 0.08708
#
# Static dielectric constant tensor:
#      x y z
#    x 2.136120 0.068100 0.054080 
#    y 0.068100 1.970020 -0.008820 
#    z 0.054080 -0.008820 1.982750 
# 
# From -- ./inp_files/95098.got.cif
#   From: 2010.05.17/outbox.cif.g08.bks.cpg/sg2_48_cif.got.tgz:95098.got - 2010.06.03 11:33:40.
