data_PCOD9024621
_publ_section_title
;
Structure prediction by ZEFSAII (Michael W. Deem and Ramdas Pophale) SiO2 
 PCOD9024621
Probable space group: P -1
;
_chemical_formula_sum "Si O2"
_cell_formula_units_Z 14
_cell_length_a 17.328687
_cell_length_b 8.691847
_cell_length_c 19.723071
_cell_angle_alpha 42.128330
_cell_angle_beta 161.635151
_cell_angle_gamma 133.208725
_cell_volume 625.232531
_symmetry_space_group_name_H-M "P -1"
_symmetry_group_IT_number 2
_symmetry_cell_setting 'triclinic'
loop_
_space_group_symop_operation_xyz
x,y,z
-x,-y,-z
loop_
_atom_site_type_symbol
_atom_site_label
_atom_site_fract_x
_atom_site_fract_y
_atom_site_fract_z
Si Si1 0.744534 0.294814 0.697201
Si Si2 0.265122 0.352913 0.920870
Si Si3 0.148332 0.213004 0.573620
Si Si4 0.143910 0.852690 0.019694
Si Si5 0.723580 0.622662 0.233391
Si Si6 0.514166 0.375930 0.723824
Si Si7 0.727940 0.820020 0.781132
O O1 0.699304 0.267065 0.748176
O O2 0.657455 0.531912 0.511947
O O3 0.636451 0.080097 0.639283
O O4 0.037902 0.243845 0.952903
O O5 0.326834 0.289937 0.913848
O O6 0.041364 0.555547 0.668752
O O7 0.509448 0.451748 0.122967
O O8 0.186302 0.120928 0.964400
O O9 0.256223 0.209102 0.741112
O O10 0.371253 0.223683 0.703918
O O11 0.000000 0.000000 0.500000
O O12 0.235888 0.738883 0.063366
O O13 0.869599 0.814069 0.828254
O O14 0.000000 0.500000 0.500000
O O15 0.563599 0.613560 0.723542
#
# Coordination Sequence:
#
# PCOD9024621 Si02
#       7
#     2   2   2   2   2   2   2
#     4   9  21  40  62  92 128 161 209 258 318 386
#     4  10  22  46  70  91 130 169 216 273 321 378
#     4  11  27  43  63  98 132 170 221 262 325 385
#     4  10  22  40  65  95 127 163 212 264 322 381
#     4   9  22  44  70  89 126 167 224 262 320 379
#     4  12  23  39  63  92 131 168 206 267 318 376
#     4   9  21  40  62  90 127 160 217 249 319 384
#
# _framework density 22.391667999999999
#
# number of rings (size 3 to 8) (size 9 to 14) (size 15 to 20)
#    0.857    1.143    0.000    2.143    8.000    0.571 
#    5.143    0.000    0.000    0.000    0.000    0.000 
#    0.000    0.000    0.000    0.000    0.000    0.000 
#
# Total GULP energy -78099.691407 kJ/mol
# GULP energy per Si atom -5578.549386 kJ/mol
# Density = 2.234070 g / cm^3
# Si number density = 22.391668 Si / 1000 Ang^3
#
#
#
# Elastic Constant Matrix: (Units=GPa)
#
#
# Indices 1 2 3 4 5 6 
#
# 1 118.7964 33.1304 18.3649 10.7489 4.2303 -4.7287
# 2 33.1304 78.4629 15.4108 24.8408 -8.2230 7.3386
# 3 18.3649 15.4108 58.8232 7.4030 11.8619 -0.8648
# 4 10.7489 24.8408 7.4030 33.0318 -3.3417 3.7273
# 5 4.2303 -8.2230 11.8619 -3.3417 31.6428 4.3461
# 6 -4.7287 7.3386 -0.8648 3.7273 4.3461 29.5986
#
#
#
# Elastic Compliance Matrix: (Units=1/GPa)
#
#
# Indices 1 2 3 4 5 6 
#
# 1 0.010110 -0.004464 -0.001429 -0.000203 -0.002418 0.003061
# 2 -0.004464 0.020309 -0.003925 -0.011637 0.006859 -0.005405
# 3 -0.001429 -0.003925 0.020703 -0.002502 -0.009270 0.003026
# 4 -0.000203 -0.011637 -0.002502 0.040210 0.002553 -0.002659
# 5 -0.002418 0.006859 -0.009270 0.002553 0.038600 -0.008347
# 6 0.003061 -0.005405 0.003026 -0.002659 -0.008347 0.037263
#
#
# Mechanical properties :
#
#
# Convention : Reuss Voigt Hill
#
# Bulk Modulus (GPa) = 31.75947 43.32165 37.54056
# Shear Modulus (GPa) = 25.33876 31.46639 28.40258
#
# Velocity S-wave (km/s) = 3.36760 3.75276 3.56539
# Velocity P-wave (km/s) = 5.41621 6.17793 5.80957
#
# Compressibility (1/GPa) = 0.03148667
#
# Stress axis : x y z
#
# Youngs Moduli (GPa) = 98.91456 49.23903 48.30156
#
# Poissons Ratio (x) = 0.21978 0.06902
# Poissons Ratio (y) = 0.44151 0.18960
# Poissons Ratio (z) = 0.14134 0.19328
#
# Static dielectric constant tensor:
#      x y z
#    x 1.860760 -0.038380 -0.035270 
#    y -0.038380 1.798470 -0.014120 
#    z -0.035270 -0.014120 1.916280 
# 
# From -- ./inp_files/599716.got.cif
#   From: 2010.05.17/outbox.cif.g08.bks.cpg/sg2_300_cif.got.tgz:599716.got - 2010.06.03 11:33:40.
