data_PCOD9024037
_publ_section_title
;
Structure prediction by ZEFSAII (Michael W. Deem and Ramdas Pophale) SiO2 
 PCOD9024037
Probable space group: P -1
;
_chemical_formula_sum "Si O2"
_cell_formula_units_Z 16
_cell_length_a 18.023015
_cell_length_b 10.004418
_cell_length_c 16.292860
_cell_angle_alpha 40.398209
_cell_angle_beta 157.324017
_cell_angle_gamma 141.604542
_cell_volume 694.314696
_symmetry_space_group_name_H-M "P -1"
_symmetry_group_IT_number 2
_symmetry_cell_setting 'triclinic'
loop_
_space_group_symop_operation_xyz
x,y,z
-x,-y,-z
loop_
_atom_site_type_symbol
_atom_site_label
_atom_site_fract_x
_atom_site_fract_y
_atom_site_fract_z
Si Si1 0.784129 0.674350 0.919325
Si Si2 0.811329 0.959435 0.178626
Si Si3 0.527468 0.839026 0.786107
Si Si4 0.469283 0.624832 0.065801
Si Si5 0.396140 0.772358 0.434602
Si Si6 0.851273 0.258633 0.637991
Si Si7 0.930379 0.340599 0.426014
Si Si8 0.984038 0.536176 0.870298
O O1 0.631790 0.791332 0.673351
O O2 0.628432 0.464207 0.904684
O O3 0.910688 0.608402 0.007893
O O4 0.952557 0.798697 0.102151
O O5 0.992244 0.862424 0.391366
O O6 0.903273 0.217194 0.157136
O O7 0.654839 0.895658 0.972247
O O8 0.679274 0.822103 0.183502
O O9 0.293402 0.839854 0.541400
O O10 0.634879 0.032214 0.741546
O O11 0.516759 0.595164 0.861811
O O12 0.303558 0.701675 0.811923
O O13 0.303498 0.766230 0.433243
O O14 0.255340 0.549069 0.355120
O O15 0.953186 0.512347 0.600598
O O16 0.000000 0.500000 0.500000
O O17 0.000000 0.500000 0.000000
#
# Coordination Sequence:
#
# PCOD9024037 Si02
#       8
#     2   2   2   2   2   2   2   2
#     4  10  24  45  71  95 134 177 224 276 321 402
#     4  12  24  44  68  97 141 176 213 282 323 392
#     4  12  21  40  70  99 142 169 209 282 335 389
#     4  11  23  42  66 107 131 167 227 270 344 388
#     4  11  23  45  67  97 133 181 221 270 331 386
#     4  10  22  40  63 102 136 166 216 278 336 387
#     4  11  21  39  64  99 136 171 216 266 337 403
#     4  11  26  50  64  94 137 177 230 265 324 394
#
# _framework density 23.044307
#
# number of rings (size 3 to 8) (size 9 to 14) (size 15 to 20)
#    0.000    1.000    5.000    1.500    0.000    2.500 
#   11.250    8.750    0.000    0.000    0.000    0.000 
#    0.000    0.000    0.000    0.000    0.000    0.000 
#
# Total GULP energy -89413.573998 kJ/mol
# GULP energy per Si atom -5588.348375 kJ/mol
# Density = 2.299186 g / cm^3
# Si number density = 23.044307 Si / 1000 Ang^3
#
#
#
# Elastic Constant Matrix: (Units=GPa)
#
#
# Indices 1 2 3 4 5 6 
#
# 1 58.4682 9.4780 24.5647 -5.3312 5.4360 10.8674
# 2 9.4780 109.9335 34.5324 2.1735 9.4442 9.4491
# 3 24.5647 34.5324 165.5577 1.5893 14.7459 -4.9950
# 4 -5.3312 2.1735 1.5893 32.1997 5.7870 -5.3942
# 5 5.4360 9.4442 14.7459 5.7870 33.1443 0.8695
# 6 10.8674 9.4491 -4.9950 -5.3942 0.8695 28.6173
#
#
#
# Elastic Compliance Matrix: (Units=1/GPa)
#
#
# Indices 1 2 3 4 5 6 
#
# 1 0.020261 0.000015 -0.003069 0.002618 -0.002218 -0.007674
# 2 0.000015 0.010253 -0.002095 -0.000925 -0.001729 -0.003879
# 3 -0.003069 -0.002095 0.007227 0.000220 -0.002238 0.003228
# 4 0.002618 -0.000925 0.000220 0.033659 -0.006295 0.005885
# 5 -0.002218 -0.001729 -0.002238 -0.006295 0.033153 -0.001171
# 6 -0.007674 -0.003879 0.003228 0.005885 -0.001171 0.040847
#
#
# Mechanical properties :
#
#
# Convention : Reuss Voigt Hill
#
# Bulk Modulus (GPa) = 36.43613 52.34552 44.39083
# Shear Modulus (GPa) = 30.33137 36.48454 33.40795
#
# Velocity S-wave (km/s) = 3.63191 3.98330 3.81166
# Velocity P-wave (km/s) = 5.78216 6.62722 6.21906
#
# Compressibility (1/GPa) = 0.02744528
#
# Stress axis : x y z
#
# Youngs Moduli (GPa) = 49.35506 97.52835 138.36743
#
# Poissons Ratio (x) = -0.00151 0.42460
# Poissons Ratio (y) = -0.00076 0.28990
# Poissons Ratio (z) = 0.15145 0.20434
#
# Static dielectric constant tensor:
#      x y z
#    x 1.892950 0.035950 -0.025750 
#    y 0.035950 1.897320 0.011840 
#    z -0.025750 0.011840 1.904920 
# 
# From -- ./inp_files/428207.got.cif
#   From: 2010.05.17/outbox.cif.g08.bks.cpg/sg2_215_cif.got.tgz:428207.got - 2010.06.03 11:33:40.
