data_PCOD9024311
_publ_section_title
;
Structure prediction by ZEFSAII (Michael W. Deem and Ramdas Pophale) SiO2 
 PCOD9024311
Probable space group: P -1
;
_chemical_formula_sum "Si O2"
_cell_formula_units_Z 14
_cell_length_a 17.988844
_cell_length_b 5.113286
_cell_length_c 11.419645
_cell_angle_alpha 122.263328
_cell_angle_beta 143.168742
_cell_angle_gamma 65.152410
_cell_volume 532.403809
_symmetry_space_group_name_H-M "P -1"
_symmetry_group_IT_number 2
_symmetry_cell_setting 'triclinic'
loop_
_space_group_symop_operation_xyz
x,y,z
-x,-y,-z
loop_
_atom_site_type_symbol
_atom_site_label
_atom_site_fract_x
_atom_site_fract_y
_atom_site_fract_z
Si Si1 0.120984 0.664047 0.746128
Si Si2 0.839145 0.809533 0.670660
Si Si3 0.957119 0.190081 0.694765
Si Si4 0.609607 0.861624 0.809007
Si Si5 0.267188 0.095009 0.772470
Si Si6 0.411204 0.227679 0.772383
Si Si7 0.730969 0.236093 0.836667
O O1 0.232404 0.455586 0.788089
O O2 0.000000 0.500000 0.500000
O O3 0.151859 0.614492 0.910057
O O4 0.085696 0.025428 0.786632
O O5 0.931331 0.547698 0.769496
O O6 0.713671 0.659981 0.421403
O O7 0.905440 0.005419 0.698908
O O8 0.789130 0.029807 0.760906
O O9 0.860453 0.095127 0.446938
O O10 0.636063 0.498734 0.739207
O O11 0.478118 0.007833 0.710126
O O12 0.663449 0.035105 0.804950
O O13 0.677773 0.930434 0.036031
O O14 0.364080 0.025481 0.775625
O O15 0.500000 0.500000 0.000000
#
# Coordination Sequence:
#
# PCOD9024311 Si02
#       7
#     2   2   2   2   2   2   2
#     4   9  20  40  65  92 123 160 203 251 308 364
#     4  11  25  42  62  91 127 162 207 253 302 364
#     4  10  22  40  64  92 123 162 203 253 308 362
#     4  11  23  40  65  91 126 164 204 252 307 362
#     4   9  20  39  62  95 125 156 204 259 305 362
#     4  11  22  40  66  93 124 163 206 255 307 362
#     4  11  25  43  62  92 127 163 205 253 302 366
#
# _framework density 26.295831
#
# number of rings (size 3 to 8) (size 9 to 14) (size 15 to 20)
#    0.000    1.714    0.000    3.857    0.000   11.429 
#    0.000   10.714    0.000    0.000    0.000    0.000 
#    0.000    0.000    0.000    0.000    0.000    0.000 
#
# Total GULP energy -78326.305087 kJ/mol
# GULP energy per Si atom -5594.736078 kJ/mol
# Density = 2.623598 g / cm^3
# Si number density = 26.295831 Si / 1000 Ang^3
#
#
#
# Elastic Constant Matrix: (Units=GPa)
#
#
# Indices 1 2 3 4 5 6 
#
# 1 161.8052 74.1327 6.0554 0.5906 -0.9168 -13.8192
# 2 74.1327 225.7686 10.9006 -20.9269 2.1829 -11.5947
# 3 6.0554 10.9006 65.5788 -1.3794 -2.8909 -3.8496
# 4 0.5906 -20.9269 -1.3794 38.2022 -17.9049 -2.6417
# 5 -0.9168 2.1829 -2.8909 -17.9049 29.4501 3.8514
# 6 -13.8192 -11.5947 -3.8496 -2.6417 3.8514 52.7909
#
#
#
# Elastic Compliance Matrix: (Units=1/GPa)
#
#
# Indices 1 2 3 4 5 6 
#
# 1 0.007467 -0.002531 -0.000268 -0.001841 -0.000903 0.001353
# 2 -0.002531 0.005672 -0.000508 0.004021 0.001815 0.000615
# 3 -0.000268 -0.000508 0.015540 0.001430 0.002312 0.000854
# 4 -0.001841 0.004021 0.001430 0.039668 0.023803 0.000754
# 5 -0.000903 0.001815 0.002312 0.023803 0.048758 -0.002035
# 6 0.001353 0.000615 0.000854 0.000754 -0.002035 0.019680
#
#
# Mechanical properties :
#
#
# Convention : Reuss Voigt Hill
#
# Bulk Modulus (GPa) = 45.32267 70.59223 57.95745
# Shear Modulus (GPa) = 33.16636 48.22625 40.69630
#
# Velocity S-wave (km/s) = 3.55530 4.28716 3.93826
# Velocity P-wave (km/s) = 5.84180 7.17007 6.53975
#
# Compressibility (1/GPa) = 0.02206401
#
# Stress axis : x y z
#
# Youngs Moduli (GPa) = 133.91789 176.31026 64.34922
#
# Poissons Ratio (x) = 0.44632 0.01723
# Poissons Ratio (y) = 0.33901 0.03271
# Poissons Ratio (z) = 0.03587 0.08963
#
# Static dielectric constant tensor:
#      x y z
#    x 2.046690 0.021660 0.059980 
#    y 0.021660 2.075390 0.060420 
#    z 0.059980 0.060420 2.132990 
# 
# From -- ./inp_files/411377.got.cif
#   From: 2010.05.17/outbox.cif.g08.bks.cpg/sg2_206_cif.got.tgz:411377.got - 2010.06.03 11:33:40.
