data_PCOD9024297
_publ_section_title
;
Structure prediction by ZEFSAII (Michael W. Deem and Ramdas Pophale) SiO2 
 PCOD9024297
Probable space group: P -1
;
_chemical_formula_sum "Si O2"
_cell_formula_units_Z 16
_cell_length_a 8.517508
_cell_length_b 23.085445
_cell_length_c 7.501720
_cell_angle_alpha 52.614342
_cell_angle_beta 143.711301
_cell_angle_gamma 127.256350
_cell_volume 672.252675
_symmetry_space_group_name_H-M "P -1"
_symmetry_group_IT_number 2
_symmetry_cell_setting 'triclinic'
loop_
_space_group_symop_operation_xyz
x,y,z
-x,-y,-z
loop_
_atom_site_type_symbol
_atom_site_label
_atom_site_fract_x
_atom_site_fract_y
_atom_site_fract_z
Si Si1 0.837457 0.889459 0.727358
Si Si2 0.853664 0.826551 0.465890
Si Si3 0.257952 0.799738 0.395967
Si Si4 0.750271 0.522987 0.323225
Si Si5 0.730647 0.258982 0.884111
Si Si6 0.204994 0.974567 0.366593
Si Si7 0.933158 0.645149 0.525673
Si Si8 0.652057 0.398330 0.750600
O O1 0.565545 0.837244 0.666914
O O2 0.831531 0.868062 0.555300
O O3 0.811864 0.974052 0.572669
O O4 0.097916 0.864607 0.092662
O O5 0.075014 0.887248 0.444893
O O6 0.542616 0.795490 0.176534
O O7 0.991992 0.758768 0.760556
O O8 0.284534 0.760690 0.301831
O O9 0.088241 0.732547 0.486340
O O10 0.844955 0.608646 0.318637
O O11 0.677843 0.476513 0.527784
O O12 0.000000 0.500000 0.500000
O O13 0.500000 0.500000 0.000000
O O14 0.721748 0.342296 0.770935
O O15 0.500000 0.000000 0.500000
O O16 0.000000 0.000000 0.000000
O O17 0.653793 0.633224 0.400777
O O18 0.139708 0.603608 0.892686
#
# Coordination Sequence:
#
# PCOD9024297 Si02
#       8
#     2   2   2   2   2   2   2   2
#     4  10  22  41  62  86 120 163 209 254 304 371
#     4  10  22  41  62  86 120 163 209 254 304 371
#     4  10  22  40  64  91 121 163 211 253 304 374
#     4  12  26  46  70  94 128 174 218 258 302 374
#     4  10  22  40  64  91 121 163 211 253 304 374
#     4  12  25  38  59  88 122 158 202 258 317 372
#     4  12  25  42  66  98 133 166 205 263 323 373
#     4  12  25  42  66  98 133 166 205 263 323 373
#
# _framework density 23.800576
#
# number of rings (size 3 to 8) (size 9 to 14) (size 15 to 20)
#    0.000    1.000    0.000    6.375    0.000    9.000 
#    0.000    5.000    0.000    0.000    0.000    0.000 
#    0.000    0.000    0.000    0.000    0.000    0.000 
#
# Total GULP energy -89604.834527 kJ/mol
# GULP energy per Si atom -5600.302158 kJ/mol
# Density = 2.374640 g / cm^3
# Si number density = 23.800576 Si / 1000 Ang^3
#
#
#
# Elastic Constant Matrix: (Units=GPa)
#
#
# Indices 1 2 3 4 5 6 
#
# 1 69.6036 8.7404 -0.0502 15.2463 14.9566 7.2887
# 2 8.7404 74.1070 -1.7291 3.1959 6.7621 -0.1639
# 3 -0.0502 -1.7291 99.0689 29.6915 14.1252 9.2325
# 4 15.2463 3.1959 29.6915 32.1078 5.0016 4.8124
# 5 14.9566 6.7621 14.1252 5.0016 38.9531 2.9547
# 6 7.2887 -0.1639 9.2325 4.8124 2.9547 48.3381
#
#
#
# Elastic Compliance Matrix: (Units=1/GPa)
#
#
# Indices 1 2 3 4 5 6 
#
# 1 0.018827 -0.000957 0.004742 -0.011803 -0.007105 -0.002138
# 2 -0.000957 0.013901 0.000997 -0.001547 -0.002231 0.000291
# 3 0.004742 0.000997 0.015825 -0.015847 -0.005560 -0.001817
# 4 -0.011803 -0.001547 -0.015847 0.051008 0.004037 -0.000524
# 5 -0.007105 -0.002231 -0.005560 0.004037 0.030295 -0.000128
# 6 -0.002138 0.000291 -0.001817 -0.000524 -0.000128 0.021418
#
#
# Mechanical properties :
#
#
# Convention : Reuss Voigt Hill
#
# Bulk Modulus (GPa) = 17.20679 28.52240 22.86459
# Shear Modulus (GPa) = 31.04017 39.60104 35.32061
#
# Velocity S-wave (km/s) = 3.61526 4.08348 3.85648
# Velocity P-wave (km/s) = 4.96710 5.85175 5.42748
#
# Compressibility (1/GPa) = 0.05811660
#
# Stress axis : x y z
#
# Youngs Moduli (GPa) = 53.11623 71.93700 63.19012
#
# Poissons Ratio (x) = 0.06886 -0.29968
# Poissons Ratio (y) = 0.05085 -0.06298
# Poissons Ratio (z) = -0.25190 -0.07169
#
# Static dielectric constant tensor:
#      x y z
#    x 1.931180 -0.051170 -0.021630 
#    y -0.051170 2.009030 -0.000630 
#    z -0.021630 -0.000630 1.823800 
# 
# From -- ./inp_files/226231.got.cif
#   From: 2010.05.17/outbox.cif.g08.bks.cpg/sg2_114_cif.got.tgz:226231.got - 2010.06.03 11:33:40.
