data_PCOD9024424
_publ_section_title
;
Structure prediction by ZEFSAII (Michael W. Deem and Ramdas Pophale) SiO2 
 PCOD9024424
Probable space group: P -1
;
_chemical_formula_sum "Si O2"
_cell_formula_units_Z 14
_cell_length_a 14.332490
_cell_length_b 10.866434
_cell_length_c 5.332045
_cell_angle_alpha 76.752558
_cell_angle_beta 105.472532
_cell_angle_gamma 138.974393
_cell_volume 524.824531
_symmetry_space_group_name_H-M "P -1"
_symmetry_group_IT_number 2
_symmetry_cell_setting 'triclinic'
loop_
_space_group_symop_operation_xyz
x,y,z
-x,-y,-z
loop_
_atom_site_type_symbol
_atom_site_label
_atom_site_fract_x
_atom_site_fract_y
_atom_site_fract_z
Si Si1 0.113229 0.261613 0.429099
Si Si2 0.662023 0.647873 0.786633
Si Si3 0.304909 0.700988 0.349194
Si Si4 0.536880 0.745272 0.343120
Si Si5 0.198483 0.040289 0.899348
Si Si6 0.955653 0.252001 0.682588
Si Si7 0.824323 0.328087 0.217399
O O1 0.219433 0.260281 0.389225
O O2 0.202985 0.478178 0.354099
O O3 0.055086 0.230571 0.682782
O O4 0.962622 0.099516 0.252054
O O5 0.559634 0.662749 0.614602
O O6 0.572727 0.432505 0.842458
O O7 0.736290 0.767384 0.034337
O O8 0.463545 0.799571 0.370411
O O9 0.273523 0.726486 0.588608
O O10 0.259158 0.748023 0.067166
O O11 0.686106 0.904173 0.234796
O O12 0.177128 0.928458 0.174824
O O13 0.905162 0.280224 0.387690
O O14 0.050230 0.444375 0.811174
#
# Coordination Sequence:
#
# PCOD9024424 Si02
#       7
#     2   2   2   2   2   2   2
#     4  10  22  40  64  96 131 166 220 270 329 389
#     4  10  23  43  62  92 126 180 216 268 327 398
#     4  10  22  43  70  98 129 177 222 267 325 395
#     4  10  24  42  64  90 133 171 221 266 327 398
#     4  12  22  38  63  96 131 169 214 278 325 390
#     4  10  23  38  66  97 133 162 217 277 330 384
#     4  10  22  42  71  98 131 174 221 270 330 389
#
# _framework density 26.675581999999999
#
# number of rings (size 3 to 8) (size 9 to 14) (size 15 to 20)
#    0.000    1.714    1.429    1.714    4.000    5.143 
#    5.143    1.429    0.000    0.000    0.000    0.000 
#    0.000    0.000    0.000    0.000    0.000    0.000 
#
# Total GULP energy -78479.002146 kJ/mol
# GULP energy per Si atom -5605.643010 kJ/mol
# Density = 2.661487 g / cm^3
# Si number density = 26.675582 Si / 1000 Ang^3
#
#
#
# Elastic Constant Matrix: (Units=GPa)
#
#
# Indices 1 2 3 4 5 6 
#
# 1 167.4200 14.9557 26.7628 -1.9547 -8.4051 26.9335
# 2 14.9557 100.2479 -1.7693 14.4805 -18.5884 9.4636
# 3 26.7628 -1.7693 62.7923 -13.0374 -20.4547 12.7079
# 4 -1.9547 14.4805 -13.0374 30.1876 4.0340 -9.8013
# 5 -8.4051 -18.5884 -20.4547 4.0340 28.2846 -3.7538
# 6 26.9335 9.4636 12.7079 -9.8013 -3.7538 36.4103
#
#
#
# Elastic Compliance Matrix: (Units=1/GPa)
#
#
# Indices 1 2 3 4 5 6 
#
# 1 0.007169 -0.000457 -0.002642 -0.001970 -0.000442 -0.004838
# 2 -0.000457 0.014273 0.004103 -0.008693 0.012677 -0.005837
# 3 -0.002642 0.004103 0.025246 0.004714 0.018871 -0.004709
# 4 -0.001970 -0.008693 0.004714 0.044517 -0.007476 0.013284
# 5 -0.000442 0.012677 0.018871 -0.007476 0.057520 -0.005637
# 6 -0.004838 -0.005837 -0.004709 0.013284 -0.005637 0.037199
#
#
# Mechanical properties :
#
#
# Convention : Reuss Voigt Hill
#
# Bulk Modulus (GPa) = 20.53570 45.59539 33.06554
# Shear Modulus (GPa) = 24.98135 38.34389 31.66262
#
# Velocity S-wave (km/s) = 3.06353 3.79544 3.44895
# Velocity P-wave (km/s) = 4.49763 6.02800 5.31815
#
# Compressibility (1/GPa) = 0.04869570
#
# Stress axis : x y z
#
# Youngs Moduli (GPa) = 139.48277 70.06166 39.60971
#
# Poissons Ratio (x) = 0.03201 0.10466
# Poissons Ratio (y) = 0.06373 -0.16250
# Poissons Ratio (z) = 0.36855 -0.28744
#
# Static dielectric constant tensor:
#      x y z
#    x 2.066730 -0.012460 0.010900 
#    y -0.012460 2.083450 0.023090 
#    z 0.010900 0.023090 2.123750 
# 
# From -- ./inp_files/27108.got.cif
#   From: 2010.05.17/outbox.cif.g08.bks.cpg/sg2_14_cif.got.tgz:27108.got - 2010.06.03 11:33:40.
