data_PCOD9024730
_publ_section_title
;
Structure prediction by ZEFSAII (Michael W. Deem and Ramdas Pophale) SiO2 
 PCOD9024730
Probable space group: P -1
;
_chemical_formula_sum "Si O2"
_cell_formula_units_Z 15
_cell_length_a 8.423392
_cell_length_b 24.565255
_cell_length_c 17.933631
_cell_angle_alpha 160.033833
_cell_angle_beta 145.002285
_cell_angle_gamma 44.792454
_cell_volume 691.482339
_symmetry_space_group_name_H-M "P -1"
_symmetry_group_IT_number 2
_symmetry_cell_setting 'triclinic'
loop_
_space_group_symop_operation_xyz
x,y,z
-x,-y,-z
loop_
_atom_site_type_symbol
_atom_site_label
_atom_site_fract_x
_atom_site_fract_y
_atom_site_fract_z
Si Si1 0.266173 0.038052 0.256084
Si Si2 0.694739 0.351128 0.458249
Si Si3 0.381552 0.734932 0.974379
Si Si4 0.500000 0.000000 0.000000
Si Si5 0.378996 0.182787 0.325527
Si Si6 0.850669 0.510056 0.565280
Si Si7 0.238860 0.356575 0.750202
Si Si8 0.286853 0.442722 0.044412
O O1 0.415143 0.115321 0.335173
O O2 0.211347 0.182731 0.473162
O O3 0.425405 0.927877 0.221720
O O4 0.949999 0.911286 0.949024
O O5 0.843945 0.419698 0.525201
O O6 0.419025 0.415357 0.444279
O O7 0.952798 0.410754 0.693710
O O8 0.576192 0.151440 0.162521
O O9 0.227305 0.631554 0.709944
O O10 0.667031 0.683179 0.037329
O O11 0.144282 0.657721 0.848687
O O12 0.439558 0.861233 0.728955
O O13 0.455444 0.382523 0.619547
O O14 0.500000 0.500000 0.000000
O O15 0.299915 0.352473 0.855173
O O16 0.000000 0.500000 0.000000
#
# Coordination Sequence:
#
# PCOD9024730 Si02
#       8
#     2   2   2   1   2   2   2   2
#     4  11  24  42  71 101 132 175 237 288 327 398
#     4  11  23  40  65 101 134 173 227 280 342 391
#     4  11  22  41  67  99 133 177 228 279 338 400
#     4  12  20  36  66  98 132 162 224 294 312 384
#     4  11  23  41  69 103 131 176 233 278 339 394
#     4  10  22  40  66 101 134 169 222 295 334 389
#     4  12  24  44  68  95 141 186 220 275 344 425
#     4  12  26  44  67  97 141 186 223 270 348 421
#
# _framework density 21.692527999999999
#
# number of rings (size 3 to 8) (size 9 to 14) (size 15 to 20)
#    0.000    0.800    2.667    6.400    1.867    0.533 
#    0.000    0.667    2.933    0.000    0.000    0.000 
#    0.000    0.000    0.000    0.000    0.000    0.000 
#
# Total GULP energy -83599.459196 kJ/mol
# GULP energy per Si atom -5573.297280 kJ/mol
# Density = 2.164316 g / cm^3
# Si number density = 21.692528 Si / 1000 Ang^3
#
#
#
# Elastic Constant Matrix: (Units=GPa)
#
#
# Indices 1 2 3 4 5 6 
#
# 1 87.1677 32.4901 23.5112 8.6818 -18.6337 14.3001
# 2 32.4901 126.3198 53.9585 22.7460 -11.3843 7.1250
# 3 23.5112 53.9585 71.5245 13.0228 -14.9212 5.1480
# 4 8.6818 22.7460 13.0228 38.4943 6.4556 2.0088
# 5 -18.6337 -11.3843 -14.9212 6.4556 32.1413 -4.9636
# 6 14.3001 7.1250 5.1480 2.0088 -4.9636 29.6903
#
#
#
# Elastic Compliance Matrix: (Units=1/GPa)
#
#
# Indices 1 2 3 4 5 6 
#
# 1 0.015225 -0.001981 -0.001068 -0.002869 0.007396 -0.005242
# 2 -0.001981 0.012701 -0.008006 -0.004411 0.000469 -0.000329
# 3 -0.001068 -0.008006 0.022763 -0.004066 0.007944 0.000092
# 4 -0.002869 -0.004411 -0.004066 0.032645 -0.011831 -0.001041
# 5 0.007396 0.000469 0.007944 -0.011831 0.042060 0.002780
# 6 -0.005242 -0.000329 0.000092 -0.001041 0.002780 0.036804
#
#
# Mechanical properties :
#
#
# Convention : Reuss Voigt Hill
#
# Bulk Modulus (GPa) = 34.98985 56.10351 45.54668
# Shear Modulus (GPa) = 25.79535 31.73533 28.76534
#
# Velocity S-wave (km/s) = 3.45213 3.82902 3.64545
# Velocity P-wave (km/s) = 5.66167 6.74297 6.22584
#
# Compressibility (1/GPa) = 0.02857972
#
# Stress axis : x y z
#
# Youngs Moduli (GPa) = 65.68022 78.73560 43.93164
#
# Poissons Ratio (x) = 0.15599 0.04690
# Poissons Ratio (y) = 0.13012 0.35170
# Poissons Ratio (z) = 0.07012 0.63033
#
# Static dielectric constant tensor:
#      x y z
#    x 1.867510 -0.047830 0.018140 
#    y -0.047830 1.799630 -0.023320 
#    z 0.018140 -0.023320 1.760970 
# 
# From -- ./inp_files/563222.got.cif
#   From: 2010.05.17/outbox.cif.g08.bks.cpg/sg2_282_cif.got.tgz:563222.got - 2010.06.03 11:33:40.
