data_PCOD9024830
_publ_section_title
;
Structure prediction by ZEFSAII (Michael W. Deem and Ramdas Pophale) SiO2 
 PCOD9024830
Probable space group: P -1
;
_chemical_formula_sum "Si O2"
_cell_formula_units_Z 14
_cell_length_a 12.565140
_cell_length_b 19.393989
_cell_length_c 22.458053
_cell_angle_alpha 17.339037
_cell_angle_beta 158.566456
_cell_angle_gamma 158.004302
_cell_volume 557.173783
_symmetry_space_group_name_H-M "P -1"
_symmetry_group_IT_number 2
_symmetry_cell_setting 'triclinic'
loop_
_space_group_symop_operation_xyz
x,y,z
-x,-y,-z
loop_
_atom_site_type_symbol
_atom_site_label
_atom_site_fract_x
_atom_site_fract_y
_atom_site_fract_z
Si Si1 0.802549 0.763999 0.024968
Si Si2 0.212177 0.751646 0.543087
Si Si3 0.399102 0.729530 0.201238
Si Si4 0.590960 0.614240 0.275187
Si Si5 0.176409 0.674369 0.721597
Si Si6 0.480737 0.046385 0.799589
Si Si7 0.585160 0.940599 0.377023
O O1 0.542193 0.711667 0.880804
O O2 0.152040 0.844401 0.117618
O O3 0.707149 0.963501 0.848074
O O4 0.721844 0.496664 0.234864
O O5 0.071271 0.696554 0.581944
O O6 0.958569 0.766439 0.351333
O O7 0.500000 0.000000 0.500000
O O8 0.471261 0.570961 0.316741
O O9 0.036336 0.583184 0.147565
O O10 0.552337 0.785887 0.300396
O O11 0.500000 0.000000 0.000000
O O12 0.526657 0.350266 0.430047
O O13 0.430875 0.777827 0.022614
O O14 0.185253 0.896546 0.587488
O O15 0.309070 0.013701 0.674046
#
# Coordination Sequence:
#
# PCOD9024830 Si02
#       7
#     2   2   2   2   2   2   2
#     4  10  22  40  66  92 131 162 209 263 334 362
#     4  12  24  39  66 100 126 168 217 269 315 384
#     4  10  23  42  67  92 123 175 220 262 312 375
#     4  11  25  41  65  97 128 169 225 252 316 396
#     4  10  23  41  65  89 131 167 207 270 319 373
#     4  11  21  43  66  93 133 169 210 267 320 380
#     4  10  24  40  65  95 130 174 200 272 326 382
#
# _framework density 25.126809999999999
#
# number of rings (size 3 to 8) (size 9 to 14) (size 15 to 20)
#    0.857    0.571    2.857    1.714    4.000    4.571 
#    0.000    2.857    0.000    0.000    0.000    0.000 
#    0.000    0.000    0.000    0.000    0.000    0.000 
#
# Total GULP energy -78198.738481 kJ/mol
# GULP energy per Si atom -5585.624177 kJ/mol
# Density = 2.506962 g / cm^3
# Si number density = 25.126810 Si / 1000 Ang^3
#
#
#
# Elastic Constant Matrix: (Units=GPa)
#
#
# Indices 1 2 3 4 5 6 
#
# 1 86.4189 36.8311 18.5044 -17.5881 11.5370 -6.5575
# 2 36.8311 111.8331 31.3291 -10.7734 -11.6975 -14.4069
# 3 18.5044 31.3291 62.4790 -27.3966 3.0202 -7.5791
# 4 -17.5881 -10.7734 -27.3966 50.9260 -7.1731 3.1552
# 5 11.5370 -11.6975 3.0202 -7.1731 47.4849 -8.6723
# 6 -6.5575 -14.4069 -7.5791 3.1552 -8.6723 47.0476
#
#
#
# Elastic Compliance Matrix: (Units=1/GPa)
#
#
# Indices 1 2 3 4 5 6 
#
# 1 0.015044 -0.005095 -0.000273 0.003374 -0.004485 -0.000560
# 2 -0.005095 0.013003 -0.005474 -0.001434 0.005202 0.003445
# 3 -0.000273 -0.005474 0.024063 0.011497 -0.000850 0.001234
# 4 0.003374 -0.001434 0.011497 0.026971 0.002260 0.000491
# 5 -0.004485 0.005202 -0.000850 0.002260 0.024784 0.005248
# 6 -0.000560 0.003445 0.001234 0.000491 0.005248 0.023365
#
#
# Mechanical properties :
#
#
# Convention : Reuss Voigt Hill
#
# Bulk Modulus (GPa) = 32.86413 48.22892 40.54652
# Shear Modulus (GPa) = 31.43574 40.69612 36.06593
#
# Velocity S-wave (km/s) = 3.54090 4.02883 3.79272
# Velocity P-wave (km/s) = 5.46123 6.39358 5.94571
#
# Compressibility (1/GPa) = 0.03042831
#
# Stress axis : x y z
#
# Youngs Moduli (GPa) = 66.47071 76.90629 41.55788
#
# Poissons Ratio (x) = 0.39181 0.01133
# Poissons Ratio (y) = 0.33864 0.22747
# Poissons Ratio (z) = 0.01812 0.42096
#
# Static dielectric constant tensor:
#      x y z
#    x 2.004500 0.014560 0.045940 
#    y 0.014560 1.986860 0.000090 
#    z 0.045940 0.000090 2.055430 
# 
# From -- ./inp_files/595976.got.cif
#   From: 2010.05.17/outbox.cif.g08.bks.cpg/sg2_298_cif.got.tgz:595976.got - 2010.06.03 11:33:40.
