data_PCOD9024658
_publ_section_title
;
Structure prediction by ZEFSAII (Michael W. Deem and Ramdas Pophale) SiO2 
 PCOD9024658
Probable space group: P -1
;
_chemical_formula_sum "Si O2"
_cell_formula_units_Z 16
_cell_length_a 18.353545
_cell_length_b 12.231486
_cell_length_c 8.242907
_cell_angle_alpha 74.353194
_cell_angle_beta 137.397556
_cell_angle_gamma 136.443271
_cell_volume 711.929733
_symmetry_space_group_name_H-M "P -1"
_symmetry_group_IT_number 2
_symmetry_cell_setting 'triclinic'
loop_
_space_group_symop_operation_xyz
x,y,z
-x,-y,-z
loop_
_atom_site_type_symbol
_atom_site_label
_atom_site_fract_x
_atom_site_fract_y
_atom_site_fract_z
Si Si1 0.040490 0.377633 0.319051
Si Si2 0.765240 0.710557 0.943752
Si Si3 0.961961 0.892160 0.640477
Si Si4 0.036615 0.352982 0.699928
Si Si5 0.592822 0.553096 0.367571
Si Si6 0.735291 0.284285 0.859897
Si Si7 0.434855 0.726269 0.675666
Si Si8 0.642223 0.054364 0.106571
O O1 0.008324 0.215783 0.304933
O O2 0.231710 0.566857 0.475763
O O3 0.059256 0.419384 0.526143
O O4 0.880662 0.319817 0.007986
O O5 0.678892 0.626781 0.658265
O O6 0.605846 0.559174 0.880034
O O7 0.906001 0.728111 0.184531
O O8 0.878600 0.923686 0.056082
O O9 0.757135 0.732736 0.444631
O O10 0.000000 0.000000 0.500000
O O11 0.824429 0.187717 0.451314
O O12 0.154986 0.515457 0.965122
O O13 0.543119 0.383290 0.300534
O O14 0.572910 0.194127 0.520279
O O15 0.670961 0.161040 0.959305
O O16 0.572723 0.879601 0.980252
O O17 0.500000 0.000000 0.000000
#
# Coordination Sequence:
#
# PCOD9024658 Si02
#       8
#     2   2   2   2   2   2   2   2
#     4  10  22  40  65  96 130 173 214 285 337 400
#     4  11  23  46  68  95 140 179 234 284 345 402
#     4  11  23  43  68 100 134 178 233 281 348 410
#     4  11  22  43  66  94 131 179 219 276 341 404
#     4  10  25  44  69  99 136 184 228 291 340 406
#     4  11  22  41  68  93 131 175 221 269 342 405
#     4  11  22  42  66  98 133 168 227 275 339 406
#     4  11  24  42  63 100 137 173 219 280 339 413
#
# _framework density 22.474126999999999
#
# number of rings (size 3 to 8) (size 9 to 14) (size 15 to 20)
#    0.000    1.250    2.500    4.125    3.500    0.500 
#    4.500    0.000    0.000    0.000    0.000    0.000 
#    0.000    0.000    0.000    0.000    0.000    0.000 
#
# Total GULP energy -89436.455593 kJ/mol
# GULP energy per Si atom -5589.778475 kJ/mol
# Density = 2.242298 g / cm^3
# Si number density = 22.474127 Si / 1000 Ang^3
#
#
#
# Elastic Constant Matrix: (Units=GPa)
#
#
# Indices 1 2 3 4 5 6 
#
# 1 94.1539 25.4523 27.5499 9.5269 18.4974 -0.3184
# 2 25.4523 69.5894 3.9029 14.1821 4.7480 -1.1618
# 3 27.5499 3.9029 60.0574 11.3309 0.2735 -8.7316
# 4 9.5269 14.1821 11.3309 29.2649 -6.7418 -5.9782
# 5 18.4974 4.7480 0.2735 -6.7418 44.6155 13.8655
# 6 -0.3184 -1.1618 -8.7316 -5.9782 13.8655 33.1644
#
#
#
# Elastic Compliance Matrix: (Units=1/GPa)
#
#
# Indices 1 2 3 4 5 6 
#
# 1 0.014982 -0.004364 -0.006152 -0.001668 -0.006163 0.000647
# 2 -0.004364 0.017633 0.002486 -0.008353 -0.001447 0.000330
# 3 -0.006152 0.002486 0.021206 -0.006542 -0.000241 0.004533
# 4 -0.001668 -0.008353 -0.006542 0.043549 0.007348 0.002747
# 5 -0.006163 -0.001447 -0.000241 0.007348 0.029741 -0.011283
# 6 0.000647 0.000330 0.004533 0.002747 -0.011283 0.036576
#
#
# Mechanical properties :
#
#
# Convention : Reuss Voigt Hill
#
# Bulk Modulus (GPa) = 26.48146 37.51231 31.99688
# Shear Modulus (GPa) = 25.99640 32.53535 29.26587
#
# Velocity S-wave (km/s) = 3.40476 3.80897 3.61252
# Velocity P-wave (km/s) = 5.22160 6.00599 5.62748
#
# Compressibility (1/GPa) = 0.03776227
#
# Stress axis : x y z
#
# Youngs Moduli (GPa) = 66.74492 56.71120 47.15682
#
# Poissons Ratio (x) = 0.24746 0.29013
# Poissons Ratio (y) = 0.29124 -0.11725
# Poissons Ratio (z) = 0.41064 -0.14100
#
# Static dielectric constant tensor:
#      x y z
#    x 1.899150 0.018520 -0.027590 
#    y 0.018520 1.842850 0.016230 
#    z -0.027590 0.016230 1.880930 
# 
# From -- ./inp_files/333304.got.cif
#   From: 2010.05.17/outbox.cif.g08.bks.cpg/sg2_167_cif.got.tgz:333304.got - 2010.06.03 11:33:40.
