data_PCOD9024710
_publ_section_title
;
Structure prediction by ZEFSAII (Michael W. Deem and Ramdas Pophale) SiO2 
 PCOD9024710
Probable space group: P -1
;
_chemical_formula_sum "Si O2"
_cell_formula_units_Z 15
_cell_length_a 12.848667
_cell_length_b 12.777975
_cell_length_c 11.047083
_cell_angle_alpha 39.051420
_cell_angle_beta 35.802778
_cell_angle_gamma 44.487978
_cell_volume 651.049801
_symmetry_space_group_name_H-M "P -1"
_symmetry_group_IT_number 2
_symmetry_cell_setting 'triclinic'
loop_
_space_group_symop_operation_xyz
x,y,z
-x,-y,-z
loop_
_atom_site_type_symbol
_atom_site_label
_atom_site_fract_x
_atom_site_fract_y
_atom_site_fract_z
Si Si1 0.586604 0.697412 0.978862
Si Si2 0.828503 0.458127 0.636186
Si Si3 0.177698 0.144561 0.945389
Si Si4 0.818853 0.225202 0.639521
Si Si5 0.548186 0.038939 0.556696
Si Si6 0.094210 0.315278 0.123840
Si Si7 0.876805 0.166540 0.035983
Si Si8 0.500000 0.500000 0.000000
O O1 0.400250 0.731685 0.203851
O O2 0.599590 0.865621 0.741060
O O3 0.757899 0.661677 0.937426
O O4 0.562678 0.563010 0.020029
O O5 0.863980 0.373008 0.550244
O O6 0.645716 0.596590 0.706177
O O7 0.000000 0.500000 0.500000
O O8 0.771350 0.307354 0.910983
O O9 0.179261 0.214013 0.015913
O O10 0.017220 0.239130 0.921943
O O11 0.140803 0.954553 0.166726
O O12 0.368520 0.137190 0.707608
O O13 0.943345 0.224691 0.406179
O O14 0.500000 0.000000 0.500000
O O15 0.723719 0.118223 0.307065
O O16 0.000000 0.500000 0.000000
O O17 0.000000 0.000000 0.000000
#
# Coordination Sequence:
#
# PCOD9024710 Si02
#       8
#     2   2   2   2   2   2   2   1
#     4  10  24  44  71 100 140 180 232 286 350 415
#     4  11  24  39  67 101 139 178 221 284 357 407
#     4  11  25  43  71  99 135 186 231 284 350 404
#     4  10  22  46  68  96 130 182 239 287 336 412
#     4  11  22  43  72 107 138 169 232 296 345 412
#     4  12  28  46  66 100 142 190 237 283 339 419
#     4  12  23  40  69 104 138 170 224 289 345 412
#     4  10  22  40  66 100 132 178 216 276 358 404
#
# _framework density 23.039712999999999
#
# number of rings (size 3 to 8) (size 9 to 14) (size 15 to 20)
#    0.000    1.067    2.667    3.600    5.600    4.800 
#    4.800    0.000    0.000    0.000    0.000    0.000 
#    0.000    0.000    0.000    0.000    0.000    0.000 
#
# Total GULP energy -83711.425014 kJ/mol
# GULP energy per Si atom -5580.761668 kJ/mol
# Density = 2.298727 g / cm^3
# Si number density = 23.039713 Si / 1000 Ang^3
#
#
#
# Elastic Constant Matrix: (Units=GPa)
#
#
# Indices 1 2 3 4 5 6 
#
# 1 153.2142 31.9571 53.2548 13.4194 -0.1462 -1.1794
# 2 31.9571 61.2896 48.1972 27.8021 4.4198 11.6173
# 3 53.2548 48.1972 162.9684 32.8473 -1.3577 -3.8769
# 4 13.4194 27.8021 32.8473 42.7309 3.5582 11.7822
# 5 -0.1462 4.4198 -1.3577 3.5582 34.9968 -2.5094
# 6 -1.1794 11.6173 -3.8769 11.7822 -2.5094 27.1073
#
#
#
# Elastic Compliance Matrix: (Units=1/GPa)
#
#
# Indices 1 2 3 4 5 6 
#
# 1 0.007742 -0.003283 -0.001640 0.000572 0.000418 0.001299
# 2 -0.003283 0.029441 -0.005673 -0.010954 -0.003493 -0.009134
# 3 -0.001640 -0.005673 0.009506 -0.004938 0.002014 0.006052
# 4 0.000572 -0.010954 -0.004938 0.037981 -0.003587 -0.012827
# 5 0.000418 -0.003493 0.002014 -0.003587 0.029899 0.006130
# 6 0.001299 -0.009134 0.006052 -0.012827 0.006130 0.047870
#
#
# Mechanical properties :
#
#
# Convention : Reuss Voigt Hill
#
# Bulk Modulus (GPa) = 39.22005 71.58784 55.40395
# Shear Modulus (GPa) = 26.02417 37.23786 31.63101
#
# Velocity S-wave (km/s) = 3.36450 4.02462 3.70927
# Velocity P-wave (km/s) = 5.67035 7.26193 6.51493
#
# Compressibility (1/GPa) = 0.02549716
#
# Stress axis : x y z
#
# Youngs Moduli (GPa) = 129.16757 33.96615 105.20071
#
# Poissons Ratio (x) = 0.11152 0.17251
# Poissons Ratio (y) = 0.42409 0.59676
# Poissons Ratio (z) = 0.21182 0.19268
#
# Static dielectric constant tensor:
#      x y z
#    x 1.828970 0.073150 0.029790 
#    y 0.073150 1.911700 -0.095240 
#    z 0.029790 -0.095240 1.849930 
# 
# From -- ./inp_files/261394.got.cif
#   From: 2010.05.17/outbox.cif.g08.bks.cpg/sg2_131_cif.got.tgz:261394.got - 2010.06.03 11:33:40.
