data_PCOD9024122
_publ_section_title
;
Structure prediction by ZEFSAII (Michael W. Deem and Ramdas Pophale) SiO2 
 PCOD9024122
Probable space group: P -1
;
_chemical_formula_sum "Si O2"
_cell_formula_units_Z 14
_cell_length_a 14.743645
_cell_length_b 11.965330
_cell_length_c 5.901000
_cell_angle_alpha 44.017499
_cell_angle_beta 68.757052
_cell_angle_gamma 56.738922
_cell_volume 603.949210
_symmetry_space_group_name_H-M "P -1"
_symmetry_group_IT_number 2
_symmetry_cell_setting 'triclinic'
loop_
_space_group_symop_operation_xyz
x,y,z
-x,-y,-z
loop_
_atom_site_type_symbol
_atom_site_label
_atom_site_fract_x
_atom_site_fract_y
_atom_site_fract_z
Si Si1 0.126032 0.391275 0.597524
Si Si2 0.662153 0.249596 0.706240
Si Si3 0.296146 0.275405 0.243052
Si Si4 0.760199 0.942372 0.701531
Si Si5 0.529178 0.605333 0.015111
Si Si6 0.030165 0.056613 0.640088
Si Si7 0.168605 0.621133 0.543932
O O1 0.202789 0.282592 0.483290
O O2 0.164519 0.540432 0.422145
O O3 0.000000 0.500000 0.500000
O O4 0.156178 0.242276 0.981774
O O5 0.597291 0.441193 0.361941
O O6 0.581187 0.255629 0.967963
O O7 0.771277 0.253367 0.689774
O O8 0.693962 0.090860 0.730070
O O9 0.319762 0.108811 0.300495
O O10 0.395027 0.295418 0.245987
O O11 0.236210 0.452931 0.886326
O O12 0.842411 0.997876 0.411044
O O13 0.500000 0.500000 0.000000
O O14 0.952477 0.269513 0.412642
O O15 0.000000 0.000000 0.500000
O O16 0.000000 0.000000 0.000000
#
# Coordination Sequence:
#
# PCOD9024122 Si02
#       7
#     2   2   2   2   2   2   2
#     4  11  23  39  66  92 136 178 227 273 335 410
#     4  10  22  42  65  91 134 165 229 280 350 408
#     4  10  23  41  64  93 132 175 228 280 346 410
#     4  11  25  43  62  99 133 179 223 282 345 412
#     4  10  22  42  68  94 122 173 226 288 349 414
#     4  12  27  42  68 104 142 183 232 288 345 413
#     4  10  22  40  63  93 129 179 224 276 340 407
#
# _framework density 23.180755999999999
#
# number of rings (size 3 to 8) (size 9 to 14) (size 15 to 20)
#    0.000    1.429    1.429    2.571    6.000    6.286 
#    0.000    1.429    0.000    0.000    0.000    0.000 
#    0.000    0.000    0.000    0.000    0.000    0.000 
#
# Total GULP energy -78174.893728 kJ/mol
# GULP energy per Si atom -5583.920981 kJ/mol
# Density = 2.312800 g / cm^3
# Si number density = 23.180756 Si / 1000 Ang^3
#
#
#
# Elastic Constant Matrix: (Units=GPa)
#
#
# Indices 1 2 3 4 5 6 
#
# 1 70.2941 24.3080 49.5035 22.2940 -14.2090 5.0718
# 2 24.3080 147.9762 24.7891 20.7835 -17.6410 10.6659
# 3 49.5035 24.7891 73.3285 9.8450 -2.6021 6.0920
# 4 22.2940 20.7835 9.8450 30.0128 -6.7821 -1.7359
# 5 -14.2090 -17.6410 -2.6021 -6.7821 24.6735 1.5589
# 6 5.0718 10.6659 6.0920 -1.7359 1.5589 40.2173
#
#
#
# Elastic Compliance Matrix: (Units=1/GPa)
#
#
# Indices 1 2 3 4 5 6 
#
# 1 0.041348 0.002674 -0.025126 -0.020546 0.017659 -0.003689
# 2 0.002674 0.008586 -0.003536 -0.005578 0.005933 -0.002549
# 3 -0.025126 -0.003536 0.030200 0.008637 -0.011461 0.000349
# 4 -0.020546 -0.005578 0.008637 0.049535 -0.001608 0.004963
# 5 0.017659 0.005933 -0.011461 -0.001608 0.053556 -0.004210
# 6 -0.003689 -0.002549 0.000349 0.004963 -0.004210 0.026331
#
#
# Mechanical properties :
#
#
# Convention : Reuss Voigt Hill
#
# Bulk Modulus (GPa) = 35.51569 54.31111 44.91340
# Shear Modulus (GPa) = 18.45586 31.84727 25.15156
#
# Velocity S-wave (km/s) = 2.82471 3.71059 3.29754
# Velocity P-wave (km/s) = 5.09834 6.46825 5.82372
#
# Compressibility (1/GPa) = 0.02815657
#
# Stress axis : x y z
#
# Youngs Moduli (GPa) = 24.18508 116.47495 33.11291
#
# Poissons Ratio (x) = -0.31142 0.83199
# Poissons Ratio (y) = -0.06466 0.11709
# Poissons Ratio (z) = 0.60767 0.41187
#
# Static dielectric constant tensor:
#      x y z
#    x 1.940030 0.023170 -0.018370 
#    y 0.023170 1.852790 0.027210 
#    z -0.018370 0.027210 1.977260 
# 
# From -- ./inp_files/38385.got.cif
#   From: 2010.05.17/outbox.cif.g08.bks.cpg/sg2_20_cif.got.tgz:38385.got - 2010.06.03 11:33:40.
