data_PCOD9024816
_publ_section_title
;
Structure prediction by ZEFSAII (Michael W. Deem and Ramdas Pophale) SiO2 
 PCOD9024816
Probable space group: P -1
;
_chemical_formula_sum "Si O2"
_cell_formula_units_Z 13
_cell_length_a 13.453058
_cell_length_b 16.366304
_cell_length_c 9.199230
_cell_angle_alpha 132.054712
_cell_angle_beta 60.147096
_cell_angle_gamma 155.839658
_cell_volume 571.088588
_symmetry_space_group_name_H-M "P -1"
_symmetry_group_IT_number 2
_symmetry_cell_setting 'triclinic'
loop_
_space_group_symop_operation_xyz
x,y,z
-x,-y,-z
loop_
_atom_site_type_symbol
_atom_site_label
_atom_site_fract_x
_atom_site_fract_y
_atom_site_fract_z
Si Si1 0.740440 0.037944 0.141350
Si Si2 0.789106 0.413493 0.577352
Si Si3 0.500000 0.000000 0.500000
Si Si4 0.363958 0.287732 0.066174
Si Si5 0.016971 0.183358 0.724352
Si Si6 0.433216 0.069901 0.160630
Si Si7 0.029841 0.044232 0.283783
O O1 0.621146 0.032023 0.317451
O O2 0.029393 0.323623 0.217097
O O3 0.748503 0.932249 0.094400
O O4 0.559118 0.869184 0.930466
O O5 0.605838 0.208052 0.591594
O O6 0.000000 0.500000 0.500000
O O7 0.629084 0.288395 0.395925
O O8 0.674539 0.548037 0.151161
O O9 0.256310 0.256146 0.251229
O O10 0.224860 0.208671 0.926965
O O11 0.976957 0.103029 0.494832
O O12 0.855328 0.155706 0.832960
O O13 0.904711 0.996189 0.697266
O O14 0.500000 0.000000 0.000000
#
# Coordination Sequence:
#
# PCOD9024816 Si02
#       7
#     2   2   1   2   2   2   2
#     4  11  25  42  65  98 138 173 228 279 336 407
#     4  10  23  45  64  93 137 177 226 279 326 399
#     4  10  22  40  66  92 126 180 224 266 330 400
#     4  11  24  45  72 102 132 181 229 284 347 407
#     4  11  25  44  70 103 138 178 231 284 344 408
#     4  12  24  45  68 100 142 181 220 283 342 405
#     4  10  24  47  69 102 137 176 233 289 342 399
#
# _framework density 22.763545000000001
#
# number of rings (size 3 to 8) (size 9 to 14) (size 15 to 20)
#    0.000    1.231    4.615    0.923    4.308    1.231 
#   13.846    4.615    0.000    0.000    0.000    0.000 
#    0.000    0.000    0.000    0.000    0.000    0.000 
#
# Total GULP energy -72370.407393 kJ/mol
# GULP energy per Si atom -5566.954415 kJ/mol
# Density = 2.271173 g / cm^3
# Si number density = 22.763545 Si / 1000 Ang^3
#
#
#
# Elastic Constant Matrix: (Units=GPa)
#
#
# Indices 1 2 3 4 5 6 
#
# 1 53.8138 32.0526 27.4611 -15.8396 3.8789 8.5870
# 2 32.0526 108.8329 57.4846 -24.0990 11.1405 13.6799
# 3 27.4611 57.4846 97.1266 -19.5356 19.1323 6.4549
# 4 -15.8396 -24.0990 -19.5356 35.6728 8.7070 -9.1704
# 5 3.8789 11.1405 19.1323 8.7070 41.1301 -2.4895
# 6 8.5870 13.6799 6.4549 -9.1704 -2.4895 49.9784
#
#
#
# Elastic Compliance Matrix: (Units=1/GPa)
#
#
# Indices 1 2 3 4 5 6 
#
# 1 0.024737 -0.003896 -0.002965 0.006647 -0.001406 -0.001651
# 2 -0.003896 0.015283 -0.006405 0.005095 -0.001983 -0.001850
# 3 -0.002965 -0.006405 0.017516 0.005927 -0.007344 0.000722
# 4 0.006647 0.005095 0.005927 0.041901 -0.013409 0.003718
# 5 -0.001406 -0.001983 -0.007344 -0.013409 0.031288 0.000831
# 6 -0.001651 -0.001850 0.000722 0.003718 0.000831 0.021429
#
#
# Mechanical properties :
#
#
# Convention : Reuss Voigt Hill
#
# Bulk Modulus (GPa) = 32.25386 54.86334 43.55860
# Shear Modulus (GPa) = 26.45216 34.87459 30.66338
#
# Velocity S-wave (km/s) = 3.41257 3.91837 3.67418
# Velocity P-wave (km/s) = 5.45228 6.68021 6.09724
#
# Compressibility (1/GPa) = 0.03100404
#
# Stress axis : x y z
#
# Youngs Moduli (GPa) = 40.42457 65.43277 57.09144
#
# Poissons Ratio (x) = 0.25495 0.16925
# Poissons Ratio (y) = 0.15751 0.36568
# Poissons Ratio (z) = 0.11984 0.41911
#
# Static dielectric constant tensor:
#      x y z
#    x 1.864810 0.022100 -0.017140 
#    y 0.022100 1.828240 -0.000880 
#    z -0.017140 -0.000880 1.858410 
# 
# From -- ./inp_files/317868.got.cif
#   From: 2010.05.17/outbox.cif.g08.bks.cpg/sg2_159_cif.got.tgz:317868.got - 2010.06.03 11:33:40.
