data_PCOD9024480
_publ_section_title
;
Structure prediction by ZEFSAII (Michael W. Deem and Ramdas Pophale) SiO2 
 PCOD9024480
Probable space group: P -1
;
_chemical_formula_sum "Si O2"
_cell_formula_units_Z 16
_cell_length_a 11.891270
_cell_length_b 9.285827
_cell_length_c 9.606254
_cell_angle_alpha 101.658606
_cell_angle_beta 45.419472
_cell_angle_gamma 107.216771
_cell_volume 721.638545
_symmetry_space_group_name_H-M "P -1"
_symmetry_group_IT_number 2
_symmetry_cell_setting 'triclinic'
loop_
_space_group_symop_operation_xyz
x,y,z
-x,-y,-z
loop_
_atom_site_type_symbol
_atom_site_label
_atom_site_fract_x
_atom_site_fract_y
_atom_site_fract_z
Si Si1 0.777643 0.065013 0.261485
Si Si2 0.671509 0.276784 0.809800
Si Si3 0.549351 0.303020 0.227696
Si Si4 0.046967 0.188292 0.850916
Si Si5 0.511007 0.040657 0.706450
Si Si6 0.014055 0.831132 0.420855
Si Si7 0.176807 0.508740 0.783167
Si Si8 0.735340 0.549497 0.597258
O O1 0.656494 0.110204 0.487284
O O2 0.820044 0.477452 0.383585
O O3 0.878443 0.956723 0.224478
O O4 0.657409 0.975617 0.230922
O O5 0.528398 0.148582 0.844481
O O6 0.689110 0.429060 0.736017
O O7 0.832428 0.210961 0.648021
O O8 0.640826 0.302120 0.002038
O O9 0.676996 0.378448 0.248109
O O10 0.416575 0.399702 0.330701
O O11 0.475913 0.129187 0.299307
O O12 0.971561 0.183749 0.762002
O O13 0.189964 0.335692 0.766281
O O14 0.910834 0.185298 0.086105
O O15 0.856567 0.702862 0.571727
O O16 0.000000 0.000000 0.500000
O O17 0.000000 0.500000 0.000000
#
# Coordination Sequence:
#
# PCOD9024480 Si02
#       8
#     2   2   2   2   2   2   2   2
#     4  10  22  40  65 100 130 167 229 278 325 397
#     4  12  26  44  68 101 140 176 228 280 340 405
#     4  12  25  46  68  99 141 182 224 276 348 403
#     4  10  22  42  64  98 130 175 225 272 335 396
#     4  11  24  40  70  95 135 174 223 273 341 392
#     4  11  23  46  70  96 138 184 223 277 346 408
#     4  11  24  42  71  93 139 180 228 273 342 398
#     4  11  26  44  68 102 136 178 232 277 336 401
#
# _framework density 22.171764
#
# number of rings (size 3 to 8) (size 9 to 14) (size 15 to 20)
#    0.000    1.000    0.000    7.500    7.000    1.000 
#    4.500    0.000    0.000    0.000    0.000    0.000 
#    0.000    0.000    0.000    0.000    0.000    0.000 
#
# Total GULP energy -89526.972211 kJ/mol
# GULP energy per Si atom -5595.435763 kJ/mol
# Density = 2.212130 g / cm^3
# Si number density = 22.171764 Si / 1000 Ang^3
#
#
#
# Elastic Constant Matrix: (Units=GPa)
#
#
# Indices 1 2 3 4 5 6 
#
# 1 88.9223 28.9503 0.5967 -3.2015 -4.6092 -9.2434
# 2 28.9503 120.6881 28.9166 -22.1934 15.7084 7.1078
# 3 0.5967 28.9166 69.7569 -12.2164 1.1261 -0.6244
# 4 -3.2015 -22.1934 -12.2164 29.4517 -5.8220 8.0481
# 5 -4.6092 15.7084 1.1261 -5.8220 34.9055 4.8325
# 6 -9.2434 7.1078 -0.6244 8.0481 4.8325 36.1005
#
#
#
# Elastic Compliance Matrix: (Units=1/GPa)
#
#
# Indices 1 2 3 4 5 6 
#
# 1 0.013227 -0.004497 0.001392 -0.002019 0.002783 0.004374
# 2 -0.004497 0.012548 -0.003750 0.007937 -0.004117 -0.004905
# 3 0.001392 -0.003750 0.016656 0.004629 0.002097 0.000070
# 4 -0.002019 0.007937 0.004629 0.046302 0.005543 -0.013064
# 5 0.002783 -0.004117 0.002097 0.005543 0.032279 -0.003997
# 6 0.004374 -0.004905 0.000070 -0.013064 -0.003997 0.033235
#
#
# Mechanical properties :
#
#
# Convention : Reuss Voigt Hill
#
# Bulk Modulus (GPa) = 34.82088 44.03271 39.42679
# Shear Modulus (GPa) = 28.16417 34.81845 31.49131
#
# Velocity S-wave (km/s) = 3.56795 3.96712 3.77282
# Velocity P-wave (km/s) = 5.71952 6.39429 6.06630
#
# Compressibility (1/GPa) = 0.02871840
#
# Stress axis : x y z
#
# Youngs Moduli (GPa) = 75.60361 79.69699 60.03946
#
# Poissons Ratio (x) = 0.35843 -0.08357
# Poissons Ratio (y) = 0.34002 0.22516
# Poissons Ratio (z) = -0.10523 0.29889
#
# Static dielectric constant tensor:
#      x y z
#    x 1.761260 -0.013010 -0.000600 
#    y -0.013010 1.829540 0.021410 
#    z -0.000600 0.021410 1.832680 
# 
# From -- ./inp_files/415110.got.cif
#   From: 2010.05.17/outbox.cif.g08.bks.cpg/sg2_208_cif.got.tgz:415110.got - 2010.06.03 11:33:40.
