data_PCOD9024083
_publ_section_title
;
Structure prediction by ZEFSAII (Michael W. Deem and Ramdas Pophale) SiO2 
 PCOD9024083
Probable space group: P -1
;
_chemical_formula_sum "Si O2"
_cell_formula_units_Z 14
_cell_length_a 27.405570
_cell_length_b 6.825349
_cell_length_c 11.392981
_cell_angle_alpha 112.259068
_cell_angle_beta 149.319487
_cell_angle_gamma 47.550010
_cell_volume 677.526447
_symmetry_space_group_name_H-M "P -1"
_symmetry_group_IT_number 2
_symmetry_cell_setting 'triclinic'
loop_
_space_group_symop_operation_xyz
x,y,z
-x,-y,-z
loop_
_atom_site_type_symbol
_atom_site_label
_atom_site_fract_x
_atom_site_fract_y
_atom_site_fract_z
Si Si1 0.839393 0.173278 0.701166
Si Si2 0.280494 0.411629 0.228962
Si Si3 0.482056 0.304935 0.479431
Si Si4 0.166584 0.268871 0.524858
Si Si5 0.908566 0.674286 0.233404
Si Si6 0.327705 0.810453 0.978865
Si Si7 0.654950 0.656981 0.212262
O O1 0.762219 0.362005 0.704828
O O2 0.746620 0.431429 0.463512
O O3 0.844252 0.915141 0.625542
O O4 0.000000 0.000000 0.000000
O O5 0.328385 0.458965 0.221972
O O6 0.415338 0.035195 0.445671
O O7 0.152571 0.456413 0.955097
O O8 0.500000 0.500000 0.500000
O O9 0.544546 0.252591 0.726960
O O10 0.251928 0.319087 0.655100
O O11 0.009808 0.587789 0.319625
O O12 0.250560 0.047433 0.763313
O O13 0.000000 0.500000 0.500000
O O14 0.777286 0.025975 0.088704
O O15 0.367538 0.511961 0.953762
O O16 0.500000 0.000000 0.000000
#
# Coordination Sequence:
#
# PCOD9024083 Si02
#       7
#     2   2   2   2   2   2   2
#     4  11  24  44  67  93 132 169 212 264 326 373
#     4  10  22  40  63  91 127 164 206 268 320 373
#     4  10  23  39  63  96 123 165 214 260 320 383
#     4  10  22  42  64  92 128 168 215 263 318 381
#     4   9  18  40  65  87 119 165 209 260 321 371
#     4   9  22  40  62  91 126 166 212 264 321 373
#     4  11  27  41  65  97 128 172 221 256 316 392
#
# _framework density 20.663398000000001
#
# number of rings (size 3 to 8) (size 9 to 14) (size 15 to 20)
#    0.000    2.000    1.429    0.000    6.000    5.714 
#    5.143    0.000    0.000    0.000    0.000    0.000 
#    0.000    0.000    0.000    0.000    0.000    0.000 
#
# Total GULP energy -78134.786332 kJ/mol
# GULP energy per Si atom -5581.056167 kJ/mol
# Density = 2.061637 g / cm^3
# Si number density = 20.663398 Si / 1000 Ang^3
#
#
#
# Elastic Constant Matrix: (Units=GPa)
#
#
# Indices 1 2 3 4 5 6 
#
# 1 81.6058 28.0937 11.8936 -7.1839 30.9075 -5.9520
# 2 28.0937 87.8394 9.2897 -2.7935 3.5912 -17.2684
# 3 11.8936 9.2897 67.8706 2.1599 15.8905 -8.2340
# 4 -7.1839 -2.7935 2.1599 25.8951 -2.7213 -0.0941
# 5 30.9075 3.5912 15.8905 -2.7213 34.8949 5.5112
# 6 -5.9520 -17.2684 -8.2340 -0.0941 5.5112 40.5096
#
#
#
# Elastic Compliance Matrix: (Units=1/GPa)
#
#
# Indices 1 2 3 4 5 6 
#
# 1 0.022183 -0.005571 0.002042 0.003254 -0.020396 0.004082
# 2 -0.005571 0.014048 -0.001207 0.000441 0.003367 0.004468
# 3 0.002042 -0.001207 0.017694 -0.002143 -0.010672 0.004829
# 4 0.003254 0.000441 -0.002143 0.039866 0.001131 0.000169
# 5 -0.020396 0.003367 -0.010672 0.001131 0.053053 -0.010946
# 6 0.004082 0.004468 0.004829 0.000169 -0.010946 0.029661
#
#
# Mechanical properties :
#
#
# Convention : Reuss Voigt Hill
#
# Bulk Modulus (GPa) = 22.49520 37.31889 29.90704
# Shear Modulus (GPa) = 24.90101 32.79585 28.84843
#
# Velocity S-wave (km/s) = 3.47519 3.98822 3.74051
# Velocity P-wave (km/s) = 5.19738 6.26957 5.75848
#
# Compressibility (1/GPa) = 0.04445394
#
# Stress axis : x y z
#
# Youngs Moduli (GPa) = 45.07897 71.18200 56.51661
#
# Poissons Ratio (x) = 0.39656 -0.11541
# Poissons Ratio (y) = 0.25114 0.06821
# Poissons Ratio (z) = -0.09206 0.08591
#
# Static dielectric constant tensor:
#      x y z
#    x 1.788860 -0.001770 0.111110 
#    y -0.001770 1.717060 -0.013820 
#    z 0.111110 -0.013820 2.020730 
# 
# From -- ./inp_files/66517.got.cif
#   From: 2010.05.17/outbox.cif.g08.bks.cpg/sg2_34_cif.got.tgz:66517.got - 2010.06.03 11:33:40.
