data_PCOD9024950
_publ_section_title
;
Structure prediction by ZEFSAII (Michael W. Deem and Ramdas Pophale) SiO2 
 PCOD9024950
Probable space group: P -1
;
_chemical_formula_sum "Si O2"
_cell_formula_units_Z 14
_cell_length_a 8.932008
_cell_length_b 19.919679
_cell_length_c 13.742281
_cell_angle_alpha 33.400357
_cell_angle_beta 49.932307
_cell_angle_gamma 27.932722
_cell_volume 587.220662
_symmetry_space_group_name_H-M "P -1"
_symmetry_group_IT_number 2
_symmetry_cell_setting 'triclinic'
loop_
_space_group_symop_operation_xyz
x,y,z
-x,-y,-z
loop_
_atom_site_type_symbol
_atom_site_label
_atom_site_fract_x
_atom_site_fract_y
_atom_site_fract_z
Si Si1 0.905024 0.651786 0.719676
Si Si2 0.279370 0.991310 0.680822
Si Si3 0.201571 0.430062 0.313909
Si Si4 0.216953 0.859422 0.425934
Si Si5 0.323801 0.734286 0.073519
Si Si6 0.706776 0.465018 0.543490
Si Si7 0.791371 0.316295 0.020565
O O1 0.687655 0.771181 0.764683
O O2 0.769996 0.610449 0.762730
O O3 0.306974 0.435722 0.827456
O O4 0.823337 0.817812 0.493555
O O5 0.158938 0.950275 0.857013
O O6 0.126136 0.039972 0.578314
O O7 0.561545 0.260654 0.423990
O O8 0.026214 0.651188 0.127039
O O9 0.981565 0.428894 0.446101
O O10 0.453950 0.673709 0.467824
O O11 0.078052 0.068904 0.225422
O O12 0.141936 0.724531 0.226352
O O13 0.383457 0.645982 0.049381
O O14 0.500000 0.500000 0.500000
O O15 0.500000 0.500000 0.000000
#
# Coordination Sequence:
#
# PCOD9024950 Si02
#       7
#     2   2   2   2   2   2   2
#     4  11  22  40  67  98 132 181 223 282 344 400
#     4  10  22  40  66  97 132 173 230 282 342 399
#     4  12  24  43  69  97 140 181 226 277 348 396
#     4  11  24  45  67 100 137 178 225 281 342 405
#     4  11  22  44  66  96 138 175 229 284 330 404
#     4  12  24  48  71  95 140 185 233 286 333 399
#     4  11  26  45  71 104 139 176 226 284 349 411
#
# _framework density 23.841123
#
# number of rings (size 3 to 8) (size 9 to 14) (size 15 to 20)
#    0.000    0.857    4.286    2.571    0.000    6.286 
#    2.571    3.571    0.000    0.000    0.000    0.000 
#    0.000    0.000    0.000    0.000    0.000    0.000 
#
# Total GULP energy -78078.494260 kJ/mol
# GULP energy per Si atom -5577.035304 kJ/mol
# Density = 2.378686 g / cm^3
# Si number density = 23.841123 Si / 1000 Ang^3
#
#
#
# Elastic Constant Matrix: (Units=GPa)
#
#
# Indices 1 2 3 4 5 6 
#
# 1 113.8889 1.3634 49.7961 -7.9608 -14.9425 14.0820
# 2 1.3634 39.4424 6.0545 10.2021 -9.7917 -0.2268
# 3 49.7961 6.0545 154.6391 14.3392 -38.0760 3.8195
# 4 -7.9608 10.2021 14.3392 36.8722 -6.0976 -6.0220
# 5 -14.9425 -9.7917 -38.0760 -6.0976 43.3160 6.4283
# 6 14.0820 -0.2268 3.8195 -6.0220 6.4283 30.6629
#
#
#
# Elastic Compliance Matrix: (Units=1/GPa)
#
#
# Indices 1 2 3 4 5 6 
#
# 1 0.011310 -0.000275 -0.003325 0.003411 0.002071 -0.004546
# 2 -0.000275 0.028929 0.001508 -0.007952 0.007080 -0.002894
# 3 -0.003325 0.001508 0.009748 -0.004019 0.007499 -0.002037
# 4 0.003411 -0.007952 -0.004019 0.032427 -0.000379 0.005323
# 5 0.002071 0.007080 0.007499 -0.000379 0.033258 -0.008880
# 6 -0.004546 -0.002894 -0.002037 0.005323 -0.008880 0.037840
#
#
# Mechanical properties :
#
#
# Convention : Reuss Voigt Hill
#
# Bulk Modulus (GPa) = 21.83247 46.93317 34.38282
# Shear Modulus (GPa) = 28.90786 38.88731 33.89759
#
# Velocity S-wave (km/s) = 3.48590 4.04307 3.77478
# Velocity P-wave (km/s) = 5.03780 6.44390 5.78374
#
# Compressibility (1/GPa) = 0.04580333
#
# Stress axis : x y z
#
# Youngs Moduli (GPa) = 88.41714 34.56692 102.58720
#
# Poissons Ratio (x) = 0.00950 0.34113
# Poissons Ratio (y) = 0.02429 -0.15470
# Poissons Ratio (z) = 0.29401 -0.05213
#
# Static dielectric constant tensor:
#      x y z
#    x 1.901700 -0.010410 0.014730 
#    y -0.010410 2.092750 0.031440 
#    z 0.014730 0.031440 1.954540 
# 
# From -- ./inp_files/314576.got.cif
#   From: 2010.05.17/outbox.cif.g08.bks.cpg/sg2_158_cif.got.tgz:314576.got - 2010.06.03 11:33:40.
