data_PCOD9024059
_publ_section_title
;
Structure prediction by ZEFSAII (Michael W. Deem and Ramdas Pophale) SiO2 
 PCOD9024059
Probable space group: P -1
;
_chemical_formula_sum "Si O2"
_cell_formula_units_Z 12
_cell_length_a 6.819861
_cell_length_b 11.807957
_cell_length_c 7.062886
_cell_angle_alpha 102.960484
_cell_angle_beta 118.095292
_cell_angle_gamma 70.996077
_cell_volume 472.679270
_symmetry_space_group_name_H-M "P -1"
_symmetry_group_IT_number 2
_symmetry_cell_setting 'triclinic'
loop_
_space_group_symop_operation_xyz
x,y,z
-x,-y,-z
loop_
_atom_site_type_symbol
_atom_site_label
_atom_site_fract_x
_atom_site_fract_y
_atom_site_fract_z
Si Si1 0.774433 0.446200 0.584390
Si Si2 0.184391 0.273113 0.837899
Si Si3 0.182289 0.049572 0.215178
Si Si4 0.239542 0.297788 0.429037
Si Si5 0.610956 0.251954 0.287349
Si Si6 0.706066 0.990712 0.310941
O O1 0.500000 0.500000 0.500000
O O2 0.749943 0.709752 0.343688
O O3 0.859899 0.563941 0.622756
O O4 0.773024 0.342240 0.388829
O O5 0.939822 0.369198 0.790489
O O6 0.177879 0.134019 0.786945
O O7 0.389029 0.291358 0.068195
O O8 0.135281 0.194895 0.252155
O O9 0.434084 0.000817 0.215214
O O10 0.209244 0.012247 0.434804
O O11 0.000000 0.000000 0.000000
O O12 0.500405 0.260219 0.450692
O O13 0.727015 0.112001 0.264603
#
# Coordination Sequence:
#
# PCOD9024059 Si02
#       6
#     2   2   2   2   2   2
#     4  10  23  42  61  90 125 160 208 256 301 364
#     4  11  22  39  64  89 123 164 204 254 305 358
#     4   9  18  36  64  90 121 164 198 248 315 357
#     4   9  21  41  60  88 123 153 204 255 291 364
#     4  10  22  40  63  89 125 165 197 248 314 362
#     4   9  20  37  57  94 128 151 206 257 291 368
#
# _framework density 25.387194000000001
#
# number of rings (size 3 to 8) (size 9 to 14) (size 15 to 20)
#    0.000    2.333    0.000    2.000    0.000    9.333 
#    0.000   10.000    0.000    0.000    0.000    0.000 
#    0.000    0.000    0.000    0.000    0.000    0.000 
#
# Total GULP energy -67141.685876 kJ/mol
# GULP energy per Si atom -5595.140490 kJ/mol
# Density = 2.532941 g / cm^3
# Si number density = 25.387194 Si / 1000 Ang^3
#
#
#
# Elastic Constant Matrix: (Units=GPa)
#
#
# Indices 1 2 3 4 5 6 
#
# 1 89.5704 26.4646 43.2700 -4.5343 18.1786 -14.9756
# 2 26.4646 220.9746 84.8393 3.2779 39.7638 -2.9571
# 3 43.2700 84.8393 150.1214 7.2863 38.7272 20.8749
# 4 -4.5343 3.2779 7.2863 35.5396 -1.3352 16.6745
# 5 18.1786 39.7638 38.7272 -1.3352 47.0872 4.4145
# 6 -14.9756 -2.9571 20.8749 16.6745 4.4145 40.1642
#
#
#
# Elastic Compliance Matrix: (Units=1/GPa)
#
#
# Indices 1 2 3 4 5 6 
#
# 1 0.015809 0.001003 -0.005555 -0.001728 -0.003363 0.009942
# 2 0.001003 0.006419 -0.003495 -0.001606 -0.003325 0.003695
# 3 -0.005555 -0.003495 0.012535 0.000998 -0.004363 -0.008778
# 4 -0.001728 -0.001606 0.000998 0.035764 0.003767 -0.016543
# 5 -0.003363 -0.003325 -0.004363 0.003767 0.029416 -0.004029
# 6 0.009942 0.003695 -0.008778 -0.016543 -0.004029 0.040750
#
#
# Mechanical properties :
#
#
# Convention : Reuss Voigt Hill
#
# Bulk Modulus (GPa) = 53.56157 85.53494 69.54826
# Shear Modulus (GPa) = 30.67342 44.96437 37.81890
#
# Velocity S-wave (km/s) = 3.47972 4.21306 3.86383
# Velocity P-wave (km/s) = 6.10641 7.57838 6.88186
#
# Compressibility (1/GPa) = 0.01867010
#
# Stress axis : x y z
#
# Youngs Moduli (GPa) = 63.25654 155.79678 79.77806
#
# Poissons Ratio (x) = -0.15628 0.44313
# Poissons Ratio (y) = -0.06345 0.27879
# Poissons Ratio (z) = 0.35136 0.54443
#
# Static dielectric constant tensor:
#      x y z
#    x 2.147880 -0.019310 -0.020360 
#    y -0.019310 2.063500 -0.004680 
#    z -0.020360 -0.004680 1.964510 
# 
# From -- ./inp_files/196655.got.cif
#   From: 2010.05.17/outbox.cif.g08.bks.cpg/sg2_99_cif.got.tgz:196655.got - 2010.06.03 11:33:40.
