data_PCOD9024117
_publ_section_title
;
Structure prediction by ZEFSAII (Michael W. Deem and Ramdas Pophale) SiO2 
 PCOD9024117
Probable space group: P -1
;
_chemical_formula_sum "Si O2"
_cell_formula_units_Z 16
_cell_length_a 11.984416
_cell_length_b 10.691337
_cell_length_c 20.880168
_cell_angle_alpha 156.265412
_cell_angle_beta 40.528750
_cell_angle_gamma 135.773777
_cell_volume 697.543356
_symmetry_space_group_name_H-M "P -1"
_symmetry_group_IT_number 2
_symmetry_cell_setting 'triclinic'
loop_
_space_group_symop_operation_xyz
x,y,z
-x,-y,-z
loop_
_atom_site_type_symbol
_atom_site_label
_atom_site_fract_x
_atom_site_fract_y
_atom_site_fract_z
Si Si1 0.749985 0.371693 0.601933
Si Si2 0.108057 0.334098 0.994968
Si Si3 0.224720 0.329350 0.698457
Si Si4 0.540460 0.447492 0.085696
Si Si5 0.691944 0.661440 0.486509
Si Si6 0.988222 0.381972 0.301750
Si Si7 0.461598 0.203661 0.175505
Si Si8 0.729834 0.385905 0.816338
O O1 0.598599 0.465328 0.760404
O O2 0.934682 0.506111 0.611242
O O3 0.689114 0.563166 0.657135
O O4 0.745868 0.999924 0.435418
O O5 0.194496 0.415412 0.063998
O O6 0.965130 0.573005 0.156853
O O7 0.276353 0.369295 0.893377
O O8 0.016462 0.990088 0.872851
O O9 0.246561 0.330767 0.611679
O O10 0.367244 0.588768 0.783130
O O11 0.446051 0.529290 0.100134
O O12 0.574482 0.084364 0.896029
O O13 0.500000 0.500000 0.500000
O O14 0.808766 0.478278 0.397857
O O15 0.710018 0.020541 0.667365
O O16 0.125505 0.544066 0.268343
O O17 0.500000 0.000000 0.000000
#
# Coordination Sequence:
#
# PCOD9024117 Si02
#       8
#     2   2   2   2   2   2   2   2
#     4  10  22  46  67  87 128 172 216 260 314 377
#     4  12  24  36  63  99 131 166 211 261 319 377
#     4  12  23  42  68  94 128 169 210 259 327 378
#     4  10  22  40  63  93 127 168 212 264 308 375
#     4  12  25  39  64 100 134 167 206 260 321 387
#     4  11  22  40  63  91 131 169 207 255 318 377
#     4  10  23  44  69  92 122 170 219 266 313 372
#     4  11  21  40  59  91 134 169 205 255 314 387
#
# _framework density 22.937640999999999
#
# number of rings (size 3 to 8) (size 9 to 14) (size 15 to 20)
#    0.000    1.000    3.750    5.250    3.500    0.000 
#    0.000    6.250    0.000    0.000    0.000    0.000 
#    0.000    0.000    0.000    0.000    0.000    0.000 
#
# Total GULP energy -89436.570750 kJ/mol
# GULP energy per Si atom -5589.785672 kJ/mol
# Density = 2.288543 g / cm^3
# Si number density = 22.937641 Si / 1000 Ang^3
#
#
#
# Elastic Constant Matrix: (Units=GPa)
#
#
# Indices 1 2 3 4 5 6 
#
# 1 52.1618 -24.6566 49.7384 -30.9884 -16.0926 35.3079
# 2 -24.6566 9.8669 64.8819 -26.3131 -6.0491 57.5592
# 3 49.7384 64.8819 69.8841 37.2821 -25.1302 -26.2747
# 4 -30.9884 -26.3131 37.2821 22.6757 11.0422 7.9153
# 5 -16.0926 -6.0491 -25.1302 11.0422 56.7324 2.1402
# 6 35.3079 57.5592 -26.2747 7.9153 2.1402 15.1133
#
#
#
# Elastic Compliance Matrix: (Units=1/GPa)
#
#
# Indices 1 2 3 4 5 6 
#
# 1 0.011673 -0.007983 0.001646 0.000794 0.002839 0.005175
# 2 -0.007983 0.008729 0.005617 -0.012043 0.003461 0.000985
# 3 0.001646 0.005617 0.007991 -0.003548 0.005684 -0.010290
# 4 0.000794 -0.012043 -0.003548 0.034608 -0.010165 0.021157
# 5 0.002839 0.003461 0.005684 -0.010165 0.023597 -0.007951
# 6 0.005175 0.000985 -0.010290 0.021157 -0.007951 0.022483
#
#
# Mechanical properties :
#
#
# Convention : Reuss Voigt Hill
#
# Bulk Modulus (GPa) = 37.10021 34.64892 35.87456
# Shear Modulus (GPa) = 41.83842 21.70087 31.76964
#
# Velocity S-wave (km/s) = 4.27547 3.07918 3.72566
# Velocity P-wave (km/s) = 6.37043 5.27070 5.84648
#
# Compressibility (1/GPa) = 0.02695403
#
# Stress axis : x y z
#
# Youngs Moduli (GPa) = 85.66653 114.55603 125.13589
#
# Poissons Ratio (x) = 0.91445 -0.20599
# Poissons Ratio (y) = 0.68384 -0.70283
# Poissons Ratio (z) = -0.14102 -0.64341
#
# Static dielectric constant tensor:
#      x y z
#    x 1.938100 -0.108940 0.012200 
#    y -0.108940 1.926670 -0.066150 
#    z 0.012200 -0.066150 1.835740 
# 
# From -- ./inp_files/216406.got.cif
#   From: 2010.05.17/outbox.cif.g08.bks.cpg/sg2_109_cif.got.tgz:216406.got - 2010.06.03 11:33:40.
