data_PCOD9024487
_publ_section_title
;
Structure prediction by ZEFSAII (Michael W. Deem and Ramdas Pophale) SiO2 
 PCOD9024487
Probable space group: P -1
;
_chemical_formula_sum "Si O2"
_cell_formula_units_Z 16
_cell_length_a 7.921559
_cell_length_b 13.810981
_cell_length_c 10.731644
_cell_angle_alpha 32.249805
_cell_angle_beta 83.962647
_cell_angle_gamma 77.371768
_cell_volume 604.144916
_symmetry_space_group_name_H-M "P -1"
_symmetry_group_IT_number 2
_symmetry_cell_setting 'triclinic'
loop_
_space_group_symop_operation_xyz
x,y,z
-x,-y,-z
loop_
_atom_site_type_symbol
_atom_site_label
_atom_site_fract_x
_atom_site_fract_y
_atom_site_fract_z
Si Si1 0.539133 0.490171 0.862066
Si Si2 0.453246 0.116926 0.251126
Si Si3 0.326193 0.178311 0.582968
Si Si4 0.724341 0.262125 0.775670
Si Si5 0.176785 0.724852 0.523748
Si Si6 0.098257 0.345966 0.943072
Si Si7 0.908240 0.067611 0.214593
Si Si8 0.317327 0.300418 0.721259
O O1 0.671640 0.615636 0.684687
O O2 0.366231 0.605397 0.679104
O O3 0.500000 0.500000 0.000000
O O4 0.567328 0.273573 0.056907
O O5 0.500000 0.000000 0.500000
O O6 0.485596 0.965117 0.303069
O O7 0.257519 0.244998 0.129356
O O8 0.285933 0.189196 0.721377
O O9 0.214163 0.077692 0.611672
O O10 0.807856 0.218643 0.681374
O O11 0.522901 0.243096 0.807292
O O12 0.710852 0.483090 0.553944
O O13 0.850581 0.146221 0.995093
O O14 0.064159 0.568911 0.713185
O O15 0.093568 0.917609 0.387611
O O16 0.186437 0.299177 0.848070
O O17 0.939189 0.250016 0.082804
#
# Coordination Sequence:
#
# PCOD9024487 Si02
#       8
#     2   2   2   2   2   2   2   2
#     4  11  23  47  76  93 128 173 231 291 327 383
#     4  11  24  46  76 100 122 174 240 279 331 389
#     4  12  26  41  69 104 132 175 223 279 335 400
#     4  10  22  40  65 100 137 181 221 275 327 396
#     4  10  23  43  64  97 135 181 224 265 341 394
#     4  10  25  43  65  98 143 180 214 280 329 406
#     4  12  27  38  65 100 145 182 214 261 346 415
#     4  10  23  42  67 100 139 174 231 276 328 392
#
# _framework density 26.483709999999999
#
# number of rings (size 3 to 8) (size 9 to 14) (size 15 to 20)
#    0.000    1.250    2.500    1.875    8.750    2.000 
#    0.000    1.250    0.000    0.000    0.000    0.000 
#    0.000    0.000    0.000    0.000    0.000    0.000 
#
# Total GULP energy -89527.896846 kJ/mol
# GULP energy per Si atom -5595.493553 kJ/mol
# Density = 2.642343 g / cm^3
# Si number density = 26.483710 Si / 1000 Ang^3
#
#
#
# Elastic Constant Matrix: (Units=GPa)
#
#
# Indices 1 2 3 4 5 6 
#
# 1 113.5224 -15.7417 33.5853 -14.1371 -17.8088 35.5004
# 2 -15.7417 72.6517 36.7444 -15.4210 -4.2796 9.1393
# 3 33.5853 36.7444 170.4602 -14.0890 -13.4620 -3.9787
# 4 -14.1371 -15.4210 -14.0890 56.5706 7.9964 -3.6826
# 5 -17.8088 -4.2796 -13.4620 7.9964 25.9023 -25.7197
# 6 35.5004 9.1393 -3.9787 -3.6826 -25.7197 14.3014
#
#
#
# Elastic Compliance Matrix: (Units=1/GPa)
#
#
# Indices 1 2 3 4 5 6 
#
# 1 0.007833 0.001245 0.000001 0.000539 0.018497 0.013165
# 2 0.001245 0.014809 -0.001840 0.002752 0.013711 0.012301
# 3 0.000001 -0.001840 0.005627 0.001262 -0.006712 -0.009007
# 4 0.000539 0.002752 0.001262 0.018946 0.002864 0.007282
# 5 0.018497 0.013711 -0.006712 0.002864 0.007887 -0.041623
# 6 0.013165 0.012301 -0.009007 0.007282 -0.041623 -0.046103
#
#
# Mechanical properties :
#
#
# Convention : Reuss Voigt Hill
#
# Bulk Modulus (GPa) = 36.92661 51.75669 44.34165
# Shear Modulus (GPa) = 260.21229 39.49128 149.85178
#
# Velocity S-wave (km/s) = 9.92305 3.86573 7.53030
# Velocity P-wave (km/s) = 12.05250 6.28574 9.61180
#
# Compressibility (1/GPa) = 0.02708074
#
# Stress axis : x y z
#
# Youngs Moduli (GPa) = 127.66107 67.52608 177.71566
#
# Poissons Ratio (x) = -0.08406 -0.00018
# Poissons Ratio (y) = -0.15891 0.32701
# Poissons Ratio (z) = -0.00013 0.12425
#
# Static dielectric constant tensor:
#      x y z
#    x 2.312610 -0.040400 -0.002400 
#    y -0.040400 2.038970 -0.018570 
#    z -0.002400 -0.018570 2.018190 
# 
# From -- ./inp_files/307533.got.cif
#   From: 2010.05.17/outbox.cif.g08.bks.cpg/sg2_154_cif.got.tgz:307533.got - 2010.06.03 11:33:40.
