data_PCOD9024850
_publ_section_title
;
Structure prediction by ZEFSAII (Michael W. Deem and Ramdas Pophale) SiO2 
 PCOD9024850
Probable space group: P -1
;
_chemical_formula_sum "Si O2"
_cell_formula_units_Z 16
_cell_length_a 12.548733
_cell_length_b 10.764313
_cell_length_c 13.288722
_cell_angle_alpha 147.037314
_cell_angle_beta 137.267658
_cell_angle_gamma 43.555831
_cell_volume 633.519616
_symmetry_space_group_name_H-M "P -1"
_symmetry_group_IT_number 2
_symmetry_cell_setting 'triclinic'
loop_
_space_group_symop_operation_xyz
x,y,z
-x,-y,-z
loop_
_atom_site_type_symbol
_atom_site_label
_atom_site_fract_x
_atom_site_fract_y
_atom_site_fract_z
Si Si1 0.425173 0.408946 0.627898
Si Si2 0.103757 0.527643 0.956767
Si Si3 0.746268 0.291064 0.648476
Si Si4 0.542176 0.858174 0.037937
Si Si5 0.947903 0.785888 0.441184
Si Si6 0.831304 0.502183 0.328052
Si Si7 0.332043 0.292774 0.274174
Si Si8 0.084238 0.992276 0.868394
O O1 0.612046 0.276851 0.631672
O O2 0.329553 0.357949 0.624510
O O3 0.316585 0.383904 0.439352
O O4 0.432458 0.676633 0.835293
O O5 0.276844 0.318104 0.938115
O O6 0.986422 0.394352 0.728178
O O7 0.110561 0.623004 0.139367
O O8 0.076793 0.789807 0.063343
O O9 0.657399 0.500252 0.653519
O O10 0.838115 0.037224 0.494350
O O11 0.496142 0.067529 0.229712
O O12 0.500000 0.000000 0.000000
O O13 0.840647 0.639701 0.325981
O O14 0.054303 0.864533 0.656512
O O15 0.000000 0.500000 0.500000
O O16 0.850804 0.219150 0.149738
O O17 0.205641 0.155164 0.052937
#
# Coordination Sequence:
#
# PCOD9024850 Si02
#       8
#     2   2   2   2   2   2   2   2
#     4  11  23  40  69  99 130 178 219 273 336 383
#     4  10  22  40  66  93 132 175 212 269 334 379
#     4  10  23  42  63 101 134 164 222 269 326 412
#     4  11  22  42  67  99 137 171 220 269 321 409
#     4  10  23  44  65  94 137 174 221 275 328 384
#     4  10  23  45  66  92 133 174 228 279 316 391
#     4  12  23  39  71 102 133 175 216 268 337 398
#     4  10  24  42  63 100 131 168 232 264 323 401
#
# _framework density 25.255728000000001
#
# number of rings (size 3 to 8) (size 9 to 14) (size 15 to 20)
#    0.000    1.500    3.750    1.125    5.250    3.000 
#    4.500    3.750    0.000    0.000    0.000    0.000 
#    0.000    0.000    0.000    0.000    0.000    0.000 
#
# Total GULP energy -89216.105613 kJ/mol
# GULP energy per Si atom -5576.006601 kJ/mol
# Density = 2.519825 g / cm^3
# Si number density = 25.255728 Si / 1000 Ang^3
#
#
#
# Elastic Constant Matrix: (Units=GPa)
#
#
# Indices 1 2 3 4 5 6 
#
# 1 83.6598 7.1521 17.1930 8.2357 1.5814 3.1843
# 2 7.1521 80.3736 46.4773 21.4518 -4.6901 0.2337
# 3 17.1930 46.4773 167.3387 13.6876 -15.4163 -1.2839
# 4 8.2357 21.4518 13.6876 58.6322 -16.2655 -2.1236
# 5 1.5814 -4.6901 -15.4163 -16.2655 40.8744 0.0302
# 6 3.1843 0.2337 -1.2839 -2.1236 0.0302 28.8907
#
#
#
# Elastic Compliance Matrix: (Units=1/GPa)
#
#
# Indices 1 2 3 4 5 6 
#
# 1 0.012511 0.000095 -0.001321 -0.002035 -0.001780 -0.001586
# 2 0.000095 0.016262 -0.004259 -0.005536 -0.001946 -0.000736
# 3 -0.001321 -0.004259 0.007484 0.000763 0.002688 0.000566
# 4 -0.002035 -0.005536 0.000763 0.021562 0.008310 0.001879
# 5 -0.001780 -0.001946 0.002688 0.008310 0.028631 0.000912
# 6 -0.001586 -0.000736 0.000566 0.001879 0.000912 0.034956
#
#
# Mechanical properties :
#
#
# Convention : Reuss Voigt Hill
#
# Bulk Modulus (GPa) = 39.54693 52.55745 46.05219
# Shear Modulus (GPa) = 35.50989 43.04944 39.27966
#
# Velocity S-wave (km/s) = 3.75375 4.13309 3.94798
# Velocity P-wave (km/s) = 5.87198 6.60544 6.24948
#
# Compressibility (1/GPa) = 0.02528641
#
# Stress axis : x y z
#
# Youngs Moduli (GPa) = 79.92977 61.49278 133.61696
#
# Poissons Ratio (x) = -0.00582 0.17657
# Poissons Ratio (y) = -0.00757 0.56902
# Poissons Ratio (z) = 0.10562 0.26187
#
# Static dielectric constant tensor:
#      x y z
#    x 2.061630 -0.116910 0.059170 
#    y -0.116910 2.125560 -0.060250 
#    z 0.059170 -0.060250 2.012830 
# 
# From -- ./inp_files/532188.got.cif
#   From: 2010.05.17/outbox.cif.g08.bks.cpg/sg2_267_cif.got.tgz:532188.got - 2010.06.03 11:33:40.
