data_PCOD9024065
_publ_section_title
;
Structure prediction by ZEFSAII (Michael W. Deem and Ramdas Pophale) SiO2 
 PCOD9024065
Probable space group: P -1
;
_chemical_formula_sum "Si O2"
_cell_formula_units_Z 10
_cell_length_a 11.468332
_cell_length_b 10.443932
_cell_length_c 11.095669
_cell_angle_alpha 154.332519
_cell_angle_beta 64.348442
_cell_angle_gamma 103.662342
_cell_volume 476.855833
_symmetry_space_group_name_H-M "P -1"
_symmetry_group_IT_number 2
_symmetry_cell_setting 'triclinic'
loop_
_space_group_symop_operation_xyz
x,y,z
-x,-y,-z
loop_
_atom_site_type_symbol
_atom_site_label
_atom_site_fract_x
_atom_site_fract_y
_atom_site_fract_z
Si Si1 0.374997 0.307940 0.382213
Si Si2 0.159087 0.166002 0.513455
Si Si3 0.592525 0.672997 0.043836
Si Si4 0.437467 0.646934 0.451642
Si Si5 0.837845 0.493786 0.969167
O O1 0.252276 0.209813 0.402138
O O2 0.328321 0.612415 0.570483
O O3 0.434013 0.411866 0.564642
O O4 0.500000 0.000000 0.000000
O O5 0.997383 0.418889 0.795094
O O6 0.158900 0.813888 0.218767
O O7 0.213620 0.219881 0.667427
O O8 0.566362 0.048415 0.365324
O O9 0.500000 0.500000 0.000000
O O10 0.572520 0.597465 0.850380
O O11 0.739340 0.536287 0.934428
#
# Coordination Sequence:
#
# PCOD9024065 Si02
#       5
#     2   2   2   2   2
#     4  11  23  41  63  87 123 159 204 247 286 361
#     4  10  22  40  64  88 116 160 202 243 296 349
#     4  12  22  38  60  89 123 152 196 253 300 349
#     4  11  24  37  59  90 115 159 201 239 305 346
#     4  10  22  40  63  90 119 154 200 249 298 352
#
# _framework density 20.970699
#
# number of rings (size 3 to 8) (size 9 to 14) (size 15 to 20)
#    0.000    1.200    2.000    4.200    5.600    0.000 
#    0.000    2.000    0.000    0.000    0.000    0.000 
#    0.000    0.000    0.000    0.000    0.000    0.000 
#
# Total GULP energy -55702.831688 kJ/mol
# GULP energy per Si atom -5570.283169 kJ/mol
# Density = 2.092297 g / cm^3
# Si number density = 20.970699 Si / 1000 Ang^3
#
#
#
# Elastic Constant Matrix: (Units=GPa)
#
#
# Indices 1 2 3 4 5 6 
#
# 1 84.7104 35.8370 26.8763 -20.7934 11.6704 13.2157
# 2 35.8370 133.1398 11.8469 -5.7371 -15.2246 29.8700
# 3 26.8763 11.8469 74.8834 1.0629 17.8910 12.6101
# 4 -20.7934 -5.7371 1.0629 35.3916 3.5721 5.7154
# 5 11.6704 -15.2246 17.8910 3.5721 28.4368 -6.8677
# 6 13.2157 29.8700 12.6101 5.7154 -6.8677 47.4199
#
#
#
# Elastic Compliance Matrix: (Units=1/GPa)
#
#
# Indices 1 2 3 4 5 6 
#
# 1 0.020661 -0.004925 -0.003040 0.013505 -0.012165 -0.005237
# 2 -0.004925 0.010590 -0.001081 -0.001309 0.007630 -0.003747
# 3 -0.003040 -0.001081 0.018344 -0.000485 -0.012027 -0.005033
# 4 0.013505 -0.001309 -0.000485 0.038828 -0.013082 -0.009385
# 5 -0.012165 0.007630 -0.012027 -0.013082 0.056231 0.011503
# 6 -0.005237 -0.003747 -0.005033 -0.009385 0.011503 0.029044
#
#
# Mechanical properties :
#
#
# Convention : Reuss Voigt Hill
#
# Bulk Modulus (GPa) = 31.74276 49.09489 40.41883
# Shear Modulus (GPa) = 24.71695 36.79455 30.75575
#
# Velocity S-wave (km/s) = 3.43686 4.19330 3.83378
# Velocity P-wave (km/s) = 5.56048 6.84887 6.23803
#
# Compressibility (1/GPa) = 0.03150325
#
# Stress axis : x y z
#
# Youngs Moduli (GPa) = 48.40075 94.43248 54.51354
#
# Poissons Ratio (x) = 0.46507 0.16570
# Poissons Ratio (y) = 0.23837 0.05893
# Poissons Ratio (z) = 0.14712 0.10209
#
# Static dielectric constant tensor:
#      x y z
#    x 1.752420 0.016210 -0.019510 
#    y 0.016210 1.803860 -0.001360 
#    z -0.019510 -0.001360 1.827570 
# 
# From -- ./inp_files/16116.got.cif
#   From: 2010.05.17/outbox.cif.g08.bks.cpg/sg2_9_cif.got.tgz:16116.got - 2010.06.03 11:33:40.
