data_PCOD9024523
_publ_section_title
;
Structure prediction by ZEFSAII (Michael W. Deem and Ramdas Pophale) SiO2 
 PCOD9024523
Probable space group: P -1
;
_chemical_formula_sum "Si O2"
_cell_formula_units_Z 16
_cell_length_a 14.801832
_cell_length_b 8.562020
_cell_length_c 8.470651
_cell_angle_alpha 53.296710
_cell_angle_beta 76.076087
_cell_angle_gamma 104.303912
_cell_volume 722.355829
_symmetry_space_group_name_H-M "P -1"
_symmetry_group_IT_number 2
_symmetry_cell_setting 'triclinic'
loop_
_space_group_symop_operation_xyz
x,y,z
-x,-y,-z
loop_
_atom_site_type_symbol
_atom_site_label
_atom_site_fract_x
_atom_site_fract_y
_atom_site_fract_z
Si Si1 0.527024 0.820409 0.667509
Si Si2 0.995166 0.010081 0.242813
Si Si3 0.250863 0.983951 0.472046
Si Si4 0.404003 0.429085 0.460691
Si Si5 0.178510 0.122998 0.881868
Si Si6 0.181098 0.729260 0.993059
Si Si7 0.027651 0.708424 0.633606
Si Si8 0.323644 0.502445 0.144658
O O1 0.576718 0.737034 0.560716
O O2 0.500000 0.000000 0.500000
O O3 0.628128 0.948141 0.666269
O O4 0.421527 0.612936 0.911767
O O5 0.904292 0.937820 0.192781
O O6 0.987724 0.786649 0.452678
O O7 0.981852 0.153212 0.298646
O O8 0.115070 0.150055 0.036357
O O9 0.222933 0.859861 0.729957
O O10 0.154728 0.806155 0.510443
O O11 0.256983 0.228272 0.327125
O O12 0.500000 0.500000 0.500000
O O13 0.294729 0.324606 0.669872
O O14 0.383249 0.570476 0.249116
O O15 0.195313 0.908415 0.011650
O O16 0.245869 0.601738 0.083592
O O17 0.053840 0.551164 0.144398
#
# Coordination Sequence:
#
# PCOD9024523 Si02
#       8
#     2   2   2   2   2   2   2   2
#     4  11  21  43  68  95 122 168 218 258 315 383
#     4  10  22  40  65  87 133 165 213 249 323 378
#     4  11  21  39  63  96 131 158 209 266 312 370
#     4  11  23  41  63  93 130 164 210 266 319 369
#     4  11  22  42  60  92 129 172 202 259 320 384
#     4  12  22  39  70  91 130 163 218 255 316 378
#     4  11  22  39  63 100 121 168 212 268 303 370
#     4  11  22  41  71  90 126 178 207 258 323 378
#
# _framework density 22.149747999999999
#
# number of rings (size 3 to 8) (size 9 to 14) (size 15 to 20)
#    0.000    1.000    5.000    4.125    0.000    3.500 
#    0.000    3.750    0.000    0.000    0.000    0.000 
#    0.000    0.000    0.000    0.000    0.000    0.000 
#
# Total GULP energy -89344.354232 kJ/mol
# GULP energy per Si atom -5584.022140 kJ/mol
# Density = 2.209933 g / cm^3
# Si number density = 22.149748 Si / 1000 Ang^3
#
#
#
# Elastic Constant Matrix: (Units=GPa)
#
#
# Indices 1 2 3 4 5 6 
#
# 1 137.8540 4.5171 43.8533 -5.7725 4.3497 2.4340
# 2 4.5171 -4.1130 7.3414 -0.5837 4.3035 12.2904
# 3 43.8533 7.3414 122.4980 -9.8698 -7.6924 8.2119
# 4 -5.7725 -0.5837 -9.8698 19.0460 -4.2150 -4.7166
# 5 4.3497 4.3035 -7.6924 -4.2150 50.2949 -3.3078
# 6 2.4340 12.2904 8.2119 -4.7166 -3.3078 20.9339
#
#
#
# Elastic Compliance Matrix: (Units=1/GPa)
#
#
# Indices 1 2 3 4 5 6 
#
# 1 0.008252 0.001008 -0.003016 0.000587 -0.001240 -0.000432
# 2 0.001008 -0.078261 0.002867 0.014258 0.011514 0.049737
# 3 -0.003016 0.002867 0.009728 0.003535 0.001529 -0.004110
# 4 0.000587 0.014258 0.003535 0.056799 0.004270 0.003646
# 5 -0.001240 0.011514 0.001529 0.004270 0.019387 -0.003190
# 6 -0.000432 0.049737 -0.004110 0.003646 -0.003190 0.020548
#
#
# Mechanical properties :
#
#
# Convention : Reuss Voigt Hill
#
# Bulk Modulus (GPa) = -17.07547 40.85140 11.88797
# Shear Modulus (GPa) = 328.62778 31.42346 180.02562
#
# Velocity S-wave (km/s) = 12.19379 3.77063 9.02513
# Velocity P-wave (km/s) = 13.80310 6.11884 10.67627
#
# Compressibility (1/GPa) = -0.05856355
#
# Stress axis : x y z
#
# Youngs Moduli (GPa) = 121.18483 -12.77781 102.79874
#
# Poissons Ratio (x) = 0.01288 0.31005
# Poissons Ratio (y) = -0.12215 -0.29472
# Poissons Ratio (z) = 0.36551 0.03663
#
# Static dielectric constant tensor:
#      x y z
#    x 1.878640 0.043020 -0.000340 
#    y 0.043020 1.851590 0.008940 
#    z -0.000340 0.008940 1.830390 
# 
# From -- ./inp_files/297453.got.cif
#   From: 2010.05.17/outbox.cif.g08.bks.cpg/sg2_149_cif.got.tgz:297453.got - 2010.06.03 11:33:40.
