data_PCOD9024402
_publ_section_title
;
Structure prediction by ZEFSAII (Michael W. Deem and Ramdas Pophale) SiO2 
 PCOD9024402
Probable space group: P -1
;
_chemical_formula_sum "Si O2"
_cell_formula_units_Z 16
_cell_length_a 17.147267
_cell_length_b 4.883298
_cell_length_c 9.250688
_cell_angle_alpha 72.659359
_cell_angle_beta 110.564899
_cell_angle_gamma 75.677507
_cell_volume 636.301865
_symmetry_space_group_name_H-M "P -1"
_symmetry_group_IT_number 2
_symmetry_cell_setting 'triclinic'
loop_
_space_group_symop_operation_xyz
x,y,z
-x,-y,-z
loop_
_atom_site_type_symbol
_atom_site_label
_atom_site_fract_x
_atom_site_fract_y
_atom_site_fract_z
Si Si1 0.530954 0.552914 0.217152
Si Si2 0.670171 0.391160 0.579479
Si Si3 0.184288 0.287379 0.704451
Si Si4 0.784877 0.780043 0.606043
Si Si5 0.591884 0.746150 0.949184
Si Si6 0.922107 0.111716 0.314900
Si Si7 0.089128 0.744175 0.027909
Si Si8 0.276593 0.776617 0.061579
O O1 0.580779 0.486930 0.412012
O O2 0.490991 0.305662 0.179164
O O3 0.447840 0.887651 0.106485
O O4 0.599844 0.576128 0.135804
O O5 0.700845 0.673404 0.589039
O O6 0.667020 0.238496 0.755072
O O7 0.750559 0.133657 0.580718
O O8 0.196684 0.261887 0.545489
O O9 0.162101 0.627451 0.699328
O O10 0.099973 0.185618 0.693011
O O11 0.262841 0.038631 0.891029
O O12 0.868513 0.560344 0.794692
O O13 0.678005 0.555045 0.937240
O O14 0.937075 0.275941 0.153511
O O15 0.000000 0.000000 0.500000
O O16 0.176967 0.831487 0.049948
O O17 0.000000 0.000000 0.000000
#
# Coordination Sequence:
#
# PCOD9024402 Si02
#       8
#     2   2   2   2   2   2   2   2
#     4  10  22  40  65  96 128 168 207 261 317 388
#     4  11  23  41  64  97 133 167 213 258 324 383
#     4  11  23  41  64  91 123 166 216 261 323 381
#     4  11  23  41  66  94 130 172 213 267 322 381
#     4  10  22  40  64  95 131 166 212 258 319 380
#     4  11  23  41  63  91 123 161 216 273 323 377
#     4  10  23  44  66  94 132 173 219 268 323 379
#     4  10  24  42  65  96 131 172 214 268 320 380
#
# _framework density 25.145299999999999
#
# number of rings (size 3 to 8) (size 9 to 14) (size 15 to 20)
#    0.000    1.500    0.000    4.125    0.000   10.000 
#    0.000    5.625    0.000    0.000    0.000    0.000 
#    0.000    0.000    0.000    0.000    0.000    0.000 
#
# Total GULP energy -89578.390440 kJ/mol
# GULP energy per Si atom -5598.649402 kJ/mol
# Density = 2.508807 g / cm^3
# Si number density = 25.145300 Si / 1000 Ang^3
#
#
#
# Elastic Constant Matrix: (Units=GPa)
#
#
# Indices 1 2 3 4 5 6 
#
# 1 73.5207 11.4151 26.8124 1.6462 -6.1212 -16.4274
# 2 11.4151 91.3209 13.8766 6.7618 -4.7113 -19.0216
# 3 26.8124 13.8766 228.1353 13.6294 6.6037 -12.7093
# 4 1.6462 6.7618 13.6294 39.4540 -9.1208 -3.9107
# 5 -6.1212 -4.7113 6.6037 -9.1208 41.8171 8.4772
# 6 -16.4274 -19.0216 -12.7093 -3.9107 8.4772 38.0208
#
#
#
# Elastic Compliance Matrix: (Units=1/GPa)
#
#
# Indices 1 2 3 4 5 6 
#
# 1 0.015646 -0.000510 -0.001586 0.000902 0.001519 0.005729
# 2 -0.000510 0.012355 -0.000281 -0.001458 -0.000121 0.005744
# 3 -0.001586 -0.000281 0.004795 -0.001820 -0.001610 0.000949
# 4 0.000902 -0.001458 -0.001820 0.027668 0.006185 0.000519
# 5 0.001519 -0.000121 -0.001610 0.006185 0.026796 -0.005281
# 6 0.005729 0.005744 0.000949 0.000519 -0.005281 0.033198
#
#
# Mechanical properties :
#
#
# Convention : Reuss Voigt Hill
#
# Bulk Modulus (GPa) = 35.66190 55.24280 45.45235
# Shear Modulus (GPa) = 37.15818 46.58323 41.87070
#
# Velocity S-wave (km/s) = 3.84831 4.30881 4.08505
# Velocity P-wave (km/s) = 5.82744 6.83897 6.35337
#
# Compressibility (1/GPa) = 0.02804113
#
# Stress axis : x y z
#
# Youngs Moduli (GPa) = 63.91571 80.93920 208.54459
#
# Poissons Ratio (x) = 0.04126 0.33085
# Poissons Ratio (y) = 0.03258 0.05861
# Poissons Ratio (z) = 0.10140 0.02275
#
# Static dielectric constant tensor:
#      x y z
#    x 2.106570 0.036260 -0.013630 
#    y 0.036260 1.922510 -0.008320 
#    z -0.013630 -0.008320 1.977140 
# 
# From -- ./inp_files/340352.got.cif
#   From: 2010.05.17/outbox.cif.g08.bks.cpg/sg2_171_cif.got.tgz:340352.got - 2010.06.03 11:33:40.
