data_PCOD9024495
_publ_section_title
;
Structure prediction by ZEFSAII (Michael W. Deem and Ramdas Pophale) SiO2 
 PCOD9024495
Probable space group: P -1
;
_chemical_formula_sum "Si O2"
_cell_formula_units_Z 16
_cell_length_a 14.393423
_cell_length_b 11.082012
_cell_length_c 5.440367
_cell_angle_alpha 67.468941
_cell_angle_beta 116.590070
_cell_angle_gamma 111.842335
_cell_volume 695.321760
_symmetry_space_group_name_H-M "P -1"
_symmetry_group_IT_number 2
_symmetry_cell_setting 'triclinic'
loop_
_space_group_symop_operation_xyz
x,y,z
-x,-y,-z
loop_
_atom_site_type_symbol
_atom_site_label
_atom_site_fract_x
_atom_site_fract_y
_atom_site_fract_z
Si Si1 0.055685 0.287084 0.575026
Si Si2 0.044831 0.126180 0.192651
Si Si3 0.892375 0.392629 0.042708
Si Si4 0.577250 0.449348 0.318195
Si Si5 0.368625 0.315885 0.413163
Si Si6 0.756774 0.508595 0.158609
Si Si7 0.805853 0.122345 0.911421
Si Si8 0.241686 0.008350 0.543084
O O1 0.938497 0.311894 0.376484
O O2 0.916991 0.072361 0.093283
O O3 0.064381 0.207986 0.897113
O O4 0.077617 0.219110 0.399618
O O5 0.313495 0.160989 0.514493
O O6 0.142201 0.426902 0.604145
O O7 0.118373 0.021929 0.372890
O O8 0.846638 0.282607 0.868137
O O9 0.802404 0.452514 0.015658
O O10 0.000000 0.500000 0.000000
O O11 0.493662 0.340400 0.464715
O O12 0.629376 0.579266 0.444091
O O13 0.500000 0.500000 0.000000
O O14 0.667338 0.408616 0.292192
O O15 0.299284 0.372284 0.082431
O O16 0.743347 0.065588 0.129944
O O17 0.745023 0.068418 0.632424
#
# Coordination Sequence:
#
# PCOD9024495 Si02
#       8
#     2   2   2   2   2   2   2   2
#     4  11  22  37  62  93 130 170 218 254 318 377
#     4  11  21  39  58  87 130 170 217 261 313 381
#     4  11  26  44  62  90 137 180 226 264 302 379
#     4   9  21  39  66  99 127 150 213 267 341 395
#     4  10  22  40  65 102 124 161 204 279 339 382
#     4  11  21  38  64  93 127 172 212 266 323 382
#     4  11  25  40  58  91 125 180 219 261 314 380
#     4  12  23  39  66  89 133 166 214 270 327 389
#
# _framework density 23.010932
#
# number of rings (size 3 to 8) (size 9 to 14) (size 15 to 20)
#    0.000    1.250    1.250    5.625    5.250    1.000 
#    0.000    0.000    0.000    1.500    0.000    0.000 
#    0.000    0.000    0.000    0.000    0.000    0.000 
#
# Total GULP energy -89498.186143 kJ/mol
# GULP energy per Si atom -5593.636634 kJ/mol
# Density = 2.295856 g / cm^3
# Si number density = 23.010932 Si / 1000 Ang^3
#
#
#
# Elastic Constant Matrix: (Units=GPa)
#
#
# Indices 1 2 3 4 5 6 
#
# 1 98.5082 42.4872 26.8027 5.2657 -28.9797 7.4526
# 2 42.4872 123.5153 44.5901 16.9309 -22.8309 16.6946
# 3 26.8027 44.5901 130.6215 14.9585 -26.2973 3.6000
# 4 5.2657 16.9309 14.9585 39.8294 -0.9455 3.8619
# 5 -28.9797 -22.8309 -26.2973 -0.9455 38.8080 0.4985
# 6 7.4526 16.6946 3.6000 3.8619 0.4985 22.3954
#
#
#
# Elastic Compliance Matrix: (Units=1/GPa)
#
#
# Indices 1 2 3 4 5 6 
#
# 1 0.014243 -0.002818 -0.000057 -0.000180 0.008971 -0.002799
# 2 -0.002818 0.011883 -0.002252 -0.003064 0.003378 -0.007105
# 3 -0.000057 -0.002252 0.009767 -0.002626 0.005181 0.000465
# 4 -0.000180 -0.003064 -0.002626 0.027533 -0.003020 -0.001915
# 5 0.008971 0.003378 0.005181 -0.003020 0.037977 -0.006660
# 6 -0.002799 -0.007105 0.000465 -0.001915 -0.006660 0.051284
#
#
# Mechanical properties :
#
#
# Convention : Reuss Voigt Hill
#
# Bulk Modulus (GPa) = 39.00087 64.48947 51.74517
# Shear Modulus (GPa) = 29.15701 36.12425 32.64063
#
# Velocity S-wave (km/s) = 3.56349 3.96646 3.77036
# Velocity P-wave (km/s) = 5.82382 7.00453 6.44129
#
# Compressibility (1/GPa) = 0.02564045
#
# Stress axis : x y z
#
# Youngs Moduli (GPa) = 70.21175 84.15451 102.38563
#
# Poissons Ratio (x) = 0.23711 0.00582
# Poissons Ratio (y) = 0.19783 0.23053
# Poissons Ratio (z) = 0.00399 0.18948
#
# Static dielectric constant tensor:
#      x y z
#    x 1.890130 0.006570 -0.042290 
#    y 0.006570 1.892000 -0.036180 
#    z -0.042290 -0.036180 1.912880 
# 
# From -- ./inp_files/92523.got.cif
#   From: 2010.05.17/outbox.cif.g08.bks.cpg/sg2_47_cif.got.tgz:92523.got - 2010.06.03 11:33:40.
