data_PCOD9024904
_publ_section_title
;
Structure prediction by ZEFSAII (Michael W. Deem and Ramdas Pophale) SiO2 
 PCOD9024904
Probable space group: P -1
;
_chemical_formula_sum "Si O2"
_cell_formula_units_Z 16
_cell_length_a 8.266544
_cell_length_b 19.978428
_cell_length_c 6.957233
_cell_angle_alpha 111.539739
_cell_angle_beta 53.174487
_cell_angle_gamma 71.457094
_cell_volume 591.317666
_symmetry_space_group_name_H-M "P -1"
_symmetry_group_IT_number 2
_symmetry_cell_setting 'triclinic'
loop_
_space_group_symop_operation_xyz
x,y,z
-x,-y,-z
loop_
_atom_site_type_symbol
_atom_site_label
_atom_site_fract_x
_atom_site_fract_y
_atom_site_fract_z
Si Si1 0.663102 0.907521 0.069814
Si Si2 0.778923 0.174139 0.183470
Si Si3 0.600785 0.290947 0.087258
Si Si4 0.901845 0.340673 0.047172
Si Si5 0.575332 0.396877 0.855282
Si Si6 0.136873 0.286668 0.402790
Si Si7 0.502262 0.100919 0.417852
Si Si8 0.850870 0.584504 0.029001
O O1 0.470865 0.925794 0.403213
O O2 0.531209 0.016531 0.207255
O O3 0.685002 0.833807 0.834041
O O4 0.970623 0.856645 0.894124
O O5 0.818116 0.183250 0.939577
O O6 0.726252 0.104290 0.192187
O O7 0.454918 0.294234 0.575785
O O8 0.332774 0.305960 0.253605
O O9 0.660687 0.313474 0.866305
O O10 0.623542 0.359688 0.272987
O O11 0.953262 0.349631 0.793903
O O12 0.185182 0.219393 0.754909
O O13 0.926610 0.412090 0.200597
O O14 0.268992 0.442038 0.060005
O O15 0.899642 0.323124 0.450866
O O16 0.500000 0.500000 0.000000
O O17 0.000000 0.500000 0.000000
#
# Coordination Sequence:
#
# PCOD9024904 Si02
#       8
#     2   2   2   2   2   2   2   2
#     4  11  23  40  67  96 127 176 220 268 330 380
#     4  11  22  43  65  93 128 177 216 265 328 388
#     4  11  23  41  67  90 131 174 208 266 326 379
#     4  10  22  42  64  91 134 169 214 272 316 387
#     4  11  26  45  65  99 132 165 218 273 318 389
#     4  11  23  41  65  94 132 172 213 269 327 382
#     4  10  22  40  66  95 131 168 223 275 314 389
#     4  11  22  44  69  94 129 169 214 271 325 384
#
# _framework density 27.058216999999999
#
# number of rings (size 3 to 8) (size 9 to 14) (size 15 to 20)
#    0.000    1.250    5.000    1.875    3.500    1.000 
#    0.000    1.875    0.000    0.000    0.000    0.000 
#    0.000    0.000    0.000    0.000    0.000    0.000 
#
# Total GULP energy -89120.405663 kJ/mol
# GULP energy per Si atom -5570.025354 kJ/mol
# Density = 2.699663 g / cm^3
# Si number density = 27.058217 Si / 1000 Ang^3
#
#
#
# Elastic Constant Matrix: (Units=GPa)
#
#
# Indices 1 2 3 4 5 6 
#
# 1 134.5541 78.8768 35.0684 -11.4481 -32.5588 58.2487
# 2 78.8768 255.0327 53.2339 -14.9726 -17.3048 52.4456
# 3 35.0684 53.2339 57.3597 8.6485 -15.6886 16.9744
# 4 -11.4481 -14.9726 8.6485 48.0915 5.1617 -13.8162
# 5 -32.5588 -17.3048 -15.6886 5.1617 37.8644 -7.0817
# 6 58.2487 52.4456 16.9744 -13.8162 -7.0817 75.2267
#
#
#
# Elastic Compliance Matrix: (Units=1/GPa)
#
#
# Indices 1 2 3 4 5 6 
#
# 1 0.015459 -0.001702 -0.002404 -0.000154 0.009792 -0.009348
# 2 -0.001702 0.005695 -0.004446 0.001892 -0.001226 -0.001417
# 3 -0.002404 -0.004446 0.026968 -0.008191 0.007837 -0.001890
# 4 -0.000154 0.001892 -0.008191 0.024723 -0.005152 0.004704
# 5 0.009792 -0.001226 0.007837 -0.005152 0.037107 -0.005949
# 6 -0.009348 -0.001417 -0.001890 0.004704 -0.005949 0.022250
#
#
# Mechanical properties :
#
#
# Convention : Reuss Voigt Hill
#
# Bulk Modulus (GPa) = 32.23953 86.81163 59.52558
# Shear Modulus (GPa) = 31.31965 50.88767 41.10366
#
# Velocity S-wave (km/s) = 3.40588 4.34138 3.90177
# Velocity P-wave (km/s) = 5.23521 7.56855 6.50732
#
# Compressibility (1/GPa) = 0.03101782
#
# Stress axis : x y z
#
# Youngs Moduli (GPa) = 64.68727 175.60195 37.08121
#
# Poissons Ratio (x) = 0.29881 0.08916
# Poissons Ratio (y) = 0.11008 0.16485
# Poissons Ratio (z) = 0.15554 0.78068
#
# Static dielectric constant tensor:
#      x y z
#    x 2.492880 -0.102770 0.128190 
#    y -0.102770 2.077570 -0.002080 
#    z 0.128190 -0.002080 2.241720 
# 
# From -- ./inp_files/215718.got.cif
#   From: 2010.05.17/outbox.cif.g08.bks.cpg/sg2_108_cif.got.tgz:215718.got - 2010.06.03 11:33:40.
