data_PCOD9024490
_publ_section_title
;
Structure prediction by ZEFSAII (Michael W. Deem and Ramdas Pophale) SiO2 
 PCOD9024490
Probable space group: P -1
;
_chemical_formula_sum "Si O2"
_cell_formula_units_Z 16
_cell_length_a 14.026432
_cell_length_b 11.571491
_cell_length_c 13.613732
_cell_angle_alpha 42.681688
_cell_angle_beta 33.483756
_cell_angle_gamma 43.224182
_cell_volume 785.987434
_symmetry_space_group_name_H-M "P -1"
_symmetry_group_IT_number 2
_symmetry_cell_setting 'triclinic'
loop_
_space_group_symop_operation_xyz
x,y,z
-x,-y,-z
loop_
_atom_site_type_symbol
_atom_site_label
_atom_site_fract_x
_atom_site_fract_y
_atom_site_fract_z
Si Si1 0.650643 0.845919 0.024187
Si Si2 0.674196 0.324693 0.444781
Si Si3 0.518564 0.956989 0.271265
Si Si4 0.646442 0.699232 0.505044
Si Si5 0.999303 0.799688 0.628871
Si Si6 0.333724 0.524471 0.834715
Si Si7 0.069013 0.481601 0.263045
Si Si8 0.613510 0.642402 0.796656
O O1 0.660546 0.891851 0.101012
O O2 0.597979 0.671400 0.148743
O O3 0.847329 0.802738 0.836356
O O4 0.500000 0.000000 0.000000
O O5 0.500000 0.500000 0.500000
O O6 0.625933 0.140399 0.584314
O O7 0.767400 0.352618 0.245172
O O8 0.806912 0.316800 0.425120
O O9 0.584629 0.866145 0.377259
O O10 0.458154 0.172433 0.194744
O O11 0.509732 0.584892 0.668830
O O12 0.615390 0.715280 0.638984
O O13 0.863065 0.610888 0.359984
O O14 0.949041 0.711656 0.630168
O O15 0.000000 0.000000 0.500000
O O16 0.199264 0.529123 0.038357
O O17 0.182834 0.461885 0.277131
O O18 0.500000 0.500000 0.000000
#
# Coordination Sequence:
#
# PCOD9024490 Si02
#       8
#     2   2   2   2   2   2   2   2
#     4  11  23  37  63  99 144 169 221 268 339 411
#     4  11  21  40  67  96 142 173 210 267 347 408
#     4  11  24  43  69 102 134 178 221 272 340 404
#     4  11  25  44  74  92 134 179 230 279 338 385
#     4  11  24  37  62 100 139 171 213 275 339 413
#     4  10  22  40  65 101 136 174 214 273 337 410
#     4  11  24  41  69  98 128 174 235 273 333 401
#     4  12  25  48  69  93 134 182 232 288 329 384
#
# _framework density 20.356559000000001
#
# number of rings (size 3 to 8) (size 9 to 14) (size 15 to 20)
#    0.000    1.000    2.500    5.250    3.500    1.000 
#    0.000    1.875    0.000    0.000    0.000    0.000 
#    0.000    0.000    0.000    0.000    0.000    0.000 
#
# Total GULP energy -89198.450192 kJ/mol
# GULP energy per Si atom -5574.903137 kJ/mol
# Density = 2.031023 g / cm^3
# Si number density = 20.356559 Si / 1000 Ang^3
#
#
#
# Elastic Constant Matrix: (Units=GPa)
#
#
# Indices 1 2 3 4 5 6 
#
# 1 100.1228 14.6575 28.0849 2.9993 -12.3134 -5.9892
# 2 14.6575 83.9942 41.2481 -3.1665 -20.5476 1.8645
# 3 28.0849 41.2481 72.5357 -2.7612 -11.0861 -6.1149
# 4 2.9993 -3.1665 -2.7612 30.8618 4.8612 -4.1824
# 5 -12.3134 -20.5476 -11.0861 4.8612 37.2579 8.7611
# 6 -5.9892 1.8645 -6.1149 -4.1824 8.7611 27.9931
#
#
#
# Elastic Compliance Matrix: (Units=1/GPa)
#
#
# Indices 1 2 3 4 5 6 
#
# 1 0.011600 0.000945 -0.004602 -0.001931 0.003209 0.000121
# 2 0.000945 0.019340 -0.010510 -0.001453 0.009593 -0.006601
# 3 -0.004602 -0.010510 0.021730 0.002466 -0.002492 0.005611
# 4 -0.001931 -0.001453 0.002466 0.034804 -0.007040 0.007626
# 5 0.003209 0.009593 -0.002492 -0.007040 0.036412 -0.012945
# 6 0.000121 -0.006601 0.005611 0.007626 -0.012945 0.042605
#
#
# Mechanical properties :
#
#
# Convention : Reuss Voigt Hill
#
# Bulk Modulus (GPa) = 41.08740 47.18151 44.13445
# Shear Modulus (GPa) = 24.63821 30.73338 27.68579
#
# Velocity S-wave (km/s) = 3.48276 3.88977 3.69188
# Velocity P-wave (km/s) = 6.03328 6.58799 6.31673
#
# Compressibility (1/GPa) = 0.02433836
#
# Stress axis : x y z
#
# Youngs Moduli (GPa) = 86.20758 51.70549 46.01855
#
# Poissons Ratio (x) = -0.04887 0.21176
# Poissons Ratio (y) = -0.08148 0.48364
# Poissons Ratio (z) = 0.39670 0.54340
#
# Static dielectric constant tensor:
#      x y z
#    x 1.751390 -0.001080 0.045070 
#    y -0.001080 1.723080 -0.034530 
#    z 0.045070 -0.034530 1.823200 
# 
# From -- ./inp_files/531606.got.cif
#   From: 2010.05.17/outbox.cif.g08.bks.cpg/sg2_266_cif.got.tgz:531606.got - 2010.06.03 11:33:40.
