data_PCOD9024834
_publ_section_title
;
Structure prediction by ZEFSAII (Michael W. Deem and Ramdas Pophale) SiO2 
 PCOD9024834
Probable space group: P -1
;
_chemical_formula_sum "Si O2"
_cell_formula_units_Z 13
_cell_length_a 16.545419
_cell_length_b 7.291849
_cell_length_c 7.576568
_cell_angle_alpha 101.303912
_cell_angle_beta 55.300635
_cell_angle_gamma 134.702805
_cell_volume 500.399971
_symmetry_space_group_name_H-M "P -1"
_symmetry_group_IT_number 2
_symmetry_cell_setting 'triclinic'
loop_
_space_group_symop_operation_xyz
x,y,z
-x,-y,-z
loop_
_atom_site_type_symbol
_atom_site_label
_atom_site_fract_x
_atom_site_fract_y
_atom_site_fract_z
Si Si1 0.834609 0.565581 0.970292
Si Si2 0.527449 0.672767 0.161512
Si Si3 0.505069 0.058014 0.299249
Si Si4 0.110071 0.141254 0.698968
Si Si5 0.298074 0.096346 0.471369
Si Si6 0.833804 0.141825 0.796512
Si Si7 0.000000 0.000000 0.500000
O O1 0.873952 0.408273 0.850201
O O2 0.664890 0.358323 0.110029
O O3 0.868342 0.671086 0.150398
O O4 0.944707 0.855674 0.779216
O O5 0.416771 0.430681 0.392324
O O6 0.494227 0.839775 0.182849
O O7 0.500000 0.500000 0.000000
O O8 0.696171 0.898266 0.046322
O O9 0.377839 0.026235 0.425841
O O10 0.500000 0.000000 0.500000
O O11 0.162944 0.023807 0.702518
O O12 0.163372 0.242566 0.455015
O O13 0.238043 0.953942 0.326749
O O14 0.961580 0.173125 0.638169
#
# Coordination Sequence:
#
# PCOD9024834 Si02
#       7
#     2   2   2   2   2   2   1
#     4  10  23  44  65  94 134 169 223 266 333 387
#     4   9  20  39  63  95 126 164 217 266 324 390
#     4  11  24  43  66  99 129 177 220 269 335 392
#     4  10  23  45  63 100 129 178 214 272 332 389
#     4  10  22  43  67  95 137 169 218 277 326 391
#     4   9  21  42  63 102 125 174 219 271 328 393
#     4  10  22  40  66  92 134 166 220 264 328 392
#
# _framework density 25.979215
#
# number of rings (size 3 to 8) (size 9 to 14) (size 15 to 20)
#    0.000    2.154    0.000    0.923    2.154   11.077 
#   27.692    0.000    0.000    0.000    0.000    0.000 
#    0.000    0.000    0.000    0.000    0.000    0.000 
#
# Total GULP energy -72490.427991 kJ/mol
# GULP energy per Si atom -5576.186769 kJ/mol
# Density = 2.592009 g / cm^3
# Si number density = 25.979215 Si / 1000 Ang^3
#
#
#
# Elastic Constant Matrix: (Units=GPa)
#
#
# Indices 1 2 3 4 5 6 
#
# 1 187.0291 59.0022 35.3244 29.4102 -25.8922 -27.5484
# 2 59.0022 169.9005 40.0229 28.5441 -6.2815 -4.0350
# 3 35.3244 40.0229 60.0773 17.8580 -12.7510 -0.2115
# 4 29.4102 28.5441 17.8580 54.1376 -4.4174 -10.5540
# 5 -25.8922 -6.2815 -12.7510 -4.4174 30.0424 11.3286
# 6 -27.5484 -4.0350 -0.2115 -10.5540 11.3286 31.1020
#
#
#
# Elastic Compliance Matrix: (Units=1/GPa)
#
#
# Indices 1 2 3 4 5 6 
#
# 1 0.007696 -0.001669 -0.002321 -0.001303 0.003235 0.004964
# 2 -0.001669 0.007647 -0.003803 -0.002127 -0.001509 -0.000685
# 3 -0.002321 -0.003803 0.024160 -0.005426 0.009569 -0.007712
# 4 -0.001303 -0.002127 -0.005426 0.023312 -0.003330 0.007656
# 5 0.003235 -0.001509 0.009569 -0.003330 0.044891 -0.014747
# 6 0.004964 -0.000685 -0.007712 0.007656 -0.014747 0.044377
#
#
# Mechanical properties :
#
#
# Convention : Reuss Voigt Hill
#
# Bulk Modulus (GPa) = 41.81416 76.18954 59.00185
# Shear Modulus (GPa) = 28.46711 41.90022 35.18366
#
# Velocity S-wave (km/s) = 3.31382 4.02037 3.68407
# Velocity P-wave (km/s) = 5.54726 7.13736 6.39195
#
# Compressibility (1/GPa) = 0.02391534
#
# Stress axis : x y z
#
# Youngs Moduli (GPa) = 129.94294 130.77625 41.39017
#
# Poissons Ratio (x) = 0.21830 0.09609
# Poissons Ratio (y) = 0.21691 0.15741
# Poissons Ratio (z) = 0.30166 0.49734
#
# Static dielectric constant tensor:
#      x y z
#    x 2.194460 0.047170 0.054680 
#    y 0.047170 2.077400 -0.099880 
#    z 0.054680 -0.099880 2.374440 
# 
# From -- ./inp_files/23124.got.cif
#   From: 2010.05.17/outbox.cif.g08.bks.cpg/sg2_12_cif.got.tgz:23124.got - 2010.06.03 11:33:40.
