data_PCOD9024027
_publ_section_title
;
Structure prediction by ZEFSAII (Michael W. Deem and Ramdas Pophale) SiO2 
 PCOD9024027
Probable space group: P -1
;
_chemical_formula_sum "Si O2"
_cell_formula_units_Z 16
_cell_length_a 10.321986
_cell_length_b 6.470496
_cell_length_c 12.333441
_cell_angle_alpha 57.077294
_cell_angle_beta 121.986373
_cell_angle_gamma 119.157803
_cell_volume 563.014598
_symmetry_space_group_name_H-M "P -1"
_symmetry_group_IT_number 2
_symmetry_cell_setting 'triclinic'
loop_
_space_group_symop_operation_xyz
x,y,z
-x,-y,-z
loop_
_atom_site_type_symbol
_atom_site_label
_atom_site_fract_x
_atom_site_fract_y
_atom_site_fract_z
Si Si1 0.690997 0.375722 0.364445
Si Si2 0.054624 0.266502 0.133941
Si Si3 0.134480 0.067843 0.675824
Si Si4 0.007874 0.767757 0.105969
Si Si5 0.342042 0.725553 0.300158
Si Si6 0.407027 0.567079 0.165868
Si Si7 0.701289 0.865612 0.501565
Si Si8 0.314622 0.667972 0.875341
O O1 0.830501 0.635598 0.364210
O O2 0.540136 0.463119 0.311770
O O3 0.641983 0.302861 0.238889
O O4 0.730120 0.133042 0.503101
O O5 0.020939 0.527868 0.092172
O O6 0.238463 0.355000 0.155343
O O7 0.982532 0.059505 0.060213
O O8 0.015434 0.088530 0.275781
O O9 0.174079 0.062857 0.566272
O O10 0.259663 0.916918 0.817459
O O11 0.180219 0.798146 0.230667
O O12 0.838040 0.584449 0.126170
O O13 0.380681 0.784781 0.172074
O O14 0.511456 0.827148 0.403306
O O15 0.296994 0.418223 0.384313
O O16 0.432576 0.636828 0.031414
#
# Coordination Sequence:
#
# PCOD9024027 Si02
#       8
#     2   2   2   2   2   2   2   2
#     4  11  24  41  64  99 132 175 225 273 326 401
#     4  11  20  40  64  96 132 169 215 268 343 408
#     4  11  20  44  65  90 142 173 220 278 331 391
#     4  11  22  39  68 100 128 169 218 275 340 397
#     4  11  22  46  68  94 132 183 222 276 336 386
#     4  11  21  40  67  97 128 178 213 273 340 391
#     4  10  26  44  66  94 134 180 234 271 317 395
#     4  10  22  40  62  98 136 163 213 277 338 405
#
# _framework density 28.418448999999999
#
# number of rings (size 3 to 8) (size 9 to 14) (size 15 to 20)
#    0.000    1.250    5.000    1.125    3.500    1.000 
#    4.500    5.625    0.000    4.500    0.000    0.000 
#    0.000    0.000    0.000    0.000    0.000    0.000 
#
# Total GULP energy -89306.066497 kJ/mol
# GULP energy per Si atom -5581.629156 kJ/mol
# Density = 2.835377 g / cm^3
# Si number density = 28.418449 Si / 1000 Ang^3
#
#
#
# Elastic Constant Matrix: (Units=GPa)
#
#
# Indices 1 2 3 4 5 6 
#
# 1 92.4726 -40.3159 97.5140 -21.3195 -7.4580 67.8112
# 2 -40.3159 1144.4922 -913.9200 9.6020 226.9299-1137.7221
# 3 97.5140 -913.9200 1050.3357 -78.3162 -214.7538 1086.7247
# 4 -21.3195 9.6020 -78.3162 71.8333 -7.6643 -73.3352
# 5 -7.4580 226.9299 -214.7538 -7.6643 107.0434 -258.5007
# 6 67.8112-1137.7221 1086.7247 -73.3352 -258.5007 1355.3105
#
#
#
# Elastic Compliance Matrix: (Units=1/GPa)
#
#
# Indices 1 2 3 4 5 6 
#
# 1 0.013225 -0.000649 -0.003034 0.001795 -0.000863 0.001159
# 2 -0.000649 0.006845 0.000888 0.005688 0.001132 0.005590
# 3 -0.003034 0.000888 0.006670 0.002416 0.001905 -0.003957
# 4 0.001795 0.005688 0.002416 0.022701 0.007677 0.005441
# 5 -0.000863 0.001132 0.001905 0.007677 0.020332 0.003759
# 6 0.001159 0.005590 -0.003957 0.005441 0.003759 0.009557
#
#
# Mechanical properties :
#
#
# Convention : Reuss Voigt Hill
#
# Bulk Modulus (GPa) = 47.28233 63.76186 55.52210
# Shear Modulus (GPa) = 54.36489 516.43895 285.40192
#
# Velocity S-wave (km/s) = 4.37855 13.49523 10.03227
# Velocity P-wave (km/s) = 6.49894 16.28845 12.40060
#
# Compressibility (1/GPa) = 0.02114955
#
# Stress axis : x y z
#
# Youngs Moduli (GPa) = 75.61411 146.09808 149.91872
#
# Poissons Ratio (x) = 0.09475 0.45489
# Poissons Ratio (y) = 0.04904 -0.13305
# Poissons Ratio (z) = 0.22943 -0.12966
#
# Static dielectric constant tensor:
#      x y z
#    x 2.206560 -0.019530 0.052940 
#    y -0.019530 2.239930 0.117740 
#    z 0.052940 0.117740 2.764220 
# 
# From -- ./inp_files/510193.got.cif
#   From: 2010.05.17/outbox.cif.g08.bks.cpg/sg2_256_cif.got.tgz:510193.got - 2010.06.03 11:33:40.
