data_PCOD9024212
_publ_section_title
;
Structure prediction by ZEFSAII (Michael W. Deem and Ramdas Pophale) SiO2 
 PCOD9024212
Probable space group: P -1
;
_chemical_formula_sum "Si O2"
_cell_formula_units_Z 14
_cell_length_a 9.464068
_cell_length_b 16.382484
_cell_length_c 12.690367
_cell_angle_alpha 154.825996
_cell_angle_beta 117.343496
_cell_angle_gamma 79.110538
_cell_volume 594.631723
_symmetry_space_group_name_H-M "P -1"
_symmetry_group_IT_number 2
_symmetry_cell_setting 'triclinic'
loop_
_space_group_symop_operation_xyz
x,y,z
-x,-y,-z
loop_
_atom_site_type_symbol
_atom_site_label
_atom_site_fract_x
_atom_site_fract_y
_atom_site_fract_z
Si Si1 0.097647 0.675894 0.138872
Si Si2 0.082330 0.223699 0.367832
Si Si3 0.459443 0.989219 0.292722
Si Si4 0.705070 0.811590 0.127914
Si Si5 0.544258 0.675315 0.464572
Si Si6 0.961818 0.376699 0.181855
Si Si7 0.205313 0.188410 0.082331
O O1 0.329641 0.778526 0.319077
O O2 0.126965 0.922410 0.462829
O O3 0.999235 0.585467 0.885965
O O4 0.000000 0.500000 0.000000
O O5 0.314597 0.346489 0.590153
O O6 0.028801 0.396715 0.513519
O O7 0.000000 0.000000 0.000000
O O8 0.971701 0.091716 0.283302
O O9 0.441115 0.099006 0.308306
O O10 0.509522 0.804234 0.070302
O O11 0.261380 0.859719 0.143041
O O12 0.666413 0.583450 0.906392
O O13 0.724022 0.790460 0.986413
O O14 0.631226 0.726937 0.672875
O O15 0.114933 0.335973 0.233962
#
# Coordination Sequence:
#
# PCOD9024212 Si02
#       7
#     2   2   2   2   2   2   2
#     4  10  24  46  70  96 134 174 228 277 332 386
#     4  10  22  40  64 100 132 171 221 267 325 400
#     4  10  24  43  68  96 137 178 217 279 327 395
#     4  10  24  44  64  99 135 178 223 274 333 388
#     4  11  22  43  65 100 136 172 228 266 336 396
#     4  12  23  45  70  98 138 176 220 274 335 393
#     4  11  25  39  69 104 132 177 221 272 335 396
#
# _framework density 23.543982
#
# number of rings (size 3 to 8) (size 9 to 14) (size 15 to 20)
#    0.857    0.571    2.857    1.714    2.000    5.714 
#    2.571    1.429    0.000    0.000    0.000    0.000 
#    0.000    0.000    0.000    0.000    0.000    0.000 
#
# Total GULP energy -78195.327096 kJ/mol
# GULP energy per Si atom -5585.380507 kJ/mol
# Density = 2.349040 g / cm^3
# Si number density = 23.543982 Si / 1000 Ang^3
#
#
#
# Elastic Constant Matrix: (Units=GPa)
#
#
# Indices 1 2 3 4 5 6 
#
# 1 43.1816 8.3994 6.9304 1.1493 -1.3334 0.1536
# 2 8.3994 95.9088 29.5191 16.2710 -8.2583 9.3737
# 3 6.9304 29.5191 84.3622 24.1246 2.1790 6.3138
# 4 1.1493 16.2710 24.1246 38.5976 3.3311 6.5868
# 5 -1.3334 -8.2583 2.1790 3.3311 32.4679 13.0828
# 6 0.1536 9.3737 6.3138 6.5868 13.0828 43.8463
#
#
#
# Elastic Compliance Matrix: (Units=1/GPa)
#
#
# Indices 1 2 3 4 5 6 
#
# 1 0.023746 -0.001719 -0.001657 0.000973 0.000452 0.000242
# 2 -0.001719 0.012910 -0.003353 -0.003169 0.005100 -0.003317
# 3 -0.001657 -0.003353 0.015518 -0.008147 -0.001149 0.000055
# 4 0.000973 -0.003169 -0.008147 0.032931 -0.002670 -0.002303
# 5 0.000452 0.005100 -0.001149 -0.002670 0.037144 -0.011608
# 6 0.000242 -0.003317 0.000055 -0.002303 -0.011608 0.027317
#
#
# Mechanical properties :
#
#
# Convention : Reuss Voigt Hill
#
# Bulk Modulus (GPa) = 25.83017 34.79448 30.31232
# Shear Modulus (GPa) = 28.42035 34.88928 31.65482
#
# Velocity S-wave (km/s) = 3.47813 3.85369 3.67072
# Velocity P-wave (km/s) = 5.20814 5.88318 5.55592
#
# Compressibility (1/GPa) = 0.03871442
#
# Stress axis : x y z
#
# Youngs Moduli (GPa) = 42.11309 77.45813 64.43977
#
# Poissons Ratio (x) = 0.13318 0.10679
# Poissons Ratio (y) = 0.07241 0.21609
# Poissons Ratio (z) = 0.06979 0.25974
#
# Static dielectric constant tensor:
#      x y z
#    x 1.970640 -0.022430 0.087790 
#    y -0.022430 1.872010 -0.007370 
#    z 0.087790 -0.007370 1.947560 
# 
# From -- ./inp_files/432119.got.cif
#   From: 2010.05.17/outbox.cif.g08.bks.cpg/sg2_217_cif.got.tgz:432119.got - 2010.06.03 11:33:40.
