data_PCOD9024018
_publ_section_title
;
Structure prediction by ZEFSAII (Michael W. Deem and Ramdas Pophale) SiO2 
 PCOD9024018
Probable space group: P -1
;
_chemical_formula_sum "Si O2"
_cell_formula_units_Z 16
_cell_length_a 12.774110
_cell_length_b 7.394378
_cell_length_c 9.174185
_cell_angle_alpha 96.303344
_cell_angle_beta 132.909652
_cell_angle_gamma 99.317405
_cell_volume 596.594570
_symmetry_space_group_name_H-M "P -1"
_symmetry_group_IT_number 2
_symmetry_cell_setting 'triclinic'
loop_
_space_group_symop_operation_xyz
x,y,z
-x,-y,-z
loop_
_atom_site_type_symbol
_atom_site_label
_atom_site_fract_x
_atom_site_fract_y
_atom_site_fract_z
Si Si1 0.891995 0.594011 0.112550
Si Si2 0.612492 0.327437 0.371935
Si Si3 0.680371 0.196853 0.986746
Si Si4 0.426573 0.270017 0.932881
Si Si5 0.696011 0.094308 0.674133
Si Si6 0.035271 0.288869 0.102060
Si Si7 0.106379 0.709058 0.558659
Si Si8 0.738094 0.775235 0.496330
O O1 0.004899 0.475304 0.158267
O O2 0.990964 0.748392 0.335637
O O3 0.751448 0.426699 0.032283
O O4 0.854125 0.669486 0.929144
O O5 0.635192 0.241485 0.540014
O O6 0.747273 0.302517 0.393967
O O7 0.648367 0.555247 0.433235
O O8 0.455012 0.240271 0.126337
O O9 0.531671 0.173734 0.935228
O O10 0.648122 0.085605 0.795105
O O11 0.811272 0.168324 0.212720
O O12 0.274337 0.205615 0.687866
O O13 0.500000 0.500000 0.000000
O O14 0.666586 0.909376 0.530132
O O15 0.876289 0.171269 0.872637
O O16 0.096639 0.191680 0.280560
O O17 0.000000 0.500000 0.500000
#
# Coordination Sequence:
#
# PCOD9024018 Si02
#       8
#     2   2   2   2   2   2   2   2
#     4   9  15  29  57  84 110 150 187 229 287 332
#     4  10  19  39  60  83 113 147 197 236 278 340
#     4   9  19  32  54  88 112 146 199 234 281 344
#     4   9  21  39  60  83 111 155 198 234 283 344
#     4  11  22  35  60  90 114 150 191 238 290 338
#     4  10  17  31  52  88 119 141 185 235 282 345
#     4   9  15  29  56  81 107 149 186 225 278 331
#     4  11  21  35  58  84 119 155 185 237 289 338
#
# _framework density 26.818883
#
# number of rings (size 3 to 8) (size 9 to 14) (size 15 to 20)
#    0.000    2.250    2.500    1.875    0.000    1.000 
#    0.000    5.625    0.000   22.500    0.000    0.000 
#    0.000    0.000    0.000    0.000    0.000    0.000 
#
# Total GULP energy -89485.633229 kJ/mol
# GULP energy per Si atom -5592.852077 kJ/mol
# Density = 2.675784 g / cm^3
# Si number density = 26.818883 Si / 1000 Ang^3
#
#
#
# Elastic Constant Matrix: (Units=GPa)
#
#
# Indices 1 2 3 4 5 6 
#
# 1 50.9521 21.5921 29.9121 -1.9919 -13.0556 7.2534
# 2 21.5921 83.7089 56.8867 -9.5382 -10.4197 -0.6973
# 3 29.9121 56.8867 248.1697 -26.1611 -14.9237 5.8994
# 4 -1.9919 -9.5382 -26.1611 40.2392 2.3427 -12.5923
# 5 -13.0556 -10.4197 -14.9237 2.3427 36.4586 3.8681
# 6 7.2534 -0.6973 5.8994 -12.5923 3.8681 28.5430
#
#
#
# Elastic Compliance Matrix: (Units=1/GPa)
#
#
# Indices 1 2 3 4 5 6 
#
# 1 0.026171 -0.005118 -0.001719 -0.004526 0.008511 -0.009570
# 2 -0.005118 0.015544 -0.002685 0.002651 0.000993 0.003270
# 3 -0.001719 -0.002685 0.005161 0.002744 0.000506 0.000447
# 4 -0.004526 0.002651 0.002744 0.032005 -0.003412 0.015230
# 5 0.008511 0.000993 0.000506 -0.003412 0.032045 -0.008091
# 6 -0.009570 0.003270 0.000447 0.015230 -0.008091 0.045270
#
#
# Mechanical properties :
#
#
# Convention : Reuss Voigt Hill
#
# Bulk Modulus (GPa) = 35.92987 66.62359 51.27673
# Shear Modulus (GPa) = 27.09788 39.34414 33.22101
#
# Velocity S-wave (km/s) = 3.18213 3.83434 3.52336
# Velocity P-wave (km/s) = 5.18918 6.67075 5.97605
#
# Compressibility (1/GPa) = 0.02783199
#
# Stress axis : x y z
#
# Youngs Moduli (GPa) = 38.21053 64.33425 193.75421
#
# Poissons Ratio (x) = 0.32929 0.33304
# Poissons Ratio (y) = 0.19558 0.52016
# Poissons Ratio (z) = 0.06568 0.17271
#
# Static dielectric constant tensor:
#      x y z
#    x 2.123020 0.028150 0.024240 
#    y 0.028150 2.135280 -0.006260 
#    z 0.024240 -0.006260 2.162750 
# 
# From -- ./inp_files/295869.got.cif
#   From: 2010.05.17/outbox.cif.g08.bks.cpg/sg2_148_cif.got.tgz:295869.got - 2010.06.03 11:33:40.
