data_PCOD9024367
_publ_section_title
;
Structure prediction by ZEFSAII (Michael W. Deem and Ramdas Pophale) SiO2 
 PCOD9024367
Probable space group: P -1
;
_chemical_formula_sum "Si O2"
_cell_formula_units_Z 14
_cell_length_a 11.393453
_cell_length_b 9.204394
_cell_length_c 8.115796
_cell_angle_alpha 79.675170
_cell_angle_beta 119.196680
_cell_angle_gamma 128.132578
_cell_volume 575.112199
_symmetry_space_group_name_H-M "P -1"
_symmetry_group_IT_number 2
_symmetry_cell_setting 'triclinic'
loop_
_space_group_symop_operation_xyz
x,y,z
-x,-y,-z
loop_
_atom_site_type_symbol
_atom_site_label
_atom_site_fract_x
_atom_site_fract_y
_atom_site_fract_z
Si Si1 0.141762 0.236092 0.222320
Si Si2 0.861192 0.813071 0.151135
Si Si3 0.760709 0.254324 0.128124
Si Si4 0.599190 0.811869 0.465980
Si Si5 0.096935 0.742266 0.437410
Si Si6 0.424744 0.190081 0.928955
Si Si7 0.210789 0.615899 0.249911
O O1 0.319530 0.270875 0.366736
O O2 0.149210 0.405744 0.257582
O O3 0.106242 0.213003 0.008272
O O4 0.990562 0.035491 0.237446
O O5 0.673448 0.752582 0.048702
O O6 0.922501 0.717886 0.320896
O O7 0.875369 0.313239 0.356283
O O8 0.675849 0.034707 0.086279
O O9 0.616598 0.274393 0.082335
O O10 0.812449 0.341121 0.962325
O O11 0.578076 0.756860 0.271451
O O12 0.414493 0.747762 0.403895
O O13 0.744789 0.035831 0.523784
O O14 0.118213 0.655316 0.309838
#
# Coordination Sequence:
#
# PCOD9024367 Si02
#       7
#     2   2   2   2   2   2   2
#     4  10  23  39  60  94 125 164 208 248 316 367
#     4  10  23  42  63  90 121 172 209 243 311 379
#     4   9  21  38  65  97 118 160 207 260 310 355
#     4   9  20  39  66  94 116 165 211 251 313 361
#     4  10  22  40  64  94 124 165 207 248 312 369
#     4   9  19  40  65  90 122 159 212 257 298 370
#     4  11  22  40  64  95 129 157 205 266 306 367
#
# _framework density 24.343074999999999
#
# number of rings (size 3 to 8) (size 9 to 14) (size 15 to 20)
#    0.000    2.286    0.000    1.714    8.000    5.714 
#    2.571    2.143    0.000    0.000    0.000    0.000 
#    0.000    0.000    0.000    0.000    0.000    0.000 
#
# Total GULP energy -78396.177424 kJ/mol
# GULP energy per Si atom -5599.726959 kJ/mol
# Density = 2.428767 g / cm^3
# Si number density = 24.343075 Si / 1000 Ang^3
#
#
#
# Elastic Constant Matrix: (Units=GPa)
#
#
# Indices 1 2 3 4 5 6 
#
# 1 136.6810 44.4790 45.1814 -19.4839 16.8810 -21.1095
# 2 44.4790 64.1550 50.8271 -8.8979 5.0849 -4.7829
# 3 45.1814 50.8271 157.0108 -33.3524 25.7614 -17.2781
# 4 -19.4839 -8.8979 -33.3524 27.5861 -3.5868 3.1811
# 5 16.8810 5.0849 25.7614 -3.5868 34.7355 -2.3780
# 6 -21.1095 -4.7829 -17.2781 3.1811 -2.3780 24.6666
#
#
#
# Elastic Compliance Matrix: (Units=1/GPa)
#
#
# Indices 1 2 3 4 5 6 
#
# 1 0.012383 -0.008572 0.002709 0.007481 -0.005360 0.009351
# 2 -0.008572 0.027165 -0.009707 -0.007388 0.006124 -0.007325
# 3 0.002709 -0.009707 0.013777 0.013501 -0.008202 0.007555
# 4 0.007481 -0.007388 0.013501 0.053834 -0.006540 0.006854
# 5 -0.005360 0.006124 -0.008202 -0.006540 0.035571 -0.004872
# 6 0.009351 -0.007325 0.007555 0.006854 -0.004872 0.051061
#
#
# Mechanical properties :
#
#
# Convention : Reuss Voigt Hill
#
# Bulk Modulus (GPa) = 45.07646 70.98021 58.02833
# Shear Modulus (GPa) = 21.52146 31.88825 26.70486
#
# Velocity S-wave (km/s) = 2.97659 3.62325 3.31572
# Velocity P-wave (km/s) = 5.51097 6.83561 6.20872
#
# Compressibility (1/GPa) = 0.02218453
#
# Stress axis : x y z
#
# Youngs Moduli (GPa) = 80.75620 36.81237 72.58573
#
# Poissons Ratio (x) = 0.31556 -0.19665
# Poissons Ratio (y) = 0.69224 0.70461
# Poissons Ratio (z) = -0.21879 0.35735
#
# Static dielectric constant tensor:
#      x y z
#    x 1.926940 0.046830 0.051590 
#    y 0.046830 1.980230 0.032390 
#    z 0.051590 0.032390 1.876250 
# 
# From -- ./inp_files/238748.got.cif
#   From: 2010.05.17/outbox.cif.g08.bks.cpg/sg2_120_cif.got.tgz:238748.got - 2010.06.03 11:33:40.
