data_PCOD9024932
_publ_section_title
;
Structure prediction by ZEFSAII (Michael W. Deem and Ramdas Pophale) SiO2 
 PCOD9024932
Probable space group: P -1
;
_chemical_formula_sum "Si O2"
_cell_formula_units_Z 16
_cell_length_a 6.436769
_cell_length_b 20.517770
_cell_length_c 6.518456
_cell_angle_alpha 86.681543
_cell_angle_beta 100.915160
_cell_angle_gamma 120.428986
_cell_volume 728.136242
_symmetry_space_group_name_H-M "P -1"
_symmetry_group_IT_number 2
_symmetry_cell_setting 'triclinic'
loop_
_space_group_symop_operation_xyz
x,y,z
-x,-y,-z
loop_
_atom_site_type_symbol
_atom_site_label
_atom_site_fract_x
_atom_site_fract_y
_atom_site_fract_z
Si Si1 0.976460 0.889830 0.979377
Si Si2 0.527131 0.247081 0.068547
Si Si3 0.827530 0.970730 0.279112
Si Si4 0.047954 0.711818 0.559039
Si Si5 0.770167 0.482574 0.592316
Si Si6 0.611525 0.637199 0.174310
Si Si7 0.308258 0.404076 0.227985
Si Si8 0.300992 0.827984 0.234145
O O1 0.702562 0.828743 0.866866
O O2 0.932008 0.932012 0.152313
O O3 0.143662 0.955053 0.839325
O O4 0.110760 0.846153 0.086216
O O5 0.728351 0.288745 0.277890
O O6 0.417391 0.295404 0.938498
O O7 0.642703 0.222906 0.904952
O O8 0.553245 0.906844 0.293239
O O9 0.000000 0.000000 0.500000
O O10 0.190129 0.788759 0.439743
O O11 0.850446 0.659588 0.355512
O O12 0.844542 0.683599 0.709439
O O13 0.637568 0.412995 0.736677
O O14 0.558588 0.455818 0.386306
O O15 0.840291 0.556606 0.726742
O O16 0.000000 0.500000 0.500000
O O17 0.638452 0.592690 0.998861
#
# Coordination Sequence:
#
# PCOD9024932 Si02
#       8
#     2   2   2   2   2   2   2   2
#     4  10  22  43  63  96 137 172 227 280 336 405
#     4  11  25  42  67 101 134 182 226 281 342 407
#     4  10  22  40  66  96 131 179 227 275 340 405
#     4  11  24  42  69  97 139 176 228 276 344 403
#     4  10  24  45  72 101 133 184 231 279 347 409
#     4  11  24  47  72  99 142 179 228 288 341 406
#     4  10  24  45  67 103 137 179 229 287 337 410
#     4  11  23  42  65  99 137 181 223 286 340 402
#
# _framework density 21.973908000000002
#
# number of rings (size 3 to 8) (size 9 to 14) (size 15 to 20)
#    0.000    1.500    1.250    2.250    3.500    3.000 
#    2.250    0.000    0.000    0.000    0.000    0.000 
#    0.000    0.000    0.000    0.000    0.000    0.000 
#
# Total GULP energy -89217.203128 kJ/mol
# GULP energy per Si atom -5576.075195 kJ/mol
# Density = 2.192389 g / cm^3
# Si number density = 21.973908 Si / 1000 Ang^3
#
#
#
# Elastic Constant Matrix: (Units=GPa)
#
#
# Indices 1 2 3 4 5 6 
#
# 1 87.9032 51.7050 32.2061 6.0984 -4.9342 15.1102
# 2 51.7050 130.3406 59.2135 -9.8329 -4.0485 31.8470
# 3 32.2061 59.2135 94.4562 -1.5584 9.0901 16.0603
# 4 6.0984 -9.8329 -1.5584 27.1288 13.3847 -3.0310
# 5 -4.9342 -4.0485 9.0901 13.3847 28.2401 -7.5871
# 6 15.1102 31.8470 16.0603 -3.0310 -7.5871 42.3711
#
#
#
# Elastic Compliance Matrix: (Units=1/GPa)
#
#
# Indices 1 2 3 4 5 6 
#
# 1 0.017118 -0.005972 -0.003070 -0.010096 0.007976 0.000254
# 2 -0.005972 0.014713 -0.005761 0.006580 -0.001979 -0.006629
# 3 -0.003070 -0.005761 0.016556 0.003786 -0.009078 -0.002205
# 4 -0.010096 0.006580 0.003786 0.055895 -0.029629 -0.004088
# 5 0.007976 -0.001979 -0.009078 -0.029629 0.056179 0.010024
# 6 0.000254 -0.006629 -0.002205 -0.004088 0.010024 0.030832
#
#
# Mechanical properties :
#
#
# Convention : Reuss Voigt Hill
#
# Bulk Modulus (GPa) = 53.24438 66.54990 59.89714
# Shear Modulus (GPa) = 22.01097 30.85306 26.43202
#
# Velocity S-wave (km/s) = 3.16838 3.75117 3.47202
# Velocity P-wave (km/s) = 6.13744 7.00809 6.58716
#
# Compressibility (1/GPa) = 0.01878133
#
# Stress axis : x y z
#
# Youngs Moduli (GPa) = 58.41753 67.96720 60.39925
#
# Poissons Ratio (x) = 0.40587 0.18545
# Poissons Ratio (y) = 0.34884 0.34797
# Poissons Ratio (z) = 0.17937 0.39157
#
# Static dielectric constant tensor:
#      x y z
#    x 1.838640 -0.028530 -0.008020 
#    y -0.028530 1.877290 -0.030420 
#    z -0.008020 -0.030420 1.781670 
# 
# From -- ./inp_files/13167.got.cif
#   From: 2010.05.17/outbox.cif.g08.bks.cpg/sg2_7_cif.got.tgz:13167.got - 2010.06.03 11:33:40.
