data_PCOD9024890
_publ_section_title
;
Structure prediction by ZEFSAII (Michael W. Deem and Ramdas Pophale) SiO2 
 PCOD9024890
Probable space group: P -1
;
_chemical_formula_sum "Si O2"
_cell_formula_units_Z 16
_cell_length_a 9.452530
_cell_length_b 19.651564
_cell_length_c 8.862502
_cell_angle_alpha 142.485271
_cell_angle_beta 120.186795
_cell_angle_gamma 51.117966
_cell_volume 780.361647
_symmetry_space_group_name_H-M "P -1"
_symmetry_group_IT_number 2
_symmetry_cell_setting 'triclinic'
loop_
_space_group_symop_operation_xyz
x,y,z
-x,-y,-z
loop_
_atom_site_type_symbol
_atom_site_label
_atom_site_fract_x
_atom_site_fract_y
_atom_site_fract_z
Si Si1 0.969420 0.970457 0.263927
Si Si2 0.738733 0.568748 0.057011
Si Si3 0.012712 0.271422 0.032404
Si Si4 0.590320 0.079820 0.106862
Si Si5 0.058079 0.296013 0.757731
Si Si6 0.603512 0.445660 0.118262
Si Si7 0.152462 0.029672 0.216349
Si Si8 0.278888 0.353961 0.464720
O O1 0.773476 0.068162 0.268905
O O2 0.947840 0.843313 0.037574
O O3 0.000000 0.000000 0.500000
O O4 0.140944 0.969240 0.263101
O O5 0.807878 0.646499 0.124097
O O6 0.743608 0.614478 0.312531
O O7 0.538510 0.590708 0.939786
O O8 0.866072 0.419792 0.859844
O O9 0.095481 0.356534 0.303873
O O10 0.797294 0.332768 0.000494
O O11 0.090429 0.247784 0.862699
O O12 0.436682 0.218834 0.277287
O O13 0.500000 0.000000 0.000000
O O14 0.666398 0.028079 0.889170
O O15 0.084144 0.176867 0.462642
O O16 0.653865 0.549394 0.399158
O O17 0.500000 0.500000 0.000000
O O18 0.000000 0.000000 0.000000
#
# Coordination Sequence:
#
# PCOD9024890 Si02
#       8
#     2   2   2   2   2   2   2   2
#     4  11  24  41  66  98 129 178 221 276 330 388
#     4  10  24  41  70  98 127 183 216 276 333 400
#     4  12  23  43  67  98 135 170 220 279 335 392
#     4  11  23  44  66  97 131 178 222 263 338 401
#     4  11  22  43  66  97 138 167 228 272 338 391
#     4  10  22  40  66  95 123 176 219 266 327 392
#     4  10  24  41  67  98 134 179 220 275 326 401
#     4  11  23  42  70  95 134 173 223 271 335 400
#
# _framework density 20.503315000000001
#
# number of rings (size 3 to 8) (size 9 to 14) (size 15 to 20)
#    0.000    1.250    5.000    1.125    8.750    0.000 
#    2.250    1.875    0.000    0.000    0.000    0.000 
#    0.000    0.000    0.000    0.000    0.000    0.000 
#
# Total GULP energy -89213.196152 kJ/mol
# GULP energy per Si atom -5575.824759 kJ/mol
# Density = 2.045665 g / cm^3
# Si number density = 20.503315 Si / 1000 Ang^3
#
#
#
# Elastic Constant Matrix: (Units=GPa)
#
#
# Indices 1 2 3 4 5 6 
#
# 1 155.1837 24.5362 38.4487 3.2009 -3.9526 -0.8336
# 2 24.5362 46.1559 13.3790 8.2598 -6.9676 -7.7728
# 3 38.4487 13.3790 88.8555 20.8310 -1.9596 -2.3996
# 4 3.2009 8.2598 20.8310 30.2685 -3.4252 6.6523
# 5 -3.9526 -6.9676 -1.9596 -3.4252 39.9492 -2.9277
# 6 -0.8336 -7.7728 -2.3996 6.6523 -2.9277 33.8110
#
#
#
# Elastic Compliance Matrix: (Units=1/GPa)
#
#
# Indices 1 2 3 4 5 6 
#
# 1 0.007885 -0.003957 -0.003574 0.003056 0.000062 -0.001565
# 2 -0.003957 0.027304 -0.000154 -0.008238 0.004255 0.008158
# 3 -0.003574 -0.000154 0.015465 -0.010942 -0.000333 0.003098
# 4 0.003056 -0.008238 -0.010942 0.045144 0.001367 -0.011359
# 5 0.000062 0.004255 -0.000333 0.001367 0.026097 0.002947
# 6 -0.001565 0.008158 0.003098 -0.011359 0.002947 0.034123
#
#
# Mechanical properties :
#
#
# Convention : Reuss Voigt Hill
#
# Bulk Modulus (GPa) = 28.33957 49.21367 38.77662
# Shear Modulus (GPa) = 27.30032 35.06115 31.18074
#
# Velocity S-wave (km/s) = 3.65294 4.13973 3.90393
# Velocity P-wave (km/s) = 5.62529 6.84870 6.26692
#
# Compressibility (1/GPa) = 0.03528635
#
# Stress axis : x y z
#
# Youngs Moduli (GPa) = 126.82092 36.62475 64.66122
#
# Poissons Ratio (x) = 0.14492 0.23107
# Poissons Ratio (y) = 0.50182 0.00993
# Poissons Ratio (z) = 0.45320 0.00562
#
# Static dielectric constant tensor:
#      x y z
#    x 1.785410 0.031360 -0.012130 
#    y 0.031360 1.780890 0.031680 
#    z -0.012130 0.031680 1.770550 
# 
# From -- ./inp_files/224269.got.cif
#   From: 2010.05.17/outbox.cif.g08.bks.cpg/sg2_113_cif.got.tgz:224269.got - 2010.06.03 11:33:40.
