data_PCOD9024474
_publ_section_title
;
Structure prediction by ZEFSAII (Michael W. Deem and Ramdas Pophale) SiO2 
 PCOD9024474
Probable space group: P -1
;
_chemical_formula_sum "Si O2"
_cell_formula_units_Z 15
_cell_length_a 22.307404
_cell_length_b 19.736870
_cell_length_c 8.905324
_cell_angle_alpha 33.793272
_cell_angle_beta 145.754672
_cell_angle_gamma 160.419831
_cell_volume 710.511307
_symmetry_space_group_name_H-M "P -1"
_symmetry_group_IT_number 2
_symmetry_cell_setting 'triclinic'
loop_
_space_group_symop_operation_xyz
x,y,z
-x,-y,-z
loop_
_atom_site_type_symbol
_atom_site_label
_atom_site_fract_x
_atom_site_fract_y
_atom_site_fract_z
Si Si1 0.349443 0.461051 0.735421
Si Si2 0.709740 0.212838 0.995043
Si Si3 0.567719 0.932731 0.823863
Si Si4 0.000000 0.000000 0.000000
Si Si5 0.084582 0.815559 0.387253
Si Si6 0.294829 0.589166 0.135754
Si Si7 0.060723 0.698285 0.235381
Si Si8 0.334405 0.644457 0.605593
O O1 0.342384 0.509630 0.465463
O O2 0.405222 0.626433 0.651332
O O3 0.500000 0.500000 0.000000
O O4 0.151319 0.228671 0.807484
O O5 0.824274 0.196984 0.287458
O O6 0.776092 0.379151 0.944233
O O7 0.701748 0.258441 0.726603
O O8 0.500000 0.000000 0.000000
O O9 0.469867 0.758906 0.814392
O O10 0.500000 0.000000 0.500000
O O11 0.786050 0.138247 0.876475
O O12 0.470797 0.806359 0.011279
O O13 0.898782 0.030194 0.809464
O O14 0.150395 0.836611 0.318063
O O15 0.867615 0.587362 0.342583
O O16 0.127793 0.414697 0.996744
O O17 0.000000 0.500000 0.500000
#
# Coordination Sequence:
#
# PCOD9024474 Si02
#       8
#     2   2   2   1   2   2   2   2
#     4  10  25  47  71  90 134 177 236 282 324 404
#     4  11  22  36  63 102 130 169 221 282 344 399
#     4  12  22  39  67  99 140 173 212 272 354 412
#     4  10  26  44  68  96 128 194 222 276 334 392
#     4  11  21  42  67  93 142 173 229 279 334 410
#     4  11  24  43  64 105 133 173 226 276 347 407
#     4  12  22  39  67 100 141 175 211 286 350 401
#     4  10  22  40  64  99 128 174 222 277 343 394
#
# _framework density 21.111556
#
# number of rings (size 3 to 8) (size 9 to 14) (size 15 to 20)
#    0.000    1.067    4.000    2.000    5.600    1.067 
#    4.800    1.333    0.000    0.000    0.000    0.000 
#    0.000    0.000    0.000    0.000    0.000    0.000 
#
# Total GULP energy -83516.005481 kJ/mol
# GULP energy per Si atom -5567.733699 kJ/mol
# Density = 2.106351 g / cm^3
# Si number density = 21.111556 Si / 1000 Ang^3
#
#
#
# Elastic Constant Matrix: (Units=GPa)
#
#
# Indices 1 2 3 4 5 6 
#
# 1 84.1680 11.2745 48.1558 -4.2864 -0.1796 3.0536
# 2 11.2745 79.6238 30.8721 -7.5091 -5.5662 19.0564
# 3 48.1558 30.8721 135.7147 -5.4710 2.2864 -3.4507
# 4 -4.2864 -7.5091 -5.4710 31.2877 4.1451 -4.5515
# 5 -0.1796 -5.5662 2.2864 4.1451 35.9077 -7.5896
# 6 3.0536 19.0564 -3.4507 -4.5515 -7.5896 38.6801
#
#
#
# Elastic Compliance Matrix: (Units=1/GPa)
#
#
# Indices 1 2 3 4 5 6 
#
# 1 0.015054 0.000513 -0.005466 0.000965 0.000008 -0.001814
# 2 0.000513 0.016194 -0.004003 0.001984 0.000853 -0.007975
# 3 -0.005466 -0.004003 0.010340 0.000666 -0.000692 0.003269
# 4 0.000965 0.001984 0.000666 0.033436 -0.003097 0.002333
# 5 0.000008 0.000853 -0.000692 -0.003097 0.029424 0.004926
# 6 -0.001814 -0.007975 0.003269 0.002333 0.004926 0.031458
#
#
# Mechanical properties :
#
#
# Convention : Reuss Voigt Hill
#
# Bulk Modulus (GPa) = 42.23503 53.34570 47.79037
# Shear Modulus (GPa) = 30.91954 35.12204 33.02079
#
# Velocity S-wave (km/s) = 3.83113 4.08320 3.95917
# Velocity P-wave (km/s) = 6.29438 6.89589 6.60199
#
# Compressibility (1/GPa) = 0.02367703
#
# Stress axis : x y z
#
# Youngs Moduli (GPa) = 66.42553 61.75193 96.71110
#
# Poissons Ratio (x) = -0.03170 0.52861
# Poissons Ratio (y) = -0.03409 0.38714
# Poissons Ratio (z) = 0.36308 0.24720
#
# Static dielectric constant tensor:
#      x y z
#    x 1.861770 -0.042860 -0.016080 
#    y -0.042860 1.916610 0.052720 
#    z -0.016080 0.052720 1.797870 
# 
# From -- ./inp_files/355264.got.cif
#   From: 2010.05.17/outbox.cif.g08.bks.cpg/sg2_178_cif.got.tgz:355264.got - 2010.06.03 11:33:40.
