data_PCOD9024664
_publ_section_title
;
Structure prediction by ZEFSAII (Michael W. Deem and Ramdas Pophale) SiO2 
 PCOD9024664
Probable space group: P -1
;
_chemical_formula_sum "Si O2"
_cell_formula_units_Z 12
_cell_length_a 17.265061
_cell_length_b 9.394083
_cell_length_c 5.333667
_cell_angle_alpha 78.346802
_cell_angle_beta 113.038182
_cell_angle_gamma 49.636377
_cell_volume 461.194467
_symmetry_space_group_name_H-M "P -1"
_symmetry_group_IT_number 2
_symmetry_cell_setting 'triclinic'
loop_
_space_group_symop_operation_xyz
x,y,z
-x,-y,-z
loop_
_atom_site_type_symbol
_atom_site_label
_atom_site_fract_x
_atom_site_fract_y
_atom_site_fract_z
Si Si1 0.536962 0.785290 0.880452
Si Si2 0.454818 0.730083 0.308713
Si Si3 0.733189 0.674190 0.494832
Si Si4 0.127271 0.936901 0.630622
Si Si5 0.126986 0.259929 0.576240
Si Si6 0.167389 0.771792 0.234952
O O1 0.524744 0.719365 0.630479
O O2 0.402138 0.080974 0.616564
O O3 0.512975 0.712811 0.121154
O O4 0.671956 0.700618 0.138913
O O5 0.500000 0.500000 0.500000
O O6 0.285208 0.007604 0.985587
O O7 0.839508 0.658831 0.605999
O O8 0.797283 0.435342 0.752096
O O9 0.220496 0.750519 0.582426
O O10 0.084164 0.162681 0.446849
O O11 0.200231 0.835027 0.031910
O O12 0.000000 0.000000 0.500000
O O13 0.000000 0.500000 0.500000
O O14 0.000000 0.000000 0.000000
#
# Coordination Sequence:
#
# PCOD9024664 Si02
#       6
#     2   2   2   2   2   2
#     4  10  25  46  74 103 142 196 240 296 359 435
#     4  11  26  47  74 108 146 190 244 300 359 432
#     4  10  24  45  73 105 146 189 243 296 363 431
#     4  10  23  42  64  98 138 185 229 286 357 424
#     4  11  25  46  73 110 147 188 245 302 364 431
#     4  10  22  40  65  96 133 181 229 283 356 415
#
# _framework density 26.019392
#
# number of rings (size 3 to 8) (size 9 to 14) (size 15 to 20)
#    0.000    1.667    0.000    2.500    4.667   14.000 
#    0.000    7.500    0.000    0.000    0.000    0.000 
#    0.000    0.000    0.000    0.000    0.000    0.000 
#
# Total GULP energy -67095.744124 kJ/mol
# GULP energy per Si atom -5591.312010 kJ/mol
# Density = 2.596017 g / cm^3
# Si number density = 26.019392 Si / 1000 Ang^3
#
#
#
# Elastic Constant Matrix: (Units=GPa)
#
#
# Indices 1 2 3 4 5 6 
#
# 1 137.6087 69.5863 43.4309 -3.0746 -7.3503 26.0228
# 2 69.5863 179.6064 33.0447 -3.0213 -16.1024 18.3149
# 3 43.4309 33.0447 105.4685 8.1425 -18.1264 -13.2014
# 4 -3.0746 -3.0213 8.1425 57.1903 -2.5307 -5.0543
# 5 -7.3503 -16.1024 -18.1264 -2.5307 57.3263 -7.1437
# 6 26.0228 18.3149 -13.2014 -5.0543 -7.1437 54.6075
#
#
#
# Elastic Compliance Matrix: (Units=1/GPa)
#
#
# Indices 1 2 3 4 5 6 
#
# 1 0.011304 -0.003068 -0.004716 0.000547 -0.001584 -0.005654
# 2 -0.003068 0.007136 -0.000908 0.000310 0.001218 -0.000963
# 3 -0.004716 -0.000908 0.013287 -0.001470 0.004044 0.006157
# 4 0.000547 0.000310 -0.001470 0.017857 0.000607 0.001012
# 5 -0.001584 0.001218 0.004044 0.000607 0.019376 0.003915
# 6 -0.005654 -0.000963 0.006157 0.001012 0.003915 0.023424
#
#
# Mechanical properties :
#
#
# Convention : Reuss Voigt Hill
#
# Bulk Modulus (GPa) = 69.71595 79.42303 74.56949
# Shear Modulus (GPa) = 43.64997 52.26627 47.95812
#
# Velocity S-wave (km/s) = 4.10029 4.48676 4.29787
# Velocity P-wave (km/s) = 7.01915 7.57840 7.30413
#
# Compressibility (1/GPa) = 0.01434392
#
# Stress axis : x y z
#
# Youngs Moduli (GPa) = 88.46695 140.13554 75.26234
#
# Poissons Ratio (x) = 0.42995 0.35491
# Poissons Ratio (y) = 0.27142 0.06830
# Poissons Ratio (z) = 0.41718 0.12717
#
# Static dielectric constant tensor:
#      x y z
#    x 2.024770 -0.013700 0.194500 
#    y -0.013700 2.020580 -0.076470 
#    z 0.194500 -0.076470 3.481460 
# 
# From -- ./inp_files/103250.got.cif
#   From: 2010.05.17/outbox.cif.g08.bks.cpg/sg2_52_cif.got.tgz:103250.got - 2010.06.03 11:33:40.
