data_PCOD9024914
_publ_section_title
;
Structure prediction by ZEFSAII (Michael W. Deem and Ramdas Pophale) SiO2 
 PCOD9024914
Probable space group: P -1
;
_chemical_formula_sum "Si O2"
_cell_formula_units_Z 14
_cell_length_a 6.108321
_cell_length_b 16.584784
_cell_length_c 8.854426
_cell_angle_alpha 52.255381
_cell_angle_beta 55.124008
_cell_angle_gamma 64.455837
_cell_volume 577.328952
_symmetry_space_group_name_H-M "P -1"
_symmetry_group_IT_number 2
_symmetry_cell_setting 'triclinic'
loop_
_space_group_symop_operation_xyz
x,y,z
-x,-y,-z
loop_
_atom_site_type_symbol
_atom_site_label
_atom_site_fract_x
_atom_site_fract_y
_atom_site_fract_z
Si Si1 0.073803 0.907069 0.265185
Si Si2 0.145433 0.362519 0.101424
Si Si3 0.440205 0.170557 0.356303
Si Si4 0.569241 0.503693 0.644718
Si Si5 0.533002 0.747756 0.408709
Si Si6 0.814393 0.475926 0.870295
Si Si7 0.009075 0.131430 0.011499
O O1 0.265685 0.814869 0.372724
O O2 0.764804 0.913759 0.439473
O O3 0.076748 0.883432 0.112289
O O4 0.159858 0.019746 0.128524
O O5 0.370107 0.425620 0.872455
O O6 0.923603 0.378805 0.040151
O O7 0.273015 0.250339 0.217809
O O8 0.062543 0.426455 0.215650
O O9 0.443880 0.220723 0.462576
O O10 0.740864 0.151881 0.194199
O O11 0.500000 0.500000 0.500000
O O12 0.530220 0.626229 0.546121
O O13 0.824075 0.464306 0.700845
O O14 0.784284 0.784136 0.174816
O O15 0.500000 0.500000 0.000000
#
# Coordination Sequence:
#
# PCOD9024914 Si02
#       7
#     2   2   2   2   2   2   2
#     4  10  24  44  75 103 144 180 231 300 355 423
#     4  10  22  40  66  95 136 186 233 283 343 425
#     4  11  24  43  73 107 141 185 235 283 361 429
#     4  11  25  43  62  98 142 189 234 290 349 414
#     4  11  25  45  72 103 143 188 238 290 353 419
#     4   9  20  41  63  87 132 179 232 282 341 401
#     4  10  24  48  70 106 140 182 237 294 358 424
#
# _framework density 24.249604999999999
#
# number of rings (size 3 to 8) (size 9 to 14) (size 15 to 20)
#    0.000    1.714    1.429    0.857    8.000    2.286 
#    5.143    0.000    0.000    0.000    0.000    0.000 
#    0.000    0.000    0.000    0.000    0.000    0.000 
#
# Total GULP energy -78136.249748 kJ/mol
# GULP energy per Si atom -5581.160696 kJ/mol
# Density = 2.419441 g / cm^3
# Si number density = 24.249605 Si / 1000 Ang^3
#
#
#
# Elastic Constant Matrix: (Units=GPa)
#
#
# Indices 1 2 3 4 5 6 
#
# 1 103.1744 25.9130 35.7250 9.9928 26.6929 6.1939
# 2 25.9130 54.4892 40.8961 -7.0813 -4.6855 -4.4047
# 3 35.7250 40.8961 128.7225 9.0539 -25.4500 16.5953
# 4 9.9928 -7.0813 9.0539 49.8618 -6.3052 -1.8606
# 5 26.6929 -4.6855 -25.4500 -6.3052 51.7441 -1.0395
# 6 6.1939 -4.4047 16.5953 -1.8606 -1.0395 23.9691
#
#
#
# Elastic Compliance Matrix: (Units=1/GPa)
#
#
# Indices 1 2 3 4 5 6 
#
# 1 0.016569 -0.007001 -0.003842 -0.005251 -0.011788 -0.003827
# 2 -0.007001 0.032082 -0.010328 0.008776 0.002821 0.015659
# 3 -0.003842 -0.010328 0.015381 -0.002901 0.008029 -0.011432
# 4 -0.005251 0.008776 -0.002901 0.023791 0.005117 0.007047
# 5 -0.011788 0.002821 0.008029 0.005117 0.030229 -0.000286
# 6 -0.003827 0.015659 -0.011432 0.007047 -0.000286 0.054036
#
#
# Mechanical properties :
#
#
# Convention : Reuss Voigt Hill
#
# Bulk Modulus (GPa) = 46.10400 54.60602 50.35501
# Shear Modulus (GPa) = 22.55693 37.37181 29.96437
#
# Velocity S-wave (km/s) = 3.05322 3.92998 3.51902
# Velocity P-wave (km/s) = 5.61098 6.56964 6.10915
#
# Compressibility (1/GPa) = 0.02169009
#
# Stress axis : x y z
#
# Youngs Moduli (GPa) = 60.35344 31.16990 65.01349
#
# Poissons Ratio (x) = 0.21823 0.24978
# Poissons Ratio (y) = 0.42256 0.67145
# Poissons Ratio (z) = 0.23187 0.32192
#
# Static dielectric constant tensor:
#      x y z
#    x 2.019010 -0.005570 -0.021450 
#    y -0.005570 1.999470 0.106230 
#    z -0.021450 0.106230 2.007290 
# 
# From -- ./inp_files/138452.got.cif
#   From: 2010.05.17/outbox.cif.g08.bks.cpg/sg2_70_cif.got.tgz:138452.got - 2010.06.03 11:33:40.
