data_PCOD9024208
_publ_section_title
;
Structure prediction by ZEFSAII (Michael W. Deem and Ramdas Pophale) SiO2 
 PCOD9024208
Probable space group: P -1
;
_chemical_formula_sum "Si O2"
_cell_formula_units_Z 16
_cell_length_a 10.437731
_cell_length_b 17.094429
_cell_length_c 5.041129
_cell_angle_alpha 70.825453
_cell_angle_beta 86.762408
_cell_angle_gamma 54.148419
_cell_volume 677.675416
_symmetry_space_group_name_H-M "P -1"
_symmetry_group_IT_number 2
_symmetry_cell_setting 'triclinic'
loop_
_space_group_symop_operation_xyz
x,y,z
-x,-y,-z
loop_
_atom_site_type_symbol
_atom_site_label
_atom_site_fract_x
_atom_site_fract_y
_atom_site_fract_z
Si Si1 0.883756 0.456412 0.363862
Si Si2 0.685482 0.122049 0.300268
Si Si3 0.098846 0.369115 0.935848
Si Si4 0.750167 0.265783 0.826390
Si Si5 0.371407 0.963664 0.222200
Si Si6 0.935990 0.937550 0.187538
Si Si7 0.334703 0.601067 0.796553
Si Si8 0.382168 0.134482 0.113233
O O1 0.818304 0.575225 0.207768
O O2 0.765496 0.432610 0.297518
O O3 0.949979 0.418735 0.694059
O O4 0.035290 0.396340 0.212419
O O5 0.528589 0.130427 0.224820
O O6 0.655526 0.124241 0.612548
O O7 0.849943 0.003518 0.392279
O O8 0.699056 0.201179 0.056271
O O9 0.221130 0.247735 0.022577
O O10 0.641871 0.342210 0.511509
O O11 0.918863 0.181860 0.747226
O O12 0.753488 0.326503 0.012706
O O13 0.357538 0.050858 0.309481
O O14 0.220477 0.036845 0.967025
O O15 0.549579 0.900100 0.154276
O O16 0.000000 0.000000 0.000000
O O17 0.500000 0.500000 0.000000
#
# Coordination Sequence:
#
# PCOD9024208 Si02
#       8
#     2   2   2   2   2   2   2   2
#     4  10  24  46  70 102 136 172 236 293 347 403
#     4  10  23  42  65  99 141 182 231 281 340 419
#     4  10  23  45  72 102 133 185 228 286 346 414
#     4  11  27  44  73 104 135 192 230 280 362 412
#     4  10  22  40  63  99 140 177 227 284 335 414
#     4   9  22  40  62  98 137 177 228 279 332 417
#     4  12  28  49  72 105 143 177 236 299 349 415
#     4  10  23  39  64  99 134 185 226 279 348 406
#
# _framework density 23.610122
#
# number of rings (size 3 to 8) (size 9 to 14) (size 15 to 20)
#    0.000    1.750    0.000    1.500   14.000    1.000 
#    4.500    0.000    0.000    0.000    0.000    0.000 
#    0.000    0.000    0.000    0.000    0.000    0.000 
#
# Total GULP energy -89143.374893 kJ/mol
# GULP energy per Si atom -5571.460931 kJ/mol
# Density = 2.355638 g / cm^3
# Si number density = 23.610122 Si / 1000 Ang^3
#
#
#
# Elastic Constant Matrix: (Units=GPa)
#
#
# Indices 1 2 3 4 5 6 
#
# 1 83.9066 8.9347 21.9448 -9.3156 -6.2224 18.4610
# 2 8.9347 74.6629 30.4269 -17.0699 0.0268 21.9062
# 3 21.9448 30.4269 105.8197 -12.2374 -18.0526 6.3098
# 4 -9.3156 -17.0699 -12.2374 29.1827 6.1413 3.1313
# 5 -6.2224 0.0268 -18.0526 6.1413 37.0939 5.5848
# 6 18.4610 21.9062 6.3098 3.1313 5.5848 26.9318
#
#
#
# Elastic Compliance Matrix: (Units=1/GPa)
#
#
# Indices 1 2 3 4 5 6 
#
# 1 0.017212 0.006612 -0.002827 0.009568 0.002660 -0.018179
# 2 0.006612 0.027166 -0.005472 0.018764 -0.000553 -0.027414
# 3 -0.002827 -0.005472 0.012316 -0.000297 0.005203 0.002459
# 4 0.009568 0.018764 -0.000297 0.051722 -0.003031 -0.027136
# 5 0.002660 -0.000553 0.005203 -0.003031 0.031768 -0.008828
# 6 -0.018179 -0.027414 0.002459 -0.027136 -0.008828 0.076300
#
#
# Mechanical properties :
#
#
# Convention : Reuss Voigt Hill
#
# Bulk Modulus (GPa) = 18.75418 43.00022 30.87720
# Shear Modulus (GPa) = 21.04109 32.18053 26.61081
#
# Velocity S-wave (km/s) = 2.98852 3.69588 3.36086
# Velocity P-wave (km/s) = 4.45745 6.03862 5.30725
#
# Compressibility (1/GPa) = 0.05332145
#
# Stress axis : x y z
#
# Youngs Moduli (GPa) = 58.09804 36.81108 81.19345
#
# Poissons Ratio (x) = -0.24341 0.22950
# Poissons Ratio (y) = -0.38416 0.44430
# Poissons Ratio (z) = 0.16422 0.20143
#
# Static dielectric constant tensor:
#      x y z
#    x 1.924970 0.048920 -0.044510 
#    y 0.048920 1.982330 0.160370 
#    z -0.044510 0.160370 2.308990 
# 
# From -- ./inp_files/80206.got.cif
#   From: 2010.05.17/outbox.cif.g08.bks.cpg/sg2_41_cif.got.tgz:80206.got - 2010.06.03 11:33:40.
