data_PCOD9024737
_publ_section_title
;
Structure prediction by ZEFSAII (Michael W. Deem and Ramdas Pophale) SiO2 
 PCOD9024737
Probable space group: P -1
;
_chemical_formula_sum "Si O2"
_cell_formula_units_Z 13
_cell_length_a 11.758290
_cell_length_b 18.309169
_cell_length_c 9.148870
_cell_angle_alpha 134.051181
_cell_angle_beta 36.221428
_cell_angle_gamma 153.287944
_cell_volume 520.775594
_symmetry_space_group_name_H-M "P -1"
_symmetry_group_IT_number 2
_symmetry_cell_setting 'triclinic'
loop_
_space_group_symop_operation_xyz
x,y,z
-x,-y,-z
loop_
_atom_site_type_symbol
_atom_site_label
_atom_site_fract_x
_atom_site_fract_y
_atom_site_fract_z
Si Si1 0.970322 0.368878 0.323695
Si Si2 0.643235 0.611485 0.238372
Si Si3 0.500000 0.500000 0.500000
Si Si4 0.286457 0.828903 0.399980
Si Si5 0.808846 0.114545 0.738328
Si Si6 0.646238 0.332661 0.088431
Si Si7 0.399890 0.176456 0.442048
O O1 0.931681 0.294583 0.411516
O O2 0.668576 0.239876 0.353414
O O3 0.000000 0.500000 0.500000
O O4 0.256004 0.433645 0.036892
O O5 0.356024 0.482492 0.463306
O O6 0.671285 0.736312 0.319322
O O7 0.892441 0.706518 0.250787
O O8 0.509908 0.385824 0.266017
O O9 0.224059 0.858310 0.351296
O O10 0.500000 0.000000 0.500000
O O11 0.403613 0.767532 0.130986
O O12 0.866408 0.017475 0.541786
O O13 0.500000 0.000000 0.000000
O O14 0.511703 0.229375 0.233335
O O15 0.000000 0.500000 0.000000
#
# Coordination Sequence:
#
# PCOD9024737 Si02
#       7
#     2   2   1   2   2   2   2
#     4  12  25  44  68 100 145 184 219 282 353 420
#     4  11  24  43  70  98 132 177 235 282 333 404
#     4  10  22  40  66 102 124 170 236 284 324 396
#     4  12  23  40  71 101 140 182 220 282 364 410
#     4  12  21  44  73  96 133 178 232 283 338 406
#     4  11  22  41  70  96 130 180 237 283 332 405
#     4  11  23  42  69  97 131 179 233 284 332 403
#
# _framework density 24.962769000000002
#
# number of rings (size 3 to 8) (size 9 to 14) (size 15 to 20)
#    0.000    0.615    4.615    4.154    0.000    1.846 
#    0.000    5.385    0.000    0.000    0.000    0.000 
#    0.000    0.000    0.000    0.000    0.000    0.000 
#
# Total GULP energy -72512.213861 kJ/mol
# GULP energy per Si atom -5577.862605 kJ/mol
# Density = 2.490595 g / cm^3
# Si number density = 24.962769 Si / 1000 Ang^3
#
#
#
# Elastic Constant Matrix: (Units=GPa)
#
#
# Indices 1 2 3 4 5 6 
#
# 1 137.5767 34.9074 35.4951 -5.2868 19.0998 -14.6452
# 2 34.9074 115.5754 47.5743 27.2504 9.8402 -28.3103
# 3 35.4951 47.5743 174.7379 32.2096 11.1606 -18.2687
# 4 -5.2868 27.2504 32.2096 53.5119 -14.1504 -4.6787
# 5 19.0998 9.8402 11.1606 -14.1504 43.0211 5.2874
# 6 -14.6452 -28.3103 -18.2687 -4.6787 5.2874 64.0184
#
#
#
# Elastic Compliance Matrix: (Units=1/GPa)
#
#
# Indices 1 2 3 4 5 6 
#
# 1 0.008682 -0.002136 -0.001324 0.002190 -0.002428 0.001025
# 2 -0.002136 0.012936 -0.000996 -0.007007 -0.004649 0.004820
# 3 -0.001324 -0.000996 0.007452 -0.004748 -0.002836 0.001271
# 4 0.002190 -0.007007 -0.004748 0.028111 0.011458 -0.002845
# 5 -0.002428 -0.004649 -0.002836 0.011458 0.030518 -0.005104
# 6 0.001025 0.004820 0.001271 -0.002845 -0.005104 0.018563
#
#
# Mechanical properties :
#
#
# Convention : Reuss Voigt Hill
#
# Bulk Modulus (GPa) = 49.60299 73.76040 61.68170
# Shear Modulus (GPa) = 41.01972 52.77114 46.89543
#
# Velocity S-wave (km/s) = 4.05808 4.60281 4.33900
# Velocity P-wave (km/s) = 6.47080 7.60658 7.06156
#
# Compressibility (1/GPa) = 0.02016008
#
# Stress axis : x y z
#
# Youngs Moduli (GPa) = 115.17426 77.30374 134.19348
#
# Poissons Ratio (x) = 0.16513 0.17761
# Poissons Ratio (y) = 0.24603 0.13359
# Poissons Ratio (z) = 0.15244 0.07696
#
# Static dielectric constant tensor:
#      x y z
#    x 1.963050 0.147130 -0.114480 
#    y 0.147130 1.806650 0.276720 
#    z -0.114480 0.276720 1.755970 
# 
# From -- ./inp_files/251515.got.cif
#   From: 2010.05.17/outbox.cif.g08.bks.cpg/sg2_126_cif.got.tgz:251515.got - 2010.06.03 11:33:40.
