data_PCOD9024981
_publ_section_title
;
Structure prediction by ZEFSAII (Michael W. Deem and Ramdas Pophale) SiO2 
 PCOD9024981
Probable space group: P -1
;
_chemical_formula_sum "Si O2"
_cell_formula_units_Z 15
_cell_length_a 14.135672
_cell_length_b 8.798290
_cell_length_c 11.538410
_cell_angle_alpha 148.832914
_cell_angle_beta 53.835449
_cell_angle_gamma 128.235711
_cell_volume 576.847546
_symmetry_space_group_name_H-M "P -1"
_symmetry_group_IT_number 2
_symmetry_cell_setting 'triclinic'
loop_
_space_group_symop_operation_xyz
x,y,z
-x,-y,-z
loop_
_atom_site_type_symbol
_atom_site_label
_atom_site_fract_x
_atom_site_fract_y
_atom_site_fract_z
Si Si1 0.143784 0.287513 0.572555
Si Si2 0.527994 0.768803 0.488804
Si Si3 0.250582 0.755006 0.110358
Si Si4 0.000000 0.500000 0.000000
Si Si5 0.946388 0.403005 0.351196
Si Si6 0.597766 0.427199 0.790074
Si Si7 0.369018 0.740987 0.800626
Si Si8 0.194876 0.272456 0.015435
O O1 0.102462 0.337872 0.505255
O O2 0.242876 0.607689 0.737613
O O3 0.032596 0.280177 0.732101
O O4 0.209408 0.026414 0.376379
O O5 0.446144 0.598232 0.328528
O O6 0.460627 0.868724 0.714227
O O7 0.594458 0.540130 0.348494
O O8 0.608051 0.085731 0.586178
O O9 0.277810 0.513132 0.022358
O O10 0.347394 0.914311 0.045340
O O11 0.135422 0.549239 0.989792
O O12 0.000000 0.500000 0.500000
O O13 0.064135 0.349933 0.164083
O O14 0.842413 0.082744 0.220836
O O15 0.728210 0.660878 0.877810
O O16 0.500000 0.500000 0.000000
#
# Coordination Sequence:
#
# PCOD9024981 Si02
#       8
#     2   2   2   1   2   2   2   2
#     4  11  24  43  72 106 138 200 234 306 363 438
#     4  10  24  48  70 113 140 197 239 309 374 435
#     4  11  23  42  73 101 138 191 245 303 357 432
#     4  10  22  40  66  98 142 176 246 284 354 432
#     4  11  28  45  71 103 149 194 239 300 371 442
#     4  11  25  44  78 105 148 193 247 300 371 444
#     4  10  24  44  74 102 149 178 250 303 364 438
#     4  11  26  47  69 109 145 191 245 303 365 443
#
# _framework density 26.003404
#
# number of rings (size 3 to 8) (size 9 to 14) (size 15 to 20)
#    0.000    1.333    1.333    2.000    5.600    5.333 
#    0.000    3.333    0.000    0.000    0.000    0.000 
#    0.000    0.000    0.000    0.000    0.000    0.000 
#
# Total GULP energy -83667.039302 kJ/mol
# GULP energy per Si atom -5577.802620 kJ/mol
# Density = 2.594422 g / cm^3
# Si number density = 26.003404 Si / 1000 Ang^3
#
#
#
# Elastic Constant Matrix: (Units=GPa)
#
#
# Indices 1 2 3 4 5 6 
#
# 1 124.9655 41.2008 21.4608 18.3775 29.1313 -20.1538
# 2 41.2008 114.4122 60.7105 4.4685 6.8886 -22.9117
# 3 21.4608 60.7105 86.6793 -2.7490 15.7963 -9.9061
# 4 18.3775 4.4685 -2.7490 53.4330 2.7915 -2.2430
# 5 29.1313 6.8886 15.7963 2.7915 48.3572 -5.8522
# 6 -20.1538 -22.9117 -9.9061 -2.2430 -5.8522 37.2241
#
#
#
# Elastic Compliance Matrix: (Units=1/GPa)
#
#
# Indices 1 2 3 4 5 6 
#
# 1 0.011378 -0.003530 0.001029 -0.003114 -0.006132 0.003110
# 2 -0.003530 0.016862 -0.011005 -0.000719 0.004104 0.006141
# 3 0.001029 -0.011005 0.019921 0.001825 -0.005874 -0.001729
# 4 -0.003114 -0.000719 0.001825 0.019913 0.000183 -0.000414
# 5 -0.006132 0.004104 -0.005874 0.000183 0.025906 0.001727
# 6 0.003110 0.006141 -0.001729 -0.000414 0.001727 0.032114
#
#
# Mechanical properties :
#
#
# Convention : Reuss Voigt Hill
#
# Bulk Modulus (GPa) = 47.28253 63.64459 55.46356
# Shear Modulus (GPa) = 31.21971 41.31517 36.26744
#
# Velocity S-wave (km/s) = 3.46873 3.99035 3.73865
# Velocity P-wave (km/s) = 5.85367 6.76455 6.32553
#
# Compressibility (1/GPa) = 0.02114946
#
# Stress axis : x y z
#
# Youngs Moduli (GPa) = 87.88729 59.30576 50.19895
#
# Poissons Ratio (x) = 0.20935 -0.05168
# Poissons Ratio (y) = 0.31025 0.55244
# Poissons Ratio (z) = -0.09047 0.65266
#
# Static dielectric constant tensor:
#      x y z
#    x 1.954100 0.048060 -0.010090 
#    y 0.048060 2.132350 -0.055790 
#    z -0.010090 -0.055790 2.053870 
# 
# From -- ./inp_files/446516.got.cif
#   From: 2010.05.17/outbox.cif.g08.bks.cpg/sg2_224_cif.got.tgz:446516.got - 2010.06.03 11:33:40.
