data_PCOD9024393
_publ_section_title
;
Structure prediction by ZEFSAII (Michael W. Deem and Ramdas Pophale) SiO2 
 PCOD9024393
Probable space group: P -1
;
_chemical_formula_sum "Si O2"
_cell_formula_units_Z 16
_cell_length_a 10.283174
_cell_length_b 24.280500
_cell_length_c 21.230401
_cell_angle_alpha 160.675277
_cell_angle_beta 151.727225
_cell_angle_gamma 36.549556
_cell_volume 817.775499
_symmetry_space_group_name_H-M "P -1"
_symmetry_group_IT_number 2
_symmetry_cell_setting 'triclinic'
loop_
_space_group_symop_operation_xyz
x,y,z
-x,-y,-z
loop_
_atom_site_type_symbol
_atom_site_label
_atom_site_fract_x
_atom_site_fract_y
_atom_site_fract_z
Si Si1 0.253472 0.881111 0.802804
Si Si2 0.427805 0.380750 0.281777
Si Si3 0.901304 0.895192 0.781401
Si Si4 0.423014 0.068417 0.775808
Si Si5 0.101076 0.030123 0.474287
Si Si6 0.809403 0.709468 0.322313
Si Si7 0.822941 0.378958 0.343013
Si Si8 0.200765 0.674156 0.087117
O O1 0.431324 0.778004 0.811872
O O2 0.067309 0.963769 0.862924
O O3 0.036229 0.772000 0.542666
O O4 0.500000 0.000000 0.000000
O O5 0.500000 0.500000 0.500000
O O6 0.600546 0.453794 0.372226
O O7 0.096162 0.340009 0.090354
O O8 0.963426 0.707686 0.616989
O O9 0.584800 0.917338 0.664453
O O10 0.000000 0.000000 0.000000
O O11 0.218586 0.014909 0.689066
O O12 0.259556 0.113531 0.693647
O O13 0.638875 0.229543 0.063871
O O14 0.139765 0.152718 0.563123
O O15 0.203082 0.850832 0.314775
O O16 0.826364 0.515882 0.100332
O O17 0.492180 0.700277 0.201728
O O18 0.000000 0.500000 0.500000
#
# Coordination Sequence:
#
# PCOD9024393 Si02
#       8
#     2   2   2   2   2   2   2   2
#     4  11  23  39  65 100 128 172 224 270 334 398
#     4  11  22  40  63  94 133 167 209 281 331 384
#     4   9  21  39  61  89 129 167 208 268 323 383
#     4  10  22  43  63  92 126 173 222 262 332 399
#     4  11  23  43  68  91 132 174 219 276 325 393
#     4  11  25  41  68  98 132 178 218 276 338 392
#     4  10  22  40  64  95 128 169 215 271 330 392
#     4  11  23  44  65  95 138 166 225 277 328 401
#
# _framework density 19.565272
#
# number of rings (size 3 to 8) (size 9 to 14) (size 15 to 20)
#    0.000    1.500    2.500    1.875    3.500    5.000 
#    4.500    1.250    0.000    0.000    0.000    0.000 
#    0.000    0.000    0.000    0.000    0.000    0.000 
#
# Total GULP energy -89117.233942 kJ/mol
# GULP energy per Si atom -5569.827121 kJ/mol
# Density = 1.952074 g / cm^3
# Si number density = 19.565272 Si / 1000 Ang^3
#
#
#
# Elastic Constant Matrix: (Units=GPa)
#
#
# Indices 1 2 3 4 5 6 
#
# 1 116.1211 45.1954 63.3171 8.3095 24.2646 -3.0549
# 2 45.1954 91.6660 46.7622 -9.8468 19.9390 -12.7613
# 3 63.3171 46.7622 100.1403 -7.1976 18.9777 2.9327
# 4 8.3095 -9.8468 -7.1976 26.9891 -4.7269 -5.4789
# 5 24.2646 19.9390 18.9777 -4.7269 36.1893 -4.3675
# 6 -3.0549 -12.7613 2.9327 -5.4789 -4.3675 33.4279
#
#
#
# Elastic Compliance Matrix: (Units=1/GPa)
#
#
# Indices 1 2 3 4 5 6 
#
# 1 0.016575 -0.004037 -0.008102 -0.010184 -0.006187 -0.001793
# 2 -0.004037 0.017923 -0.005006 0.007576 -0.002610 0.007813
# 3 -0.008102 -0.005006 0.018098 0.004554 -0.001144 -0.003642
# 4 -0.010184 0.007576 0.004554 0.047629 0.007740 0.010379
# 5 -0.006187 -0.002610 -0.001144 0.007740 0.035364 0.004428
# 6 -0.001793 0.007813 -0.003642 0.010379 0.004428 0.035333
#
#
# Mechanical properties :
#
#
# Convention : Reuss Voigt Hill
#
# Bulk Modulus (GPa) = 54.63130 68.71965 61.67548
# Shear Modulus (GPa) = 23.66140 29.49812 26.57976
#
# Velocity S-wave (km/s) = 3.48135 3.88709 3.68981
# Velocity P-wave (km/s) = 6.64402 7.43946 7.05296
#
# Compressibility (1/GPa) = 0.01830453
#
# Stress axis : x y z
#
# Youngs Moduli (GPa) = 60.33112 55.79465 55.25625
#
# Poissons Ratio (x) = 0.22524 0.44769
# Poissons Ratio (y) = 0.24356 0.27664
# Poissons Ratio (z) = 0.48880 0.27934
#
# Static dielectric constant tensor:
#      x y z
#    x 1.726840 -0.013710 -0.010200 
#    y -0.013710 1.720880 0.004130 
#    z -0.010200 0.004130 1.686580 
# 
# From -- ./inp_files/353377.got.cif
#   From: 2010.05.17/outbox.cif.g08.bks.cpg/sg2_177_cif.got.tgz:353377.got - 2010.06.03 11:33:40.
