data_PCOD9024514
_publ_section_title
;
Structure prediction by ZEFSAII (Michael W. Deem and Ramdas Pophale) SiO2 
 PCOD9024514
Probable space group: P -1
;
_chemical_formula_sum "Si O2"
_cell_formula_units_Z 16
_cell_length_a 11.136159
_cell_length_b 15.754314
_cell_length_c 9.014859
_cell_angle_alpha 32.755754
_cell_angle_beta 114.652853
_cell_angle_gamma 130.585958
_cell_volume 616.479703
_symmetry_space_group_name_H-M "P -1"
_symmetry_group_IT_number 2
_symmetry_cell_setting 'triclinic'
loop_
_space_group_symop_operation_xyz
x,y,z
-x,-y,-z
loop_
_atom_site_type_symbol
_atom_site_label
_atom_site_fract_x
_atom_site_fract_y
_atom_site_fract_z
Si Si1 0.328989 0.496544 0.087570
Si Si2 0.379078 0.233953 0.316537
Si Si3 0.793311 0.185591 0.029594
Si Si4 0.611169 0.306237 0.582964
Si Si5 0.698425 0.191544 0.292036
Si Si6 0.644395 0.702082 0.351253
Si Si7 0.896900 0.062103 0.741005
Si Si8 0.066176 0.251656 0.855898
O O1 0.313160 0.352588 0.165244
O O2 0.271160 0.359619 0.403180
O O3 0.532199 0.672358 0.932983
O O4 0.255347 0.615070 0.883058
O O5 0.542920 0.282567 0.417008
O O6 0.249590 0.011526 0.626335
O O7 0.749541 0.257400 0.049047
O O8 0.680319 0.189363 0.841279
O O9 0.959790 0.269996 0.897413
O O10 0.446242 0.230950 0.698809
O O11 0.753672 0.537224 0.351679
O O12 0.500000 0.000000 0.500000
O O13 0.811890 0.134716 0.495681
O O14 0.500000 0.500000 0.500000
O O15 0.761106 0.871816 0.049017
O O16 0.951448 0.950377 0.832627
O O17 0.003541 0.218037 0.701291
#
# Coordination Sequence:
#
# PCOD9024514 Si02
#       8
#     2   2   2   2   2   2   2   2
#     4  10  22  40  65 111 138 174 226 312 354 406
#     4  10  23  41  73 102 145 180 240 297 360 412
#     4  12  25  44  70 107 143 188 236 296 356 432
#     4  11  23  41  72 103 138 188 239 294 347 423
#     4  12  25  43  75 111 142 172 248 307 354 400
#     4  11  20  39  73 100 134 182 242 287 353 409
#     4  11  26  47  73 105 144 196 232 296 354 431
#     4  11  26  47  69  98 153 196 237 276 363 444
#
# _framework density 25.953816
#
# number of rings (size 3 to 8) (size 9 to 14) (size 15 to 20)
#    0.000    1.000    2.500    4.500    3.500    0.500 
#    0.000    3.125    0.000    0.000    0.000    0.000 
#    0.000    0.000    0.000    0.000    0.000    0.000 
#
# Total GULP energy -89308.998406 kJ/mol
# GULP energy per Si atom -5581.812400 kJ/mol
# Density = 2.589474 g / cm^3
# Si number density = 25.953816 Si / 1000 Ang^3
#
#
#
# Elastic Constant Matrix: (Units=GPa)
#
#
# Indices 1 2 3 4 5 6 
#
# 1 121.5739 23.4254 32.0789 13.0651 13.3478 -25.0169
# 2 23.4254 73.6298 18.9305 8.5047 -8.1301 -2.4227
# 3 32.0789 18.9305 110.6547 9.2570 16.4889 -5.0591
# 4 13.0651 8.5047 9.2570 35.0725 0.5139 8.0721
# 5 13.3478 -8.1301 16.4889 0.5139 62.2131 5.5091
# 6 -25.0169 -2.4227 -5.0591 8.0721 5.5091 37.3961
#
#
#
# Elastic Compliance Matrix: (Units=1/GPa)
#
#
# Indices 1 2 3 4 5 6 
#
# 1 0.012082 -0.002849 -0.001636 -0.005481 -0.003314 0.009348
# 2 -0.002849 0.015614 -0.002250 -0.001884 0.003378 -0.001289
# 3 -0.001636 -0.002250 0.010510 -0.001804 -0.002801 0.000984
# 4 -0.005481 -0.001884 -0.001804 0.034154 0.002164 -0.011724
# 5 -0.003314 0.003378 -0.002801 0.002164 0.018443 -0.005561
# 6 0.009348 -0.001289 0.000984 -0.011724 -0.005561 0.036394
#
#
# Mechanical properties :
#
#
# Convention : Reuss Voigt Hill
#
# Bulk Modulus (GPa) = 40.42438 50.52535 45.47486
# Shear Modulus (GPa) = 33.57681 42.36458 37.97069
#
# Velocity S-wave (km/s) = 3.60073 4.04456 3.82908
# Velocity P-wave (km/s) = 5.73553 6.42814 6.09169
#
# Compressibility (1/GPa) = 0.02473755
#
# Stress axis : x y z
#
# Youngs Moduli (GPa) = 82.76455 64.04335 95.15176
#
# Poissons Ratio (x) = 0.18244 0.15563
# Poissons Ratio (y) = 0.23577 0.21410
# Poissons Ratio (z) = 0.13537 0.14411
#
# Static dielectric constant tensor:
#      x y z
#    x 2.246160 -0.067020 -0.063740 
#    y -0.067020 2.234500 0.006330 
#    z -0.063740 0.006330 2.037390 
# 
# From -- ./inp_files/271602.got.cif
#   From: 2010.05.17/outbox.cif.g08.bks.cpg/sg2_136_cif.got.tgz:271602.got - 2010.06.03 11:33:40.
