data_PCOD9024250
_publ_section_title
;
Structure prediction by ZEFSAII (Michael W. Deem and Ramdas Pophale) SiO2 
 PCOD9024250
Probable space group: P -1
;
_chemical_formula_sum "Si O2"
_cell_formula_units_Z 16
_cell_length_a 8.154505
_cell_length_b 19.653274
_cell_length_c 9.485720
_cell_angle_alpha 43.231448
_cell_angle_beta 133.551960
_cell_angle_gamma 127.348228
_cell_volume 737.695122
_symmetry_space_group_name_H-M "P -1"
_symmetry_group_IT_number 2
_symmetry_cell_setting 'triclinic'
loop_
_space_group_symop_operation_xyz
x,y,z
-x,-y,-z
loop_
_atom_site_type_symbol
_atom_site_label
_atom_site_fract_x
_atom_site_fract_y
_atom_site_fract_z
Si Si1 0.913520 0.104150 0.270265
Si Si2 0.560215 0.956700 0.750983
Si Si3 0.513247 0.239534 0.134580
Si Si4 0.660464 0.091953 0.864772
Si Si5 0.045205 0.633392 0.694807
Si Si6 0.672331 0.541342 0.855262
Si Si7 0.362617 0.251832 0.343316
Si Si8 0.367621 0.421003 0.654292
O O1 0.676549 0.088527 0.238347
O O2 0.105069 0.192350 0.315889
O O3 0.869331 0.123792 0.049850
O O4 0.000000 0.000000 0.500000
O O5 0.631850 0.855459 0.893902
O O6 0.500000 0.000000 0.500000
O O7 0.699358 0.039277 0.817448
O O8 0.391739 0.242833 0.207157
O O9 0.783646 0.262333 0.311655
O O10 0.509611 0.333745 0.889389
O O11 0.533674 0.185435 0.616465
O O12 0.500000 0.000000 0.000000
O O13 0.854843 0.595579 0.761049
O O14 0.888999 0.630490 0.467355
O O15 0.201175 0.549047 0.886547
O O16 0.622286 0.631801 0.784096
O O17 0.421407 0.485416 0.731163
O O18 0.500000 0.500000 0.500000
#
# Coordination Sequence:
#
# PCOD9024250 Si02
#       8
#     2   2   2   2   2   2   2   2
#     4  11  22  41  64  88 126 169 213 259 318 378
#     4  11  21  43  65  91 131 169 210 270 311 370
#     4  11  23  39  60  93 128 163 211 265 311 372
#     4  10  22  40  64  86 126 166 212 258 312 370
#     4   9  19  39  61  88 120 157 203 258 317 372
#     4   9  20  37  63  87 119 159 202 256 315 376
#     4  12  23  40  61  92 127 165 215 260 317 377
#     4   9  20  39  62  90 124 157 211 259 313 385
#
# _framework density 21.689176
#
# number of rings (size 3 to 8) (size 9 to 14) (size 15 to 20)
#    0.000    1.750    3.750    1.500    0.000    8.000 
#    2.250    2.500    0.000    0.000    0.000    0.000 
#    0.000    0.000    0.000    0.000    0.000    0.000 
#
# Total GULP energy -89087.085878 kJ/mol
# GULP energy per Si atom -5567.942867 kJ/mol
# Density = 2.163981 g / cm^3
# Si number density = 21.689176 Si / 1000 Ang^3
#
#
#
# Elastic Constant Matrix: (Units=GPa)
#
#
# Indices 1 2 3 4 5 6 
#
# 1 57.5064 7.8387 12.3466 10.3073 -3.8048 -13.6761
# 2 7.8387 94.0790 33.7257 21.0340 13.7035 -25.2847
# 3 12.3466 33.7257 97.6297 16.5408 -0.9329 -15.9210
# 4 10.3073 21.0340 16.5408 38.1857 7.4091 5.6642
# 5 -3.8048 13.7035 -0.9329 7.4091 23.7061 1.3990
# 6 -13.6761 -25.2847 -15.9210 5.6642 1.3990 41.2396
#
#
#
# Elastic Compliance Matrix: (Units=1/GPa)
#
#
# Indices 1 2 3 4 5 6 
#
# 1 0.021321 0.002289 -0.000364 -0.009107 0.004374 0.009436
# 2 0.002289 0.018118 -0.002996 -0.009581 -0.007955 0.012297
# 3 -0.000364 -0.002996 0.012782 -0.004999 0.003530 0.003544
# 4 -0.009107 -0.009581 -0.004999 0.039956 -0.007661 -0.016052
# 5 0.004374 -0.007955 0.003530 -0.007661 0.050177 -0.002714
# 6 0.009436 0.012297 0.003544 -0.016052 -0.002714 0.038582
#
#
# Mechanical properties :
#
#
# Convention : Reuss Voigt Hill
#
# Bulk Modulus (GPa) = 19.96772 39.67077 29.81925
# Shear Modulus (GPa) = 25.02846 33.64655 29.33750
#
# Velocity S-wave (km/s) = 3.40069 3.94294 3.68181
# Velocity P-wave (km/s) = 4.96446 6.24974 5.64381
#
# Compressibility (1/GPa) = 0.05008083
#
# Stress axis : x y z
#
# Youngs Moduli (GPa) = 46.90175 55.19268 78.23289
#
# Poissons Ratio (x) = -0.12633 0.02844
# Poissons Ratio (y) = -0.10735 0.23437
# Poissons Ratio (z) = 0.01705 0.16535
#
# Static dielectric constant tensor:
#      x y z
#    x 1.821900 0.060670 -0.003100 
#    y 0.060670 2.070000 -0.006170 
#    z -0.003100 -0.006170 1.840550 
# 
# From -- ./inp_files/216868.got.cif
#   From: 2010.05.17/outbox.cif.g08.bks.cpg/sg2_109_cif.got.tgz:216868.got - 2010.06.03 11:33:40.
