data_PCOD9024888
_publ_section_title
;
Structure prediction by ZEFSAII (Michael W. Deem and Ramdas Pophale) SiO2 
 PCOD9024888
Probable space group: P -1
;
_chemical_formula_sum "Si O2"
_cell_formula_units_Z 13
_cell_length_a 7.548171
_cell_length_b 13.680104
_cell_length_c 14.193014
_cell_angle_alpha 149.734586
_cell_angle_beta 138.200203
_cell_angle_gamma 43.620295
_cell_volume 478.150693
_symmetry_space_group_name_H-M "P -1"
_symmetry_group_IT_number 2
_symmetry_cell_setting 'triclinic'
loop_
_space_group_symop_operation_xyz
x,y,z
-x,-y,-z
loop_
_atom_site_type_symbol
_atom_site_label
_atom_site_fract_x
_atom_site_fract_y
_atom_site_fract_z
Si Si1 0.892598 0.407067 0.750247
Si Si2 0.966958 0.526352 0.618724
Si Si3 0.861655 0.015068 0.731142
Si Si4 0.619707 0.683217 0.278143
Si Si5 0.321528 0.046466 0.064640
Si Si6 0.500000 0.500000 0.500000
Si Si7 0.832175 0.836239 0.181330
O O1 0.632641 0.436764 0.605578
O O2 0.161532 0.365561 0.758437
O O3 0.966774 0.225405 0.701960
O O4 0.856276 0.620949 0.963706
O O5 0.794968 0.372982 0.460981
O O6 0.000000 0.500000 0.500000
O O7 0.270191 0.500481 0.760373
O O8 0.759883 0.715345 0.747342
O O9 0.663932 0.236319 0.818882
O O10 0.051063 0.015441 0.715017
O O11 0.670874 0.861939 0.514652
O O12 0.033442 0.001049 0.883726
O O13 0.505705 0.936737 0.132118
O O14 0.500000 0.000000 0.000000
#
# Coordination Sequence:
#
# PCOD9024888 Si02
#       7
#     2   2   2   2   2   1   2
#     4  10  23  41  66  97 128 181 227 280 348 419
#     4  11  26  43  69 103 134 185 238 281 349 422
#     4  10  22  40  66  94 136 178 220 287 344 406
#     4  10  23  41  62  96 136 176 223 281 351 402
#     4  10  22  42  69  97 135 186 226 285 350 407
#     4  10  22  42  70  94 140 176 220 292 346 400
#     4  10  23  41  66  97 130 176 236 277 341 420
#
# _framework density 27.188081
#
# number of rings (size 3 to 8) (size 9 to 14) (size 15 to 20)
#    0.000    1.846    0.000    3.692   15.077    5.538 
#    2.769    1.538    0.000    0.000    0.000    0.000 
#    0.000    0.000    0.000    0.000    0.000    0.000 
#
# Total GULP energy -72415.700962 kJ/mol
# GULP energy per Si atom -5570.438536 kJ/mol
# Density = 2.712620 g / cm^3
# Si number density = 27.188081 Si / 1000 Ang^3
#
#
#
# Elastic Constant Matrix: (Units=GPa)
#
#
# Indices 1 2 3 4 5 6 
#
# 1 59.0486 13.5453 2.4996 3.9641 -12.3039 -0.8280
# 2 13.5453 218.6264 63.0610 -29.5261 -5.5453 -1.2160
# 3 2.4996 63.0610 106.1016 -8.0737 -2.5246 3.2388
# 4 3.9641 -29.5261 -8.0737 52.5654 -3.9722 -0.1351
# 5 -12.3039 -5.5453 -2.5246 -3.9722 26.6975 -2.6481
# 6 -0.8280 -1.2160 3.2388 -0.1351 -2.6481 45.4889
#
#
#
# Elastic Compliance Matrix: (Units=1/GPa)
#
#
# Indices 1 2 3 4 5 6 
#
# 1 0.019074 -0.001267 0.000370 -0.001455 0.008422 0.000773
# 2 -0.001267 0.006047 -0.003325 0.003047 0.000854 0.000434
# 3 0.000370 -0.003325 0.011422 -0.000109 0.000457 -0.000869
# 4 -0.001455 0.003047 -0.000109 0.021065 0.003117 0.000307
# 5 0.008422 0.000854 0.000457 0.003117 0.042282 0.002614
# 6 0.000773 0.000434 -0.000869 0.000307 0.002614 0.022224
#
#
# Mechanical properties :
#
#
# Convention : Reuss Voigt Hill
#
# Bulk Modulus (GPa) = 35.59031 60.22094 47.90562
# Shear Modulus (GPa) = 35.73355 45.26174 40.49764
#
# Velocity S-wave (km/s) = 3.62927 4.08458 3.86364
# Velocity P-wave (km/s) = 5.53904 6.66655 6.12878
#
# Compressibility (1/GPa) = 0.02809754
#
# Stress axis : x y z
#
# Youngs Moduli (GPa) = 52.42841 165.36283 87.55218
#
# Poissons Ratio (x) = 0.20950 -0.03237
# Poissons Ratio (y) = 0.06642 0.29115
# Poissons Ratio (z) = -0.01939 0.54990
#
# Static dielectric constant tensor:
#      x y z
#    x 2.027580 -0.176260 -0.198980 
#    y -0.176260 2.264550 -0.112250 
#    z -0.198980 -0.112250 1.844520 
# 
# From -- ./inp_files/505998.got.cif
#   From: 2010.05.17/outbox.cif.g08.bks.cpg/sg2_253_cif.got.tgz:505998.got - 2010.06.03 11:33:40.
