data_PCOD9024634
_publ_section_title
;
Structure prediction by ZEFSAII (Michael W. Deem and Ramdas Pophale) SiO2 
 PCOD9024634
Probable space group: P -1
;
_chemical_formula_sum "Si O2"
_cell_formula_units_Z 12
_cell_length_a 6.827454
_cell_length_b 22.584175
_cell_length_c 6.826428
_cell_angle_alpha 135.955015
_cell_angle_beta 68.924007
_cell_angle_gamma 131.012577
_cell_volume 539.425179
_symmetry_space_group_name_H-M "P -1"
_symmetry_group_IT_number 2
_symmetry_cell_setting 'triclinic'
loop_
_space_group_symop_operation_xyz
x,y,z
-x,-y,-z
loop_
_atom_site_type_symbol
_atom_site_label
_atom_site_fract_x
_atom_site_fract_y
_atom_site_fract_z
Si Si1 0.003398 0.005459 0.278485
Si Si2 0.966412 0.741561 0.734852
Si Si3 0.007033 0.451088 0.682094
Si Si4 0.394196 0.851932 0.178553
Si Si5 0.617969 0.342123 0.228017
Si Si6 0.144154 0.894672 0.688037
O O1 0.688019 0.914794 0.134449
O O2 0.173280 0.975408 0.036161
O O3 0.000000 0.000000 0.500000
O O4 0.058703 0.109984 0.403912
O O5 0.926213 0.630616 0.499489
O O6 0.692496 0.720131 0.830293
O O7 0.045771 0.791752 0.608906
O O8 0.189957 0.820288 0.001891
O O9 0.221599 0.551790 0.709153
O O10 0.726369 0.383695 0.508024
O O11 0.000000 0.500000 0.000000
O O12 0.371373 0.915264 0.511261
O O13 0.319698 0.741323 0.033112
#
# Coordination Sequence:
#
# PCOD9024634 Si02
#       6
#     2   2   2   2   2   2
#     4  11  25  45  66  97 132 170 222 271 321 391
#     4  11  23  42  65  98 132 171 219 268 323 385
#     4  10  22  40  65  95 130 175 213 261 325 387
#     4  11  24  43  66  95 134 170 218 271 320 384
#     4  10  22  42  63  94 136 166 215 271 315 383
#     4  11  24  41  68  95 126 177 214 265 334 378
#
# _framework density 22.245902000000001
#
# number of rings (size 3 to 8) (size 9 to 14) (size 15 to 20)
#    0.000    1.333    1.667    3.000    0.000    6.000 
#    0.000    0.000    0.000    0.000    0.000    0.000 
#    0.000    0.000    0.000    0.000    0.000    0.000 
#
# Total GULP energy -67042.153059 kJ/mol
# GULP energy per Si atom -5586.846088 kJ/mol
# Density = 2.219527 g / cm^3
# Si number density = 22.245902 Si / 1000 Ang^3
#
#
#
# Elastic Constant Matrix: (Units=GPa)
#
#
# Indices 1 2 3 4 5 6 
#
# 1 123.5907 49.3911 53.4779 -3.3087 9.5847 -11.2953
# 2 49.3911 116.8108 34.0217 -8.0494 -1.7266 -35.0246
# 3 53.4779 34.0217 144.7188 -20.5901 -9.8678 -9.9314
# 4 -3.3087 -8.0494 -20.5901 34.2254 -4.8053 0.0329
# 5 9.5847 -1.7266 -9.8678 -4.8053 27.5132 3.5164
# 6 -11.2953 -35.0246 -9.9314 0.0329 3.5164 53.0168
#
#
#
# Elastic Compliance Matrix: (Units=1/GPa)
#
#
# Indices 1 2 3 4 5 6 
#
# 1 0.012116 -0.004376 -0.004438 -0.003454 -0.006601 -0.000701
# 2 -0.004376 0.012974 -0.000438 0.002594 0.001683 0.007444
# 3 -0.004438 -0.000438 0.009993 0.006347 0.006183 0.000223
# 4 -0.003454 0.002594 0.006347 0.034645 0.009500 0.001515
# 5 -0.006601 0.001683 0.006183 0.009500 0.042882 -0.001986
# 6 -0.000701 0.007444 0.000223 0.001515 -0.001986 0.023803
#
#
# Mechanical properties :
#
#
# Convention : Reuss Voigt Hill
#
# Bulk Modulus (GPa) = 60.32048 73.21130 66.76589
# Shear Modulus (GPa) = 31.16360 39.49973 35.33166
#
# Velocity S-wave (km/s) = 3.74688 4.21835 3.98959
# Velocity P-wave (km/s) = 6.77444 7.53044 7.16242
#
# Compressibility (1/GPa) = 0.01657812
#
# Stress axis : x y z
#
# Youngs Moduli (GPa) = 82.53734 77.07493 100.07075
#
# Poissons Ratio (x) = 0.33729 0.44411
# Poissons Ratio (y) = 0.36119 0.04387
# Poissons Ratio (z) = 0.36630 0.03379
#
# Static dielectric constant tensor:
#      x y z
#    x 1.836300 -0.058080 0.004650 
#    y -0.058080 1.872950 0.037280 
#    z 0.004650 0.037280 1.816190 
# 
# From -- ./inp_files/3679.got.cif
#   From: 2010.05.17/outbox.cif.g08.bks.cpg/sg2_2_cif.got.tgz:3679.got - 2010.06.03 11:33:40.
