data_PCOD9024719
_publ_section_title
;
Structure prediction by ZEFSAII (Michael W. Deem and Ramdas Pophale) SiO2 
 PCOD9024719
Probable space group: P -1
;
_chemical_formula_sum "Si O2"
_cell_formula_units_Z 16
_cell_length_a 8.556790
_cell_length_b 9.754570
_cell_length_c 14.325896
_cell_angle_alpha 131.833399
_cell_angle_beta 104.901162
_cell_angle_gamma 104.974232
_cell_volume 690.677472
_symmetry_space_group_name_H-M "P -1"
_symmetry_group_IT_number 2
_symmetry_cell_setting 'triclinic'
loop_
_space_group_symop_operation_xyz
x,y,z
-x,-y,-z
loop_
_atom_site_type_symbol
_atom_site_label
_atom_site_fract_x
_atom_site_fract_y
_atom_site_fract_z
Si Si1 0.418221 0.652894 0.045449
Si Si2 0.035121 0.069483 0.145924
Si Si3 0.832636 0.979110 0.399630
Si Si4 0.630290 0.848420 0.496573
Si Si5 0.602030 0.882486 0.988246
Si Si6 0.028677 0.211694 0.816798
Si Si7 0.509946 0.619812 0.663920
Si Si8 0.367356 0.842440 0.601885
O O1 0.516025 0.894765 0.222746
O O2 0.500000 0.500000 0.000000
O O3 0.468206 0.715416 0.974473
O O4 0.182952 0.483335 0.956910
O O5 0.266172 0.290295 0.297687
O O6 0.009251 0.878000 0.124088
O O7 0.000000 0.000000 0.000000
O O8 0.837750 0.058704 0.132797
O O9 0.647394 0.839482 0.383572
O O10 0.862602 0.881653 0.266062
O O11 0.845931 0.202314 0.472803
O O12 0.000000 0.000000 0.500000
O O13 0.631216 0.648540 0.455297
O O14 0.440934 0.817411 0.501574
O O15 0.819493 0.091333 0.675924
O O16 0.572186 0.740290 0.828180
O O17 0.500000 0.000000 0.000000
O O18 0.413873 0.713733 0.626209
#
# Coordination Sequence:
#
# PCOD9024719 Si02
#       8
#     2   2   2   2   2   2   2   2
#     4  12  23  41  74  99 137 179 226 291 347 397
#     4  10  22  40  66 100 139 174 221 282 344 402
#     4  10  23  44  68  96 136 179 227 280 338 408
#     4  11  25  45  69  97 142 182 229 280 341 414
#     4  11  22  43  70 103 136 173 236 283 340 412
#     4  11  22  43  69  97 135 180 227 280 341 401
#     4  11  24  44  70  98 141 182 223 286 346 401
#     4  12  23  41  70 101 132 179 231 276 346 411
#
# _framework density 23.165662000000001
#
# number of rings (size 3 to 8) (size 9 to 14) (size 15 to 20)
#    0.000    1.000    5.000    1.500    0.000    0.500 
#    0.000    8.750    0.000    0.000    0.000    0.000 
#    0.000    0.000    0.000    0.000    0.000    0.000 
#
# Total GULP energy -89138.475475 kJ/mol
# GULP energy per Si atom -5571.154717 kJ/mol
# Density = 2.311294 g / cm^3
# Si number density = 23.165662 Si / 1000 Ang^3
#
#
#
# Elastic Constant Matrix: (Units=GPa)
#
#
# Indices 1 2 3 4 5 6 
#
# 1 30.1294 12.7667 -5.0320 3.7851 7.5695 -13.2763
# 2 12.7667 154.6969 28.8632 -13.1316 5.7874 -0.0593
# 3 -5.0320 28.8632 54.1785 -2.0767 -7.5816 -1.7572
# 4 3.7851 -13.1316 -2.0767 39.6994 6.9586 -7.4804
# 5 7.5695 5.7874 -7.5816 6.9586 34.3275 -8.7943
# 6 -13.2763 -0.0593 -1.7572 -7.4804 -8.7943 43.7226
#
#
#
# Elastic Compliance Matrix: (Units=1/GPa)
#
#
# Indices 1 2 3 4 5 6 
#
# 1 0.042821 -0.004774 0.006309 -0.002411 -0.003655 0.012102
# 2 -0.004774 0.008151 -0.005068 0.003013 -0.002468 -0.001623
# 3 0.006309 -0.005068 0.022608 -0.001392 0.005693 0.003724
# 4 -0.002411 0.003013 -0.001392 0.027802 -0.005168 0.002933
# 5 -0.003655 -0.002468 0.005693 -0.005168 0.033955 0.005061
# 6 0.012102 -0.001623 0.003724 0.002933 0.005061 0.028213
#
#
# Mechanical properties :
#
#
# Convention : Reuss Voigt Hill
#
# Bulk Modulus (GPa) = 15.03472 34.68894 24.86183
# Shear Modulus (GPa) = 25.93528 37.04368 31.48948
#
# Velocity S-wave (km/s) = 3.34961 4.00318 3.69089
# Velocity P-wave (km/s) = 4.63293 6.03110 5.37764
#
# Compressibility (1/GPa) = 0.06651272
#
# Stress axis : x y z
#
# Youngs Moduli (GPa) = 23.35318 122.67847 44.23257
#
# Poissons Ratio (x) = 0.58571 -0.27907
# Poissons Ratio (y) = 0.11150 0.22419
# Poissons Ratio (z) = -0.14734 0.62179
#
# Static dielectric constant tensor:
#      x y z
#    x 2.005930 -0.011830 0.063290 
#    y -0.011830 1.860990 -0.019820 
#    z 0.063290 -0.019820 1.944830 
# 
# From -- ./inp_files/495739.got.cif
#   From: 2010.05.17/outbox.cif.g08.bks.cpg/sg2_248_cif.got.tgz:495739.got - 2010.06.03 11:33:40.
