data_PCOD9024582
_publ_section_title
;
Structure prediction by ZEFSAII (Michael W. Deem and Ramdas Pophale) SiO2 
 PCOD9024582
Probable space group: P -1
;
_chemical_formula_sum "Si O2"
_cell_formula_units_Z 14
_cell_length_a 15.260049
_cell_length_b 7.797168
_cell_length_c 16.138804
_cell_angle_alpha 139.196385
_cell_angle_beta 43.491085
_cell_angle_gamma 150.293418
_cell_volume 607.978336
_symmetry_space_group_name_H-M "P -1"
_symmetry_group_IT_number 2
_symmetry_cell_setting 'triclinic'
loop_
_space_group_symop_operation_xyz
x,y,z
-x,-y,-z
loop_
_atom_site_type_symbol
_atom_site_label
_atom_site_fract_x
_atom_site_fract_y
_atom_site_fract_z
Si Si1 0.473973 0.964650 0.103915
Si Si2 0.170270 0.832735 0.685134
Si Si3 0.181395 0.367827 0.619111
Si Si4 0.803169 0.840253 0.057991
Si Si5 0.421661 0.121815 0.460682
Si Si6 0.831335 0.376757 0.119266
Si Si7 0.796967 0.199917 0.657453
O O1 0.356312 0.025714 0.248218
O O2 0.657882 0.178005 0.106886
O O3 0.324872 0.515728 0.043199
O O4 0.500000 0.000000 0.000000
O O5 0.102611 0.474795 0.652248
O O6 0.974259 0.627311 0.710960
O O7 0.257388 0.172187 0.811683
O O8 0.304302 0.983438 0.572402
O O9 0.393267 0.751817 0.602549
O O10 0.133663 0.327437 0.734343
O O11 0.153400 0.027241 0.485450
O O12 0.802562 0.112517 0.110944
O O13 0.000000 0.000000 0.000000
O O14 0.500000 0.500000 0.500000
O O15 0.300720 0.817001 0.361415
O O16 0.000000 0.500000 0.000000
#
# Coordination Sequence:
#
# PCOD9024582 Si02
#       7
#     2   2   2   2   2   2   2
#     4  12  26  44  70 100 140 181 227 283 341 406
#     4  11  23  42  67  98 135 175 228 274 335 405
#     4  10  23  43  68  97 133 174 222 281 338 398
#     4  11  24  44  69  97 136 181 228 277 335 408
#     4  10  22  40  65  93 131 173 217 277 334 394
#     4  11  25  47  71 101 135 179 230 283 342 407
#     4  11  23  43  66 101 135 171 226 274 340 403
#
# _framework density 23.027137
#
# number of rings (size 3 to 8) (size 9 to 14) (size 15 to 20)
#    0.000    1.143    2.857    2.571    6.000    2.286 
#    2.571    0.000    0.000    0.000    0.000    0.000 
#    0.000    0.000    0.000    0.000    0.000    0.000 
#
# Total GULP energy -78052.345852 kJ/mol
# GULP energy per Si atom -5575.167561 kJ/mol
# Density = 2.297473 g / cm^3
# Si number density = 23.027137 Si / 1000 Ang^3
#
#
#
# Elastic Constant Matrix: (Units=GPa)
#
#
# Indices 1 2 3 4 5 6 
#
# 1 90.4729 28.9620 33.7179 4.7403 20.9503 20.0535
# 2 28.9620 52.9150 45.4237 -13.6620 7.7990 17.3801
# 3 33.7179 45.4237 182.1169 -27.4288 21.3349 13.0259
# 4 4.7403 -13.6620 -27.4288 46.7796 -1.0186 1.7502
# 5 20.9503 7.7990 21.3349 -1.0186 38.6105 3.6811
# 6 20.0535 17.3801 13.0259 1.7502 3.6811 38.4900
#
#
#
# Elastic Compliance Matrix: (Units=1/GPa)
#
#
# Indices 1 2 3 4 5 6 
#
# 1 0.016273 -0.006872 -0.000833 -0.004130 -0.006684 -0.004267
# 2 -0.006872 0.031842 -0.005002 0.007446 0.001168 -0.009555
# 3 -0.000833 -0.005002 0.007652 0.003043 -0.002707 0.000223
# 4 -0.004130 0.007446 0.003043 0.025884 0.000065 -0.003423
# 5 -0.006684 0.001168 -0.002707 0.000065 0.030699 0.000932
# 6 -0.004267 -0.009555 0.000223 -0.003423 0.000932 0.032509
#
#
# Mechanical properties :
#
#
# Convention : Reuss Voigt Hill
#
# Bulk Modulus (GPa) = 32.94390 60.19022 46.56706
# Shear Modulus (GPa) = 27.71782 39.26944 33.49363
#
# Velocity S-wave (km/s) = 3.47321 4.13407 3.81797
# Velocity P-wave (km/s) = 5.51560 6.99879 6.30098
#
# Compressibility (1/GPa) = 0.03035463
#
# Stress axis : x y z
#
# Youngs Moduli (GPa) = 61.45177 31.40542 130.68153
#
# Poissons Ratio (x) = 0.21581 0.10883
# Poissons Ratio (y) = 0.42227 0.65362
# Poissons Ratio (z) = 0.05118 0.15708
#
# Static dielectric constant tensor:
#      x y z
#    x 1.916580 0.083160 -0.036810 
#    y 0.083160 1.827350 0.132180 
#    z -0.036810 0.132180 2.002780 
# 
# From -- ./inp_files/497380.got.cif
#   From: 2010.05.17/outbox.cif.g08.bks.cpg/sg2_249_cif.got.tgz:497380.got - 2010.06.03 11:33:40.
