data_PCOD9024954
_publ_section_title
;
Structure prediction by ZEFSAII (Michael W. Deem and Ramdas Pophale) SiO2 
 PCOD9024954
Probable space group: P -1
;
_chemical_formula_sum "Si O2"
_cell_formula_units_Z 16
_cell_length_a 11.251572
_cell_length_b 9.614480
_cell_length_c 12.381015
_cell_angle_alpha 58.023439
_cell_angle_beta 40.963565
_cell_angle_gamma 75.128999
_cell_volume 719.684922
_symmetry_space_group_name_H-M "P -1"
_symmetry_group_IT_number 2
_symmetry_cell_setting 'triclinic'
loop_
_space_group_symop_operation_xyz
x,y,z
-x,-y,-z
loop_
_atom_site_type_symbol
_atom_site_label
_atom_site_fract_x
_atom_site_fract_y
_atom_site_fract_z
Si Si1 0.789091 0.086804 0.069135
Si Si2 0.659029 0.734459 0.193679
Si Si3 0.738639 0.392347 0.363528
Si Si4 0.284981 0.925915 0.636618
Si Si5 0.290762 0.492487 0.279658
Si Si6 0.584623 0.845665 0.968939
Si Si7 0.380812 0.160758 0.286577
Si Si8 0.027952 0.437110 0.678398
O O1 0.826032 0.087868 0.170878
O O2 0.584526 0.122776 0.172528
O O3 0.767813 0.899682 0.116078
O O4 0.936556 0.241684 0.849329
O O5 0.717589 0.564014 0.251102
O O6 0.443535 0.691540 0.402714
O O7 0.678423 0.786084 0.033623
O O8 0.746612 0.255251 0.324107
O O9 0.911307 0.451965 0.302048
O O10 0.500000 0.000000 0.500000
O O11 0.254253 0.051580 0.512237
O O12 0.419721 0.681580 0.118120
O O13 0.395853 0.355755 0.223095
O O14 0.207369 0.448089 0.474737
O O15 0.118960 0.490317 0.318697
O O16 0.693378 0.888447 0.763390
O O17 0.500000 0.000000 0.000000
#
# Coordination Sequence:
#
# PCOD9024954 Si02
#       8
#     2   2   2   2   2   2   2   2
#     4  11  23  43  70  99 136 174 226 275 337 396
#     4  11  23  39  69 103 125 183 230 268 322 408
#     4  11  23  41  67  97 136 178 222 276 335 395
#     4  10  22  40  66  97 134 169 224 282 322 383
#     4  11  25  42  68  99 136 182 218 272 345 402
#     4  12  21  40  71 100 133 165 232 277 318 396
#     4  11  23  41  69 101 124 184 228 273 322 401
#     4  11  25  44  67  97 144 174 221 277 348 391
#
# _framework density 22.231952
#
# number of rings (size 3 to 8) (size 9 to 14) (size 15 to 20)
#    0.000    1.000    6.250    0.375    5.250    1.000 
#    0.000    0.625    0.000    0.000    0.000    0.000 
#    0.000    0.000    0.000    0.000    0.000    0.000 
#
# Total GULP energy -89522.569632 kJ/mol
# GULP energy per Si atom -5595.160602 kJ/mol
# Density = 2.218135 g / cm^3
# Si number density = 22.231952 Si / 1000 Ang^3
#
#
#
# Elastic Constant Matrix: (Units=GPa)
#
#
# Indices 1 2 3 4 5 6 
#
# 1 75.5514 69.7372 36.6071 7.1013 28.4973 26.0155
# 2 69.7372 148.6356 25.9536 -27.6806 7.2464 30.0211
# 3 36.6071 25.9536 96.5143 -13.2147 40.3527 6.0349
# 4 7.1013 -27.6806 -13.2147 30.7484 8.1035 2.7813
# 5 28.4973 7.2464 40.3527 8.1035 44.8763 7.4615
# 6 26.0155 30.0211 6.0349 2.7813 7.4615 36.3756
#
#
#
# Elastic Compliance Matrix: (Units=1/GPa)
#
#
# Indices 1 2 3 4 5 6 
#
# 1 0.065421 -0.034669 -0.018192 -0.050960 -0.008813 -0.009454
# 2 -0.034669 0.029163 0.009909 0.038331 0.002189 -0.004298
# 3 -0.018192 0.009909 0.026864 0.029723 -0.019936 0.002193
# 4 -0.050960 0.038331 0.029723 0.096494 -0.017324 -0.003944
# 5 -0.008813 0.002189 -0.019936 -0.017324 0.048725 -0.000866
# 6 -0.009454 -0.004298 0.002193 -0.003944 -0.000866 0.037914
#
#
# Mechanical properties :
#
#
# Convention : Reuss Voigt Hill
#
# Bulk Modulus (GPa) = 28.13392 65.03302 46.58347
# Shear Modulus (GPa) = 12.42746 34.96029 23.69387
#
# Velocity S-wave (km/s) = 2.36686 3.96981 3.26814
# Velocity P-wave (km/s) = 4.48905 7.09423 5.93631
#
# Compressibility (1/GPa) = 0.03554428
#
# Stress axis : x y z
#
# Youngs Moduli (GPa) = 15.28561 34.28963 37.22388
#
# Poissons Ratio (x) = 1.18878 0.67719
# Poissons Ratio (y) = 0.52994 -0.36885
# Poissons Ratio (z) = 0.27808 -0.33978
#
# Static dielectric constant tensor:
#      x y z
#    x 1.831600 -0.021760 0.014310 
#    y -0.021760 1.797030 0.004960 
#    z 0.014310 0.004960 1.868120 
# 
# From -- ./inp_files/274359.got.cif
#   From: 2010.05.17/outbox.cif.g08.bks.cpg/sg2_138_cif.got.tgz:274359.got - 2010.06.03 11:33:40.
