data_PCOD9024985
_publ_section_title
;
Structure prediction by ZEFSAII (Michael W. Deem and Ramdas Pophale) SiO2 
 PCOD9024985
Probable space group: P -1
;
_chemical_formula_sum "Si O2"
_cell_formula_units_Z 16
_cell_length_a 20.597964
_cell_length_b 22.952542
_cell_length_c 9.303048
_cell_angle_alpha 142.152072
_cell_angle_beta 29.718565
_cell_angle_gamma 161.389342
_cell_volume 680.142229
_symmetry_space_group_name_H-M "P -1"
_symmetry_group_IT_number 2
_symmetry_cell_setting 'triclinic'
loop_
_space_group_symop_operation_xyz
x,y,z
-x,-y,-z
loop_
_atom_site_type_symbol
_atom_site_label
_atom_site_fract_x
_atom_site_fract_y
_atom_site_fract_z
Si Si1 0.211970 0.355355 0.733163
Si Si2 0.586313 0.281447 0.307489
Si Si3 0.510929 0.028244 0.864631
Si Si4 0.763958 0.767895 0.122888
Si Si5 0.617532 0.637837 0.835183
Si Si6 0.649204 0.332876 0.631400
Si Si7 0.011106 0.401106 0.055496
Si Si8 0.180262 0.929908 0.813982
O O1 0.500000 0.500000 0.500000
O O2 0.173233 0.264657 0.491924
O O3 0.190235 0.451638 0.915179
O O4 0.003313 0.205257 0.963478
O O5 0.347672 0.199200 0.568755
O O6 0.605125 0.280482 0.442423
O O7 0.557472 0.168760 0.051432
O O8 0.841667 0.494693 0.175941
O O9 0.738502 0.113660 0.513545
O O10 0.245129 0.823193 0.909026
O O11 0.500000 0.000000 0.000000
O O12 0.560697 0.563884 0.177795
O O13 0.759650 0.754685 0.934894
O O14 0.030918 0.907511 0.951182
O O15 0.423004 0.601405 0.092720
O O16 0.917239 0.447576 0.372614
O O17 0.443283 0.149030 0.767364
#
# Coordination Sequence:
#
# PCOD9024985 Si02
#       8
#     2   2   2   2   2   2   2   2
#     4  12  25  46  68  97 141 193 227 280 347 415
#     4  11  21  43  69 106 141 171 234 289 349 404
#     4  11  25  41  69 110 137 180 224 281 359 402
#     4  10  22  40  69 101 129 176 230 290 337 399
#     4  10  22  40  66  99 128 175 234 271 350 400
#     4  10  24  39  64 106 131 179 225 284 353 404
#     4  11  24  43  69  99 143 181 226 289 340 413
#     4  11  24  44  65  98 147 172 227 288 336 420
#
# _framework density 23.524491000000001
#
# number of rings (size 3 to 8) (size 9 to 14) (size 15 to 20)
#    0.000    1.250    5.000    0.375    3.500    5.500 
#    0.000    5.000    0.000    0.000    0.000    0.000 
#    0.000    0.000    0.000    0.000    0.000    0.000 
#
# Total GULP energy -89487.726109 kJ/mol
# GULP energy per Si atom -5592.982882 kJ/mol
# Density = 2.347095 g / cm^3
# Si number density = 23.524491 Si / 1000 Ang^3
#
#
#
# Elastic Constant Matrix: (Units=GPa)
#
#
# Indices 1 2 3 4 5 6 
#
# 1 90.3961 19.9523 76.3755 3.7570 -8.6436 -24.5947
# 2 19.9523 45.1344 41.1670 -11.3421 -0.0055 -20.9631
# 3 76.3755 41.1670 203.7314 -3.3802 -9.1001 -25.1417
# 4 3.7570 -11.3421 -3.3802 37.7571 -19.6617 -2.9686
# 5 -8.6436 -0.0055 -9.1001 -19.6617 50.7230 -2.9203
# 6 -24.5947 -20.9631 -25.1417 -2.9686 -2.9203 28.1982
#
#
#
# Elastic Compliance Matrix: (Units=1/GPa)
#
#
# Indices 1 2 3 4 5 6 
#
# 1 0.019971 0.005056 -0.006276 0.002408 0.004148 0.016265
# 2 0.005056 0.049321 -0.006199 0.022386 0.010678 0.039011
# 3 -0.006276 -0.006199 0.008137 -0.000781 -0.000081 -0.002918
# 4 0.002408 0.022386 -0.000781 0.044764 0.019048 0.024732
# 5 0.004148 0.010678 -0.000081 0.019048 0.028740 0.016466
# 6 0.016265 0.039011 -0.002918 0.024732 0.016466 0.080359
#
#
# Mechanical properties :
#
#
# Convention : Reuss Voigt Hill
#
# Bulk Modulus (GPa) = 15.97669 68.25017 42.11343
# Shear Modulus (GPa) = 18.72710 36.78679 27.75694
#
# Velocity S-wave (km/s) = 2.82453 3.95874 3.43872
# Velocity P-wave (km/s) = 4.17655 7.06901 5.80579
#
# Compressibility (1/GPa) = 0.06259120
#
# Stress axis : x y z
#
# Youngs Moduli (GPa) = 50.07304 20.27543 122.89378
#
# Poissons Ratio (x) = -0.10251 0.77128
# Poissons Ratio (y) = -0.25317 0.76179
# Poissons Ratio (z) = 0.31426 0.12568
#
# Static dielectric constant tensor:
#      x y z
#    x 1.926620 0.019820 -0.004530 
#    y 0.019820 1.929190 0.009740 
#    z -0.004530 0.009740 1.887020 
# 
# From -- ./inp_files/350010.got.cif
#   From: 2010.05.17/outbox.cif.g08.bks.cpg/sg2_176_cif.got.tgz:350010.got - 2010.06.03 11:33:40.
