data_PCOD9024947
_publ_section_title
;
Structure prediction by ZEFSAII (Michael W. Deem and Ramdas Pophale) SiO2 
 PCOD9024947
Probable space group: P -1
;
_chemical_formula_sum "Si O2"
_cell_formula_units_Z 11
_cell_length_a 9.782183
_cell_length_b 9.438233
_cell_length_c 5.203575
_cell_angle_alpha 72.621314
_cell_angle_beta 71.860010
_cell_angle_gamma 93.264344
_cell_volume 429.713584
_symmetry_space_group_name_H-M "P -1"
_symmetry_group_IT_number 2
_symmetry_cell_setting 'triclinic'
loop_
_space_group_symop_operation_xyz
x,y,z
-x,-y,-z
loop_
_atom_site_type_symbol
_atom_site_label
_atom_site_fract_x
_atom_site_fract_y
_atom_site_fract_z
Si Si1 0.264669 0.745864 0.126274
Si Si2 0.153611 0.225420 0.011934
Si Si3 0.382871 0.147371 0.580542
Si Si4 0.249801 0.397705 0.372803
Si Si5 0.500000 0.000000 0.000000
Si Si6 0.840942 0.115646 0.380032
O O1 0.273914 0.575115 0.274337
O O2 0.178976 0.818054 0.363499
O O3 0.421575 0.852203 0.970565
O O4 0.195784 0.767708 0.878636
O O5 0.189305 0.338679 0.165252
O O6 0.009507 0.110416 0.221944
O O7 0.289553 0.140031 0.913852
O O8 0.144788 0.321790 0.704704
O O9 0.391462 0.317984 0.389540
O O10 0.261908 0.043990 0.532427
O O11 0.520629 0.095995 0.656693
#
# Coordination Sequence:
#
# PCOD9024947 Si02
#       6
#     2   2   2   2   1   2
#     4  11  25  42  64  98 121 175 203 265 304 381
#     4  10  22  40  66  97 130 164 200 264 305 387
#     4   9  24  41  66  94 123 171 209 261 306 374
#     4  10  23  40  63  98 131 157 215 245 334 355
#     4  10  24  48  66  86 128 162 226 258 312 362
#     4  11  23  40  68  93 134 162 214 241 323 370
#
# _framework density 25.598447
#
# number of rings (size 3 to 8) (size 9 to 14) (size 15 to 20)
#    1.091    0.727    0.000    2.727    5.091    8.727 
#    0.000    0.909    0.000    0.000    0.000    0.000 
#    0.000    0.000    0.000    0.000    0.000    0.000 
#
# Total GULP energy -61292.787029 kJ/mol
# GULP energy per Si atom -5572.071548 kJ/mol
# Density = 2.554018 g / cm^3
# Si number density = 25.598447 Si / 1000 Ang^3
#
#
#
# Elastic Constant Matrix: (Units=GPa)
#
#
# Indices 1 2 3 4 5 6 
#
# 1 20.0611 -26.8037 11.5654 15.6737 -18.7292 20.2755
# 2 -26.8037 95.3613 67.0173 7.0160 -7.8447 13.4946
# 3 11.5654 67.0173 131.4355 2.7440 28.9985 -25.6666
# 4 15.6737 7.0160 2.7440 38.8321 10.5954 -2.3562
# 5 -18.7292 -7.8447 28.9985 10.5954 34.7994 12.7074
# 6 20.2755 13.4946 -25.6666 -2.3562 12.7074 0.0081
#
#
#
# Elastic Compliance Matrix: (Units=1/GPa)
#
#
# Indices 1 2 3 4 5 6 
#
# 1 0.014420 -0.004024 0.006542 -0.002555 -0.006009 0.022427
# 2 -0.004024 0.008133 -0.000978 0.001897 -0.003846 0.010272
# 3 0.006542 -0.000978 0.005930 -0.003789 0.001880 -0.006482
# 4 -0.002555 0.001897 -0.003789 0.026083 -0.000745 -0.013655
# 5 -0.006009 -0.003846 0.001880 -0.000745 0.017320 0.016364
# 6 0.022427 0.010272 -0.006482 -0.013655 0.016364 0.020760
#
#
# Mechanical properties :
#
#
# Convention : Reuss Voigt Hill
#
# Bulk Modulus (GPa) = 31.68433 38.93512 35.30972
# Shear Modulus (GPa) = 49.95647 27.73319 38.84483
#
# Velocity S-wave (km/s) = 4.42242 3.29507 3.89970
# Velocity P-wave (km/s) = 6.20334 5.45157 5.83956
#
# Compressibility (1/GPa) = 0.03156135
#
# Stress axis : x y z
#
# Youngs Moduli (GPa) = 69.35035 122.95555 168.63926
#
# Poissons Ratio (x) = 0.49480 -1.10317
# Poissons Ratio (y) = 0.27908 0.16491
# Poissons Ratio (z) = -0.45366 0.12024
#
# Static dielectric constant tensor:
#      x y z
#    x 2.861240 -0.238590 0.100270 
#    y -0.238590 2.002250 0.068850 
#    z 0.100270 0.068850 2.169140 
# 
# From -- ./inp_files/57440.got.cif
#   From: 2010.05.17/outbox.cif.g08.bks.cpg/sg2_29_cif.got.tgz:57440.got - 2010.06.03 11:33:40.
