data_PCOD9024877
_publ_section_title
;
Structure prediction by ZEFSAII (Michael W. Deem and Ramdas Pophale) SiO2 
 PCOD9024877
Probable space group: P -1
;
_chemical_formula_sum "Si O2"
_cell_formula_units_Z 15
_cell_length_a 11.712009
_cell_length_b 11.839668
_cell_length_c 11.294064
_cell_angle_alpha 59.554286
_cell_angle_beta 31.716013
_cell_angle_gamma 68.073114
_cell_volume 704.028236
_symmetry_space_group_name_H-M "P -1"
_symmetry_group_IT_number 2
_symmetry_cell_setting 'triclinic'
loop_
_space_group_symop_operation_xyz
x,y,z
-x,-y,-z
loop_
_atom_site_type_symbol
_atom_site_label
_atom_site_fract_x
_atom_site_fract_y
_atom_site_fract_z
Si Si1 0.000000 0.500000 0.000000
Si Si2 0.820132 0.875348 0.751366
Si Si3 0.580977 0.825084 0.226300
Si Si4 0.024636 0.716057 0.460157
Si Si5 0.425667 0.884331 0.924175
Si Si6 0.417819 0.365581 0.214920
Si Si7 0.739867 0.376859 0.504117
Si Si8 0.534691 0.391621 0.371230
O O1 0.938759 0.444288 0.216199
O O2 0.782030 0.404747 0.191032
O O3 0.898883 0.758865 0.664974
O O4 0.589380 0.898661 0.884113
O O5 0.772099 0.839661 0.949980
O O6 0.000000 0.000000 0.500000
O O7 0.362481 0.765821 0.378023
O O8 0.603990 0.720198 0.365752
O O9 0.558193 0.969206 0.220948
O O10 0.845064 0.655755 0.558596
O O11 0.193920 0.626736 0.415257
O O12 0.177022 0.840275 0.206366
O O13 0.497198 0.764674 0.847945
O O14 0.496517 0.368688 0.278708
O O15 0.500000 0.500000 0.000000
O O16 0.547621 0.467320 0.608020
#
# Coordination Sequence:
#
# PCOD9024877 Si02
#       8
#     1   2   2   2   2   2   2   2
#     4  10  22  40  66  94 130 178 208 266 350 382
#     4  11  21  37  67 101 133 169 222 276 341 387
#     4  11  22  41  66  97 139 166 216 288 329 389
#     4  11  23  39  70  95 128 178 221 281 328 388
#     4  11  23  43  64 100 128 175 233 269 328 400
#     4  11  26  45  68  94 134 177 229 269 327 404
#     4  11  23  39  65 100 135 167 224 274 332 392
#     4  11  26  45  63 102 138 174 221 274 331 403
#
# _framework density 21.305962999999998
#
# number of rings (size 3 to 8) (size 9 to 14) (size 15 to 20)
#    0.000    1.067    2.667    4.400    5.600    3.733 
#    0.000    0.667    0.000    0.000    0.000    0.000 
#    0.000    0.000    0.000    0.000    0.000    0.000 
#
# Total GULP energy -83546.627939 kJ/mol
# GULP energy per Si atom -5569.775196 kJ/mol
# Density = 2.125747 g / cm^3
# Si number density = 21.305963 Si / 1000 Ang^3
#
#
#
# Elastic Constant Matrix: (Units=GPa)
#
#
# Indices 1 2 3 4 5 6 
#
# 1 136.6095 33.1706 39.1155 -16.2972 7.4185 8.0912
# 2 33.1706 101.3890 19.6454 -17.5987 9.4523 12.9027
# 3 39.1155 19.6454 125.4194 -33.6489 3.6556 9.7214
# 4 -16.2972 -17.5987 -33.6489 22.7594 -0.7119 -0.8967
# 5 7.4185 9.4523 3.6556 -0.7119 37.3459 -0.5637
# 6 8.0912 12.9027 9.7214 -0.8967 -0.5637 18.8470
#
#
#
# Elastic Compliance Matrix: (Units=1/GPa)
#
#
# Indices 1 2 3 4 5 6 
#
# 1 0.008656 -0.001827 -0.001665 0.002230 -0.001075 -0.001532
# 2 -0.001827 0.013656 0.002672 0.012728 -0.003255 -0.009435
# 3 -0.001665 0.002672 0.014672 0.022218 -0.001474 -0.007669
# 4 0.002230 0.012728 0.022218 0.087412 -0.004431 -0.017105
# 5 -0.001075 -0.003255 -0.001474 -0.004431 0.027935 0.004075
# 6 -0.001532 -0.009435 -0.007669 -0.017105 0.004075 0.063440
#
#
# Mechanical properties :
#
#
# Convention : Reuss Voigt Hill
#
# Bulk Modulus (GPa) = 28.29354 60.80900 44.55127
# Shear Modulus (GPa) = 21.81560 33.88954 27.85257
#
# Velocity S-wave (km/s) = 3.20335 3.99258 3.61954
# Velocity P-wave (km/s) = 5.19523 7.06095 6.19868
#
# Compressibility (1/GPa) = 0.03534376
#
# Stress axis : x y z
#
# Youngs Moduli (GPa) = 115.53218 73.22557 68.15559
#
# Poissons Ratio (x) = 0.13378 0.11348
# Poissons Ratio (y) = 0.21107 -0.18209
# Poissons Ratio (z) = 0.19236 -0.19563
#
# Static dielectric constant tensor:
#      x y z
#    x 1.874290 -0.080980 -0.062740 
#    y -0.080980 1.877400 0.070620 
#    z -0.062740 0.070620 1.818430 
# 
# From -- ./inp_files/70723.got.cif
#   From: 2010.05.17/outbox.cif.g08.bks.cpg/sg2_36_cif.got.tgz:70723.got - 2010.06.03 11:33:40.
