data_PCOD9024706
_publ_section_title
;
Structure prediction by ZEFSAII (Michael W. Deem and Ramdas Pophale) SiO2 
 PCOD9024706
Probable space group: P -1
;
_chemical_formula_sum "Si O2"
_cell_formula_units_Z 14
_cell_length_a 10.908432
_cell_length_b 21.466154
_cell_length_c 8.617483
_cell_angle_alpha 139.358634
_cell_angle_beta 141.252678
_cell_angle_gamma 27.873210
_cell_volume 573.626723
_symmetry_space_group_name_H-M "P -1"
_symmetry_group_IT_number 2
_symmetry_cell_setting 'triclinic'
loop_
_space_group_symop_operation_xyz
x,y,z
-x,-y,-z
loop_
_atom_site_type_symbol
_atom_site_label
_atom_site_fract_x
_atom_site_fract_y
_atom_site_fract_z
Si Si1 0.703491 0.369458 0.250097
Si Si2 0.530337 0.629594 0.663150
Si Si3 0.529757 0.946484 0.098593
Si Si4 0.592807 0.652853 0.289823
Si Si5 0.646826 0.817707 0.431740
Si Si6 0.859974 0.644433 0.830943
Si Si7 0.763601 0.088549 0.063200
O O1 0.572120 0.521052 0.396100
O O2 0.525374 0.383765 0.240899
O O3 0.028208 0.266744 0.421395
O O4 0.674655 0.314196 0.965598
O O5 0.802318 0.599752 0.840492
O O6 0.272692 0.791588 0.684789
O O7 0.528034 0.035482 0.383754
O O8 0.259272 0.977294 0.943377
O O9 0.500000 0.000000 0.000000
O O10 0.787232 0.780558 0.039478
O O11 0.627361 0.731311 0.358068
O O12 0.633462 0.682356 0.554791
O O13 0.843235 0.488827 0.197652
O O14 0.509073 0.842610 0.179288
O O15 0.000000 0.000000 0.000000
#
# Coordination Sequence:
#
# PCOD9024706 Si02
#       7
#     2   2   2   2   2   2   2
#     4  11  24  41  69 103 131 180 223 279 347 401
#     4  10  22  40  66 100 132 170 231 275 332 407
#     4  11  24  44  71 102 140 179 228 284 343 404
#     4  11  23  44  71  96 140 174 228 281 340 405
#     4  12  24  46  71  98 138 179 227 282 341 412
#     4  10  23  45  67 100 136 182 222 283 341 401
#     4  11  25  46  72  98 138 186 229 279 347 411
#
# _framework density 24.406115
#
# number of rings (size 3 to 8) (size 9 to 14) (size 15 to 20)
#    0.000    1.143    4.286    1.286    0.000    7.429 
#    0.000    5.714    0.000    0.000    0.000    0.000 
#    0.000    0.000    0.000    0.000    0.000    0.000 
#
# Total GULP energy -78277.730833 kJ/mol
# GULP energy per Si atom -5591.266488 kJ/mol
# Density = 2.435057 g / cm^3
# Si number density = 24.406115 Si / 1000 Ang^3
#
#
#
# Elastic Constant Matrix: (Units=GPa)
#
#
# Indices 1 2 3 4 5 6 
#
# 1 101.5300 39.7560 16.6406 4.7483 -2.8110 13.8939
# 2 39.7560 101.3580 56.0516 32.3454 5.7376 -0.5136
# 3 16.6406 56.0516 124.3198 13.9395 -2.2871 -5.0750
# 4 4.7483 32.3454 13.9395 56.8731 -4.9855 3.6315
# 5 -2.8110 5.7376 -2.2871 -4.9855 25.8142 6.5161
# 6 13.8939 -0.5136 -5.0750 3.6315 6.5161 45.9507
#
#
#
# Elastic Compliance Matrix: (Units=1/GPa)
#
#
# Indices 1 2 3 4 5 6 
#
# 1 0.013114 -0.007069 0.000936 0.003448 0.004990 -0.004921
# 2 -0.007069 0.020351 -0.007093 -0.010251 -0.008821 0.003643
# 3 0.000936 -0.007093 0.011016 0.001485 0.002858 0.000332
# 4 0.003448 -0.010251 0.001485 0.023757 0.008399 -0.004062
# 5 0.004990 -0.008821 0.002858 0.008399 0.045230 -0.008370
# 6 -0.004921 0.003643 0.000332 -0.004062 -0.008370 0.024836
#
#
# Mechanical properties :
#
#
# Convention : Reuss Voigt Hill
#
# Bulk Modulus (GPa) = 55.46840 61.34492 58.40666
# Shear Modulus (GPa) = 29.27986 40.04490 34.66238
#
# Velocity S-wave (km/s) = 3.46742 4.05504 3.77269
# Velocity P-wave (km/s) = 6.22955 6.86397 6.55444
#
# Compressibility (1/GPa) = 0.01802828
#
# Stress axis : x y z
#
# Youngs Moduli (GPa) = 76.25240 49.13865 90.77575
#
# Poissons Ratio (x) = 0.34738 -0.08499
# Poissons Ratio (y) = 0.53905 0.64390
# Poissons Ratio (z) = -0.07139 0.34856
#
# Static dielectric constant tensor:
#      x y z
#    x 1.991960 0.004960 0.021490 
#    y 0.004960 1.982100 -0.006270 
#    z 0.021490 -0.006270 1.933940 
# 
# From -- ./inp_files/282471.got.cif
#   From: 2010.05.17/outbox.cif.g08.bks.cpg/sg2_142_cif.got.tgz:282471.got - 2010.06.03 11:33:40.
