data_PCOD9024357
_publ_section_title
;
Structure prediction by ZEFSAII (Michael W. Deem and Ramdas Pophale) SiO2 
 PCOD9024357
Probable space group: P -1
;
_chemical_formula_sum "Si O2"
_cell_formula_units_Z 16
_cell_length_a 8.714637
_cell_length_b 8.632223
_cell_length_c 14.315667
_cell_angle_alpha 54.513403
_cell_angle_beta 46.470679
_cell_angle_gamma 49.736250
_cell_volume 577.689539
_symmetry_space_group_name_H-M "P -1"
_symmetry_group_IT_number 2
_symmetry_cell_setting 'triclinic'
loop_
_space_group_symop_operation_xyz
x,y,z
-x,-y,-z
loop_
_atom_site_type_symbol
_atom_site_label
_atom_site_fract_x
_atom_site_fract_y
_atom_site_fract_z
Si Si1 0.778305 0.422651 0.006643
Si Si2 0.872826 0.163464 0.575801
Si Si3 0.252513 0.990142 0.611006
Si Si4 0.094689 0.222670 0.778720
Si Si5 0.527684 0.991293 0.807692
Si Si6 0.758279 0.747427 0.020232
Si Si7 0.526957 0.470990 0.326053
Si Si8 0.695565 0.597542 0.739709
O O1 0.765756 0.658042 0.943111
O O2 0.515001 0.456020 0.112764
O O3 0.894651 0.271331 0.923488
O O4 0.977793 0.310850 0.039435
O O5 0.659893 0.387037 0.569287
O O6 0.735485 0.052349 0.729119
O O7 0.000000 0.000000 0.500000
O O8 0.074478 0.163992 0.557064
O O9 0.289757 0.759415 0.641895
O O10 0.500000 0.000000 0.500000
O O11 0.156128 0.043775 0.737921
O O12 0.962076 0.440529 0.702687
O O13 0.329477 0.161751 0.761232
O O14 0.637756 0.803668 0.753152
O O15 0.380751 0.024946 0.954107
O O16 0.648454 0.605480 0.174994
O O17 0.369778 0.415632 0.335404
#
# Coordination Sequence:
#
# PCOD9024357 Si02
#       8
#     2   2   2   2   2   2   2   2
#     4   9  19  37  63  94 134 173 212 263 313 379
#     4  11  25  44  67  95 130 165 212 273 330 381
#     4  12  26  44  70  98 123 168 221 271 323 385
#     4  11  22  40  64  96 129 168 219 266 307 384
#     4  10  22  40  64  93 133 167 214 262 321 377
#     4   8  18  38  61  92 137 170 206 261 323 376
#     4  10  22  43  67  93 132 170 210 267 325 381
#     4  11  21  39  67  98 130 175 213 262 320 376
#
# _framework density 27.696536999999999
#
# number of rings (size 3 to 8) (size 9 to 14) (size 15 to 20)
#    0.000    1.750    2.500    1.125    0.000    7.000 
#    2.250    0.625    0.000    0.000    0.000    0.000 
#    0.000    0.000    0.000    0.000    0.000    0.000 
#
# Total GULP energy -89190.200955 kJ/mol
# GULP energy per Si atom -5574.387560 kJ/mol
# Density = 2.763350 g / cm^3
# Si number density = 27.696537 Si / 1000 Ang^3
#
#
#
# Elastic Constant Matrix: (Units=GPa)
#
#
# Indices 1 2 3 4 5 6 
#
# 1 101.5350 26.4453 22.3216 14.0642 -13.7909 4.7666
# 2 26.4453 171.3537 47.5090 57.2477 -5.3330 7.4168
# 3 22.3216 47.5090 90.5127 38.2625 -2.0662 14.2268
# 4 14.0642 57.2477 38.2625 61.0219 14.9160 4.4581
# 5 -13.7909 -5.3330 -2.0662 14.9160 43.4100 14.7557
# 6 4.7666 7.4168 14.2268 4.4581 14.7557 38.7891
#
#
#
# Elastic Compliance Matrix: (Units=1/GPa)
#
#
# Indices 1 2 3 4 5 6 
#
# 1 0.011400 -0.000209 -0.000838 -0.003060 0.005566 -0.002819
# 2 -0.000209 0.009499 -0.000250 -0.009823 0.005349 -0.002605
# 3 -0.000838 -0.000250 0.017844 -0.011981 0.007321 -0.007802
# 4 -0.003060 -0.009823 -0.011981 0.037760 -0.018960 0.009522
# 5 0.005566 0.005349 0.007321 -0.018960 0.037989 -0.016664
# 6 -0.002819 -0.002605 -0.007802 0.009522 -0.016664 0.034731
#
#
# Mechanical properties :
#
#
# Convention : Reuss Voigt Hill
#
# Bulk Modulus (GPa) = 27.66361 61.77258 44.71809
# Shear Modulus (GPa) = 30.51262 46.45257 38.48260
#
# Velocity S-wave (km/s) = 3.32275 4.09980 3.73156
# Velocity P-wave (km/s) = 4.97300 6.69051 5.89464
#
# Compressibility (1/GPa) = 0.03614857
#
# Stress axis : x y z
#
# Youngs Moduli (GPa) = 87.72151 105.27815 56.04116
#
# Poissons Ratio (x) = 0.02206 0.04694
# Poissons Ratio (y) = 0.01838 0.01400
# Poissons Ratio (z) = 0.07347 0.02630
#
# Static dielectric constant tensor:
#      x y z
#    x 2.145630 -0.075060 0.135460 
#    y -0.075060 2.448510 -0.085420 
#    z 0.135460 -0.085420 2.266340 
# 
# From -- ./inp_files/557095.got.cif
#   From: 2010.05.17/outbox.cif.g08.bks.cpg/sg2_279_cif.got.tgz:557095.got - 2010.06.03 11:33:40.
