data_PCOD9024277
_publ_section_title
;
Structure prediction by ZEFSAII (Michael W. Deem and Ramdas Pophale) SiO2 
 PCOD9024277
Probable space group: P -1
;
_chemical_formula_sum "Si O2"
_cell_formula_units_Z 16
_cell_length_a 18.098175
_cell_length_b 15.012017
_cell_length_c 27.659734
_cell_angle_alpha 160.677430
_cell_angle_beta 19.766529
_cell_angle_gamma 160.122285
_cell_volume 743.222886
_symmetry_space_group_name_H-M "P -1"
_symmetry_group_IT_number 2
_symmetry_cell_setting 'triclinic'
loop_
_space_group_symop_operation_xyz
x,y,z
-x,-y,-z
loop_
_atom_site_type_symbol
_atom_site_label
_atom_site_fract_x
_atom_site_fract_y
_atom_site_fract_z
Si Si1 0.953085 0.852551 0.899644
Si Si2 0.723380 0.847690 0.230783
Si Si3 0.818012 0.154830 0.605399
Si Si4 0.682384 0.826315 0.669126
Si Si5 0.792681 0.193655 0.451460
Si Si6 0.369015 0.851631 0.788003
Si Si7 0.238418 0.180459 0.629716
Si Si8 0.904465 0.353978 0.870358
O O1 0.858269 0.491406 0.767326
O O2 0.208085 0.037215 0.807095
O O3 0.754684 0.931451 0.035349
O O4 0.000000 0.000000 0.000000
O O5 0.453530 0.768881 0.375138
O O6 0.878391 0.131692 0.315483
O O7 0.790717 0.580376 0.062487
O O8 0.040324 0.129138 0.482974
O O9 0.548156 0.896001 0.655678
O O10 0.828064 0.080596 0.504351
O O11 0.559308 0.930696 0.755848
O O12 0.500992 0.471006 0.606642
O O13 0.705629 0.037037 0.808459
O O14 0.000000 0.500000 0.500000
O O15 0.757261 0.933886 0.378248
O O16 0.134751 0.528086 0.779582
O O17 0.033541 0.294200 0.806199
#
# Coordination Sequence:
#
# PCOD9024277 Si02
#       8
#     2   2   2   2   2   2   2   2
#     4  11  25  43  65  96 135 171 213 267 326 383
#     4  10  24  44  65  95 129 163 220 263 318 388
#     4  11  23  38  61  95 131 172 218 262 313 388
#     4  10  22  40  64  89 134 174 209 267 316 379
#     4  11  24  44  71  94 124 169 211 269 324 375
#     4  10  23  38  60  93 129 172 218 252 322 379
#     4  10  23  41  65  94 127 167 218 259 323 379
#     4   9  22  42  62  95 131 166 214 263 318 385
#
# _framework density 21.527863
#
# number of rings (size 3 to 8) (size 9 to 14) (size 15 to 20)
#    0.000    1.750    0.000    2.250    7.000   12.000 
#    0.000    1.250    0.000    0.000    0.000    0.000 
#    0.000    0.000    0.000    0.000    0.000    0.000 
#
# Total GULP energy -89280.023987 kJ/mol
# GULP energy per Si atom -5580.001499 kJ/mol
# Density = 2.147886 g / cm^3
# Si number density = 21.527863 Si / 1000 Ang^3
#
#
#
# Elastic Constant Matrix: (Units=GPa)
#
#
# Indices 1 2 3 4 5 6 
#
# 1 50.3838 4.0339 48.6303 -5.4159 -5.5965 13.5311
# 2 4.0339 38.9419 48.9188 8.9414 -4.6538 24.0646
# 3 48.6303 48.9188 107.0826 17.1009 -2.7114 -4.1579
# 4 -5.4159 8.9414 17.1009 20.5844 -2.0100 14.6523
# 5 -5.5965 -4.6538 -2.7114 -2.0100 38.2312 7.7484
# 6 13.5311 24.0646 -4.1579 14.6523 7.7484 16.6504
#
#
#
# Elastic Compliance Matrix: (Units=1/GPa)
#
#
# Indices 1 2 3 4 5 6 
#
# 1 0.012799 -0.014780 0.002432 -0.005523 -0.003724 0.018160
# 2 -0.014780 0.015173 0.004960 -0.028654 -0.005325 0.019013
# 3 0.002432 0.004960 0.003928 0.009094 0.005513 -0.018732
# 4 -0.005523 -0.028654 0.009094 0.043054 -0.003834 0.012069
# 5 -0.003724 -0.005325 0.005513 -0.003834 0.024310 0.004160
# 6 0.018160 0.019013 -0.018732 0.012069 0.004160 0.000587
#
#
# Mechanical properties :
#
#
# Convention : Reuss Voigt Hill
#
# Bulk Modulus (GPa) = 58.39432 44.39714 51.39573
# Shear Modulus (GPa) = 41.55048 21.41487 31.48267
#
# Velocity S-wave (km/s) = 4.39803 3.15739 3.82830
# Velocity P-wave (km/s) = 7.27833 5.82752 6.59296
#
# Compressibility (1/GPa) = 0.01712495
#
# Stress axis : x y z
#
# Youngs Moduli (GPa) = 78.12870 65.90596 254.56591
#
# Poissons Ratio (x) = 0.97407 -0.61910
# Poissons Ratio (y) = 1.15472 -1.26261
# Poissons Ratio (z) = -0.19001 -0.32688
#
# Static dielectric constant tensor:
#      x y z
#    x 1.758300 0.011640 -0.020260 
#    y 0.011640 1.785180 -0.008090 
#    z -0.020260 -0.008090 1.773800 
# 
# From -- ./inp_files/139138.got.cif
#   From: 2010.05.17/outbox.cif.g08.bks.cpg/sg2_70_cif.got.tgz:139138.got - 2010.06.03 11:33:40.
