data_PCOD9024555
_publ_section_title
;
Structure prediction by ZEFSAII (Michael W. Deem and Ramdas Pophale) SiO2 
 PCOD9024555
Probable space group: P -1
;
_chemical_formula_sum "Si O2"
_cell_formula_units_Z 16
_cell_length_a 6.950340
_cell_length_b 11.424426
_cell_length_c 9.564793
_cell_angle_alpha 105.847264
_cell_angle_beta 111.140437
_cell_angle_gamma 52.280602
_cell_volume 558.912562
_symmetry_space_group_name_H-M "P -1"
_symmetry_group_IT_number 2
_symmetry_cell_setting 'triclinic'
loop_
_space_group_symop_operation_xyz
x,y,z
-x,-y,-z
loop_
_atom_site_type_symbol
_atom_site_label
_atom_site_fract_x
_atom_site_fract_y
_atom_site_fract_z
Si Si1 0.399754 0.695634 0.478058
Si Si2 0.872282 0.383445 0.432073
Si Si3 0.554684 0.987999 0.818325
Si Si4 0.101010 0.564732 0.850270
Si Si5 0.331360 0.694417 0.064476
Si Si6 0.234223 0.944741 0.331424
Si Si7 0.692130 0.122753 0.131706
Si Si8 0.046758 0.307525 0.743312
O O1 0.681910 0.558795 0.476581
O O2 0.309634 0.670722 0.594994
O O3 0.325696 0.858006 0.472640
O O4 0.213921 0.678259 0.322372
O O5 0.978325 0.362004 0.298810
O O6 0.082700 0.307619 0.582953
O O7 0.653716 0.973058 0.682790
O O8 0.526806 0.859979 0.824177
O O9 0.281868 0.148894 0.804854
O O10 0.721263 0.007316 0.980978
O O11 0.104719 0.673122 0.997860
O O12 0.017014 0.457381 0.832429
O O13 0.402064 0.450314 0.872022
O O14 0.351956 0.743594 0.929167
O O15 0.311046 0.817238 0.197010
O O16 0.937491 0.049068 0.266733
#
# Coordination Sequence:
#
# PCOD9024555 Si02
#       8
#     2   2   2   2   2   2   2   2
#     4   9  18  30  53  79 106 131 179 225 264 298
#     4   9  18  32  53  74 108 142 173 225 260 307
#     4  10  18  29  55  80 101 129 181 224 259 307
#     4  11  19  33  50  77 112 141 174 208 270 330
#     4  10  21  31  52  74 113 146 164 214 272 325
#     4  11  18  35  55  78 107 138 179 225 263 303
#     4  10  19  34  52  78 106 141 181 219 260 305
#     4  10  17  31  53  82 100 135 182 224 253 307
#
# _framework density 28.627015
#
# number of rings (size 3 to 8) (size 9 to 14) (size 15 to 20)
#    0.750    1.250    5.000    1.875    0.000    0.000 
#    0.000    0.625   11.000    3.000    0.000    5.250 
#    0.000    0.000    0.000    0.000    0.000    0.000 
#
# Total GULP energy -89549.468076 kJ/mol
# GULP energy per Si atom -5596.841755 kJ/mol
# Density = 2.856186 g / cm^3
# Si number density = 28.627015 Si / 1000 Ang^3
#
#
#
# Elastic Constant Matrix: (Units=GPa)
#
#
# Indices 1 2 3 4 5 6 
#
# 1 104.1327 30.4880 7.9136 -6.7335 -2.1178 44.3358
# 2 30.4880 125.4893 26.3588 -29.9772 4.9417 14.9373
# 3 7.9136 26.3588 94.3102 -13.1551 -10.0820 3.0507
# 4 -6.7335 -29.9772 -13.1551 48.5941 14.0135 -5.8543
# 5 -2.1178 4.9417 -10.0820 14.0135 43.7210 -10.6939
# 6 44.3358 14.9373 3.0507 -5.8543 -10.6939 67.6439
#
#
#
# Elastic Compliance Matrix: (Units=1/GPa)
#
#
# Indices 1 2 3 4 5 6 
#
# 1 0.014054 -0.002285 -0.000426 -0.000292 -0.001245 -0.008909
# 2 -0.002285 0.010952 -0.002334 0.006949 -0.004334 -0.000899
# 3 -0.000426 -0.002334 0.011701 0.000948 0.002832 0.000797
# 4 -0.000292 0.006949 0.000948 0.027793 -0.009612 -0.000500
# 5 -0.001245 -0.004334 0.002832 -0.009612 0.028330 0.005292
# 6 -0.008909 -0.000899 0.000797 -0.000500 0.005292 0.021579
#
#
# Mechanical properties :
#
#
# Convention : Reuss Voigt Hill
#
# Bulk Modulus (GPa) = 37.57219 50.38368 43.97794
# Shear Modulus (GPa) = 37.48935 49.26992 43.37964
#
# Velocity S-wave (km/s) = 3.62274 4.15311 3.89696
# Velocity P-wave (km/s) = 5.53644 6.37464 5.97027
#
# Compressibility (1/GPa) = 0.02661543
#
# Stress axis : x y z
#
# Youngs Moduli (GPa) = 71.15590 91.30746 85.46523
#
# Poissons Ratio (x) = 0.20865 0.03643
# Poissons Ratio (y) = 0.16260 0.19949
# Poissons Ratio (z) = 0.03033 0.21313
#
# Static dielectric constant tensor:
#      x y z
#    x 2.244130 0.069560 -0.063730 
#    y 0.069560 2.270600 0.101810 
#    z -0.063730 0.101810 2.319800 
# 
# From -- ./inp_files/387895.got.cif
#   From: 2010.05.17/outbox.cif.g08.bks.cpg/sg2_194_cif.got.tgz:387895.got - 2010.06.03 11:33:40.
