data_PCOD9024776
_publ_section_title
;
Structure prediction by ZEFSAII (Michael W. Deem and Ramdas Pophale) SiO2 
 PCOD9024776
Probable space group: P -1
;
_chemical_formula_sum "Si O2"
_cell_formula_units_Z 16
_cell_length_a 11.258025
_cell_length_b 9.117291
_cell_length_c 20.016611
_cell_angle_alpha 140.392716
_cell_angle_beta 59.355935
_cell_angle_gamma 87.811553
_cell_volume 697.303223
_symmetry_space_group_name_H-M "P -1"
_symmetry_group_IT_number 2
_symmetry_cell_setting 'triclinic'
loop_
_space_group_symop_operation_xyz
x,y,z
-x,-y,-z
loop_
_atom_site_type_symbol
_atom_site_label
_atom_site_fract_x
_atom_site_fract_y
_atom_site_fract_z
Si Si1 0.296370 0.861472 0.889582
Si Si2 0.612928 0.251463 0.815176
Si Si3 0.533820 0.775383 0.469544
Si Si4 0.280560 0.766254 0.610135
Si Si5 0.470442 0.096436 0.238213
Si Si6 0.623921 0.591178 0.810315
Si Si7 0.952919 0.255070 0.245753
Si Si8 0.094354 0.490453 0.378331
O O1 0.333387 0.610994 0.738402
O O2 0.308782 0.082967 0.921445
O O3 0.512376 0.603141 0.784701
O O4 0.099500 0.075521 0.073516
O O5 0.600259 0.452712 0.830461
O O6 0.496623 0.153584 0.807102
O O7 0.500000 0.500000 0.000000
O O8 0.874557 0.851422 0.607462
O O9 0.303613 0.971002 0.633434
O O10 0.701666 0.651017 0.434051
O O11 0.500000 0.000000 0.500000
O O12 0.500000 0.500000 0.500000
O O13 0.333184 0.483623 0.447100
O O14 0.078050 0.949406 0.779387
O O15 0.310245 0.212065 0.265867
O O16 0.862759 0.372189 0.642144
O O17 0.500000 0.000000 0.000000
O O18 0.051381 0.308279 0.288683
#
# Coordination Sequence:
#
# PCOD9024776 Si02
#       8
#     2   2   2   2   2   2   2   2
#     4  10  22  40  66  86 126 167 204 256 319 373
#     4  12  25  37  61  94 129 166 211 258 310 377
#     4  10  23  42  62  91 123 160 214 262 309 369
#     4   9  20  39  64  85 118 164 206 250 313 359
#     4  10  22  42  61  93 129 165 208 263 316 371
#     4  11  23  43  61  92 131 168 206 258 318 381
#     4  11  21  39  68  87 120 166 211 251 322 378
#     4  11  23  40  64  91 130 166 212 256 324 379
#
# _framework density 22.945543000000001
#
# number of rings (size 3 to 8) (size 9 to 14) (size 15 to 20)
#    0.000    1.500    2.500    2.625    1.750    0.000 
#    2.250    1.875    0.000    0.000    0.000    0.000 
#    0.000    0.000    0.000    0.000    0.000    0.000 
#
# Total GULP energy -89306.023315 kJ/mol
# GULP energy per Si atom -5581.626457 kJ/mol
# Density = 2.289332 g / cm^3
# Si number density = 22.945543 Si / 1000 Ang^3
#
#
#
# Elastic Constant Matrix: (Units=GPa)
#
#
# Indices 1 2 3 4 5 6 
#
# 1 112.6947 25.6760 6.1364 -6.7647 2.8512 10.0177
# 2 25.6760 198.8347 31.0111 -43.9308 -18.4869 45.5165
# 3 6.1364 31.0111 82.4110 -38.3809 -5.8584 16.9720
# 4 -6.7647 -43.9308 -38.3809 47.5722 8.3593 -12.2149
# 5 2.8512 -18.4869 -5.8584 8.3593 23.6110 -18.3510
# 6 10.0177 45.5165 16.9720 -12.2149 -18.3510 36.1628
#
#
#
# Elastic Compliance Matrix: (Units=1/GPa)
#
#
# Indices 1 2 3 4 5 6 
#
# 1 0.009577 -0.000526 0.000563 0.001092 -0.005419 -0.004637
# 2 -0.000526 0.008623 0.002388 0.007625 -0.004101 -0.011334
# 3 0.000563 0.002388 0.021307 0.018018 -0.007909 -0.011089
# 4 0.001092 0.007625 0.018018 0.042297 -0.012927 -0.010630
# 5 -0.005419 -0.004101 -0.007909 -0.012927 0.077743 0.045459
# 6 -0.004637 -0.011334 -0.011089 -0.010630 0.045459 0.067885
#
#
# Mechanical properties :
#
#
# Convention : Reuss Voigt Hill
#
# Bulk Modulus (GPa) = 22.54378 57.73194 40.13786
# Shear Modulus (GPa) = 21.06459 43.54368 32.30414
#
# Velocity S-wave (km/s) = 3.03318 4.36098 3.75622
# Velocity P-wave (km/s) = 4.70246 7.11144 6.02850
#
# Compressibility (1/GPa) = 0.04435813
#
# Stress axis : x y z
#
# Youngs Moduli (GPa) = 104.41184 115.97496 46.93372
#
# Poissons Ratio (x) = 0.06096 -0.02643
# Poissons Ratio (y) = 0.05488 -0.11209
# Poissons Ratio (z) = -0.05879 -0.27698
#
# Static dielectric constant tensor:
#      x y z
#    x 1.855930 0.017080 -0.020430 
#    y 0.017080 1.995490 -0.043190 
#    z -0.020430 -0.043190 1.912810 
# 
# From -- ./inp_files/594254.got.cif
#   From: 2010.05.17/outbox.cif.g08.bks.cpg/sg2_298_cif.got.tgz:594254.got - 2010.06.03 11:33:40.
