data_PCOD9024146
_publ_section_title
;
Structure prediction by ZEFSAII (Michael W. Deem and Ramdas Pophale) SiO2 
 PCOD9024146
Probable space group: P -1
;
_chemical_formula_sum "Si O2"
_cell_formula_units_Z 14
_cell_length_a 12.445865
_cell_length_b 12.486720
_cell_length_c 5.196085
_cell_angle_alpha 93.519653
_cell_angle_beta 76.388086
_cell_angle_gamma 48.656385
_cell_volume 562.599346
_symmetry_space_group_name_H-M "P -1"
_symmetry_group_IT_number 2
_symmetry_cell_setting 'triclinic'
loop_
_space_group_symop_operation_xyz
x,y,z
-x,-y,-z
loop_
_atom_site_type_symbol
_atom_site_label
_atom_site_fract_x
_atom_site_fract_y
_atom_site_fract_z
Si Si1 0.856294 0.173376 0.842929
Si Si2 0.105619 0.323880 0.356683
Si Si3 0.178617 0.355268 0.818889
Si Si4 0.540089 0.086823 0.872372
Si Si5 0.455490 0.252792 0.452028
Si Si6 0.900066 0.900598 0.647821
Si Si7 0.350805 0.671825 0.532328
O O1 0.733437 0.277556 0.691213
O O2 0.009134 0.135075 0.672563
O O3 0.902170 0.015923 0.799868
O O4 0.776512 0.258887 0.165373
O O5 0.186626 0.261317 0.578737
O O6 0.029937 0.261140 0.321269
O O7 0.000000 0.500000 0.500000
O O8 0.220518 0.280299 0.060689
O O9 0.277500 0.388198 0.660712
O O10 0.000000 0.500000 0.000000
O O11 0.491522 0.131675 0.609520
O O12 0.721343 0.991461 0.759853
O O13 0.472391 0.219150 0.137105
O O14 0.500000 0.000000 0.000000
O O15 0.576322 0.259858 0.468980
O O16 0.500000 0.500000 0.500000
#
# Coordination Sequence:
#
# PCOD9024146 Si02
#       7
#     2   2   2   2   2   2   2
#     4  11  27  46  72 106 135 193 244 290 352 414
#     4  10  23  40  64  99 135 174 228 285 355 409
#     4  10  22  40  63  94 134 178 229 281 351 414
#     4  12  25  42  68 102 137 180 222 285 358 418
#     4  12  23  43  64  97 140 176 230 286 346 417
#     4  11  24  46  74 101 146 179 240 295 345 425
#     4  12  26  48  70 103 142 189 242 292 355 416
#
# _framework density 24.884492000000002
#
# number of rings (size 3 to 8) (size 9 to 14) (size 15 to 20)
#    0.000    0.857    2.857    3.429    0.000   11.429 
#    0.000    0.000    0.000    0.000    0.000    0.000 
#    0.000    0.000    0.000    0.000    0.000    0.000 
#
# Total GULP energy -78125.783747 kJ/mol
# GULP energy per Si atom -5580.413125 kJ/mol
# Density = 2.482785 g / cm^3
# Si number density = 24.884492 Si / 1000 Ang^3
#
#
#
# Elastic Constant Matrix: (Units=GPa)
#
#
# Indices 1 2 3 4 5 6 
#
# 1 105.2728 16.9943 39.4538 -13.0908 -27.8772 -1.3843
# 2 16.9943 116.4687 22.9854 3.1718 1.8225 -2.5798
# 3 39.4538 22.9854 158.0146 -4.3341 -11.8393 -5.9584
# 4 -13.0908 3.1718 -4.3341 21.7900 -13.4732 -1.2535
# 5 -27.8772 1.8225 -11.8393 -13.4732 55.7977 -5.8611
# 6 -1.3843 -2.5798 -5.9584 -1.2535 -5.8611 38.1088
#
#
#
# Elastic Compliance Matrix: (Units=1/GPa)
#
#
# Indices 1 2 3 4 5 6 
#
# 1 0.016096 -0.002521 -0.002181 0.017217 0.012081 0.002498
# 2 -0.002521 0.009349 -0.001104 -0.004983 -0.003030 -0.000261
# 3 -0.002181 -0.001104 0.007156 0.000820 0.000780 0.001112
# 4 0.017217 -0.004983 0.000820 0.074675 0.027720 0.007136
# 5 0.012081 -0.003030 0.000780 0.027720 0.031559 0.006121
# 6 0.002498 -0.000261 0.001112 0.007136 0.006121 0.027664
#
#
# Mechanical properties :
#
#
# Convention : Reuss Voigt Hill
#
# Bulk Modulus (GPa) = 47.64041 59.84700 53.74370
# Shear Modulus (GPa) = 27.01136 43.16082 35.08609
#
# Velocity S-wave (km/s) = 3.29822 4.16919 3.75901
# Velocity P-wave (km/s) = 5.80435 6.87592 6.36274
#
# Compressibility (1/GPa) = 0.02099058
#
# Stress axis : x y z
#
# Youngs Moduli (GPa) = 62.12564 106.96263 139.73353
#
# Poissons Ratio (x) = 0.26964 0.30472
# Poissons Ratio (y) = 0.15661 0.15428
# Poissons Ratio (z) = 0.13548 0.11809
#
# Static dielectric constant tensor:
#      x y z
#    x 2.269920 -0.503110 -0.009990 
#    y -0.503110 3.026030 0.023480 
#    z -0.009990 0.023480 1.947600 
# 
# From -- ./inp_files/71087.got.cif
#   From: 2010.05.17/outbox.cif.g08.bks.cpg/sg2_36_cif.got.tgz:71087.got - 2010.06.03 11:33:40.
