data_PCOD9024202
_publ_section_title
;
Structure prediction by ZEFSAII (Michael W. Deem and Ramdas Pophale) SiO2 
 PCOD9024202
Probable space group: P -1
;
_chemical_formula_sum "Si O2"
_cell_formula_units_Z 14
_cell_length_a 11.094986
_cell_length_b 5.386066
_cell_length_c 17.978736
_cell_angle_alpha 54.375483
_cell_angle_beta 140.405365
_cell_angle_gamma 129.219038
_cell_volume 520.541965
_symmetry_space_group_name_H-M "P -1"
_symmetry_group_IT_number 2
_symmetry_cell_setting 'triclinic'
loop_
_space_group_symop_operation_xyz
x,y,z
-x,-y,-z
loop_
_atom_site_type_symbol
_atom_site_label
_atom_site_fract_x
_atom_site_fract_y
_atom_site_fract_z
Si Si1 0.035235 0.802089 0.807481
Si Si2 0.823494 0.249612 0.909536
Si Si3 0.267714 0.350977 0.943830
Si Si4 0.571203 0.089217 0.603238
Si Si5 0.522720 0.536889 0.270328
Si Si6 0.928491 0.761778 0.378128
Si Si7 0.762927 0.706066 0.509660
O O1 0.184821 0.648468 0.863462
O O2 0.863792 0.472242 0.815259
O O3 0.152027 0.060652 0.881729
O O4 0.967862 0.047958 0.680050
O O5 0.604872 0.236148 0.836727
O O6 0.000000 0.500000 0.000000
O O7 0.794654 0.867305 0.970290
O O8 0.500000 0.500000 0.000000
O O9 0.743247 0.426363 0.608990
O O10 0.386105 0.123714 0.555946
O O11 0.500000 0.000000 0.500000
O O12 0.629416 0.826611 0.723090
O O13 0.691589 0.597953 0.277658
O O14 0.663650 0.597928 0.401020
O O15 0.000000 0.500000 0.500000
O O16 0.004038 0.071339 0.415434
#
# Coordination Sequence:
#
# PCOD9024202 Si02
#       7
#     2   2   2   2   2   2   2
#     4  11  27  47  74 109 147 198 243 305 376 438
#     4  10  25  48  74 106 141 191 255 310 369 439
#     4  11  24  51  78 110 144 190 251 318 372 435
#     4   9  20  38  64  96 135 181 239 289 352 436
#     4  11  23  43  68  98 140 189 238 300 368 429
#     4  12  26  44  67 110 147 191 239 300 365 452
#     4  10  22  40  63  98 138 187 233 291 356 441
#
# _framework density 26.895046000000001
#
# number of rings (size 3 to 8) (size 9 to 14) (size 15 to 20)
#    0.000    1.429    1.429    2.143    6.000    6.857 
#    5.143    0.000    0.000    0.000    0.000    0.000 
#    0.000    0.000    0.000    0.000    0.000    0.000 
#
# Total GULP energy -78141.716095 kJ/mol
# GULP energy per Si atom -5581.551150 kJ/mol
# Density = 2.683383 g / cm^3
# Si number density = 26.895046 Si / 1000 Ang^3
#
#
#
# Elastic Constant Matrix: (Units=GPa)
#
#
# Indices 1 2 3 4 5 6 
#
# 1 91.0908 17.7584 20.9720 -7.7494 10.5701 3.7897
# 2 17.7584 130.6438 28.8709 -19.9650 -9.3361 26.5555
# 3 20.9720 28.8709 93.3793 -26.4352 -7.2383 15.3547
# 4 -7.7494 -19.9650 -26.4352 44.3907 3.9005 -3.5307
# 5 10.5701 -9.3361 -7.2383 3.9005 55.7040 -8.2937
# 6 3.7897 26.5555 15.3547 -3.5307 -8.2937 52.9469
#
#
#
# Elastic Compliance Matrix: (Units=1/GPa)
#
#
# Indices 1 2 3 4 5 6 
#
# 1 0.012152 -0.001271 -0.002473 0.000333 -0.002855 0.000060
# 2 -0.001271 0.009386 -0.001051 0.002980 0.000877 -0.003975
# 3 -0.002473 -0.001051 0.014176 0.007212 0.001223 -0.002734
# 4 0.000333 0.002980 0.007212 0.028149 -0.000876 -0.001870
# 5 -0.002855 0.000877 0.001223 -0.000876 0.019212 0.002361
# 6 0.000060 -0.003975 -0.002734 -0.001870 0.002361 0.021915
#
#
# Mechanical properties :
#
#
# Convention : Reuss Voigt Hill
#
# Bulk Modulus (GPa) = 38.27981 50.03517 44.15749
# Shear Modulus (GPa) = 40.55564 47.10914 43.83239
#
# Velocity S-wave (km/s) = 3.88741 4.18974 4.04140
# Velocity P-wave (km/s) = 5.86628 6.48456 6.18315
#
# Compressibility (1/GPa) = 0.02612343
#
# Stress axis : x y z
#
# Youngs Moduli (GPa) = 82.28909 106.54635 70.54346
#
# Poissons Ratio (x) = 0.13538 0.17448
# Poissons Ratio (y) = 0.10456 0.07415
# Poissons Ratio (z) = 0.20353 0.11199
#
# Static dielectric constant tensor:
#      x y z
#    x 2.233940 -0.023660 -0.090780 
#    y -0.023660 2.177430 0.015530 
#    z -0.090780 0.015530 2.103070 
# 
# From -- ./inp_files/592427.got.cif
#   From: 2010.05.17/outbox.cif.g08.bks.cpg/sg2_297_cif.got.tgz:592427.got - 2010.06.03 11:33:40.
