data_PCOD9024175
_publ_section_title
;
Structure prediction by ZEFSAII (Michael W. Deem and Ramdas Pophale) SiO2 
 PCOD9024175
Probable space group: P -1
;
_chemical_formula_sum "Si O2"
_cell_formula_units_Z 13
_cell_length_a 4.978844
_cell_length_b 13.105594
_cell_length_c 10.981594
_cell_angle_alpha 125.649005
_cell_angle_beta 124.077887
_cell_angle_gamma 65.321832
_cell_volume 477.861355
_symmetry_space_group_name_H-M "P -1"
_symmetry_group_IT_number 2
_symmetry_cell_setting 'triclinic'
loop_
_space_group_symop_operation_xyz
x,y,z
-x,-y,-z
loop_
_atom_site_type_symbol
_atom_site_label
_atom_site_fract_x
_atom_site_fract_y
_atom_site_fract_z
Si Si1 0.056632 0.935807 0.600361
Si Si2 0.372498 0.244769 0.708793
Si Si3 0.000000 0.000000 0.000000
Si Si4 0.810272 0.414164 0.804687
Si Si5 0.733382 0.750825 0.680342
Si Si6 0.562151 0.372882 0.279628
Si Si7 0.327547 0.154751 0.913032
O O1 0.392062 0.837133 0.612837
O O2 0.755046 0.856902 0.484686
O O3 0.057437 0.055011 0.775316
O O4 0.000000 0.000000 0.500000
O O5 0.678169 0.303963 0.774004
O O6 0.401520 0.186744 0.812137
O O7 0.071846 0.356136 0.731226
O O8 0.633105 0.061646 0.971349
O O9 0.887998 0.854883 0.871291
O O10 0.505185 0.496454 0.719373
O O11 0.000000 0.500000 0.000000
O O12 0.615957 0.635447 0.643882
O O13 0.060630 0.687230 0.649716
O O14 0.354302 0.282133 0.081610
#
# Coordination Sequence:
#
# PCOD9024175 Si02
#       7
#     2   2   1   2   2   2   2
#     4   9  21  45  67  96 133 173 210 258 324 396
#     4  11  24  42  66  95 129 168 218 260 321 384
#     4   8  18  32  58  88 122 156 200 248 320 360
#     4  12  25  42  67  95 128 169 221 269 315 373
#     4  10  22  40  63  96 131 168 208 266 316 384
#     4  11  23  40  66  96 129 164 220 266 322 362
#     4   9  19  38  65  96 129 164 208 268 320 381
#
# _framework density 27.204543000000001
#
# number of rings (size 3 to 8) (size 9 to 14) (size 15 to 20)
#    0.000    1.846    1.538    1.385    4.308    6.769 
#    0.000   27.692    0.000    0.000    0.000    0.000 
#    0.000    0.000    0.000    0.000    0.000    0.000 
#
# Total GULP energy -72477.837207 kJ/mol
# GULP energy per Si atom -5575.218247 kJ/mol
# Density = 2.714262 g / cm^3
# Si number density = 27.204543 Si / 1000 Ang^3
#
#
#
# Elastic Constant Matrix: (Units=GPa)
#
#
# Indices 1 2 3 4 5 6 
#
# 1 101.5031 22.2120 34.9089 4.9670 24.3288 8.9724
# 2 22.2120 119.7543 18.0231 -12.6993 14.2193 5.7307
# 3 34.9089 18.0231 160.8033 22.5056 14.4362 20.5581
# 4 4.9670 -12.6993 22.5056 42.8502 4.0104 12.0131
# 5 24.3288 14.2193 14.4362 4.0104 35.8859 12.9211
# 6 8.9724 5.7307 20.5581 12.0131 12.9211 35.8087
#
#
#
# Elastic Compliance Matrix: (Units=1/GPa)
#
#
# Indices 1 2 3 4 5 6 
#
# 1 0.012538 -0.001216 -0.001991 -0.000353 -0.007552 0.001040
# 2 -0.001216 0.009513 -0.000996 0.004023 -0.002615 -0.001052
# 3 -0.001991 -0.000996 0.007555 -0.003312 0.000000 -0.002568
# 4 -0.000353 0.004023 -0.003312 0.028622 -0.000286 -0.008153
# 5 -0.007552 -0.002615 0.000000 -0.000286 0.038144 -0.011357
# 6 0.001040 -0.001052 -0.002568 -0.008153 -0.011357 0.036141
#
#
# Mechanical properties :
#
#
# Convention : Reuss Voigt Hill
#
# Bulk Modulus (GPa) = 47.17147 59.14984 53.16066
# Shear Modulus (GPa) = 33.78668 43.37008 38.57838
#
# Velocity S-wave (km/s) = 3.52795 3.99710 3.76983
# Velocity P-wave (km/s) = 5.82859 6.56447 6.20745
#
# Compressibility (1/GPa) = 0.02119925
#
# Stress axis : x y z
#
# Youngs Moduli (GPa) = 79.75466 105.11448 132.37130
#
# Poissons Ratio (x) = 0.12786 0.26357
# Poissons Ratio (y) = 0.09701 0.13185
# Poissons Ratio (z) = 0.15881 0.10470
#
# Static dielectric constant tensor:
#      x y z
#    x 2.033920 0.067040 -0.086110 
#    y 0.067040 2.130530 -0.075510 
#    z -0.086110 -0.075510 2.262160 
# 
# From -- ./inp_files/65012.got.cif
#   From: 2010.05.17/outbox.cif.g08.bks.cpg/sg2_33_cif.got.tgz:65012.got - 2010.06.03 11:33:40.
