data_PCOD9024322
_publ_section_title
;
Structure prediction by ZEFSAII (Michael W. Deem and Ramdas Pophale) SiO2 
 PCOD9024322
Probable space group: P -1
;
_chemical_formula_sum "Si O2"
_cell_formula_units_Z 16
_cell_length_a 11.312750
_cell_length_b 12.882523
_cell_length_c 8.156704
_cell_angle_alpha 56.315626
_cell_angle_beta 45.105127
_cell_angle_gamma 65.039723
_cell_volume 699.775997
_symmetry_space_group_name_H-M "P -1"
_symmetry_group_IT_number 2
_symmetry_cell_setting 'triclinic'
loop_
_space_group_symop_operation_xyz
x,y,z
-x,-y,-z
loop_
_atom_site_type_symbol
_atom_site_label
_atom_site_fract_x
_atom_site_fract_y
_atom_site_fract_z
Si Si1 0.414745 0.750091 0.400195
Si Si2 0.643799 0.945484 0.030093
Si Si3 0.421009 0.287212 0.084104
Si Si4 0.105879 0.886696 0.765637
Si Si5 0.629508 0.100949 0.222525
Si Si6 0.889800 0.849910 0.597129
Si Si7 0.946325 0.673683 0.966638
Si Si8 0.264432 0.498983 0.862235
O O1 0.559352 0.821923 0.288066
O O2 0.472611 0.741939 0.161449
O O3 0.246134 0.832474 0.543448
O O4 0.381849 0.609062 0.604149
O O5 0.678426 0.042223 0.050832
O O6 0.795379 0.907473 0.798376
O O7 0.500000 0.000000 0.000000
O O8 0.341975 0.425810 0.006937
O O9 0.536906 0.236364 0.162088
O O10 0.258402 0.203946 0.317280
O O11 0.212411 0.887924 0.825826
O O12 0.046694 0.028905 0.659079
O O13 0.963763 0.786318 0.981038
O O14 0.500000 0.000000 0.500000
O O15 0.990892 0.734057 0.688895
O O16 0.777796 0.605141 0.143781
O O17 0.082557 0.570638 0.990324
#
# Coordination Sequence:
#
# PCOD9024322 Si02
#       8
#     2   2   2   2   2   2   2   2
#     4  10  17  31  53  78 106 131 170 216 260 304
#     4  11  17  32  53  83 107 127 165 218 271 313
#     4  10  18  31  53  82 105 131 171 218 264 307
#     4  11  19  31  52  80 110 137 166 210 266 313
#     4  12  19  31  52  83 114 130 157 213 280 319
#     4  10  17  32  54  77 105 135 171 216 257 307
#     4   9  20  34  50  75 104 140 183 215 241 293
#     4   9  19  34  53  76 102 137 186 220 237 294
#
# _framework density 22.864459
#
# number of rings (size 3 to 8) (size 9 to 14) (size 15 to 20)
#    0.000    1.750    6.250    0.750    0.000    0.000 
#    0.000    3.125    0.000    0.750    0.000    0.000 
#    0.000    0.000    0.000    0.000    0.000    0.000 
#
# Total GULP energy -89152.115316 kJ/mol
# GULP energy per Si atom -5572.007207 kJ/mol
# Density = 2.281242 g / cm^3
# Si number density = 22.864459 Si / 1000 Ang^3
#
#
#
# Elastic Constant Matrix: (Units=GPa)
#
#
# Indices 1 2 3 4 5 6 
#
# 1 131.8759 24.1200 42.4953 -27.1498 -1.3258 -0.6315
# 2 24.1200 75.9263 36.5641 -36.9595 4.4952 -16.2173
# 3 42.4953 36.5641 67.3512 -41.2317 -7.7454 -5.2249
# 4 -27.1498 -36.9595 -41.2317 52.6579 2.5593 -2.8817
# 5 -1.3258 4.4952 -7.7454 2.5593 23.3821 -15.1502
# 6 -0.6315 -16.2173 -5.2249 -2.8817 -15.1502 42.4416
#
#
#
# Elastic Compliance Matrix: (Units=1/GPa)
#
#
# Indices 1 2 3 4 5 6 
#
# 1 0.009653 -0.000274 -0.006601 -0.000349 -0.002686 -0.001756
# 2 -0.000274 0.024109 -0.003298 0.014772 -0.001310 0.009338
# 3 -0.006601 -0.003298 0.038564 0.024237 0.017748 0.011370
# 4 -0.000349 0.014772 0.024237 0.048522 0.009860 0.015438
# 5 -0.002686 -0.001310 0.017748 0.009860 0.063960 0.025146
# 6 -0.001756 0.009338 0.011370 0.015438 0.025146 0.038528
#
#
# Mechanical properties :
#
#
# Convention : Reuss Voigt Hill
#
# Bulk Modulus (GPa) = 19.23839 53.50135 36.36987
# Shear Modulus (GPa) = 19.15652 35.16126 27.15889
#
# Velocity S-wave (km/s) = 2.89767 3.92575 3.45022
# Velocity P-wave (km/s) = 4.43031 6.63316 5.64032
#
# Compressibility (1/GPa) = 0.05197939
#
# Stress axis : x y z
#
# Youngs Moduli (GPa) = 103.59890 41.47833 25.93111
#
# Poissons Ratio (x) = 0.01136 0.17116
# Poissons Ratio (y) = 0.02837 0.08553
# Poissons Ratio (z) = 0.68383 0.13681
#
# Static dielectric constant tensor:
#      x y z
#    x 1.899670 -0.055060 0.000100 
#    y -0.055060 1.966510 -0.043160 
#    z 0.000100 -0.043160 1.938660 
# 
# From -- ./inp_files/269533.got.cif
#   From: 2010.05.17/outbox.cif.g08.bks.cpg/sg2_135_cif.got.tgz:269533.got - 2010.06.03 11:33:40.
