data_PCOD9024475
_publ_section_title
;
Structure prediction by ZEFSAII (Michael W. Deem and Ramdas Pophale) SiO2 
 PCOD9024475
Probable space group: P -1
;
_chemical_formula_sum "Si O2"
_cell_formula_units_Z 12
_cell_length_a 11.434710
_cell_length_b 13.512118
_cell_length_c 13.684347
_cell_angle_alpha 136.094044
_cell_angle_beta 20.635536
_cell_angle_gamma 134.694664
_cell_volume 513.065230
_symmetry_space_group_name_H-M "P -1"
_symmetry_group_IT_number 2
_symmetry_cell_setting 'triclinic'
loop_
_space_group_symop_operation_xyz
x,y,z
-x,-y,-z
loop_
_atom_site_type_symbol
_atom_site_label
_atom_site_fract_x
_atom_site_fract_y
_atom_site_fract_z
Si Si1 0.335901 0.977200 0.282203
Si Si2 0.836707 0.584288 0.416057
Si Si3 0.468745 0.746178 0.570287
Si Si4 0.796644 0.104173 0.295824
Si Si5 0.924609 0.809878 0.655196
Si Si6 0.146902 0.658641 0.029259
O O1 0.574409 0.121069 0.229948
O O2 0.000000 0.000000 0.500000
O O3 0.197173 0.900743 0.436985
O O4 0.579485 0.882466 0.965571
O O5 0.716554 0.414742 0.379466
O O6 0.922756 0.647169 0.500651
O O7 0.109475 0.641544 0.163772
O O8 0.517636 0.670760 0.706509
O O9 0.348351 0.785978 0.586121
O O10 0.870743 0.749452 0.267229
O O11 0.995073 0.178662 0.285196
O O12 0.500000 0.000000 0.500000
O O13 0.000000 0.000000 0.000000
O O14 0.000000 0.500000 0.000000
#
# Coordination Sequence:
#
# PCOD9024475 Si02
#       6
#     2   2   2   2   2   2
#     4  12  25  41  68  98 131 174 219 272 334 395
#     4  11  24  41  68  99 134 166 217 281 334 386
#     4  11  23  42  69  94 129 179 222 259 335 392
#     4  12  25  45  66  93 133 180 224 273 318 394
#     4  12  24  45  63  97 137 167 220 281 325 385
#     4  10  22  40  64  99 133 167 211 273 332 393
#
# _framework density 23.388838
#
# number of rings (size 3 to 8) (size 9 to 14) (size 15 to 20)
#    0.000    0.667    3.333    5.500    0.000    8.667 
#    0.000    0.000    0.000    9.000    0.000    0.000 
#    0.000    0.000    0.000    0.000    0.000    0.000 
#
# Total GULP energy -67056.919460 kJ/mol
# GULP energy per Si atom -5588.076622 kJ/mol
# Density = 2.333560 g / cm^3
# Si number density = 23.388838 Si / 1000 Ang^3
#
#
#
# Elastic Constant Matrix: (Units=GPa)
#
#
# Indices 1 2 3 4 5 6 
#
# 1 138.7520 50.3441 2.6493 10.7498 9.5698 11.6405
# 2 50.3441 144.9019 35.6559 5.8053 20.8553 18.9029
# 3 2.6493 35.6559 74.1944 -6.2321 33.0739 -9.4123
# 4 10.7498 5.8053 -6.2321 31.2349 2.1431 10.5126
# 5 9.5698 20.8553 33.0739 2.1431 39.6270 10.3243
# 6 11.6405 18.9029 -9.4123 10.5126 10.3243 53.5063
#
#
#
# Elastic Compliance Matrix: (Units=1/GPa)
#
#
# Indices 1 2 3 4 5 6 
#
# 1 0.008574 -0.003149 0.002033 -0.001948 -0.002108 0.000394
# 2 -0.003149 0.009746 -0.005822 -0.000666 0.001556 -0.003952
# 3 0.002033 -0.005822 0.028796 0.004250 -0.024442 0.010561
# 4 -0.001948 -0.000666 0.004250 0.035547 -0.003365 -0.004928
# 5 -0.002108 0.001556 -0.024442 -0.003365 0.048940 -0.013173
# 6 0.000394 -0.003952 0.010561 -0.004928 -0.013173 0.025368
#
#
# Mechanical properties :
#
#
# Convention : Reuss Voigt Hill
#
# Bulk Modulus (GPa) = 30.08456 59.46077 44.77266
# Shear Modulus (GPa) = 27.48338 42.82023 35.15180
#
# Velocity S-wave (km/s) = 3.43164 4.28342 3.88097
# Velocity P-wave (km/s) = 5.34717 7.06693 6.26633
#
# Compressibility (1/GPa) = 0.03323964
#
# Stress axis : x y z
#
# Youngs Moduli (GPa) = 116.62932 102.60254 34.72677
#
# Poissons Ratio (x) = 0.32313 -0.07061
# Poissons Ratio (y) = 0.36731 0.20219
# Poissons Ratio (z) = -0.23713 0.59740
#
# Static dielectric constant tensor:
#      x y z
#    x 1.951300 0.067950 -0.047140 
#    y 0.067950 1.903960 0.031550 
#    z -0.047140 0.031550 1.942810 
# 
# From -- ./inp_files/449548.got.cif
#   From: 2010.05.17/outbox.cif.g08.bks.cpg/sg2_225_cif.got.tgz:449548.got - 2010.06.03 11:33:40.
