data_PCOD9024289
_publ_section_title
;
Structure prediction by ZEFSAII (Michael W. Deem and Ramdas Pophale) SiO2 
 PCOD9024289
Probable space group: P -1
;
_chemical_formula_sum "Si O2"
_cell_formula_units_Z 16
_cell_length_a 13.017407
_cell_length_b 8.097575
_cell_length_c 12.447250
_cell_angle_alpha 143.911064
_cell_angle_beta 114.722131
_cell_angle_gamma 58.721953
_cell_volume 660.524037
_symmetry_space_group_name_H-M "P -1"
_symmetry_group_IT_number 2
_symmetry_cell_setting 'triclinic'
loop_
_space_group_symop_operation_xyz
x,y,z
-x,-y,-z
loop_
_atom_site_type_symbol
_atom_site_label
_atom_site_fract_x
_atom_site_fract_y
_atom_site_fract_z
Si Si1 0.369778 0.503690 0.910628
Si Si2 0.125019 0.018632 0.810834
Si Si3 0.891497 0.875088 0.666794
Si Si4 0.390223 0.495863 0.304664
Si Si5 0.668923 0.855756 0.483475
Si Si6 0.351378 0.523918 0.548375
Si Si7 0.125335 0.069736 0.081959
Si Si8 0.245480 0.416135 0.007908
O O1 0.380524 0.342720 0.717888
O O2 0.500000 0.500000 0.000000
O O3 0.256411 0.809856 0.011437
O O4 0.326372 0.326245 0.890593
O O5 0.243989 0.754955 0.688567
O O6 0.017128 0.888678 0.689305
O O7 0.123416 0.151273 0.999619
O O8 0.137177 0.286332 0.885349
O O9 0.814621 0.747093 0.486958
O O10 0.888504 0.743583 0.715708
O O11 0.814072 0.226647 0.828176
O O12 0.330531 0.520749 0.409702
O O13 0.531928 0.379286 0.329781
O O14 0.331091 0.333860 0.107622
O O15 0.371992 0.814811 0.408686
O O16 0.632686 0.795578 0.556562
O O17 0.000000 0.000000 0.000000
#
# Coordination Sequence:
#
# PCOD9024289 Si02
#       8
#     2   2   2   2   2   2   2   2
#     4  11  22  41  66  96 126 168 224 264 323 397
#     4  11  21  40  63  94 128 162 222 267 317 390
#     4   9  22  41  64  91 124 173 213 260 331 390
#     4  10  24  43  60  95 131 170 212 266 329 394
#     4  11  22  43  68  91 131 173 211 272 327 390
#     4  11  23  40  63  93 130 166 216 266 331 384
#     4   9  20  40  60  91 129 164 210 263 320 384
#     4  10  22  40  64  90 129 169 211 269 329 378
#
# _framework density 24.223189999999999
#
# number of rings (size 3 to 8) (size 9 to 14) (size 15 to 20)
#    0.000    1.750    1.250    2.250    1.750    3.000 
#    2.250    6.875    0.000    0.000    0.000    0.000 
#    0.000    0.000    0.000    0.000    0.000    0.000 
#
# Total GULP energy -89288.556916 kJ/mol
# GULP energy per Si atom -5580.534807 kJ/mol
# Density = 2.416806 g / cm^3
# Si number density = 24.223190 Si / 1000 Ang^3
#
#
#
# Elastic Constant Matrix: (Units=GPa)
#
#
# Indices 1 2 3 4 5 6 
#
# 1 134.0295 29.0182 7.6499 -13.7122 12.2126 7.5361
# 2 29.0182 70.8694 19.8203 -6.9490 -1.4457 6.0050
# 3 7.6499 19.8203 55.3289 -15.7789 8.7770 -2.5363
# 4 -13.7122 -6.9490 -15.7789 33.2928 -1.8801 8.6986
# 5 12.2126 -1.4457 8.7770 -1.8801 26.3766 -11.4400
# 6 7.5361 6.0050 -2.5363 8.6986 -11.4400 48.2209
#
#
#
# Elastic Compliance Matrix: (Units=1/GPa)
#
#
# Indices 1 2 3 4 5 6 
#
# 1 0.009411 -0.003896 0.002280 0.004623 -0.006395 -0.003217
# 2 -0.003896 0.017687 -0.006759 -0.000664 0.004661 -0.000724
# 3 0.002280 -0.006759 0.024923 0.011467 -0.010055 -0.002657
# 4 0.004623 -0.000664 0.011467 0.039129 -0.007001 -0.008756
# 5 -0.006395 0.004661 -0.010055 -0.007001 0.049577 0.012915
# 6 -0.003217 -0.000724 -0.002657 -0.008756 0.012915 0.025834
#
#
# Mechanical properties :
#
#
# Convention : Reuss Voigt Hill
#
# Bulk Modulus (GPa) = 28.35208 41.46716 34.90962
# Shear Modulus (GPa) = 25.63198 35.16070 30.39634
#
# Velocity S-wave (km/s) = 3.25646 3.81403 3.54622
# Velocity P-wave (km/s) = 5.08619 6.04580 5.58664
#
# Compressibility (1/GPa) = 0.03527078
#
# Stress axis : x y z
#
# Youngs Moduli (GPa) = 106.26042 56.53785 40.12324
#
# Poissons Ratio (x) = 0.22025 -0.09147
# Poissons Ratio (y) = 0.41394 0.27121
# Poissons Ratio (z) = -0.24223 0.38216
#
# Static dielectric constant tensor:
#      x y z
#    x 1.945760 -0.017690 0.022700 
#    y -0.017690 2.065150 0.038660 
#    z 0.022700 0.038660 1.957280 
# 
# From -- ./inp_files/516415.got.cif
#   From: 2010.05.17/outbox.cif.g08.bks.cpg/sg2_259_cif.got.tgz:516415.got - 2010.06.03 11:33:40.
