data_PCOD9024855
_publ_section_title
;
Structure prediction by ZEFSAII (Michael W. Deem and Ramdas Pophale) SiO2 
 PCOD9024855
Probable space group: P -1
;
_chemical_formula_sum "Si O2"
_cell_formula_units_Z 16
_cell_length_a 9.521287
_cell_length_b 14.241527
_cell_length_c 14.715870
_cell_angle_alpha 32.852597
_cell_angle_beta 69.705144
_cell_angle_gamma 92.374097
_cell_volume 767.976803
_symmetry_space_group_name_H-M "P -1"
_symmetry_group_IT_number 2
_symmetry_cell_setting 'triclinic'
loop_
_space_group_symop_operation_xyz
x,y,z
-x,-y,-z
loop_
_atom_site_type_symbol
_atom_site_label
_atom_site_fract_x
_atom_site_fract_y
_atom_site_fract_z
Si Si1 0.890860 0.162956 0.265687
Si Si2 0.359949 0.983003 0.920478
Si Si3 0.287834 0.300457 0.980620
Si Si4 0.967185 0.520373 0.324521
Si Si5 0.254872 0.944160 0.173516
Si Si6 0.938940 0.536619 0.839520
Si Si7 0.392820 0.530044 0.575652
Si Si8 0.639221 0.614555 0.786993
O O1 0.928610 0.271355 0.269039
O O2 0.748509 0.885142 0.529028
O O3 0.837506 0.289681 0.110790
O O4 0.105922 0.261251 0.100888
O O5 0.536347 0.988219 0.904638
O O6 0.458951 0.199649 0.659032
O O7 0.276351 0.009127 0.010253
O O8 0.186571 0.751495 0.099367
O O9 0.339846 0.406757 0.782522
O O10 0.486782 0.462781 0.862793
O O11 0.218939 0.055848 0.169147
O O12 0.917696 0.326236 0.559790
O O13 0.808684 0.548280 0.357817
O O14 0.937064 0.439401 0.293176
O O15 0.794028 0.574737 0.800621
O O16 0.500000 0.500000 0.500000
O O17 0.500000 0.500000 0.000000
#
# Coordination Sequence:
#
# PCOD9024855 Si02
#       8
#     2   2   2   2   2   2   2   2
#     4  11  26  48  70 101 144 178 233 282 346 416
#     4  10  22  42  63  97 131 175 227 279 337 412
#     4  12  24  46  69  99 137 184 224 283 348 407
#     4  11  23  41  68  95 130 183 224 274 349 406
#     4  10  22  40  66  93 136 173 222 282 340 404
#     4  11  24  48  70 101 141 183 225 288 344 407
#     4  11  24  44  65  95 138 176 228 288 337 398
#     4  12  27  45  73 106 138 183 233 282 346 415
#
# _framework density 20.833963000000001
#
# number of rings (size 3 to 8) (size 9 to 14) (size 15 to 20)
#    0.000    1.000    3.750    2.250    3.500    1.000 
#    4.500    0.000    0.000    0.000    0.000    0.000 
#    0.000    0.000    0.000    0.000    0.000    0.000 
#
# Total GULP energy -89323.546132 kJ/mol
# GULP energy per Si atom -5582.721633 kJ/mol
# Density = 2.078654 g / cm^3
# Si number density = 20.833963 Si / 1000 Ang^3
#
#
#
# Elastic Constant Matrix: (Units=GPa)
#
#
# Indices 1 2 3 4 5 6 
#
# 1 31.3230 12.6674 52.5340 -31.5591 6.4066 -21.3948
# 2 12.6674 81.5886 5.9454 2.4476 -2.2671 -8.8480
# 3 52.5340 5.9454 83.6002 9.6937 10.9420 23.0603
# 4 -31.5591 2.4476 9.6937 17.2074 -7.1627 -17.5111
# 5 6.4066 -2.2671 10.9420 -7.1627 26.4730 0.5359
# 6 -21.3948 -8.8480 23.0603 -17.5111 0.5359 18.8934
#
#
#
# Elastic Compliance Matrix: (Units=1/GPa)
#
#
# Indices 1 2 3 4 5 6 
#
# 1 0.003427 -0.002205 0.004365 -0.013254 -0.006113 -0.014591
# 2 -0.002205 0.013162 -0.000815 -0.000636 0.001744 0.004024
# 3 0.004365 -0.000815 0.006500 0.010353 -0.001138 0.006256
# 4 -0.013254 -0.000636 0.010353 0.014400 0.003067 -0.014683
# 5 -0.006113 0.001744 -0.001138 0.003067 0.040765 -0.003029
# 6 -0.014591 0.004024 0.006256 -0.014683 -0.003029 0.017133
#
#
# Mechanical properties :
#
#
# Convention : Reuss Voigt Hill
#
# Bulk Modulus (GPa) = 38.79118 37.64502 38.21810
# Shear Modulus (GPa) = 49.36422 20.87245 35.11834
#
# Velocity S-wave (km/s) = 4.87294 3.16863 4.11010
# Velocity P-wave (km/s) = 7.09368 5.61206 6.39592
#
# Compressibility (1/GPa) = 0.02577905
#
# Stress axis : x y z
#
# Youngs Moduli (GPa) = 291.83611 75.97506 153.85603
#
# Poissons Ratio (x) = 0.16750 -0.67160
# Poissons Ratio (y) = 0.64340 0.12541
# Poissons Ratio (z) = -1.27391 0.06193
#
# Static dielectric constant tensor:
#      x y z
#    x 1.768480 -0.021190 0.044150 
#    y -0.021190 1.633200 0.013670 
#    z 0.044150 0.013670 1.751140 
# 
# From -- ./inp_files/37869.got.cif
#   From: 2010.05.17/outbox.cif.g08.bks.cpg/sg2_19_cif.got.tgz:37869.got - 2010.06.03 11:33:40.
