data_PCOD9024994
_publ_section_title
;
Structure prediction by ZEFSAII (Michael W. Deem and Ramdas Pophale) SiO2 
 PCOD9024994
Probable space group: P -1
;
_chemical_formula_sum "Si O2"
_cell_formula_units_Z 14
_cell_length_a 5.419887
_cell_length_b 16.145049
_cell_length_c 21.507107
_cell_angle_alpha 22.183932
_cell_angle_beta 113.614459
_cell_angle_gamma 103.756600
_cell_volume 600.953781
_symmetry_space_group_name_H-M "P -1"
_symmetry_group_IT_number 2
_symmetry_cell_setting 'triclinic'
loop_
_space_group_symop_operation_xyz
x,y,z
-x,-y,-z
loop_
_atom_site_type_symbol
_atom_site_label
_atom_site_fract_x
_atom_site_fract_y
_atom_site_fract_z
Si Si1 0.833476 0.816602 0.666064
Si Si2 0.470327 0.262246 0.637057
Si Si3 0.655225 0.116729 0.887772
Si Si4 0.937412 0.235330 0.415945
Si Si5 0.361540 0.458567 0.326989
Si Si6 0.720396 0.389707 0.922838
Si Si7 0.076675 0.850526 0.353932
O O1 0.948516 0.793314 0.623857
O O2 0.846393 0.553408 0.862378
O O3 0.500000 0.000000 0.500000
O O4 0.966334 0.964553 0.619542
O O5 0.500000 0.500000 0.500000
O O6 0.551725 0.098631 0.820462
O O7 0.134109 0.295685 0.569813
O O8 0.707469 0.166940 0.671601
O O9 0.599408 0.375028 0.731097
O O10 0.500000 0.000000 0.000000
O O11 0.000000 0.000000 0.000000
O O12 0.154184 0.320399 0.417315
O O13 0.624788 0.451726 0.225654
O O14 0.220980 0.609764 0.146193
O O15 0.688437 0.260210 0.490152
O O16 0.853659 0.123357 0.145963
#
# Coordination Sequence:
#
# PCOD9024994 Si02
#       7
#     2   2   2   2   2   2   2
#     4   8  16  36  65  96 130 171 217 268 338 406
#     4  12  26  48  66  94 138 184 228 285 345 401
#     4  12  27  43  70  98 132 180 237 285 342 405
#     4   9  19  37  66  96 130 174 220 273 337 407
#     4  11  25  41  65  97 134 175 228 285 337 401
#     4  10  22  40  66  99 134 176 222 280 340 409
#     4  12  28  44  70 100 139 181 233 283 345 405
#
# _framework density 23.296302000000001
#
# number of rings (size 3 to 8) (size 9 to 14) (size 15 to 20)
#    0.000    1.429    1.429    3.000   12.000    0.000 
#    0.000    0.714    0.000   29.143    0.000    0.000 
#    0.000    0.000    0.000    0.000    0.000    0.000 
#
# Total GULP energy -78077.447342 kJ/mol
# GULP energy per Si atom -5576.960524 kJ/mol
# Density = 2.324328 g / cm^3
# Si number density = 23.296302 Si / 1000 Ang^3
#
#
#
# Elastic Constant Matrix: (Units=GPa)
#
#
# Indices 1 2 3 4 5 6 
#
# 1 122.5337 32.4646 19.2073 -4.6580 0.0181 17.9587
# 2 32.4646 82.1509 32.3560 -15.2706 -7.9281 14.4314
# 3 19.2073 32.3560 101.9475 -11.9925 4.1234 17.7486
# 4 -4.6580 -15.2706 -11.9925 45.5659 1.7994 -8.1159
# 5 0.0181 -7.9281 4.1234 1.7994 27.4642 -6.9147
# 6 17.9587 14.4314 17.7486 -8.1159 -6.9147 57.2534
#
#
#
# Elastic Compliance Matrix: (Units=1/GPa)
#
#
# Indices 1 2 3 4 5 6 
#
# 1 0.009436 -0.003476 -0.000294 -0.000621 -0.001494 -0.002261
# 2 -0.003476 0.016504 -0.004236 0.003753 0.005000 -0.000621
# 3 -0.000294 -0.004236 0.012017 0.001359 -0.003830 -0.002835
# 4 -0.000621 0.003753 0.001359 0.023895 -0.000132 0.002199
# 5 -0.001494 0.005000 -0.003830 -0.000132 0.039742 0.005177
# 6 -0.002261 -0.000621 -0.002835 0.002199 0.005177 0.020148
#
#
# Mechanical properties :
#
#
# Convention : Reuss Voigt Hill
#
# Bulk Modulus (GPa) = 45.56550 52.74310 49.15430
# Shear Modulus (GPa) = 34.46667 40.89701 37.68184
#
# Velocity S-wave (km/s) = 3.85059 4.19443 4.02618
# Velocity P-wave (km/s) = 6.27463 6.79315 6.53903
#
# Compressibility (1/GPa) = 0.02194643
#
# Stress axis : x y z
#
# Youngs Moduli (GPa) = 105.97801 60.59223 83.21489
#
# Poissons Ratio (x) = 0.21060 0.02444
# Poissons Ratio (y) = 0.36835 0.35248
# Poissons Ratio (z) = 0.03112 0.25666
#
# Static dielectric constant tensor:
#      x y z
#    x 2.022680 -0.021630 -0.112570 
#    y -0.021630 1.931280 -0.004620 
#    z -0.112570 -0.004620 1.964370 
# 
# From -- ./inp_files/604886.got.cif
#   From: 2010.05.17/outbox.cif.g08.bks.cpg/sg2_303_cif.got.tgz:604886.got - 2010.06.03 11:33:40.
