data_PCOD9024113
_publ_section_title
;
Structure prediction by ZEFSAII (Michael W. Deem and Ramdas Pophale) SiO2 
 PCOD9024113
Probable space group: P -1
;
_chemical_formula_sum "Si O2"
_cell_formula_units_Z 14
_cell_length_a 8.125288
_cell_length_b 18.798228
_cell_length_c 5.047590
_cell_angle_alpha 106.958911
_cell_angle_beta 119.339204
_cell_angle_gamma 48.799020
_cell_volume 505.111303
_symmetry_space_group_name_H-M "P -1"
_symmetry_group_IT_number 2
_symmetry_cell_setting 'triclinic'
loop_
_space_group_symop_operation_xyz
x,y,z
-x,-y,-z
loop_
_atom_site_type_symbol
_atom_site_label
_atom_site_fract_x
_atom_site_fract_y
_atom_site_fract_z
Si Si1 0.825823 0.416755 0.379639
Si Si2 0.808315 0.254610 0.975831
Si Si3 0.538397 0.397860 0.546280
Si Si4 0.445362 0.171884 0.984660
Si Si5 0.031704 0.918976 0.756851
Si Si6 0.528708 0.064085 0.406572
Si Si7 0.712734 0.642884 0.079451
O O1 0.865409 0.326631 0.177149
O O2 0.707602 0.417215 0.562742
O O3 0.616383 0.527158 0.255678
O O4 0.069103 0.402650 0.596926
O O5 0.974343 0.152544 0.134100
O O6 0.544993 0.293996 0.913749
O O7 0.733688 0.285509 0.645309
O O8 0.328589 0.414180 0.216496
O O9 0.710333 0.136214 0.234179
O O10 0.390221 0.119484 0.090118
O O11 0.269595 0.283885 0.988885
O O12 0.469255 0.141959 0.663836
O O13 0.806793 0.981852 0.454527
O O14 0.000000 0.000000 0.000000
O O15 0.500000 0.000000 0.500000
#
# Coordination Sequence:
#
# PCOD9024113 Si02
#       7
#     2   2   2   2   2   2   2
#     4  10  22  41  61  94 128 162 215 270 329 392
#     4  10  22  40  63  93 123 169 217 266 327 391
#     4  10  22  40  64  91 127 167 211 270 329 396
#     4  10  23  41  63  89 130 170 217 265 329 396
#     4   9  21  40  61  88 126 169 216 263 327 389
#     4  11  23  40  62  94 127 167 218 274 325 387
#     4  10  23  38  63  91 129 166 214 265 329 397
#
# _framework density 27.716664999999999
#
# number of rings (size 3 to 8) (size 9 to 14) (size 15 to 20)
#    0.000    2.000    0.000    1.714    8.000    2.857 
#    7.714    0.000    0.000    0.000    0.000    0.000 
#    0.000    0.000    0.000    0.000    0.000    0.000 
#
# Total GULP energy -78132.259038 kJ/mol
# GULP energy per Si atom -5580.875646 kJ/mol
# Density = 2.765358 g / cm^3
# Si number density = 27.716665 Si / 1000 Ang^3
#
#
#
# Elastic Constant Matrix: (Units=GPa)
#
#
# Indices 1 2 3 4 5 6 
#
# 1 77.2554 14.9033 23.1870 0.0045 5.1262 9.3919
# 2 14.9033 138.7133 41.8697 -3.2078 4.5736 37.0024
# 3 23.1870 41.8697 88.3756 8.6015 11.1519 12.7786
# 4 0.0045 -3.2078 8.6015 53.2960 17.1036 -6.1497
# 5 5.1262 4.5736 11.1519 17.1036 41.5848 -3.2367
# 6 9.3919 37.0024 12.7786 -6.1497 -3.2367 36.6613
#
#
#
# Elastic Compliance Matrix: (Units=1/GPa)
#
#
# Indices 1 2 3 4 5 6 
#
# 1 0.014336 0.000288 -0.003386 0.000687 -0.001391 -0.002791
# 2 0.000288 0.011002 -0.003754 0.000519 -0.001222 -0.009890
# 3 -0.003386 -0.003754 0.014609 -0.001936 -0.002367 -0.000970
# 4 0.000687 0.000519 -0.001936 0.022179 -0.008516 0.002944
# 5 -0.001391 -0.001222 -0.002367 -0.008516 0.028765 0.003526
# 6 -0.002791 -0.009890 -0.000970 0.002944 0.003526 0.039117
#
#
# Mechanical properties :
#
#
# Convention : Reuss Voigt Hill
#
# Bulk Modulus (GPa) = 38.10427 51.58493 44.84460
# Shear Modulus (GPa) = 32.79544 41.26737 37.03141
#
# Velocity S-wave (km/s) = 3.44356 3.86281 3.65919
# Velocity P-wave (km/s) = 5.43952 6.20863 5.83676
#
# Compressibility (1/GPa) = 0.02624378
#
# Stress axis : x y z
#
# Youngs Moduli (GPa) = 69.75364 90.89313 68.44876
#
# Poissons Ratio (x) = -0.02616 0.23174
# Poissons Ratio (y) = -0.02007 0.25696
# Poissons Ratio (z) = 0.23616 0.34122
#
# Static dielectric constant tensor:
#      x y z
#    x 2.242810 0.059910 -0.049880 
#    y 0.059910 2.315400 0.010950 
#    z -0.049880 0.010950 2.318790 
# 
# From -- ./inp_files/39633.got.cif
#   From: 2010.05.17/outbox.cif.g08.bks.cpg/sg2_20_cif.got.tgz:39633.got - 2010.06.03 11:33:40.
