data_PCOD9024016
_publ_section_title
;
Structure prediction by ZEFSAII (Michael W. Deem and Ramdas Pophale) SiO2 
 PCOD9024016
Probable space group: P -1
;
_chemical_formula_sum "Si O2"
_cell_formula_units_Z 14
_cell_length_a 12.132857
_cell_length_b 18.212622
_cell_length_c 12.025534
_cell_angle_alpha 54.746115
_cell_angle_beta 114.488533
_cell_angle_gamma 159.615774
_cell_volume 676.903351
_symmetry_space_group_name_H-M "P -1"
_symmetry_group_IT_number 2
_symmetry_cell_setting 'triclinic'
loop_
_space_group_symop_operation_xyz
x,y,z
-x,-y,-z
loop_
_atom_site_type_symbol
_atom_site_label
_atom_site_fract_x
_atom_site_fract_y
_atom_site_fract_z
Si Si1 0.396775 0.644650 0.136286
Si Si2 0.557194 0.881715 0.461073
Si Si3 0.784504 0.090009 0.952818
Si Si4 0.664461 0.593128 0.605343
Si Si5 0.683786 0.478762 0.389627
Si Si6 0.161132 0.787918 0.897218
Si Si7 0.884236 0.304481 0.425800
O O1 0.496007 0.610995 0.234887
O O2 0.185710 0.492940 0.063951
O O3 0.119557 0.479790 0.261794
O O4 0.709146 0.934071 0.025663
O O5 0.510634 0.751070 0.506337
O O6 0.211715 0.671291 0.568833
O O7 0.637265 0.011172 0.286402
O O8 0.915317 0.128790 0.466812
O O9 0.067297 0.328667 0.778916
O O10 0.415880 0.885172 0.956287
O O11 0.898771 0.190971 0.038745
O O12 0.500000 0.500000 0.500000
O O13 0.572517 0.615451 0.621169
O O14 0.921836 0.627957 0.468145
O O15 0.500000 0.000000 0.500000
#
# Coordination Sequence:
#
# PCOD9024016 Si02
#       7
#     2   2   2   2   2   2   2
#     4  11  23  42  66  93 135 169 212 272 324 379
#     4  11  23  41  67  97 126 166 219 276 318 376
#     4  11  24  40  62  96 136 171 209 261 330 389
#     4  11  23  44  66  94 126 171 218 266 327 380
#     4  12  24  41  65  98 129 170 218 265 322 392
#     4  10  22  40  62  96 132 168 210 265 329 379
#     4  12  20  39  68  98 123 164 223 272 319 370
#
# _framework density 20.682421000000001
#
# number of rings (size 3 to 8) (size 9 to 14) (size 15 to 20)
#    0.000    0.857    5.714    2.143    4.000    0.571 
#    2.571    2.857    0.000    0.000    0.000    0.000 
#    0.000    0.000    0.000    0.000    0.000    0.000 
#
# Total GULP energy -78260.962906 kJ/mol
# GULP energy per Si atom -5590.068779 kJ/mol
# Density = 2.063535 g / cm^3
# Si number density = 20.682421 Si / 1000 Ang^3
#
#
#
# Elastic Constant Matrix: (Units=GPa)
#
#
# Indices 1 2 3 4 5 6 
#
# 1 117.6031 21.3310 8.8716 8.5967 18.4100 -6.2747
# 2 21.3310 74.2291 29.9577 24.8897 -8.8850 -9.3580
# 3 8.8716 29.9577 38.0310 7.9414 2.3610 -8.7367
# 4 8.5967 24.8897 7.9414 27.9883 -7.7096 0.9850
# 5 18.4100 -8.8850 2.3610 -7.7096 31.5219 4.2617
# 6 -6.2747 -9.3580 -8.7367 0.9850 4.2617 35.5406
#
#
#
# Elastic Compliance Matrix: (Units=1/GPa)
#
#
# Indices 1 2 3 4 5 6 
#
# 1 0.010692 -0.003550 0.002081 -0.003155 -0.008521 0.002574
# 2 -0.003550 0.028790 -0.018131 -0.017523 0.006970 0.002147
# 3 0.002081 -0.018131 0.042322 0.000360 -0.010386 0.007233
# 4 -0.003155 -0.017523 0.000360 0.055648 0.011570 -0.008012
# 5 -0.008521 0.006970 -0.010386 0.011570 0.043319 -0.007737
# 6 0.002574 0.002147 0.007233 -0.008012 -0.007737 0.032084
#
#
# Mechanical properties :
#
#
# Convention : Reuss Voigt Hill
#
# Bulk Modulus (GPa) = 23.47147 38.90932 31.19039
# Shear Modulus (GPa) = 18.77901 30.32370 24.55135
#
# Velocity S-wave (km/s) = 3.01652 3.83320 3.44912
# Velocity P-wave (km/s) = 4.84827 6.20039 5.56554
#
# Compressibility (1/GPa) = 0.04260492
#
# Stress axis : x y z
#
# Youngs Moduli (GPa) = 93.52892 34.73455 23.62857
#
# Poissons Ratio (x) = 0.12330 -0.04918
# Poissons Ratio (y) = 0.33202 0.42840
# Poissons Ratio (z) = -0.19466 0.62976
#
# Static dielectric constant tensor:
#      x y z
#    x 1.797260 -0.037830 -0.005710 
#    y -0.037830 1.742460 0.006210 
#    z -0.005710 0.006210 1.693000 
# 
# From -- ./inp_files/154811.got.cif
#   From: 2010.05.17/outbox.cif.g08.bks.cpg/sg2_78_cif.got.tgz:154811.got - 2010.06.03 11:33:40.
