data_PCOD9024676
_publ_section_title
;
Structure prediction by ZEFSAII (Michael W. Deem and Ramdas Pophale) SiO2 
 PCOD9024676
Probable space group: P -1
;
_chemical_formula_sum "Si O2"
_cell_formula_units_Z 13
_cell_length_a 5.704236
_cell_length_b 12.439679
_cell_length_c 13.998407
_cell_angle_alpha 28.063721
_cell_angle_beta 88.436712
_cell_angle_gamma 95.039700
_cell_volume 453.711116
_symmetry_space_group_name_H-M "P -1"
_symmetry_group_IT_number 2
_symmetry_cell_setting 'triclinic'
loop_
_space_group_symop_operation_xyz
x,y,z
-x,-y,-z
loop_
_atom_site_type_symbol
_atom_site_label
_atom_site_fract_x
_atom_site_fract_y
_atom_site_fract_z
Si Si1 0.000000 0.000000 0.500000
Si Si2 0.522266 0.279198 0.235128
Si Si3 0.423348 0.083108 0.078605
Si Si4 0.238212 0.200048 0.811569
Si Si5 0.950130 0.700064 0.447418
Si Si6 0.214350 0.871153 0.810567
Si Si7 0.107379 0.556490 0.749934
O O1 0.266788 0.099425 0.366109
O O2 0.034840 0.257837 0.352512
O O3 0.740642 0.173636 0.265420
O O4 0.621663 0.347800 0.286941
O O5 0.500000 0.500000 0.000000
O O6 0.369343 0.269761 0.856569
O O7 0.191314 0.887263 0.265748
O O8 0.562929 0.184170 0.091798
O O9 0.597641 0.947232 0.128899
O O10 0.186381 0.377287 0.591619
O O11 0.000000 0.000000 0.000000
O O12 0.800261 0.866801 0.370586
O O13 0.025608 0.534421 0.656464
O O14 0.987397 0.688504 0.000852
#
# Coordination Sequence:
#
# PCOD9024676 Si02
#       7
#     1   2   2   2   2   2   2
#     4  12  26  46  70  92 130 180 230 280 344 400
#     4  12  27  47  66  95 136 177 229 284 338 402
#     4   9  18  37  66  97 131 173 222 272 337 401
#     4   8  16  35  65  96 131 175 215 271 337 401
#     4  10  22  40  65  97 133 173 226 275 335 404
#     4  11  24  42  67  97 135 177 224 283 338 397
#     4  12  26  42  66  96 131 176 227 280 340 400
#
# _framework density 28.652594000000001
#
# number of rings (size 3 to 8) (size 9 to 14) (size 15 to 20)
#    0.000    1.538    1.538    2.769    4.308    2.462 
#    0.000    0.769    0.000   31.385    0.000    0.000 
#    0.000    0.000    0.000    0.000    0.000    0.000 
#
# Total GULP energy -72643.291140 kJ/mol
# GULP energy per Si atom -5587.945472 kJ/mol
# Density = 2.858738 g / cm^3
# Si number density = 28.652594 Si / 1000 Ang^3
#
#
#
# Elastic Constant Matrix: (Units=GPa)
#
#
# Indices 1 2 3 4 5 6 
#
# 1 103.3350 23.7049 31.0066 13.6768 1.2292 0.8754
# 2 23.7049 122.9168 43.4433 42.8829 7.1879 21.5410
# 3 31.0066 43.4433 143.6740 23.2215 18.9060 6.5079
# 4 13.6768 42.8829 23.2215 60.3260 6.1721 10.8419
# 5 1.2292 7.1879 18.9060 6.1721 62.4069 3.6604
# 6 0.8754 21.5410 6.5079 10.8419 3.6604 48.5368
#
#
#
# Elastic Compliance Matrix: (Units=1/GPa)
#
#
# Indices 1 2 3 4 5 6 
#
# 1 0.010638 -0.001197 -0.001875 -0.001036 0.000553 0.000780
# 2 -0.001197 0.012156 -0.002161 -0.006917 0.000171 -0.003551
# 3 -0.001875 -0.002161 0.008476 -0.001127 -0.002186 0.000273
# 4 -0.001036 -0.006917 -0.001127 0.022573 -0.000973 -0.001729
# 5 0.000553 0.000171 -0.002186 -0.000973 0.016801 -0.000842
# 6 0.000780 -0.003551 0.000273 -0.001729 -0.000842 0.022578
#
#
# Mechanical properties :
#
#
# Convention : Reuss Voigt Hill
#
# Bulk Modulus (GPa) = 48.06466 62.91505 55.48985
# Shear Modulus (GPa) = 45.19945 52.37202 48.78574
#
# Velocity S-wave (km/s) = 3.97608 4.27995 4.13081
# Velocity P-wave (km/s) = 6.15552 6.81392 6.49307
#
# Compressibility (1/GPa) = 0.02080531
#
# Stress axis : x y z
#
# Youngs Moduli (GPa) = 94.00046 82.26620 117.98505
#
# Poissons Ratio (x) = 0.09843 0.22118
# Poissons Ratio (y) = 0.11248 0.25496
# Poissons Ratio (z) = 0.17622 0.17777
#
# Static dielectric constant tensor:
#      x y z
#    x 1.910770 -0.109760 -0.128680 
#    y -0.109760 2.172890 0.009380 
#    z -0.128680 0.009380 2.074480 
# 
# From -- ./inp_files/484125.got.cif
#   From: 2010.05.17/outbox.cif.g08.bks.cpg/sg2_243_cif.got.tgz:484125.got - 2010.06.03 11:33:40.
