data_PCOD9024473
_publ_section_title
;
Structure prediction by ZEFSAII (Michael W. Deem and Ramdas Pophale) SiO2 
 PCOD9024473
Probable space group: P -1
;
_chemical_formula_sum "Si O2"
_cell_formula_units_Z 14
_cell_length_a 18.041555
_cell_length_b 8.519651
_cell_length_c 6.972372
_cell_angle_alpha 103.701939
_cell_angle_beta 136.551120
_cell_angle_gamma 66.180547
_cell_volume 671.535986
_symmetry_space_group_name_H-M "P -1"
_symmetry_group_IT_number 2
_symmetry_cell_setting 'triclinic'
loop_
_space_group_symop_operation_xyz
x,y,z
-x,-y,-z
loop_
_atom_site_type_symbol
_atom_site_label
_atom_site_fract_x
_atom_site_fract_y
_atom_site_fract_z
Si Si1 0.085635 0.353468 0.252825
Si Si2 0.900320 0.917462 0.109595
Si Si3 0.651541 0.012358 0.819306
Si Si4 0.435544 0.647656 0.069643
Si Si5 0.946508 0.263147 0.306652
Si Si6 0.262668 0.495512 0.812112
Si Si7 0.545913 0.734453 0.641841
O O1 0.193883 0.408396 0.525082
O O2 0.022727 0.325612 0.320292
O O3 0.118676 0.180353 0.140925
O O4 0.000000 0.500000 0.000000
O O5 0.995891 0.785867 0.388666
O O6 0.932153 0.084360 0.164970
O O7 0.784365 0.976054 0.033609
O O8 0.594490 0.143975 0.926979
O O9 0.581126 0.122911 0.537682
O O10 0.621868 0.840732 0.728382
O O11 0.520321 0.607324 0.403263
O O12 0.500000 0.500000 0.000000
O O13 0.308958 0.636379 0.849552
O O14 0.823911 0.412525 0.152255
O O15 0.381761 0.358826 0.070308
#
# Coordination Sequence:
#
# PCOD9024473 Si02
#       7
#     2   2   2   2   2   2   2
#     4  12  27  41  66 106 133 176 233 271 331 403
#     4  11  23  45  69  94 140 172 227 276 331 405
#     4   9  20  41  66  90 128 178 206 272 341 382
#     4  10  22  40  64  99 126 167 222 266 330 402
#     4  11  24  45  68  96 137 180 221 277 342 385
#     4  12  23  42  65  97 132 177 217 279 338 387
#     4   9  21  40  66  88 132 170 219 263 336 393
#
# _framework density 20.847729000000001
#
# number of rings (size 3 to 8) (size 9 to 14) (size 15 to 20)
#    0.857    0.571    2.857    2.143    4.000    0.000 
#    0.000    7.143    0.000    0.000    0.000    0.000 
#    0.000    0.000    0.000    0.000    0.000    0.000 
#
# Total GULP energy -77975.347419 kJ/mol
# GULP energy per Si atom -5569.667673 kJ/mol
# Density = 2.080028 g / cm^3
# Si number density = 20.847729 Si / 1000 Ang^3
#
#
#
# Elastic Constant Matrix: (Units=GPa)
#
#
# Indices 1 2 3 4 5 6 
#
# 1 57.8030 21.6770 11.4250 23.0598 10.0822 5.1638
# 2 21.6770 72.2399 38.2282 27.5875 -0.0931 9.7950
# 3 11.4250 38.2282 86.0532 32.0753 13.8785 19.4289
# 4 23.0598 27.5875 32.0753 46.8061 1.2717 5.3462
# 5 10.0822 -0.0931 13.8785 1.2717 27.1340 7.2183
# 6 5.1638 9.7950 19.4289 5.3462 7.2183 31.6368
#
#
#
# Elastic Compliance Matrix: (Units=1/GPa)
#
#
# Indices 1 2 3 4 5 6 
#
# 1 0.025609 -0.005871 0.006233 -0.012957 -0.011766 -0.001315
# 2 -0.005871 0.021771 -0.007961 -0.004476 0.006999 -0.001734
# 3 0.006233 -0.007961 0.022623 -0.012692 -0.011263 -0.007731
# 4 -0.012957 -0.004476 -0.012692 0.038528 0.008743 0.002790
# 5 -0.011766 0.006999 -0.011263 0.008743 0.048142 -0.005791
# 6 -0.001315 -0.001734 -0.007731 0.002790 -0.005791 0.037958
#
#
# Mechanical properties :
#
#
# Convention : Reuss Voigt Hill
#
# Bulk Modulus (GPa) = 18.24722 39.86184 29.05453
# Shear Modulus (GPa) = 21.92048 30.76642 26.34345
#
# Velocity S-wave (km/s) = 3.24613 3.84574 3.55859
# Velocity P-wave (km/s) = 4.77718 6.23551 5.55442
#
# Compressibility (1/GPa) = 0.05480287
#
# Stress axis : x y z
#
# Youngs Moduli (GPa) = 39.04860 45.93325 44.20364
#
# Poissons Ratio (x) = 0.26969 -0.27550
# Poissons Ratio (y) = 0.22927 0.35191
# Poissons Ratio (z) = -0.24337 0.36568
#
# Static dielectric constant tensor:
#      x y z
#    x 1.754390 0.036490 -0.038510 
#    y 0.036490 1.824180 -0.041600 
#    z -0.038510 -0.041600 1.791400 
# 
# From -- ./inp_files/105493.got.cif
#   From: 2010.05.17/outbox.cif.g08.bks.cpg/sg2_53_cif.got.tgz:105493.got - 2010.06.03 11:33:40.
