data_PCOD9024404
_publ_section_title
;
Structure prediction by ZEFSAII (Michael W. Deem and Ramdas Pophale) SiO2 
 PCOD9024404
Probable space group: P -1
;
_chemical_formula_sum "Si O2"
_cell_formula_units_Z 14
_cell_length_a 16.028026
_cell_length_b 12.034096
_cell_length_c 8.267355
_cell_angle_alpha 88.352285
_cell_angle_beta 130.918959
_cell_angle_gamma 130.903961
_cell_volume 649.839831
_symmetry_space_group_name_H-M "P -1"
_symmetry_group_IT_number 2
_symmetry_cell_setting 'triclinic'
loop_
_space_group_symop_operation_xyz
x,y,z
-x,-y,-z
loop_
_atom_site_type_symbol
_atom_site_label
_atom_site_fract_x
_atom_site_fract_y
_atom_site_fract_z
Si Si1 0.630025 0.935688 0.230969
Si Si2 0.193833 0.644674 0.120222
Si Si3 0.402094 0.559138 0.785206
Si Si4 0.095708 0.356526 0.796776
Si Si5 0.779627 0.759575 0.194066
Si Si6 0.440154 0.903814 0.719330
Si Si7 0.087875 0.466620 0.431334
O O1 0.532139 0.941502 0.228964
O O2 0.865777 0.127161 0.562969
O O3 0.508832 0.719101 0.061746
O O4 0.604121 0.969241 0.018682
O O5 0.385849 0.826011 0.472277
O O6 0.187582 0.518855 0.036555
O O7 0.000000 0.500000 0.000000
O O8 0.134087 0.686235 0.908054
O O9 0.293864 0.358727 0.726011
O O10 0.218834 0.484420 0.497547
O O11 0.597175 0.689977 0.920457
O O12 0.203366 0.330228 0.900937
O O13 0.083472 0.415188 0.608842
O O14 0.000000 0.000000 0.500000
O O15 0.235321 0.698614 0.578140
#
# Coordination Sequence:
#
# PCOD9024404 Si02
#       7
#     2   2   2   2   2   2   2
#     4  10  17  31  53  79 108 144 179 218 271 325
#     4  10  18  32  51  81 111 148 179 220 270 330
#     4   9  19  33  52  82 110 136 182 234 269 318
#     4  11  19  30  55  81 109 141 188 225 265 326
#     4  10  19  33  54  83 105 139 187 232 270 319
#     4   9  19  32  52  77 112 151 176 214 277 327
#     4   9  18  31  52  76 108 143 178 220 265 320
#
# _framework density 21.543771
#
# number of rings (size 3 to 8) (size 9 to 14) (size 15 to 20)
#    0.000    2.286    4.286    0.429    0.000    0.000 
#    0.000    0.714    0.000    7.714    0.000   26.000 
#    0.000    0.000    0.000    0.000    0.000    0.000 
#
# Total GULP energy -78015.869963 kJ/mol
# GULP energy per Si atom -5572.562140 kJ/mol
# Density = 2.149474 g / cm^3
# Si number density = 21.543771 Si / 1000 Ang^3
#
#
#
# Elastic Constant Matrix: (Units=GPa)
#
#
# Indices 1 2 3 4 5 6 
#
# 1 132.6871 19.8815 54.6842 1.5767 -1.5365 -35.7651
# 2 19.8815 66.0221 13.9285 25.2166 -7.3982 -5.2682
# 3 54.6842 13.9285 106.5987 9.0806 -12.5947 -16.6563
# 4 1.5767 25.2166 9.0806 25.6201 0.9811 4.4564
# 5 -1.5365 -7.3982 -12.5947 0.9811 39.5912 3.4530
# 6 -35.7651 -5.2682 -16.6563 4.4564 3.4530 35.4395
#
#
#
# Elastic Compliance Matrix: (Units=1/GPa)
#
#
# Indices 1 2 3 4 5 6 
#
# 1 0.012733 -0.003269 -0.005096 0.002620 -0.002666 0.009899
# 2 -0.003269 0.027833 0.001969 -0.028960 0.005998 0.004821
# 3 -0.005096 0.001969 0.013096 -0.006733 0.004352 0.001727
# 4 0.002620 -0.028960 -0.006733 0.072355 -0.008099 -0.013135
# 5 -0.002666 0.005998 0.004352 -0.008099 0.027988 -0.001462
# 6 0.009899 0.004821 0.001727 -0.013135 -0.001462 0.041530
#
#
# Mechanical properties :
#
#
# Convention : Reuss Voigt Hill
#
# Bulk Modulus (GPa) = 24.46802 53.58848 39.02825
# Shear Modulus (GPa) = 22.52760 34.58442 28.55601
#
# Velocity S-wave (km/s) = 3.23719 4.01098 3.64467
# Velocity P-wave (km/s) = 5.03533 6.81020 5.98888
#
# Compressibility (1/GPa) = 0.04086967
#
# Stress axis : x y z
#
# Youngs Moduli (GPa) = 78.53722 35.92845 76.36137
#
# Poissons Ratio (x) = 0.11744 0.38915
# Poissons Ratio (y) = 0.25672 -0.15036
# Poissons Ratio (z) = 0.40024 -0.07074
#
# Static dielectric constant tensor:
#      x y z
#    x 1.888850 0.023520 0.049160 
#    y 0.023520 1.872560 0.000650 
#    z 0.049160 0.000650 1.811950 
# 
# From -- ./inp_files/331063.got.cif
#   From: 2010.05.17/outbox.cif.g08.bks.cpg/sg2_166_cif.got.tgz:331063.got - 2010.06.03 11:33:40.
