data_PCOD9024989
_publ_section_title
;
Structure prediction by ZEFSAII (Michael W. Deem and Ramdas Pophale) SiO2 
 PCOD9024989
Probable space group: P -1
;
_chemical_formula_sum "Si O2"
_cell_formula_units_Z 16
_cell_length_a 10.903369
_cell_length_b 8.892012
_cell_length_c 14.128877
_cell_angle_alpha 96.684091
_cell_angle_beta 136.436249
_cell_angle_gamma 58.300286
_cell_volume 716.930626
_symmetry_space_group_name_H-M "P -1"
_symmetry_group_IT_number 2
_symmetry_cell_setting 'triclinic'
loop_
_space_group_symop_operation_xyz
x,y,z
-x,-y,-z
loop_
_atom_site_type_symbol
_atom_site_label
_atom_site_fract_x
_atom_site_fract_y
_atom_site_fract_z
Si Si1 0.535968 0.452366 0.626620
Si Si2 0.975064 0.315126 0.572633
Si Si3 0.739581 0.952880 0.108954
Si Si4 0.042600 0.642579 0.645285
Si Si5 0.026531 0.280809 0.187350
Si Si6 0.041094 0.575468 0.121804
Si Si7 0.583891 0.315135 0.933359
Si Si8 0.249332 0.922802 0.170516
O O1 0.500000 0.500000 0.500000
O O2 0.293360 0.579354 0.553725
O O3 0.709890 0.486408 0.759547
O O4 0.666126 0.224650 0.705687
O O5 0.034001 0.251172 0.491148
O O6 0.111812 0.153070 0.720245
O O7 0.005986 0.480258 0.612418
O O8 0.871565 0.800955 0.082295
O O9 0.500000 0.000000 0.000000
O O10 0.676167 0.157840 0.057839
O O11 0.916523 0.781721 0.676082
O O12 0.319687 0.514094 0.809194
O O13 0.026159 0.459954 0.187741
O O14 0.774741 0.342862 0.028644
O O15 0.206469 0.111684 0.200868
O O16 0.000000 0.500000 0.000000
O O17 0.583508 0.205467 0.832609
O O18 0.000000 0.000000 0.000000
#
# Coordination Sequence:
#
# PCOD9024989 Si02
#       8
#     2   2   2   2   2   2   2   2
#     4  12  23  44  72  97 137 185 225 274 340 407
#     4  11  24  43  69  94 134 181 229 267 348 398
#     4  12  23  44  70  99 130 181 228 275 333 412
#     4  11  22  43  68  97 131 177 225 276 334 404
#     4  11  22  40  65 103 132 169 222 278 334 392
#     4  12  24  42  68 105 138 173 225 285 338 395
#     4  11  21  40  70  96 132 174 221 274 330 413
#     4  10  22  40  66  99 130 174 223 266 332 410
#
# _framework density 22.317359
#
# number of rings (size 3 to 8) (size 9 to 14) (size 15 to 20)
#    0.000    0.750    5.000    4.125    0.000    0.000 
#    0.000    4.375    0.000    0.000    0.000    0.000 
#    0.000    0.000    0.000    0.000    0.000    0.000 
#
# Total GULP energy -89434.496496 kJ/mol
# GULP energy per Si atom -5589.656031 kJ/mol
# Density = 2.226656 g / cm^3
# Si number density = 22.317359 Si / 1000 Ang^3
#
#
#
# Elastic Constant Matrix: (Units=GPa)
#
#
# Indices 1 2 3 4 5 6 
#
# 1 76.9199 5.8761 17.1042 -4.4247 -3.7647 -1.7875
# 2 5.8761 52.2725 14.5304 -2.2153 -7.4813 -2.1912
# 3 17.1042 14.5304 83.4028 -12.1944 -10.1306 -1.9870
# 4 -4.4247 -2.2153 -12.1944 27.0689 3.3589 -13.0054
# 5 -3.7647 -7.4813 -10.1306 3.3589 60.2526 13.4665
# 6 -1.7875 -2.1912 -1.9870 -13.0054 13.4665 47.0590
#
#
#
# Elastic Compliance Matrix: (Units=1/GPa)
#
#
# Indices 1 2 3 4 5 6 
#
# 1 0.013705 -0.000756 -0.002440 0.001424 0.000106 0.000746
# 2 -0.000756 0.020375 -0.003158 0.000004 0.001897 0.000245
# 3 -0.002440 -0.003158 0.014161 0.006476 0.001063 0.001844
# 4 0.001424 0.000004 0.006476 0.047870 -0.004829 0.014939
# 5 0.000106 0.001897 0.001063 -0.004829 0.018754 -0.006564
# 6 0.000746 0.000245 0.001844 0.014939 -0.006564 0.027375
#
#
# Mechanical properties :
#
#
# Convention : Reuss Voigt Hill
#
# Bulk Modulus (GPa) = 28.14243 31.95739 30.04991
# Shear Modulus (GPa) = 29.97752 38.54840 34.26296
#
# Velocity S-wave (km/s) = 3.66900 4.16057 3.92249
# Velocity P-wave (km/s) = 5.53048 6.11809 5.83169
#
# Compressibility (1/GPa) = 0.03553354
#
# Stress axis : x y z
#
# Youngs Moduli (GPa) = 72.96445 49.07931 70.61897
#
# Poissons Ratio (x) = 0.03708 0.17232
# Poissons Ratio (y) = 0.05513 0.22302
# Poissons Ratio (z) = 0.17804 0.15499
#
# Static dielectric constant tensor:
#      x y z
#    x 1.800380 -0.013450 -0.031870 
#    y -0.013450 1.831980 -0.012040 
#    z -0.031870 -0.012040 1.835530 
# 
# From -- ./inp_files/514470.got.cif
#   From: 2010.05.17/outbox.cif.g08.bks.cpg/sg2_258_cif.got.tgz:514470.got - 2010.06.03 11:33:40.
