data_PCOD9024680
_publ_section_title
;
Structure prediction by ZEFSAII (Michael W. Deem and Ramdas Pophale) SiO2 
 PCOD9024680
Probable space group: P -1
;
_chemical_formula_sum "Si O2"
_cell_formula_units_Z 16
_cell_length_a 8.708462
_cell_length_b 29.061559
_cell_length_c 20.693086
_cell_angle_alpha 20.780762
_cell_angle_beta 40.208178
_cell_angle_gamma 28.981131
_cell_volume 854.412199
_symmetry_space_group_name_H-M "P -1"
_symmetry_group_IT_number 2
_symmetry_cell_setting 'triclinic'
loop_
_space_group_symop_operation_xyz
x,y,z
-x,-y,-z
loop_
_atom_site_type_symbol
_atom_site_label
_atom_site_fract_x
_atom_site_fract_y
_atom_site_fract_z
Si Si1 0.570881 0.620407 0.837946
Si Si2 0.551026 0.658673 0.652443
Si Si3 0.745300 0.287787 0.055341
Si Si4 0.142226 0.117396 0.493566
Si Si5 0.188357 0.503808 0.841954
Si Si6 0.776159 0.383842 0.737080
Si Si7 0.116884 0.027556 0.169340
Si Si8 0.823107 0.636416 0.466428
O O1 0.555980 0.701113 0.669101
O O2 0.321606 0.756083 0.797485
O O3 0.941104 0.485340 0.925997
O O4 0.500000 0.500000 0.000000
O O5 0.767710 0.656890 0.533966
O O6 0.169841 0.793433 0.571731
O O7 0.709887 0.453554 0.863847
O O8 0.070781 0.120822 0.130431
O O9 0.442516 0.375087 0.987499
O O10 0.040470 0.290119 0.332674
O O11 0.500000 0.000000 0.500000
O O12 0.117636 0.009011 0.695390
O O13 0.408036 0.471616 0.754067
O O14 0.828224 0.486471 0.634586
O O15 0.873512 0.402127 0.612277
O O16 0.002765 0.175513 0.959127
O O17 0.481544 0.833566 0.292350
#
# Coordination Sequence:
#
# PCOD9024680 Si02
#       8
#     2   2   2   2   2   2   2   2
#     4  10  20  31  54  79 107 146 180 214 272 332
#     4   9  18  35  49  77 112 138 178 221 270 321
#     4   9  17  32  53  79 105 142 178 216 262 322
#     4  10  19  32  52  76 111 142 176 223 266 318
#     4  10  18  35  50  78 107 139 183 220 265 316
#     4  10  19  32  57  79 104 142 180 230 271 312
#     4  10  17  31  53  84 109 134 177 221 273 316
#     4  10  18  34  52  81 110 134 181 232 273 309
#
# _framework density 18.726324999999999
#
# number of rings (size 3 to 8) (size 9 to 14) (size 15 to 20)
#    0.000    2.250    5.000    1.500    0.000    5.000 
#    0.000    6.250    0.000    0.000    0.000    4.375 
#    0.000    0.000    0.000    0.000    0.000    0.000 
#
# Total GULP energy -89108.979565 kJ/mol
# GULP energy per Si atom -5569.311223 kJ/mol
# Density = 1.868370 g / cm^3
# Si number density = 18.726325 Si / 1000 Ang^3
#
#
#
# Elastic Constant Matrix: (Units=GPa)
#
#
# Indices 1 2 3 4 5 6 
#
# 1 36.1766 18.3276 6.8860 9.2415 -0.0685 6.5620
# 2 18.3276 99.6170 13.9541 20.0914 7.1847 10.8489
# 3 6.8860 13.9541 73.5107 -6.0425 -5.1255 5.6445
# 4 9.2415 20.0914 -6.0425 34.2940 9.2052 7.4692
# 5 -0.0685 7.1847 -5.1255 9.2052 17.3267 11.5209
# 6 6.5620 10.8489 5.6445 7.4692 11.5209 17.5659
#
#
#
# Elastic Compliance Matrix: (Units=1/GPa)
#
#
# Indices 1 2 3 4 5 6 
#
# 1 0.035450 -0.004076 -0.000363 -0.008066 0.019121 -0.019720
# 2 -0.004076 0.012650 -0.002459 -0.005902 -0.001534 -0.001984
# 3 -0.000363 -0.002459 0.016387 0.003957 0.012917 -0.013766
# 4 -0.008066 -0.005902 0.003957 0.040273 -0.017743 -0.000100
# 5 0.019121 -0.001534 0.012917 -0.017743 0.130408 -0.088332
# 6 -0.019720 -0.001984 -0.013766 -0.000100 -0.088332 0.127921
#
#
# Mechanical properties :
#
#
# Convention : Reuss Voigt Hill
#
# Bulk Modulus (GPa) = 19.72722 31.95998 25.84360
# Shear Modulus (GPa) = 12.69741 25.17974 18.93858
#
# Velocity S-wave (km/s) = 2.60677 3.67088 3.18360
# Velocity P-wave (km/s) = 4.42918 5.92208 5.22918
#
# Compressibility (1/GPa) = 0.05069138
#
# Stress axis : x y z
#
# Youngs Moduli (GPa) = 28.20885 79.05195 61.02347
#
# Poissons Ratio (x) = 0.32220 0.02213
# Poissons Ratio (y) = 0.11497 0.15007
# Poissons Ratio (z) = 0.01023 0.19441
#
# Static dielectric constant tensor:
#      x y z
#    x 1.647150 0.017060 0.014630 
#    y 0.017060 1.691110 0.024500 
#    z 0.014630 0.024500 1.706000 
# 
# From -- ./inp_files/555429.got.cif
#   From: 2010.05.17/outbox.cif.g08.bks.cpg/sg2_278_cif.got.tgz:555429.got - 2010.06.03 11:33:40.
