data_PCOD9024907
_publ_section_title
;
Structure prediction by ZEFSAII (Michael W. Deem and Ramdas Pophale) SiO2 
 PCOD9024907
Probable space group: P -1
;
_chemical_formula_sum "Si O2"
_cell_formula_units_Z 16
_cell_length_a 10.628448
_cell_length_b 13.346899
_cell_length_c 14.444079
_cell_angle_alpha 157.934992
_cell_angle_beta 122.222598
_cell_angle_gamma 54.208981
_cell_volume 624.103485
_symmetry_space_group_name_H-M "P -1"
_symmetry_group_IT_number 2
_symmetry_cell_setting 'triclinic'
loop_
_space_group_symop_operation_xyz
x,y,z
-x,-y,-z
loop_
_atom_site_type_symbol
_atom_site_label
_atom_site_fract_x
_atom_site_fract_y
_atom_site_fract_z
Si Si1 0.326513 0.341386 0.397031
Si Si2 0.960549 0.197191 0.333710
Si Si3 0.771324 0.223971 0.113658
Si Si4 0.270168 0.298079 0.616216
Si Si5 0.049403 0.265879 0.936863
Si Si6 0.545252 0.766414 0.200945
Si Si7 0.856536 0.262805 0.687009
Si Si8 0.639494 0.041967 0.311226
O O1 0.190963 0.569201 0.486339
O O2 0.336173 0.528466 0.651658
O O3 0.506781 0.208492 0.331611
O O4 0.265502 0.069395 0.152769
O O5 0.930021 0.198719 0.212785
O O6 0.114658 0.261592 0.480707
O O7 0.969485 0.897544 0.120418
O O8 0.743691 0.381629 0.140646
O O9 0.296652 0.250060 0.694268
O O10 0.412570 0.051669 0.419233
O O11 0.200954 0.079032 0.782806
O O12 0.898511 0.337387 0.871645
O O13 0.106271 0.533928 0.200730
O O14 0.580294 0.808172 0.142672
O O15 0.500000 0.500000 0.000000
O O16 0.691179 0.220532 0.565289
O O17 0.000000 0.000000 0.500000
#
# Coordination Sequence:
#
# PCOD9024907 Si02
#       8
#     2   2   2   2   2   2   2   2
#     4  10  24  42  68  98 134 175 223 274 337 394
#     4  10  24  42  64  97 128 180 223 276 325 398
#     4  10  23  44  66  97 136 173 226 271 333 395
#     4  11  23  41  65  94 134 173 223 276 333 396
#     4  10  22  40  66  95 132 172 222 271 332 398
#     4  11  24  39  64 100 130 171 220 274 339 400
#     4   9  21  39  63  93 128 173 217 269 333 391
#     4  11  22  40  65  93 135 173 217 276 336 397
#
# _framework density 25.636773000000002
#
# number of rings (size 3 to 8) (size 9 to 14) (size 15 to 20)
#    0.750    1.000    1.250    1.875    1.750    9.000 
#    0.000    1.250    0.000    0.000    0.000    0.000 
#    0.000    0.000    0.000    0.000    0.000    0.000 
#
# Total GULP energy -89280.734202 kJ/mol
# GULP energy per Si atom -5580.045888 kJ/mol
# Density = 2.557842 g / cm^3
# Si number density = 25.636773 Si / 1000 Ang^3
#
#
#
# Elastic Constant Matrix: (Units=GPa)
#
#
# Indices 1 2 3 4 5 6 
#
# 1 49.7099 23.5827 17.0886 -4.5615 -1.2327 -22.2175
# 2 23.5827 146.5453 25.7215 13.5132 12.0374 -33.3094
# 3 17.0886 25.7215 126.0990 28.9865 13.9971 -6.1433
# 4 -4.5615 13.5132 28.9865 39.0897 7.8159 13.4590
# 5 -1.2327 12.0374 13.9971 7.8159 31.7118 -5.8237
# 6 -22.2175 -33.3094 -6.1433 13.4590 -5.8237 45.1009
#
#
#
# Elastic Compliance Matrix: (Units=1/GPa)
#
#
# Indices 1 2 3 4 5 6 
#
# 1 0.027937 -0.001569 -0.003735 0.001239 0.005304 0.012409
# 2 -0.001569 0.009505 0.000176 -0.006217 -0.000740 0.008030
# 3 -0.003735 0.000176 0.010770 -0.008694 -0.002449 0.002036
# 4 0.001239 -0.006217 -0.008694 0.042315 -0.007632 -0.018778
# 5 0.005304 -0.000740 -0.002449 -0.007632 0.036587 0.008735
# 6 0.012409 0.008030 0.002036 -0.018778 0.008735 0.041225
#
#
# Mechanical properties :
#
#
# Convention : Reuss Voigt Hill
#
# Bulk Modulus (GPa) = 26.34653 50.57109 38.45881
# Shear Modulus (GPa) = 26.14434 40.24457 33.19446
#
# Velocity S-wave (km/s) = 3.19689 3.96637 3.60223
# Velocity P-wave (km/s) = 4.89142 6.38317 5.68643
#
# Compressibility (1/GPa) = 0.03795567
#
# Stress axis : x y z
#
# Youngs Moduli (GPa) = 35.79530 105.21112 92.85018
#
# Poissons Ratio (x) = 0.16512 0.34677
# Poissons Ratio (y) = 0.05618 -0.01637
# Poissons Ratio (z) = 0.13368 -0.01855
#
# Static dielectric constant tensor:
#      x y z
#    x 1.847250 -0.108320 0.438170 
#    y -0.108320 1.946580 0.220430 
#    z 0.438170 0.220430 0.980180 
# 
# From -- ./inp_files/570017.got.cif
#   From: 2010.05.17/outbox.cif.g08.bks.cpg/sg2_286_cif.got.tgz:570017.got - 2010.06.03 11:33:40.
