data_PCOD9024005
_publ_section_title
;
Structure prediction by ZEFSAII (Michael W. Deem and Ramdas Pophale) SiO2 
 PCOD9024005
Probable space group: P -1
;
_chemical_formula_sum "Si O2"
_cell_formula_units_Z 12
_cell_length_a 10.148691
_cell_length_b 8.694290
_cell_length_c 12.532570
_cell_angle_alpha 58.235351
_cell_angle_beta 56.547293
_cell_angle_gamma 44.168193
_cell_volume 626.318683
_symmetry_space_group_name_H-M "P -1"
_symmetry_group_IT_number 2
_symmetry_cell_setting 'triclinic'
loop_
_space_group_symop_operation_xyz
x,y,z
-x,-y,-z
loop_
_atom_site_type_symbol
_atom_site_label
_atom_site_fract_x
_atom_site_fract_y
_atom_site_fract_z
Si Si1 0.730965 0.390778 0.455353
Si Si2 0.383878 0.074746 0.135596
Si Si3 0.718652 0.816380 0.254002
Si Si4 0.891638 0.052929 0.145243
Si Si5 0.094360 0.559497 0.028281
Si Si6 0.931094 0.028047 0.684436
O O1 0.500000 0.500000 0.500000
O O2 0.739685 0.604058 0.374575
O O3 0.868558 0.197661 0.373925
O O4 0.830504 0.242639 0.572326
O O5 0.266922 0.342211 0.094277
O O6 0.222578 0.029741 0.218799
O O7 0.527760 0.944740 0.217252
O O8 0.500000 0.000000 0.000000
O O9 0.910641 0.704450 0.135475
O O10 0.731909 0.001263 0.240173
O O11 0.033543 0.921324 0.231068
O O12 0.824487 0.306789 0.100512
O O13 0.000000 0.000000 0.000000
O O14 0.000000 0.500000 0.000000
#
# Coordination Sequence:
#
# PCOD9024005 Si02
#       6
#     2   2   2   2   2   2
#     4  11  23  42  69  89 121 172 222 260 292 370
#     4  12  21  34  66  95 118 164 212 256 315 373
#     4  11  22  38  59  92 127 159 210 259 311 367
#     4  10  22  40  62  95 133 163 198 262 328 373
#     4  11  19  37  61  87 126 164 204 258 305 369
#     4  11  23  41  66  93 123 167 219 253 309 375
#
# _framework density 19.159575
#
# number of rings (size 3 to 8) (size 9 to 14) (size 15 to 20)
#    0.000    1.000    6.667    1.000    0.000    1.333 
#    0.000    4.167    0.000    0.000    0.000    0.000 
#    0.000    0.000    0.000    0.000    0.000    0.000 
#
# Total GULP energy -66846.492951 kJ/mol
# GULP energy per Si atom -5570.541079 kJ/mol
# Density = 1.911597 g / cm^3
# Si number density = 19.159575 Si / 1000 Ang^3
#
#
#
# Elastic Constant Matrix: (Units=GPa)
#
#
# Indices 1 2 3 4 5 6 
#
# 1 120.4409 40.4732 62.0987 -14.4230 -12.9264 -1.7493
# 2 40.4732 74.7244 32.2635 -18.2903 -4.1003 -17.8038
# 3 62.0987 32.2635 103.8352 -27.9687 -0.5481 -2.5035
# 4 -14.4230 -18.2903 -27.9687 39.8538 0.3417 -10.3337
# 5 -12.9264 -4.1003 -0.5481 0.3417 44.5147 -10.7780
# 6 -1.7493 -17.8038 -2.5035 -10.3337 -10.7780 32.6941
#
#
#
# Elastic Compliance Matrix: (Units=1/GPa)
#
#
# Indices 1 2 3 4 5 6 
#
# 1 0.014004 -0.005914 -0.007668 -0.003942 0.002625 -0.003439
# 2 -0.005914 0.025032 0.000170 0.014515 0.005235 0.019642
# 3 -0.007668 0.000170 0.017011 0.010248 -0.001149 0.003845
# 4 -0.003942 0.014515 0.010248 0.043752 0.005851 0.024236
# 5 0.002625 0.005235 -0.001149 0.005851 0.026952 0.013637
# 6 -0.003439 0.019642 0.003845 0.024236 0.013637 0.053549
#
#
# Mechanical properties :
#
#
# Convention : Reuss Voigt Hill
#
# Bulk Modulus (GPa) = 34.22089 63.18570 48.70330
# Shear Modulus (GPa) = 23.05587 34.35685 28.70636
#
# Velocity S-wave (km/s) = 3.47271 4.23921 3.87496
# Velocity P-wave (km/s) = 5.82918 7.55059 6.74503
#
# Compressibility (1/GPa) = 0.02922192
#
# Stress axis : x y z
#
# Youngs Moduli (GPa) = 71.41040 39.94820 58.78690
#
# Poissons Ratio (x) = 0.23626 0.45078
# Poissons Ratio (y) = 0.42234 -0.00999
# Poissons Ratio (z) = 0.54758 -0.00679
#
# Static dielectric constant tensor:
#      x y z
#    x 1.721370 0.079870 0.009970 
#    y 0.079870 1.737310 -0.010750 
#    z 0.009970 -0.010750 1.689600 
# 
# From -- ./inp_files/35114.got.cif
#   From: 2010.05.17/outbox.cif.g08.bks.cpg/sg2_18_cif.got.tgz:35114.got - 2010.06.03 11:33:40.
