data_PCOD9024943
_publ_section_title
;
Structure prediction by ZEFSAII (Michael W. Deem and Ramdas Pophale) SiO2 
 PCOD9024943
Probable space group: P -1
;
_chemical_formula_sum "Si O2"
_cell_formula_units_Z 16
_cell_length_a 17.763207
_cell_length_b 11.433754
_cell_length_c 8.674990
_cell_angle_alpha 64.134481
_cell_angle_beta 73.706220
_cell_angle_gamma 30.188751
_cell_volume 778.859085
_symmetry_space_group_name_H-M "P -1"
_symmetry_group_IT_number 2
_symmetry_cell_setting 'triclinic'
loop_
_space_group_symop_operation_xyz
x,y,z
-x,-y,-z
loop_
_atom_site_type_symbol
_atom_site_label
_atom_site_fract_x
_atom_site_fract_y
_atom_site_fract_z
Si Si1 0.677106 0.020125 0.059576
Si Si2 0.244069 0.433798 0.222053
Si Si3 0.395987 0.489455 0.134540
Si Si4 0.859074 0.822707 0.502354
Si Si5 0.185292 0.362906 0.576046
Si Si6 0.889052 0.922200 0.106542
Si Si7 0.479307 0.670338 0.493938
Si Si8 0.435804 0.973633 0.161476
O O1 0.539949 0.306096 0.040449
O O2 0.691165 0.877605 0.248427
O O3 0.835356 0.872817 0.069349
O O4 0.648530 0.003021 0.920881
O O5 0.344820 0.417537 0.159657
O O6 0.237646 0.410499 0.421464
O O7 0.067632 0.701384 0.114351
O O8 0.326712 0.202309 0.213046
O O9 0.455626 0.419299 0.316433
O O10 0.237723 0.791877 0.028154
O O11 0.849378 0.694044 0.504892
O O12 0.862633 0.917173 0.302020
O O13 0.022329 0.610783 0.611337
O O14 0.704701 0.057716 0.547316
O O15 0.500000 0.500000 0.500000
O O16 0.535545 0.722691 0.343289
O O17 0.500000 0.000000 0.000000
#
# Coordination Sequence:
#
# PCOD9024943 Si02
#       8
#     2   2   2   2   2   2   2   2
#     4  11  22  38  68  90 126 170 213 262 317 382
#     4  11  23  41  67  91 131 166 214 267 323 385
#     4  12  23  41  66  92 130 172 216 254 329 394
#     4   9  18  37  65  89 122 156 212 265 309 370
#     4   9  18  38  64  92 115 161 212 259 315 372
#     4  10  22  40  66  97 122 172 217 266 312 387
#     4  12  26  42  66  95 131 172 217 268 320 390
#     4  12  26  42  62 100 137 166 212 277 327 370
#
# _framework density 20.542869
#
# number of rings (size 3 to 8) (size 9 to 14) (size 15 to 20)
#    0.000    1.250    5.000    2.250    3.500    1.500 
#    2.250    0.000    0.000    2.250    0.000    0.000 
#    0.000    0.000    0.000    0.000    0.000    0.000 
#
# Total GULP energy -89192.532255 kJ/mol
# GULP energy per Si atom -5574.533266 kJ/mol
# Density = 2.049611 g / cm^3
# Si number density = 20.542869 Si / 1000 Ang^3
#
#
#
# Elastic Constant Matrix: (Units=GPa)
#
#
# Indices 1 2 3 4 5 6 
#
# 1 82.6288 40.5702 28.8452 1.5922 13.3115 8.0310
# 2 40.5702 81.3770 16.2413 -14.5909 -5.8375 -1.0959
# 3 28.8452 16.2413 58.2457 -13.5836 -5.2778 4.3908
# 4 1.5922 -14.5909 -13.5836 28.7553 1.5877 -3.2343
# 5 13.3115 -5.8375 -5.2778 1.5877 24.7382 3.2196
# 6 8.0310 -1.0959 4.3908 -3.2343 3.2196 31.4007
#
#
#
# Elastic Compliance Matrix: (Units=1/GPa)
#
#
# Indices 1 2 3 4 5 6 
#
# 1 0.030061 -0.016499 -0.015771 -0.016921 -0.021621 -0.005585
# 2 -0.016499 0.023075 0.006257 0.015280 0.014121 0.004276
# 3 -0.015771 0.006257 0.028447 0.016716 0.014898 0.000468
# 4 -0.016921 0.015280 0.016716 0.051434 0.012120 0.006578
# 5 -0.021621 0.014121 0.014898 0.012120 0.057887 -0.000748
# 6 -0.005585 0.004276 0.000468 0.006578 -0.000748 0.034113
#
#
# Mechanical properties :
#
#
# Convention : Reuss Voigt Hill
#
# Bulk Modulus (GPa) = 33.83181 43.72944 38.78063
# Shear Modulus (GPa) = 17.42798 26.08515 21.75656
#
# Velocity S-wave (km/s) = 2.91584 3.56728 3.25788
# Velocity P-wave (km/s) = 5.27644 6.18873 5.75071
#
# Compressibility (1/GPa) = 0.02955798
#
# Stress axis : x y z
#
# Youngs Moduli (GPa) = 33.26601 43.33603 35.15288
#
# Poissons Ratio (x) = 0.71501 0.55438
# Poissons Ratio (y) = 0.54886 -0.21996
# Poissons Ratio (z) = 0.52463 -0.27116
#
# Static dielectric constant tensor:
#      x y z
#    x 1.753470 0.000970 -0.056770 
#    y 0.000970 1.743610 -0.032110 
#    z -0.056770 -0.032110 1.805740 
# 
# From -- ./inp_files/331709.got.cif
#   From: 2010.05.17/outbox.cif.g08.bks.cpg/sg2_166_cif.got.tgz:331709.got - 2010.06.03 11:33:40.
