data_PCOD9024871
_publ_section_title
;
Structure prediction by ZEFSAII (Michael W. Deem and Ramdas Pophale) SiO2 
 PCOD9024871
Probable space group: P -1
;
_chemical_formula_sum "Si O2"
_cell_formula_units_Z 16
_cell_length_a 9.030492
_cell_length_b 18.384632
_cell_length_c 11.941298
_cell_angle_alpha 37.275086
_cell_angle_beta 70.302125
_cell_angle_gamma 45.246921
_cell_volume 728.890352
_symmetry_space_group_name_H-M "P -1"
_symmetry_group_IT_number 2
_symmetry_cell_setting 'triclinic'
loop_
_space_group_symop_operation_xyz
x,y,z
-x,-y,-z
loop_
_atom_site_type_symbol
_atom_site_label
_atom_site_fract_x
_atom_site_fract_y
_atom_site_fract_z
Si Si1 0.282429 0.976188 0.969163
Si Si2 0.903472 0.075416 0.115514
Si Si3 0.776148 0.393086 0.864645
Si Si4 0.844094 0.646460 0.259446
Si Si5 0.214146 0.528765 0.980879
Si Si6 0.998034 0.669818 0.523387
Si Si7 0.712521 0.782025 0.686960
Si Si8 0.277032 0.678732 0.581822
O O1 0.165494 0.171721 0.723727
O O2 0.105033 0.016646 0.053730
O O3 0.556107 0.826905 0.126044
O O4 0.267917 0.903869 0.947369
O O5 0.054910 0.900633 0.372923
O O6 0.778229 0.253601 0.998220
O O7 0.540911 0.585423 0.625481
O O8 0.026052 0.306535 0.866280
O O9 0.748017 0.439444 0.945299
O O10 0.000000 0.500000 0.500000
O O11 0.892411 0.520685 0.304138
O O12 0.278073 0.589357 0.796708
O O13 0.927318 0.667117 0.864881
O O14 0.352275 0.321345 0.180574
O O15 0.835086 0.747735 0.579901
O O16 0.213322 0.637079 0.539971
O O17 0.500000 0.000000 0.500000
#
# Coordination Sequence:
#
# PCOD9024871 Si02
#       8
#     2   2   2   2   2   2   2   2
#     4  10  23  43  67  91 130 170 218 265 308 391
#     4  10  23  43  65  95 125 175 221 257 319 380
#     4  12  24  39  64  95 133 167 209 273 323 377
#     4  12  25  40  64  96 131 168 209 270 329 374
#     4  10  23  41  61  97 129 165 217 263 319 383
#     4  10  22  42  66  92 122 172 217 258 321 384
#     4  10  22  40  66  94 127 167 213 264 320 383
#     4  10  23  42  65  88 131 172 216 264 313 383
#
# _framework density 21.951174000000002
#
# number of rings (size 3 to 8) (size 9 to 14) (size 15 to 20)
#    0.000    1.500    1.250    2.625    1.750    7.500 
#    0.000    5.000    0.000    0.000    0.000    0.000 
#    0.000    0.000    0.000    0.000    0.000    0.000 
#
# Total GULP energy -89479.063807 kJ/mol
# GULP energy per Si atom -5592.441488 kJ/mol
# Density = 2.190121 g / cm^3
# Si number density = 21.951174 Si / 1000 Ang^3
#
#
#
# Elastic Constant Matrix: (Units=GPa)
#
#
# Indices 1 2 3 4 5 6 
#
# 1 63.2752 19.7598 35.4632 -4.1629 14.9449 4.0575
# 2 19.7598 60.4878 30.8483 -8.2504 5.7363 15.2419
# 3 35.4632 30.8483 117.3341 -2.1782 5.4246 2.0959
# 4 -4.1629 -8.2504 -2.1782 24.0923 -2.7304 -10.8060
# 5 14.9449 5.7363 5.4246 -2.7304 41.3900 -7.7633
# 6 4.0575 15.2419 2.0959 -10.8060 -7.7633 37.7169
#
#
#
# Elastic Compliance Matrix: (Units=1/GPa)
#
#
# Indices 1 2 3 4 5 6 
#
# 1 0.021583 -0.003065 -0.005346 0.000456 -0.007032 -0.002103
# 2 -0.003065 0.022683 -0.004707 0.002741 -0.002809 -0.008368
# 3 -0.005346 -0.004707 0.011264 -0.000444 0.001457 0.002024
# 4 0.000456 0.002741 -0.000444 0.049447 0.005430 0.014152
# 5 -0.007032 -0.002809 0.001457 0.005430 0.029007 0.009337
# 6 -0.002103 -0.008368 0.002024 0.014152 0.009337 0.035985
#
#
# Mechanical properties :
#
#
# Convention : Reuss Voigt Hill
#
# Bulk Modulus (GPa) = 34.13713 45.91554 40.02634
# Shear Modulus (GPa) = 24.27516 30.97490 27.62503
#
# Velocity S-wave (km/s) = 3.32907 3.76051 3.55135
# Velocity P-wave (km/s) = 5.51018 6.31013 5.92368
#
# Compressibility (1/GPa) = 0.02929362
#
# Stress axis : x y z
#
# Youngs Moduli (GPa) = 46.33202 44.08617 88.77582
#
# Poissons Ratio (x) = 0.13513 0.47463
# Poissons Ratio (y) = 0.14201 0.41786
# Poissons Ratio (z) = 0.24771 0.20751
#
# Static dielectric constant tensor:
#      x y z
#    x 1.848600 -0.008740 0.000280 
#    y -0.008740 1.802120 0.001870 
#    z 0.000280 0.001870 1.791300 
# 
# From -- ./inp_files/113208.got.cif
#   From: 2010.05.17/outbox.cif.g08.bks.cpg/sg2_57_cif.got.tgz:113208.got - 2010.06.03 11:33:40.
