data_PCOD9024284
_publ_section_title
;
Structure prediction by ZEFSAII (Michael W. Deem and Ramdas Pophale) SiO2 
 PCOD9024284
Probable space group: P -1
;
_chemical_formula_sum "Si O2"
_cell_formula_units_Z 16
_cell_length_a 18.244276
_cell_length_b 8.848729
_cell_length_c 5.445787
_cell_angle_alpha 65.587677
_cell_angle_beta 107.400039
_cell_angle_gamma 117.570053
_cell_volume 703.300691
_symmetry_space_group_name_H-M "P -1"
_symmetry_group_IT_number 2
_symmetry_cell_setting 'triclinic'
loop_
_space_group_symop_operation_xyz
x,y,z
-x,-y,-z
loop_
_atom_site_type_symbol
_atom_site_label
_atom_site_fract_x
_atom_site_fract_y
_atom_site_fract_z
Si Si1 0.988012 0.268844 0.329421
Si Si2 0.567532 0.741898 0.198631
Si Si3 0.230217 0.371208 0.888730
Si Si4 0.073082 0.077778 0.825494
Si Si5 0.720764 0.318098 0.653010
Si Si6 0.585626 0.965888 0.571790
Si Si7 0.871262 0.438840 0.043810
Si Si8 0.380257 0.518402 0.275321
O O1 0.917041 0.332537 0.312719
O O2 0.052827 0.244497 0.596544
O O3 0.941019 0.075070 0.286857
O O4 0.049927 0.405869 0.106564
O O5 0.580385 0.867728 0.370555
O O6 0.469354 0.617723 0.173622
O O7 0.610175 0.603520 0.409499
O O8 0.591926 0.850406 0.895266
O O9 0.168134 0.164425 0.943593
O O10 0.249702 0.488995 0.582940
O O11 0.181006 0.466883 0.934509
O O12 0.313377 0.395326 0.098551
O O13 0.000000 0.000000 0.000000
O O14 0.653769 0.331728 0.772010
O O15 0.667524 0.152410 0.538284
O O16 0.803533 0.312016 0.865307
O O17 0.500000 0.000000 0.500000
#
# Coordination Sequence:
#
# PCOD9024284 Si02
#       8
#     2   2   2   2   2   2   2   2
#     4  10  22  40  64  90 126 162 219 270 327 400
#     4  11  26  46  71 103 135 180 229 275 334 404
#     4  11  23  41  66  92 130 170 220 267 338 394
#     4  11  22  40  62  91 122 170 212 267 329 393
#     4  11  24  42  66  93 134 175 217 276 339 394
#     4  12  25  44  70 102 138 177 226 279 336 399
#     4  10  22  41  61  94 125 169 214 271 329 398
#     4  10  25  43  70  96 133 174 219 272 334 402
#
# _framework density 22.749867999999999
#
# number of rings (size 3 to 8) (size 9 to 14) (size 15 to 20)
#    0.000    1.250    3.750    1.125    5.250    3.500 
#    2.250    0.000    0.000    0.000    0.000    0.000 
#    0.000    0.000    0.000    0.000    0.000    0.000 
#
# Total GULP energy -89384.000081 kJ/mol
# GULP energy per Si atom -5586.500005 kJ/mol
# Density = 2.269809 g / cm^3
# Si number density = 22.749868 Si / 1000 Ang^3
#
#
#
# Elastic Constant Matrix: (Units=GPa)
#
#
# Indices 1 2 3 4 5 6 
#
# 1 73.4337 33.5601 12.1049 6.5878 18.0482 5.5523
# 2 33.5601 112.9224 7.6414 22.0681 13.9839 35.7439
# 3 12.1049 7.6414 57.1991 2.7212 0.7579 -0.1802
# 4 6.5878 22.0681 2.7212 33.2009 7.0261 10.4049
# 5 18.0482 13.9839 0.7579 7.0261 31.0557 4.0838
# 6 5.5523 35.7439 -0.1802 10.4049 4.0838 35.7148
#
#
#
# Elastic Compliance Matrix: (Units=1/GPa)
#
#
# Indices 1 2 3 4 5 6 
#
# 1 0.018438 -0.005399 -0.003103 0.001049 -0.008871 0.003230
# 2 -0.005399 0.015891 -0.000772 -0.004965 -0.001101 -0.013496
# 3 -0.003103 -0.000772 0.018282 -0.001216 0.001783 0.001498
# 4 0.001049 -0.004965 -0.001216 0.036136 -0.005855 -0.005058
# 5 -0.008871 -0.001101 0.001783 -0.005855 0.039170 -0.000283
# 6 0.003230 -0.013496 0.001498 -0.005058 -0.000283 0.042518
#
#
# Mechanical properties :
#
#
# Convention : Reuss Voigt Hill
#
# Bulk Modulus (GPa) = 29.35697 38.90756 34.13227
# Shear Modulus (GPa) = 24.95797 32.67752 28.81774
#
# Velocity S-wave (km/s) = 3.31578 3.79408 3.56296
# Velocity P-wave (km/s) = 5.25276 6.02767 5.65351
#
# Compressibility (1/GPa) = 0.03406346
#
# Stress axis : x y z
#
# Youngs Moduli (GPa) = 54.23451 62.92848 54.69983
#
# Poissons Ratio (x) = 0.33973 0.16974
# Poissons Ratio (y) = 0.29279 0.04223
# Poissons Ratio (z) = 0.16829 0.04859
#
# Static dielectric constant tensor:
#      x y z
#    x 1.773850 -0.100330 0.057820 
#    y -0.100330 1.793100 0.048500 
#    z 0.057820 0.048500 1.910520 
# 
# From -- ./inp_files/46823.got.cif
#   From: 2010.05.17/outbox.cif.g08.bks.cpg/sg2_24_cif.got.tgz:46823.got - 2010.06.03 11:33:40.
