data_PCOD9024131
_publ_section_title
;
Structure prediction by ZEFSAII (Michael W. Deem and Ramdas Pophale) SiO2 
 PCOD9024131
Probable space group: P -1
;
_chemical_formula_sum "Si O2"
_cell_formula_units_Z 14
_cell_length_a 21.356999
_cell_length_b 10.926677
_cell_length_c 4.943025
_cell_angle_alpha 69.499160
_cell_angle_beta 81.981813
_cell_angle_gamma 32.052777
_cell_volume 543.913817
_symmetry_space_group_name_H-M "P -1"
_symmetry_group_IT_number 2
_symmetry_cell_setting 'triclinic'
loop_
_space_group_symop_operation_xyz
x,y,z
-x,-y,-z
loop_
_atom_site_type_symbol
_atom_site_label
_atom_site_fract_x
_atom_site_fract_y
_atom_site_fract_z
Si Si1 0.305090 0.717565 0.743082
Si Si2 0.612958 0.807243 0.370937
Si Si3 0.498659 0.781411 0.281250
Si Si4 0.278188 0.150084 0.527605
Si Si5 0.762037 0.003703 0.939503
Si Si6 0.042403 0.055531 0.594563
Si Si7 0.022597 0.663116 0.077853
O O1 0.440087 0.429874 0.791797
O O2 0.307879 0.766181 0.006476
O O3 0.192158 0.813414 0.707740
O O4 0.267444 0.902080 0.419966
O O5 0.621772 0.641182 0.420039
O O6 0.721291 0.694855 0.530080
O O7 0.500000 0.000000 0.500000
O O8 0.573382 0.975158 0.024178
O O9 0.404658 0.902057 0.474443
O O10 0.150185 0.361346 0.284171
O O11 0.275899 0.068030 0.862749
O O12 0.906186 0.773879 0.095950
O O13 0.997511 0.177668 0.827813
O O14 0.000000 0.000000 0.500000
O O15 0.985798 0.268869 0.272360
#
# Coordination Sequence:
#
# PCOD9024131 Si02
#       7
#     2   2   2   2   2   2   2
#     4  10  24  42  65  89 134 164 212 263 318 373
#     4   9  22  41  59  93 123 164 211 258 316 371
#     4  10  23  41  63  94 127 165 211 266 321 371
#     4  11  24  39  67  91 128 166 218 256 317 379
#     4  10  24  44  63  95 126 173 210 262 312 376
#     4  10  22  40  63  94 123 169 210 258 317 377
#     4  10  23  41  63  94 127 165 212 260 314 366
#
# _framework density 25.739374999999999
#
# number of rings (size 3 to 8) (size 9 to 14) (size 15 to 20)
#    0.000    2.000    0.000    0.857   10.000    3.429 
#    0.000    4.286    0.000    0.000    0.000    0.000 
#    0.000    0.000    0.000    0.000    0.000    0.000 
#
# Total GULP energy -78294.530085 kJ/mol
# GULP energy per Si atom -5592.466435 kJ/mol
# Density = 2.568079 g / cm^3
# Si number density = 25.739375 Si / 1000 Ang^3
#
#
#
# Elastic Constant Matrix: (Units=GPa)
#
#
# Indices 1 2 3 4 5 6 
#
# 1 127.8945 19.1009 -1.3939 0.9669 -11.2779 -14.9270
# 2 19.1009 106.2660 5.4875 -9.7761 -3.1288 -4.9752
# 3 -1.3939 5.4875 67.8476 16.3345 -2.4075 -5.9312
# 4 0.9669 -9.7761 16.3345 28.5177 -3.4221 3.8817
# 5 -11.2779 -3.1288 -2.4075 -3.4221 29.4947 11.1407
# 6 -14.9270 -4.9752 -5.9312 3.8817 11.1407 27.0702
#
#
#
# Elastic Compliance Matrix: (Units=1/GPa)
#
#
# Indices 1 2 3 4 5 6 
#
# 1 0.008727 -0.001564 0.001229 -0.001994 0.001328 0.004534
# 2 -0.001564 0.010261 -0.002073 0.004977 0.001129 -0.000609
# 3 0.001229 -0.002073 0.018509 -0.012616 -0.002404 0.007150
# 4 -0.001994 0.004977 -0.012616 0.047021 0.009297 -0.013518
# 5 0.001328 0.001129 -0.002404 0.009297 0.042344 -0.018347
# 6 0.004534 -0.000609 0.007150 -0.013518 -0.018347 0.050385
#
#
# Mechanical properties :
#
#
# Convention : Reuss Voigt Hill
#
# Bulk Modulus (GPa) = 30.59903 38.71078 34.65491
# Shear Modulus (GPa) = 25.91240 35.60409 30.75825
#
# Velocity S-wave (km/s) = 3.17633 3.72325 3.46061
# Velocity P-wave (km/s) = 5.03646 5.79272 5.42778
#
# Compressibility (1/GPa) = 0.03268077
#
# Stress axis : x y z
#
# Youngs Moduli (GPa) = 114.58340 97.45522 54.02794
#
# Poissons Ratio (x) = 0.15245 -0.06642
# Poissons Ratio (y) = 0.17924 0.11202
# Poissons Ratio (z) = -0.14086 0.20206
#
# Static dielectric constant tensor:
#      x y z
#    x 2.208330 0.077290 0.098510 
#    y 0.077290 2.005200 0.010370 
#    z 0.098510 0.010370 1.985770 
# 
# From -- ./inp_files/66117.got.cif
#   From: 2010.05.17/outbox.cif.g08.bks.cpg/sg2_34_cif.got.tgz:66117.got - 2010.06.03 11:33:40.
