data_PCOD9024772
_publ_section_title
;
Structure prediction by ZEFSAII (Michael W. Deem and Ramdas Pophale) SiO2 
 PCOD9024772
Probable space group: P -1
;
_chemical_formula_sum "Si O2"
_cell_formula_units_Z 9
_cell_length_a 9.237368
_cell_length_b 7.447589
_cell_length_c 4.996172
_cell_angle_alpha 73.854483
_cell_angle_beta 74.736729
_cell_angle_gamma 93.767369
_cell_volume 314.915626
_symmetry_space_group_name_H-M "P -1"
_symmetry_group_IT_number 2
_symmetry_cell_setting 'triclinic'
loop_
_space_group_symop_operation_xyz
x,y,z
-x,-y,-z
loop_
_atom_site_type_symbol
_atom_site_label
_atom_site_fract_x
_atom_site_fract_y
_atom_site_fract_z
Si Si1 0.996105 0.288597 0.370636
Si Si2 0.254873 0.554047 0.849181
Si Si3 0.000000 0.000000 0.000000
Si Si4 0.509994 0.864204 0.801825
Si Si5 0.758217 0.788247 0.360950
O O1 0.308824 0.382589 0.723875
O O2 0.059007 0.225310 0.654109
O O3 0.829029 0.336813 0.384356
O O4 0.016589 0.132177 0.211555
O O5 0.384716 0.681044 0.896302
O O6 0.118575 0.469046 0.150675
O O7 0.804514 0.985905 0.112371
O O8 0.669802 0.793726 0.675632
O O9 0.500000 0.000000 0.500000
O O10 0.500000 0.000000 0.000000
#
# Coordination Sequence:
#
# PCOD9024772 Si02
#       5
#     2   2   1   2   2
#     4  10  22  41  74 103 144 187 242 303 364 433
#     4  10  24  45  69 108 144 186 247 295 373 433
#     4  10  22  40  66 108 140 178 244 292 360 422
#     4  12  30  49  74 106 151 197 246 302 367 438
#     4  11  24  44  75 103 147 193 242 301 369 434
#
# _framework density 28.579083000000001
#
# number of rings (size 3 to 8) (size 9 to 14) (size 15 to 20)
#    0.000    1.333    0.000    3.333   12.444    0.889 
#    4.000    0.000    0.000    0.000    0.000    0.000 
#    0.000    0.000    0.000    0.000    0.000    0.000 
#
# Total GULP energy -50274.498272 kJ/mol
# GULP energy per Si atom -5586.055364 kJ/mol
# Density = 2.851404 g / cm^3
# Si number density = 28.579083 Si / 1000 Ang^3
#
#
#
# Elastic Constant Matrix: (Units=GPa)
#
#
# Indices 1 2 3 4 5 6 
#
# 1 117.2440 60.4188 56.6011 7.5746 -6.4018 27.2305
# 2 60.4188 208.7792 84.3931 40.4615 -25.7048 64.4767
# 3 56.6011 84.3931 191.3127 39.7780 5.2681 21.9882
# 4 7.5746 40.4615 39.7780 62.4078 -2.2779 8.2508
# 5 -6.4018 -25.7048 5.2681 -2.2779 58.7714 -11.8565
# 6 27.2305 64.4767 21.9882 8.2508 -11.8565 52.2597
#
#
#
# Elastic Compliance Matrix: (Units=1/GPa)
#
#
# Indices 1 2 3 4 5 6 
#
# 1 0.011213 -0.001537 -0.002658 0.001741 0.000240 -0.003048
# 2 -0.001537 0.010078 -0.002207 -0.003585 0.002362 -0.009602
# 3 -0.002658 -0.002207 0.007608 -0.003297 -0.001862 0.001004
# 4 0.001741 -0.003585 -0.003297 0.020008 0.000047 0.001754
# 5 0.000240 0.002362 -0.001862 0.000047 0.018639 0.001966
# 6 -0.003048 -0.009602 0.001004 0.001754 0.001966 0.032317
#
#
# Mechanical properties :
#
#
# Convention : Reuss Voigt Hill
#
# Bulk Modulus (GPa) = 62.12929 102.24019 82.18474
# Shear Modulus (GPa) = 42.36178 55.74931 49.05554
#
# Velocity S-wave (km/s) = 3.85420 4.42147 4.14754
# Velocity P-wave (km/s) = 6.44927 7.86880 7.19413
#
# Compressibility (1/GPa) = 0.01609547
#
# Stress axis : x y z
#
# Youngs Moduli (GPa) = 89.18230 99.23027 131.43933
#
# Poissons Ratio (x) = 0.15253 0.34932
# Poissons Ratio (y) = 0.13709 0.29005
# Poissons Ratio (z) = 0.23702 0.21898
#
# Static dielectric constant tensor:
#      x y z
#    x 2.494110 -0.110450 0.034830 
#    y -0.110450 2.472420 -0.479380 
#    z 0.034830 -0.479380 2.549880 
# 
# From -- ./inp_files/16323.got.cif
#   From: 2010.05.17/outbox.cif.g08.bks.cpg/sg2_9_cif.got.tgz:16323.got - 2010.06.03 11:33:40.
