data_PCOD9024543
_publ_section_title
;
Structure prediction by ZEFSAII (Michael W. Deem and Ramdas Pophale) SiO2 
 PCOD9024543
Probable space group: P -1
;
_chemical_formula_sum "Si O2"
_cell_formula_units_Z 16
_cell_length_a 15.397360
_cell_length_b 11.950588
_cell_length_c 14.958774
_cell_angle_alpha 114.805681
_cell_angle_beta 28.115586
_cell_angle_gamma 133.360164
_cell_volume 791.978506
_symmetry_space_group_name_H-M "P -1"
_symmetry_group_IT_number 2
_symmetry_cell_setting 'triclinic'
loop_
_space_group_symop_operation_xyz
x,y,z
-x,-y,-z
loop_
_atom_site_type_symbol
_atom_site_label
_atom_site_fract_x
_atom_site_fract_y
_atom_site_fract_z
Si Si1 0.030800 0.983327 0.232251
Si Si2 0.188008 0.371703 0.764918
Si Si3 0.086231 0.401724 0.380308
Si Si4 0.287123 0.995261 0.362090
Si Si5 0.297007 0.490657 0.906848
Si Si6 0.343169 0.361934 0.984428
Si Si7 0.954589 0.820630 0.427121
Si Si8 0.108644 0.659293 0.137468
O O1 0.968312 0.835279 0.178070
O O2 0.107987 0.962971 0.251762
O O3 0.767364 0.934341 0.485316
O O4 0.228938 0.180786 0.072882
O O5 0.500000 0.500000 0.500000
O O6 0.189532 0.415966 0.879752
O O7 0.075533 0.412205 0.807559
O O8 0.229042 0.420585 0.166403
O O9 0.000000 0.500000 0.500000
O O10 0.817238 0.187081 0.568820
O O11 0.328633 0.485385 0.257167
O O12 0.090015 0.924031 0.432132
O O13 0.591272 0.149809 0.102744
O O14 0.626657 0.679367 0.671449
O O15 0.254586 0.351329 0.961419
O O16 0.143149 0.536532 0.096014
O O17 0.004046 0.700644 0.321474
#
# Coordination Sequence:
#
# PCOD9024543 Si02
#       8
#     2   2   2   2   2   2   2   2
#     4  10  22  40  65  90 130 168 208 256 313 381
#     4  11  22  44  67  91 124 170 216 269 318 360
#     4  10  23  39  63  88 141 170 201 253 316 399
#     4  11  21  39  63 101 126 162 214 260 323 375
#     4  12  23  42  67  94 130 167 218 260 311 383
#     4  10  24  41  61  96 128 175 202 252 330 364
#     4  11  22  39  64  99 126 164 204 271 316 374
#     4  11  24  37  66  99 123 164 214 267 320 373
#
# _framework density 20.202569
#
# number of rings (size 3 to 8) (size 9 to 14) (size 15 to 20)
#    0.000    1.250    5.000    1.125    5.250    0.500 
#    0.000    0.000    0.000    2.250    0.000    0.000 
#    0.000    0.000    0.000    0.000    0.000    0.000 
#
# Total GULP energy -89309.820011 kJ/mol
# GULP energy per Si atom -5581.863751 kJ/mol
# Density = 2.015659 g / cm^3
# Si number density = 20.202569 Si / 1000 Ang^3
#
#
#
# Elastic Constant Matrix: (Units=GPa)
#
#
# Indices 1 2 3 4 5 6 
#
# 1 73.4475 11.3028 15.9762 -3.9970 -4.4892 -2.1349
# 2 11.3028 55.1455 9.8108 9.7178 -3.0504 -17.7240
# 3 15.9762 9.8108 47.3172 4.3114 -7.9719 -3.5345
# 4 -3.9970 9.7178 4.3114 27.8942 -5.1664 -0.2732
# 5 -4.4892 -3.0504 -7.9719 -5.1664 27.4233 -3.4950
# 6 -2.1349 -17.7240 -3.5345 -0.2732 -3.4950 34.7885
#
#
#
# Elastic Compliance Matrix: (Units=1/GPa)
#
#
# Indices 1 2 3 4 5 6 
#
# 1 0.015463 -0.003356 -0.004757 0.004381 0.001465 -0.001062
# 2 -0.003356 0.024683 -0.002040 -0.008350 0.001592 0.012257
# 3 -0.004757 -0.002040 0.024519 -0.002662 0.005840 0.001726
# 4 0.004381 -0.008350 -0.002662 0.040933 0.006306 -0.003301
# 5 0.001465 0.001592 0.005840 0.006306 0.040483 0.005611
# 6 -0.001062 0.012257 0.001726 -0.003301 0.005611 0.035638
#
#
# Mechanical properties :
#
#
# Convention : Reuss Voigt Hill
#
# Bulk Modulus (GPa) = 22.54298 27.78777 25.16538
# Shear Modulus (GPa) = 23.06147 27.27590 25.16869
#
# Velocity S-wave (km/s) = 3.38229 3.67838 3.53344
# Velocity P-wave (km/s) = 5.14159 5.64138 5.39727
#
# Compressibility (1/GPa) = 0.04435970
#
# Stress axis : x y z
#
# Youngs Moduli (GPa) = 64.66895 40.51295 40.78548
#
# Poissons Ratio (x) = 0.13594 0.19402
# Poissons Ratio (y) = 0.21700 0.08321
# Poissons Ratio (z) = 0.30763 0.08266
#
# Static dielectric constant tensor:
#      x y z
#    x 1.743890 -0.031730 0.001620 
#    y -0.031730 1.767940 0.005260 
#    z 0.001620 0.005260 1.700460 
# 
# From -- ./inp_files/455738.got.cif
#   From: 2010.05.17/outbox.cif.g08.bks.cpg/sg2_228_cif.got.tgz:455738.got - 2010.06.03 11:33:40.
