data_PCOD9024724
_publ_section_title
;
Structure prediction by ZEFSAII (Michael W. Deem and Ramdas Pophale) SiO2 
 PCOD9024724
Probable space group: P -1
;
_chemical_formula_sum "Si O2"
_cell_formula_units_Z 15
_cell_length_a 5.642687
_cell_length_b 14.818866
_cell_length_c 12.394494
_cell_angle_alpha 45.715976
_cell_angle_beta 111.665045
_cell_angle_gamma 118.223745
_cell_volume 652.487872
_symmetry_space_group_name_H-M "P -1"
_symmetry_group_IT_number 2
_symmetry_cell_setting 'triclinic'
loop_
_space_group_symop_operation_xyz
x,y,z
-x,-y,-z
loop_
_atom_site_type_symbol
_atom_site_label
_atom_site_fract_x
_atom_site_fract_y
_atom_site_fract_z
Si Si1 0.278165 0.673845 0.632899
Si Si2 0.935633 0.352617 0.156914
Si Si3 0.500000 0.500000 0.500000
Si Si4 0.298026 0.984302 0.079205
Si Si5 0.314915 0.415768 0.767076
Si Si6 0.367543 0.180287 0.113256
Si Si7 0.205912 0.685176 0.373697
Si Si8 0.807372 0.874914 0.640417
O O1 0.067062 0.642927 0.718863
O O2 0.388014 0.547758 0.742872
O O3 0.130108 0.675725 0.494406
O O4 0.515890 0.811675 0.585259
O O5 0.633097 0.275636 0.133808
O O6 0.094874 0.254573 0.230072
O O7 0.000000 0.500000 0.000000
O O8 0.506135 0.429893 0.683093
O O9 0.445967 0.626399 0.444674
O O10 0.259614 0.835928 0.230868
O O11 0.427633 0.085992 0.112073
O O12 0.500000 0.000000 0.000000
O O13 0.000000 0.000000 0.000000
O O14 0.036487 0.399721 0.670718
O O15 0.261647 0.284724 0.941341
O O16 0.209461 0.094351 0.260392
O O17 0.000000 0.000000 0.500000
#
# Coordination Sequence:
#
# PCOD9024724 Si02
#       8
#     2   2   1   2   2   2   2   2
#     4  10  24  42  67 101 138 183 246 311 376 456
#     4  11  25  45  73 101 135 193 253 314 384 444
#     4  10  22  40  66 100 142 188 238 304 372 456
#     4  12  28  48  74 114 155 208 251 311 389 473
#     4  11  22  44  67 106 141 185 240 317 387 453
#     4  11  26  45  73 103 152 189 257 315 379 465
#     4  11  25  42  70 103 149 187 249 306 387 455
#     4  11  27  45  69 101 141 198 250 314 382 448
#
# _framework density 22.98893
#
# number of rings (size 3 to 8) (size 9 to 14) (size 15 to 20)
#    0.000    1.067    1.333    4.000    5.600   11.733 
#    0.000    0.000    0.000    0.000    0.000    0.000 
#    0.000    0.000    0.000    0.000    0.000    0.000 
#
# Total GULP energy -83528.808769 kJ/mol
# GULP energy per Si atom -5568.587251 kJ/mol
# Density = 2.293661 g / cm^3
# Si number density = 22.988930 Si / 1000 Ang^3
#
#
#
# Elastic Constant Matrix: (Units=GPa)
#
#
# Indices 1 2 3 4 5 6 
#
# 1 74.2719 24.9169 42.7395 3.1027 -14.2507 -25.7050
# 2 24.9169 102.4495 62.1725 -8.9001 -24.1787 -22.6334
# 3 42.7395 62.1725 144.6545 -5.5015 -14.0718 -8.1648
# 4 3.1027 -8.9001 -5.5015 44.7726 -6.6292 -5.4438
# 5 -14.2507 -24.1787 -14.0718 -6.6292 40.4218 7.7768
# 6 -25.7050 -22.6334 -8.1648 -5.4438 7.7768 42.5533
#
#
#
# Elastic Compliance Matrix: (Units=1/GPa)
#
#
# Indices 1 2 3 4 5 6 
#
# 1 0.021264 0.002329 -0.006149 0.000372 0.004476 0.012133
# 2 0.002329 0.017500 -0.006763 0.004720 0.008064 0.008548
# 3 -0.006149 -0.006763 0.011206 -0.000353 -0.001418 -0.004948
# 4 0.000372 0.004720 -0.000353 0.024663 0.005966 0.004732
# 5 0.004476 0.008064 -0.001418 0.005966 0.031286 0.001766
# 6 0.012133 0.008548 -0.004948 0.004732 0.001766 0.034709
#
#
# Mechanical properties :
#
#
# Convention : Reuss Voigt Hill
#
# Bulk Modulus (GPa) = 34.71812 64.55927 49.63869
# Shear Modulus (GPa) = 29.17229 38.31934 33.74581
#
# Velocity S-wave (km/s) = 3.56613 4.08715 3.83550
# Velocity P-wave (km/s) = 5.66491 7.10048 6.42293
#
# Compressibility (1/GPa) = 0.02880341
#
# Stress axis : x y z
#
# Youngs Moduli (GPa) = 47.02846 57.14137 89.23663
#
# Poissons Ratio (x) = -0.13310 0.54874
# Poissons Ratio (y) = -0.10954 0.60355
# Poissons Ratio (z) = 0.28919 0.38647
#
# Static dielectric constant tensor:
#      x y z
#    x 1.959850 -0.012820 0.087140 
#    y -0.012820 1.954560 -0.082420 
#    z 0.087140 -0.082420 1.992450 
# 
# From -- ./inp_files/366743.got.cif
#   From: 2010.05.17/outbox.cif.g08.bks.cpg/sg2_184_cif.got.tgz:366743.got - 2010.06.03 11:33:40.
