data_PCOD9024258
_publ_section_title
;
Structure prediction by ZEFSAII (Michael W. Deem and Ramdas Pophale) SiO2 
 PCOD9024258
Probable space group: P -1
;
_chemical_formula_sum "Si O2"
_cell_formula_units_Z 13
_cell_length_a 9.230798
_cell_length_b 20.827225
_cell_length_c 12.220031
_cell_angle_alpha 30.854955
_cell_angle_beta 142.041778
_cell_angle_gamma 149.754220
_cell_volume 596.850671
_symmetry_space_group_name_H-M "P -1"
_symmetry_group_IT_number 2
_symmetry_cell_setting 'triclinic'
loop_
_space_group_symop_operation_xyz
x,y,z
-x,-y,-z
loop_
_atom_site_type_symbol
_atom_site_label
_atom_site_fract_x
_atom_site_fract_y
_atom_site_fract_z
Si Si1 0.274947 0.919177 0.084249
Si Si2 0.196426 0.441707 0.684712
Si Si3 0.500000 0.500000 0.000000
Si Si4 0.937172 0.070441 0.674680
Si Si5 0.425278 0.958766 0.702129
Si Si6 0.047608 0.603706 0.036897
Si Si7 0.278903 0.431777 0.333120
O O1 0.010739 0.743766 0.154421
O O2 0.433091 0.923613 0.283744
O O3 0.500000 0.000000 0.000000
O O4 0.135374 0.011065 0.887882
O O5 0.432557 0.519312 0.807735
O O6 0.388419 0.487787 0.622308
O O7 0.000000 0.500000 0.500000
O O8 0.192743 0.473371 0.899049
O O9 0.789984 0.033917 0.518910
O O10 0.123268 0.254680 0.535500
O O11 0.677362 0.986626 0.731092
O O12 0.255280 0.789354 0.903023
O O13 0.227584 0.531989 0.236284
O O14 0.895234 0.581380 0.861295
#
# Coordination Sequence:
#
# PCOD9024258 Si02
#       7
#     2   2   1   2   2   2   2
#     4  12  25  40  61  91 126 161 201 252 309 366
#     4  11  24  41  61  89 122 159 203 252 304 363
#     4  10  22  40  64  88 120 156 202 254 302 358
#     4  10  22  41  64  90 121 162 206 252 303 360
#     4  10  22  41  63  89 123 160 203 251 303 364
#     4   9  18  37  63  89 118 159 201 248 300 356
#     4   9  19  37  62  89 119 156 205 250 297 357
#
# _framework density 21.780994
#
# number of rings (size 3 to 8) (size 9 to 14) (size 15 to 20)
#    0.000    1.846    0.000    3.231    0.000    6.769 
#    0.000    2.308    0.000    0.000    0.000    0.000 
#    0.000    0.000    0.000    0.000    0.000    0.000 
#
# Total GULP energy -72398.366543 kJ/mol
# GULP energy per Si atom -5569.105119 kJ/mol
# Density = 2.173142 g / cm^3
# Si number density = 21.780994 Si / 1000 Ang^3
#
#
#
# Elastic Constant Matrix: (Units=GPa)
#
#
# Indices 1 2 3 4 5 6 
#
# 1 97.9897 11.7673 20.1885 0.5639 9.4347 25.4896
# 2 11.7673 -27.2444 18.3070 25.0156 13.6668 36.3646
# 3 20.1885 18.3070 59.3488 6.7444 8.0868 -3.9712
# 4 0.5639 25.0156 6.7444 29.4026 -11.3528 -11.1830
# 5 9.4347 13.6668 8.0868 -11.3528 25.7229 8.1304
# 6 25.4896 36.3646 -3.9712 -11.1830 8.1304 24.0576
#
#
#
# Elastic Compliance Matrix: (Units=1/GPa)
#
#
# Indices 1 2 3 4 5 6 
#
# 1 0.013472 -0.004424 -0.004341 0.002365 0.002346 -0.007997
# 2 -0.004424 -0.004561 0.002367 0.010616 0.002959 0.015907
# 3 -0.004341 0.002367 0.020531 -0.009655 -0.011595 0.003842
# 4 0.002365 0.010616 -0.009655 0.027524 0.012315 -0.011514
# 5 0.002346 0.002959 -0.011595 0.012315 0.052082 -0.020750
# 6 -0.007997 0.015907 0.003842 -0.011514 -0.020750 0.028290
#
#
# Mechanical properties :
#
#
# Convention : Reuss Voigt Hill
#
# Bulk Modulus (GPa) = 60.08331 25.62442 42.85386
# Shear Modulus (GPa) = 32.11692 21.15870 26.63781
#
# Velocity S-wave (km/s) = 3.84414 3.12016 3.50091
# Velocity P-wave (km/s) = 6.88101 4.97701 6.00495
#
# Compressibility (1/GPa) = 0.01664356
#
# Stress axis : x y z
#
# Youngs Moduli (GPa) = 74.23076 -219.22829 48.70769
#
# Poissons Ratio (x) = -0.96979 0.21146
# Poissons Ratio (y) = 0.32837 -0.11527
# Poissons Ratio (z) = 0.32227 0.51882
#
# Static dielectric constant tensor:
#      x y z
#    x 1.734290 -0.003990 0.008340 
#    y -0.003990 1.790440 0.012090 
#    z 0.008340 0.012090 1.770880 
# 
# From -- ./inp_files/199363.got.cif
#   From: 2010.05.17/outbox.cif.g08.bks.cpg/sg2_100_cif.got.tgz:199363.got - 2010.06.03 11:33:40.
