data_PCOD9024290
_publ_section_title
;
Structure prediction by ZEFSAII (Michael W. Deem and Ramdas Pophale) SiO2 
 PCOD9024290
Probable space group: P -1
;
_chemical_formula_sum "Si O2"
_cell_formula_units_Z 15
_cell_length_a 8.638989
_cell_length_b 16.023030
_cell_length_c 19.543935
_cell_angle_alpha 21.318949
_cell_angle_beta 48.239774
_cell_angle_gamma 58.152337
_cell_volume 689.396087
_symmetry_space_group_name_H-M "P -1"
_symmetry_group_IT_number 2
_symmetry_cell_setting 'triclinic'
loop_
_space_group_symop_operation_xyz
x,y,z
-x,-y,-z
loop_
_atom_site_type_symbol
_atom_site_label
_atom_site_fract_x
_atom_site_fract_y
_atom_site_fract_z
Si Si1 0.264541 0.082948 0.940309
Si Si2 0.301290 0.917807 0.698042
Si Si3 0.000000 0.500000 0.000000
Si Si4 0.007804 0.642865 0.258813
Si Si5 0.756770 0.085854 0.775495
Si Si6 0.295777 0.237573 0.339983
Si Si7 0.345056 0.777513 0.931019
Si Si8 0.186350 0.085207 0.260796
O O1 0.240249 0.069777 0.039172
O O2 0.102045 0.826954 0.152930
O O3 0.192585 0.291932 0.766624
O O4 0.512621 0.104938 0.831777
O O5 0.136491 0.710728 0.856414
O O6 0.540814 0.883602 0.650191
O O7 0.242936 0.895654 0.811505
O O8 0.317167 0.171256 0.464212
O O9 0.827583 0.648522 0.926191
O O10 0.928707 0.361211 0.517588
O O11 0.197022 0.712978 0.091490
O O12 0.799412 0.966170 0.784540
O O13 0.350290 0.520484 0.096834
O O14 0.040521 0.102901 0.498649
O O15 0.594636 0.937774 0.753225
#
# Coordination Sequence:
#
# PCOD9024290 Si02
#       8
#     2   2   1   2   2   2   2   2
#     4  10  24  42  68  92 130 168 207 270 319 376
#     4  10  23  42  62  91 125 169 217 262 316 373
#     4  10  22  40  64  90 130 166 210 270 302 376
#     4  11  23  41  66  96 130 161 213 266 317 386
#     4  11  22  44  65  95 128 170 214 256 324 382
#     4  10  22  43  60  88 126 169 213 263 307 381
#     4  12  23  41  64  92 128 168 209 266 321 373
#     4  11  23  40  65  94 131 168 219 264 311 386
#
# _framework density 21.758174
#
# number of rings (size 3 to 8) (size 9 to 14) (size 15 to 20)
#    0.000    1.333    4.000    1.200    3.733    0.533 
#    4.800    1.333    0.000    0.000    0.000    0.000 
#    0.000    0.000    0.000    0.000    0.000    0.000 
#
# Total GULP energy -83606.067312 kJ/mol
# GULP energy per Si atom -5573.737821 kJ/mol
# Density = 2.170865 g / cm^3
# Si number density = 21.758174 Si / 1000 Ang^3
#
#
#
# Elastic Constant Matrix: (Units=GPa)
#
#
# Indices 1 2 3 4 5 6 
#
# 1 67.5093 12.4620 12.0866 24.0882 -14.9568 0.5060
# 2 12.4620 48.5988 0.3541 3.7916 -6.5876 -7.1352
# 3 12.0866 0.3541 55.5836 4.9449 0.1965 5.9960
# 4 24.0882 3.7916 4.9449 24.6922 -8.2369 -7.6328
# 5 -14.9568 -6.5876 0.1965 -8.2369 29.4508 8.8317
# 6 0.5060 -7.1352 5.9960 -7.6328 8.8317 36.9483
#
#
#
# Elastic Compliance Matrix: (Units=1/GPa)
#
#
# Indices 1 2 3 4 5 6 
#
# 1 0.026869 -0.005019 -0.002795 -0.024647 0.008015 -0.007891
# 2 -0.005019 0.022551 0.000126 0.003539 0.002095 0.004634
# 3 -0.002795 0.000126 0.019185 -0.002567 -0.001253 -0.003281
# 4 -0.024647 0.003539 -0.002567 0.070337 0.003421 0.015150
# 5 0.008015 0.002095 -0.001253 0.003421 0.042116 -0.008862
# 6 -0.007891 0.004634 -0.003281 0.015150 -0.008862 0.033848
#
#
# Mechanical properties :
#
#
# Convention : Reuss Voigt Hill
#
# Bulk Modulus (GPa) = 18.78722 24.61077 21.69899
# Shear Modulus (GPa) = 20.15925 28.00420 24.08172
#
# Velocity S-wave (km/s) = 3.04717 3.59146 3.33045
# Velocity P-wave (km/s) = 4.58624 5.34170 4.97832
#
# Compressibility (1/GPa) = 0.05322767
#
# Stress axis : x y z
#
# Youngs Moduli (GPa) = 37.21805 44.34431 52.12495
#
# Poissons Ratio (x) = 0.22255 0.14569
# Poissons Ratio (y) = 0.18679 -0.00654
# Poissons Ratio (z) = 0.10403 -0.00557
#
# Static dielectric constant tensor:
#      x y z
#    x 1.815180 -0.009950 -0.011850 
#    y -0.009950 1.801710 0.040170 
#    z -0.011850 0.040170 1.773700 
# 
# From -- ./inp_files/348416.got.cif
#   From: 2010.05.17/outbox.cif.g08.bks.cpg/sg2_175_cif.got.tgz:348416.got - 2010.06.03 11:33:40.
