data_PCOD9024168
_publ_section_title
;
Structure prediction by ZEFSAII (Michael W. Deem and Ramdas Pophale) SiO2 
 PCOD9024168
Probable space group: P -1
;
_chemical_formula_sum "Si O2"
_cell_formula_units_Z 16
_cell_length_a 8.911415
_cell_length_b 15.209908
_cell_length_c 15.604541
_cell_angle_alpha 26.977657
_cell_angle_beta 107.266830
_cell_angle_gamma 89.652691
_cell_volume 715.521445
_symmetry_space_group_name_H-M "P -1"
_symmetry_group_IT_number 2
_symmetry_cell_setting 'triclinic'
loop_
_space_group_symop_operation_xyz
x,y,z
-x,-y,-z
loop_
_atom_site_type_symbol
_atom_site_label
_atom_site_fract_x
_atom_site_fract_y
_atom_site_fract_z
Si Si1 0.866102 0.827137 0.616787
Si Si2 0.720114 0.157621 0.918026
Si Si3 0.088414 0.040939 0.184344
Si Si4 0.593304 0.231501 0.097679
Si Si5 0.240173 0.203628 0.635683
Si Si6 0.442196 0.710593 0.411895
Si Si7 0.875422 0.372719 0.337700
Si Si8 0.861990 0.390326 0.986301
O O1 0.791406 0.662945 0.753896
O O2 0.023865 0.711884 0.665045
O O3 0.684647 0.103447 0.316819
O O4 0.985669 0.784213 0.760035
O O5 0.533804 0.426853 0.691284
O O6 0.687967 0.194513 0.779417
O O7 0.924892 0.098092 0.037251
O O8 0.726463 0.935001 0.149276
O O9 0.302744 0.900758 0.297965
O O10 0.108111 0.849195 0.421457
O O11 0.989554 0.285567 0.011261
O O12 0.680937 0.009416 0.237534
O O13 0.356153 0.399832 0.907836
O O14 0.683739 0.371991 0.967786
O O15 0.368953 0.296716 0.568637
O O16 0.006396 0.406673 0.394768
#
# Coordination Sequence:
#
# PCOD9024168 Si02
#       8
#     2   2   2   2   2   2   2   2
#     4  10  24  44  64  95 129 168 212 266 313 372
#     4  10  22  44  62  94 132 164 208 269 312 380
#     4  11  23  41  66  95 129 170 210 262 319 380
#     4  11  22  41  67  92 129 170 209 264 314 375
#     4  10  22  40  63  96 125 165 212 261 311 379
#     4  11  24  39  68  93 128 167 213 257 326 373
#     4  10  23  40  64  94 126 167 216 255 321 373
#     4  11  23  45  65  92 135 163 214 265 312 379
#
# _framework density 22.361315000000001
#
# number of rings (size 3 to 8) (size 9 to 14) (size 15 to 20)
#    0.000    1.500    3.750    1.875    5.250    0.500 
#    0.000    1.250    0.000    8.250    0.000    0.000 
#    0.000    0.000    0.000    0.000    0.000    0.000 
#
# Total GULP energy -89517.934213 kJ/mol
# GULP energy per Si atom -5594.870888 kJ/mol
# Density = 2.231042 g / cm^3
# Si number density = 22.361315 Si / 1000 Ang^3
#
#
#
# Elastic Constant Matrix: (Units=GPa)
#
#
# Indices 1 2 3 4 5 6 
#
# 1 65.5250 22.8721 63.0396 5.4460 15.0451 0.9440
# 2 22.8721 55.2579 15.5103 14.4379 4.1658 5.1450
# 3 63.0396 15.5103 105.4223 21.1770 12.7983 -5.7236
# 4 5.4460 14.4379 21.1770 21.5838 -4.0183 -3.1660
# 5 15.0451 4.1658 12.7983 -4.0183 35.6350 -1.8665
# 6 0.9440 5.1450 -5.7236 -3.1660 -1.8665 19.5041
#
#
#
# Elastic Compliance Matrix: (Units=1/GPa)
#
#
# Indices 1 2 3 4 5 6 
#
# 1 0.057806 -0.022225 -0.038332 0.036759 -0.004032 -0.002603
# 2 -0.022225 0.032906 0.015169 -0.033374 -0.004144 -0.008967
# 3 -0.038332 0.015169 0.038498 -0.038550 -0.003630 0.002546
# 4 0.036759 -0.033374 -0.038550 0.101890 0.014430 0.013632
# 5 -0.004032 -0.004144 -0.003630 0.014430 0.033482 0.005770
# 6 -0.002603 -0.008967 0.002546 0.013632 0.005770 0.057275
#
#
# Mechanical properties :
#
#
# Convention : Reuss Voigt Hill
#
# Bulk Modulus (GPa) = 26.01932 47.67214 36.84573
# Shear Modulus (GPa) = 11.75242 23.66346 17.70794
#
# Velocity S-wave (km/s) = 2.29502 3.25658 2.81713
# Velocity P-wave (km/s) = 4.32249 5.95867 5.20527
#
# Compressibility (1/GPa) = 0.03843299
#
# Stress axis : x y z
#
# Youngs Moduli (GPa) = 17.29935 30.38962 25.97531
#
# Poissons Ratio (x) = 0.67542 0.99569
# Poissons Ratio (y) = 0.38449 -0.39403
# Poissons Ratio (z) = 0.66312 -0.46099
#
# Static dielectric constant tensor:
#      x y z
#    x 1.813770 0.005230 -0.016160 
#    y 0.005230 1.813740 0.000060 
#    z -0.016160 0.000060 1.853540 
# 
# From -- ./inp_files/505081.got.cif
#   From: 2010.05.17/outbox.cif.g08.bks.cpg/sg2_253_cif.got.tgz:505081.got - 2010.06.03 11:33:40.
