data_PCOD9024072
_publ_section_title
;
Structure prediction by ZEFSAII (Michael W. Deem and Ramdas Pophale) SiO2 
 PCOD9024072
Probable space group: P -1
;
_chemical_formula_sum "Si O2"
_cell_formula_units_Z 14
_cell_length_a 5.416464
_cell_length_b 12.352775
_cell_length_c 12.993919
_cell_angle_alpha 131.185655
_cell_angle_beta 99.363538
_cell_angle_gamma 64.688866
_cell_volume 582.388892
_symmetry_space_group_name_H-M "P -1"
_symmetry_group_IT_number 2
_symmetry_cell_setting 'triclinic'
loop_
_space_group_symop_operation_xyz
x,y,z
-x,-y,-z
loop_
_atom_site_type_symbol
_atom_site_label
_atom_site_fract_x
_atom_site_fract_y
_atom_site_fract_z
Si Si1 0.835810 0.044502 0.412013
Si Si2 0.502551 0.395161 0.835397
Si Si3 0.414314 0.658246 0.717759
Si Si4 0.646937 0.652214 0.500743
Si Si5 0.418953 0.167765 0.828073
Si Si6 0.850518 0.545437 0.850897
Si Si7 0.921064 0.863479 0.714511
O O1 0.548239 0.206600 0.500096
O O2 0.977477 0.085520 0.350368
O O3 0.768322 0.900174 0.284502
O O4 0.000000 0.000000 0.500000
O O5 0.565095 0.226751 0.786319
O O6 0.727500 0.418770 0.793941
O O7 0.183504 0.465179 0.816678
O O8 0.500000 0.500000 0.000000
O O9 0.511167 0.658497 0.607369
O O10 0.323617 0.516051 0.643069
O O11 0.669902 0.630957 0.791832
O O12 0.131177 0.819879 0.796952
O O13 0.889731 0.703745 0.577678
O O14 0.633029 0.016011 0.812044
O O15 0.243624 0.317891 0.982080
#
# Coordination Sequence:
#
# PCOD9024072 Si02
#       7
#     2   2   2   2   2   2   2
#     4  10  23  38  62  93 125 167 212 263 330 387
#     4  10  23  42  65  97 134 169 215 266 326 387
#     4  10  22  40  66  90 129 166 225 265 321 391
#     4   9  21  42  60  92 126 171 212 277 316 382
#     4  10  23  40  63  90 134 163 211 273 325 386
#     4  11  25  41  70 101 126 177 217 266 330 387
#     4  10  22  40  63  90 128 170 211 271 327 378
#
# _framework density 24.038920000000001
#
# number of rings (size 3 to 8) (size 9 to 14) (size 15 to 20)
#    0.000    2.000    0.000    2.143   10.000    4.000 
#    0.000    6.429    0.000    0.000    0.000    0.000 
#    0.000    0.000    0.000    0.000    0.000    0.000 
#
# Total GULP energy -78224.462549 kJ/mol
# GULP energy per Si atom -5587.461611 kJ/mol
# Density = 2.398421 g / cm^3
# Si number density = 24.038920 Si / 1000 Ang^3
#
#
#
# Elastic Constant Matrix: (Units=GPa)
#
#
# Indices 1 2 3 4 5 6 
#
# 1 118.7692 59.8517 37.7841 4.1005 30.8138 -6.1900
# 2 59.8517 167.8434 57.8629 -20.6501 24.4467 -30.4275
# 3 37.7841 57.8629 71.1678 10.2091 22.6846 -0.2236
# 4 4.1005 -20.6501 10.2091 27.7700 1.2393 11.6969
# 5 30.8138 24.4467 22.6846 1.2393 38.2035 2.5893
# 6 -6.1900 -30.4275 -0.2236 11.6969 2.5893 59.9107
#
#
#
# Elastic Compliance Matrix: (Units=1/GPa)
#
#
# Indices 1 2 3 4 5 6 
#
# 1 0.012512 -0.003464 -0.000945 -0.004018 -0.007226 0.000627
# 2 -0.003464 0.013058 -0.010579 0.012512 0.000057 0.003789
# 3 -0.000945 -0.010579 0.028349 -0.017065 -0.008636 -0.001660
# 4 -0.004018 0.012512 -0.017065 0.054047 0.003942 -0.004846
# 5 -0.007226 0.000057 -0.008636 0.003942 0.037180 -0.003126
# 6 0.000627 0.003789 -0.001660 -0.004846 -0.003126 0.019756
#
#
# Mechanical properties :
#
#
# Convention : Reuss Voigt Hill
#
# Bulk Modulus (GPa) = 41.76365 74.30864 58.03615
# Shear Modulus (GPa) = 24.64760 38.66229 31.65494
#
# Velocity S-wave (km/s) = 3.20554 4.01474 3.63274
# Velocity P-wave (km/s) = 5.57778 7.24360 6.46457
#
# Compressibility (1/GPa) = 0.02394427
#
# Stress axis : x y z
#
# Youngs Moduli (GPa) = 79.92218 76.57886 35.27403
#
# Poissons Ratio (x) = 0.26530 0.03332
# Poissons Ratio (y) = 0.27688 0.37317
# Poissons Ratio (z) = 0.07549 0.81013
#
# Static dielectric constant tensor:
#      x y z
#    x 1.998480 -0.040210 -0.041670 
#    y -0.040210 1.961790 0.001480 
#    z -0.041670 0.001480 1.917400 
# 
# From -- ./inp_files/66675.got.cif
#   From: 2010.05.17/outbox.cif.g08.bks.cpg/sg2_34_cif.got.tgz:66675.got - 2010.06.03 11:33:40.
