data_PCOD9024587
_publ_section_title
;
Structure prediction by ZEFSAII (Michael W. Deem and Ramdas Pophale) SiO2 
 PCOD9024587
Probable space group: P -1
;
_chemical_formula_sum "Si O2"
_cell_formula_units_Z 11
_cell_length_a 4.721245
_cell_length_b 7.288875
_cell_length_c 21.435751
_cell_angle_alpha 140.863709
_cell_angle_beta 123.242689
_cell_angle_gamma 71.514041
_cell_volume 381.139631
_symmetry_space_group_name_H-M "P -1"
_symmetry_group_IT_number 2
_symmetry_cell_setting 'triclinic'
loop_
_space_group_symop_operation_xyz
x,y,z
-x,-y,-z
loop_
_atom_site_type_symbol
_atom_site_label
_atom_site_fract_x
_atom_site_fract_y
_atom_site_fract_z
Si Si1 0.500000 0.500000 0.000000
Si Si2 0.397176 0.261729 0.689843
Si Si3 0.974629 0.032466 0.891229
Si Si4 0.136567 0.418440 0.353714
Si Si5 0.170992 0.134053 0.415704
Si Si6 0.296374 0.583562 0.887314
O O1 0.702660 0.224856 0.925984
O O2 0.167084 0.383213 0.877507
O O3 0.434837 0.455299 0.808483
O O4 0.174265 0.421315 0.659456
O O5 0.717897 0.178539 0.670598
O O6 0.158804 0.950568 0.602027
O O7 0.865155 0.825138 0.764337
O O8 0.071190 0.817546 0.900709
O O9 0.349889 0.259692 0.988098
O O10 0.090166 0.279634 0.380095
O O11 0.497926 0.656217 0.458893
#
# Coordination Sequence:
#
# PCOD9024587 Si02
#       6
#     1   2   2   2   2   2
#     4   8  12  26  52  82 110 152 194 244 296 364
#     4  11  23  43  66  94 130 167 210 262 316 374
#     4   8  15  30  55  88 118 161 199 256 310 363
#     4  10  22  40  65  93 134 162 216 262 311 376
#     4  11  25  41  66  96 126 172 213 254 318 377
#     4   8  16  30  58  86 121 154 207 250 310 368
#
# _framework density 28.860814999999999
#
# number of rings (size 3 to 8) (size 9 to 14) (size 15 to 20)
#    1.091    1.455    0.000    2.182    0.000    4.364 
#    0.000    0.909    0.000   10.909    0.000    0.000 
#    0.000    0.000    0.000    0.000    0.000    0.000 
#
# Total GULP energy -61717.655483 kJ/mol
# GULP energy per Si atom -5610.695953 kJ/mol
# Density = 2.879513 g / cm^3
# Si number density = 28.860815 Si / 1000 Ang^3
#
#
#
# Elastic Constant Matrix: (Units=GPa)
#
#
# Indices 1 2 3 4 5 6 
#
# 1 121.6759 38.6514 20.5483 2.2123 -14.7297 -6.7623
# 2 38.6514 227.5177 56.2695 -21.8048 -26.5694 -10.2879
# 3 20.5483 56.2695 178.1603 -16.0632 -25.5342 -2.9454
# 4 2.2123 -21.8048 -16.0632 59.0512 4.3627 -5.2480
# 5 -14.7297 -26.5694 -25.5342 4.3627 38.0007 7.1986
# 6 -6.7623 -10.2879 -2.9454 -5.2480 7.1986 42.0763
#
#
#
# Elastic Compliance Matrix: (Units=1/GPa)
#
#
# Indices 1 2 3 4 5 6 
#
# 1 0.009014 -0.001228 -0.000394 -0.001022 0.002377 0.000587
# 2 -0.001228 0.005317 -0.001064 0.001635 0.002176 0.000860
# 3 -0.000394 -0.001064 0.006587 0.001130 0.003459 -0.000313
# 4 -0.001022 0.001635 0.001130 0.018213 -0.001110 0.002776
# 5 0.002377 0.002176 0.003459 -0.001110 0.032056 -0.004467
# 6 0.000587 0.000860 -0.000313 0.002776 -0.004467 0.025159
#
#
# Mechanical properties :
#
#
# Convention : Reuss Voigt Hill
#
# Bulk Modulus (GPa) = 64.32222 84.25473 74.28847
# Shear Modulus (GPa) = 46.77326 55.28461 51.02894
#
# Velocity S-wave (km/s) = 4.03010 4.38146 4.20945
# Velocity P-wave (km/s) = 6.63257 7.40629 7.03008
#
# Compressibility (1/GPa) = 0.01554673
#
# Stress axis : x y z
#
# Youngs Moduli (GPa) = 110.93867 188.08609 151.81717
#
# Poissons Ratio (x) = 0.23092 0.05975
# Poissons Ratio (y) = 0.13620 0.16155
# Poissons Ratio (z) = 0.04366 0.20014
#
# Static dielectric constant tensor:
#      x y z
#    x 2.171890 0.120020 0.099340 
#    y 0.120020 2.184210 0.021610 
#    z 0.099340 0.021610 2.373300 
# 
# From -- ./inp_files/603611.got.cif
#   From: 2010.05.17/outbox.cif.g08.bks.cpg/sg2_302_cif.got.tgz:603611.got - 2010.06.03 11:33:40.
