data_PCOD9024319
_publ_section_title
;
Structure prediction by ZEFSAII (Michael W. Deem and Ramdas Pophale) SiO2 
 PCOD9024319
Probable space group: P -1
;
_chemical_formula_sum "Si O2"
_cell_formula_units_Z 16
_cell_length_a 24.907302
_cell_length_b 9.459125
_cell_length_c 9.844624
_cell_angle_alpha 136.983282
_cell_angle_beta 136.410317
_cell_angle_gamma 28.862073
_cell_volume 738.549432
_symmetry_space_group_name_H-M "P -1"
_symmetry_group_IT_number 2
_symmetry_cell_setting 'triclinic'
loop_
_space_group_symop_operation_xyz
x,y,z
-x,-y,-z
loop_
_atom_site_type_symbol
_atom_site_label
_atom_site_fract_x
_atom_site_fract_y
_atom_site_fract_z
Si Si1 0.565966 0.499110 0.504266
Si Si2 0.427058 0.608373 0.074761
Si Si3 0.530857 0.010395 0.914752
Si Si4 0.790500 0.592059 0.066576
Si Si5 0.965101 0.214315 0.367501
Si Si6 0.002898 0.274745 0.768374
Si Si7 0.216187 0.986915 0.805322
Si Si8 0.206195 0.820499 0.405266
O O1 0.500000 0.500000 0.500000
O O2 0.493954 0.580676 0.298522
O O3 0.546586 0.779028 0.690778
O O4 0.705923 0.206523 0.541489
O O5 0.500000 0.500000 0.000000
O O6 0.301091 0.922895 0.024948
O O7 0.429663 0.358517 0.928851
O O8 0.654190 0.884305 0.052008
O O9 0.500000 0.000000 0.000000
O O10 0.862105 0.407670 0.205433
O O11 0.832133 0.721167 0.161373
O O12 0.799048 0.383550 0.830790
O O13 0.933281 0.386953 0.575708
O O14 0.007891 0.900885 0.274765
O O15 0.072416 0.111634 0.411075
O O16 0.129386 0.022880 0.758379
O O17 0.000000 0.500000 0.000000
O O18 0.265560 0.736505 0.603571
#
# Coordination Sequence:
#
# PCOD9024319 Si02
#       8
#     2   2   2   2   2   2   2   2
#     4  11  23  41  66  97 130 170 218 268 326 387
#     4  12  23  44  66  95 132 170 220 268 326 391
#     4  11  24  41  64  94 135 169 214 274 323 378
#     4  11  23  40  64  94 126 167 216 259 323 383
#     4  10  23  42  65  96 126 168 212 267 319 387
#     4  10  23  44  65  93 131 164 214 263 325 379
#     4  11  24  41  65  94 128 169 211 266 322 387
#     4  10  22  40  64  92 128 163 212 263 321 380
#
# _framework density 21.664088
#
# number of rings (size 3 to 8) (size 9 to 14) (size 15 to 20)
#    0.000    1.250    3.750    1.125    1.750    4.500 
#    2.250    0.000    0.000    0.000    0.000    0.000 
#    0.000    0.000    0.000    0.000    0.000    0.000 
#
# Total GULP energy -89089.099118 kJ/mol
# GULP energy per Si atom -5568.068695 kJ/mol
# Density = 2.161478 g / cm^3
# Si number density = 21.664088 Si / 1000 Ang^3
#
#
#
# Elastic Constant Matrix: (Units=GPa)
#
#
# Indices 1 2 3 4 5 6 
#
# 1 110.2342 19.4855 28.9667 -11.2255 -0.2942 -1.2888
# 2 19.4855 48.9328 43.8535 -12.7525 -5.2309 15.4567
# 3 28.9667 43.8535 177.4793 -6.3001 -4.3762 15.6754
# 4 -11.2255 -12.7525 -6.3001 30.7753 2.2214 1.1412
# 5 -0.2942 -5.2309 -4.3762 2.2214 38.2333 -2.1983
# 6 -1.2888 15.4567 15.6754 1.1412 -2.1983 31.1605
#
#
#
# Elastic Compliance Matrix: (Units=1/GPa)
#
#
# Indices 1 2 3 4 5 6 
#
# 1 0.010179 -0.003535 -0.000954 0.001993 -0.000484 0.002547
# 2 -0.003535 0.035954 -0.006469 0.012657 0.002553 -0.015010
# 3 -0.000954 -0.006469 0.007379 -0.001501 0.000011 -0.000487
# 4 0.001993 0.012657 -0.001501 0.038491 -0.001059 -0.006925
# 5 -0.000484 0.002553 0.000011 -0.001059 0.026599 0.000623
# 6 0.002547 -0.015010 -0.000487 -0.006925 0.000623 0.040185
#
#
# Mechanical properties :
#
#
# Convention : Reuss Voigt Hill
#
# Bulk Modulus (GPa) = 31.65057 57.91751 44.78404
# Shear Modulus (GPa) = 26.14578 36.32321 31.23450
#
# Velocity S-wave (km/s) = 3.47778 4.09914 3.80118
# Velocity P-wave (km/s) = 5.54689 7.01401 6.32314
#
# Compressibility (1/GPa) = 0.03159500
#
# Stress axis : x y z
#
# Youngs Moduli (GPa) = 98.24519 27.81313 135.52787
#
# Poissons Ratio (x) = 0.09833 0.12928
# Poissons Ratio (y) = 0.34733 0.87673
# Poissons Ratio (z) = 0.09372 0.17992
#
# Static dielectric constant tensor:
#      x y z
#    x 1.787520 -0.066740 0.023990 
#    y -0.066740 1.554770 0.183200 
#    z 0.023990 0.183200 1.594900 
# 
# From -- ./inp_files/226085.got.cif
#   From: 2010.05.17/outbox.cif.g08.bks.cpg/sg2_114_cif.got.tgz:226085.got - 2010.06.03 11:33:40.
