data_PCOD9024961
_publ_section_title
;
Structure prediction by ZEFSAII (Michael W. Deem and Ramdas Pophale) SiO2 
 PCOD9024961
Probable space group: P -1
;
_chemical_formula_sum "Si O2"
_cell_formula_units_Z 16
_cell_length_a 8.644355
_cell_length_b 7.800167
_cell_length_c 14.342471
_cell_angle_alpha 137.610752
_cell_angle_beta 76.989550
_cell_angle_gamma 98.686677
_cell_volume 635.059681
_symmetry_space_group_name_H-M "P -1"
_symmetry_group_IT_number 2
_symmetry_cell_setting 'triclinic'
loop_
_space_group_symop_operation_xyz
x,y,z
-x,-y,-z
loop_
_atom_site_type_symbol
_atom_site_label
_atom_site_fract_x
_atom_site_fract_y
_atom_site_fract_z
Si Si1 0.624914 0.541439 0.269189
Si Si2 0.337445 0.190123 0.932351
Si Si3 0.790895 0.863733 0.530959
Si Si4 0.075617 0.744447 0.536301
Si Si5 0.021626 0.191891 0.861502
Si Si6 0.166609 0.923227 0.995688
Si Si7 0.620729 0.563761 0.592085
Si Si8 0.411852 0.728121 0.204003
O O1 0.691010 0.752501 0.414804
O O2 0.773990 0.358791 0.151672
O O3 0.491743 0.390827 0.285043
O O4 0.546045 0.643258 0.226369
O O5 0.345548 0.491872 0.062149
O O6 0.184123 0.121291 0.866061
O O7 0.492814 0.109493 0.820649
O O8 0.303722 0.092220 0.001474
O O9 0.730790 0.752448 0.594606
O O10 0.973654 0.771244 0.466213
O O11 0.731007 0.149677 0.668912
O O12 0.261139 0.669302 0.485092
O O13 0.000000 0.500000 0.500000
O O14 0.043441 0.024211 0.698479
O O15 0.000000 0.500000 0.000000
O O16 0.873008 0.072063 0.888405
O O17 0.000000 0.000000 0.000000
O O18 0.500000 0.500000 0.500000
#
# Coordination Sequence:
#
# PCOD9024961 Si02
#       8
#     2   2   2   2   2   2   2   2
#     4  11  23  41  67 100 137 183 234 291 355 418
#     4  10  24  41  69  93 142 183 240 286 353 422
#     4  10  22  40  66  97 142 179 231 289 354 419
#     4  10  23  41  72 107 139 190 237 289 357 426
#     4  11  23  43  72 102 145 184 232 295 365 428
#     4  10  24  42  70  98 136 184 235 288 354 429
#     4   9  21  39  68 100 134 181 230 287 349 425
#     4  11  23  43  66 103 142 186 236 296 355 420
#
# _framework density 25.194483000000002
#
# number of rings (size 3 to 8) (size 9 to 14) (size 15 to 20)
#    0.000    1.750    0.000    2.625   14.000    3.500 
#    4.500    0.625    0.000    0.000    0.000    0.000 
#    0.000    0.000    0.000    0.000    0.000    0.000 
#
# Total GULP energy -89300.803621 kJ/mol
# GULP energy per Si atom -5581.300226 kJ/mol
# Density = 2.513714 g / cm^3
# Si number density = 25.194483 Si / 1000 Ang^3
#
#
#
# Elastic Constant Matrix: (Units=GPa)
#
#
# Indices 1 2 3 4 5 6 
#
# 1 128.4139 17.9932 39.4886 -4.8418 -15.4622 -16.4091
# 2 17.9932 94.1038 1.3365 -22.5048 -6.1613 12.6429
# 3 39.4886 1.3365 70.0820 -3.1858 -18.8044 2.7114
# 4 -4.8418 -22.5048 -3.1858 33.7435 -0.3010 -12.3908
# 5 -15.4622 -6.1613 -18.8044 -0.3010 50.0256 0.0563
# 6 -16.4091 12.6429 2.7114 -12.3908 0.0563 30.4220
#
#
#
# Elastic Compliance Matrix: (Units=1/GPa)
#
#
# Indices 1 2 3 4 5 6 
#
# 1 0.011458 -0.002629 -0.006416 0.002554 0.000811 0.008883
# 2 -0.002629 0.013530 0.002183 0.007302 0.001723 -0.004265
# 3 -0.006416 0.002183 0.019606 0.000220 0.005664 -0.006036
# 4 0.002554 0.007302 0.000220 0.040324 0.001998 0.014744
# 5 0.000811 0.001723 0.005664 0.001998 0.022594 -0.000011
# 6 0.008883 -0.004265 -0.006036 0.014744 -0.000011 0.045978
#
#
# Mechanical properties :
#
#
# Convention : Reuss Voigt Hill
#
# Bulk Modulus (GPa) = 32.39488 45.58180 38.98834
# Shear Modulus (GPa) = 28.16837 38.42364 33.29601
#
# Velocity S-wave (km/s) = 3.34733 3.90947 3.63927
# Velocity P-wave (km/s) = 5.27498 6.20563 5.75913
#
# Compressibility (1/GPa) = 0.03086908
#
# Stress axis : x y z
#
# Youngs Moduli (GPa) = 87.27689 73.90794 51.00572
#
# Poissons Ratio (x) = 0.19432 0.32724
# Poissons Ratio (y) = 0.22947 -0.11133
# Poissons Ratio (z) = 0.55995 -0.16132
#
# Static dielectric constant tensor:
#      x y z
#    x 2.014370 0.055310 -0.069110 
#    y 0.055310 2.133640 -0.004470 
#    z -0.069110 -0.004470 2.007150 
# 
# From -- ./inp_files/495790.got.cif
#   From: 2010.05.17/outbox.cif.g08.bks.cpg/sg2_248_cif.got.tgz:495790.got - 2010.06.03 11:33:40.
