data_PCOD9024503
_publ_section_title
;
Structure prediction by ZEFSAII (Michael W. Deem and Ramdas Pophale) SiO2 
 PCOD9024503
Probable space group: P -1
;
_chemical_formula_sum "Si O2"
_cell_formula_units_Z 16
_cell_length_a 15.211943
_cell_length_b 8.012315
_cell_length_c 8.226029
_cell_angle_alpha 71.287986
_cell_angle_beta 60.051966
_cell_angle_gamma 114.670254
_cell_volume 584.576364
_symmetry_space_group_name_H-M "P -1"
_symmetry_group_IT_number 2
_symmetry_cell_setting 'triclinic'
loop_
_space_group_symop_operation_xyz
x,y,z
-x,-y,-z
loop_
_atom_site_type_symbol
_atom_site_label
_atom_site_fract_x
_atom_site_fract_y
_atom_site_fract_z
Si Si1 0.903895 0.088974 0.669608
Si Si2 0.897875 0.272767 0.291318
Si Si3 0.525511 0.316915 0.639962
Si Si4 0.414792 0.441465 0.937665
Si Si5 0.777390 0.201930 0.957953
Si Si6 0.716537 0.326032 0.638547
Si Si7 0.086513 0.090877 0.724077
Si Si8 0.361201 0.711875 0.744612
O O1 0.011894 0.976149 0.319937
O O2 0.958197 0.271893 0.410878
O O3 0.897647 0.209636 0.796434
O O4 0.741778 0.837967 0.847538
O O5 0.775084 0.258471 0.470503
O O6 0.856115 0.037305 0.315396
O O7 0.000000 0.500000 0.000000
O O8 0.513010 0.486328 0.687618
O O9 0.560314 0.204755 0.772029
O O10 0.644595 0.427178 0.358785
O O11 0.367076 0.087981 0.792856
O O12 0.391180 0.619272 0.894380
O O13 0.500000 0.500000 0.000000
O O14 0.750575 0.278200 0.793408
O O15 0.768923 0.323698 0.078660
O O16 0.798387 0.613403 0.472303
O O17 0.000000 0.000000 0.000000
O O18 0.500000 0.000000 0.500000
#
# Coordination Sequence:
#
# PCOD9024503 Si02
#       8
#     2   2   2   2   2   2   2   2
#     4  10  26  48  74 103 145 190 244 303 364 437
#     4  11  25  49  70 106 145 192 251 309 355 430
#     4  10  22  42  68 106 146 178 236 293 364 435
#     4  11  24  44  72 103 142 188 235 290 365 440
#     4   9  21  44  71 103 139 187 230 296 367 440
#     4  11  24  45  72 103 143 191 236 302 361 431
#     4  12  27  49  71 107 144 196 252 299 366 432
#     4  10  22  40  65 103 141 183 225 287 354 433
#
# _framework density 27.370245000000001
#
# number of rings (size 3 to 8) (size 9 to 14) (size 15 to 20)
#    0.000    1.500    1.250    1.875    5.250    8.000 
#    4.500    0.000    0.000    0.000    0.000    0.000 
#    0.000    0.000    0.000    0.000    0.000    0.000 
#
# Total GULP energy -89611.826779 kJ/mol
# GULP energy per Si atom -5600.739174 kJ/mol
# Density = 2.730795 g / cm^3
# Si number density = 27.370245 Si / 1000 Ang^3
#
#
#
# Elastic Constant Matrix: (Units=GPa)
#
#
# Indices 1 2 3 4 5 6 
#
# 1 125.0046 40.7742 16.5041 -10.7299 3.1571 -6.7438
# 2 40.7742 157.5354 54.7362 17.5091 -13.4109 -35.8274
# 3 16.5041 54.7362 123.7144 4.1043 7.6793 -2.5635
# 4 -10.7299 17.5091 4.1043 58.3802 -7.7708 1.0227
# 5 3.1571 -13.4109 7.6793 -7.7708 42.3876 5.1848
# 6 -6.7438 -35.8274 -2.5635 1.0227 5.1848 50.0918
#
#
#
# Elastic Compliance Matrix: (Units=1/GPa)
#
#
# Indices 1 2 3 4 5 6 
#
# 1 0.009139 -0.002922 0.000043 0.002424 -0.001071 -0.000796
# 2 -0.002922 0.010766 -0.004311 -0.003186 0.002984 0.006843
# 3 0.000043 -0.004311 0.010108 0.000247 -0.002876 -0.002268
# 4 0.002424 -0.003186 0.000247 0.018897 0.002548 -0.002589
# 5 -0.001071 0.002984 -0.002876 0.002548 0.025710 -0.000870
# 6 -0.000796 0.006843 -0.002268 -0.002589 -0.000870 0.024777
#
#
# Mechanical properties :
#
#
# Convention : Reuss Voigt Hill
#
# Bulk Modulus (GPa) = 63.96635 70.03147 66.99891
# Shear Modulus (GPa) = 42.02015 49.78793 45.90404
#
# Velocity S-wave (km/s) = 3.92248 4.26966 4.09975
# Velocity P-wave (km/s) = 6.62842 7.06746 6.85146
#
# Compressibility (1/GPa) = 0.01563322
#
# Stress axis : x y z
#
# Youngs Moduli (GPa) = 109.41645 92.88135 98.92936
#
# Poissons Ratio (x) = 0.27142 -0.00428
# Poissons Ratio (y) = 0.31974 0.42653
# Poissons Ratio (z) = -0.00473 0.40045
#
# Static dielectric constant tensor:
#      x y z
#    x 2.209120 0.099780 0.029640 
#    y 0.099780 2.175120 0.020310 
#    z 0.029640 0.020310 2.178360 
# 
# From -- ./inp_files/328690.got.cif
#   From: 2010.05.17/outbox.cif.g08.bks.cpg/sg2_165_cif.got.tgz:328690.got - 2010.06.03 11:33:40.
