data_PCOD9024048
_publ_section_title
;
Structure prediction by ZEFSAII (Michael W. Deem and Ramdas Pophale) SiO2 
 PCOD9024048
Probable space group: P -1
;
_chemical_formula_sum "Si O2"
_cell_formula_units_Z 14
_cell_length_a 17.766993
_cell_length_b 8.215751
_cell_length_c 7.206988
_cell_angle_alpha 103.027442
_cell_angle_beta 69.893576
_cell_angle_gamma 145.520289
_cell_volume 555.922381
_symmetry_space_group_name_H-M "P -1"
_symmetry_group_IT_number 2
_symmetry_cell_setting 'triclinic'
loop_
_space_group_symop_operation_xyz
x,y,z
-x,-y,-z
loop_
_atom_site_type_symbol
_atom_site_label
_atom_site_fract_x
_atom_site_fract_y
_atom_site_fract_z
Si Si1 0.732452 0.754105 0.309271
Si Si2 0.032355 0.244357 0.079761
Si Si3 0.874464 0.510622 0.534189
Si Si4 0.642168 0.691328 0.015761
Si Si5 0.672180 0.267279 0.133122
Si Si6 0.365795 0.689355 0.236483
Si Si7 0.168124 0.911903 0.336165
O O1 0.692732 0.493857 0.241602
O O2 0.750433 0.824427 0.526870
O O3 0.628694 0.676702 0.244284
O O4 0.878826 0.059716 0.164848
O O5 0.071704 0.308740 0.279010
O O6 0.170453 0.536423 0.928979
O O7 0.000000 0.000000 0.000000
O O8 0.743565 0.400900 0.559374
O O9 0.839849 0.266206 0.574434
O O10 0.017720 0.728911 0.358695
O O11 0.676134 0.561535 0.878484
O O12 0.752726 0.991999 0.893706
O O13 0.500000 0.500000 0.000000
O O14 0.522920 0.947486 0.248415
O O15 0.642448 0.212134 0.920084
#
# Coordination Sequence:
#
# PCOD9024048 Si02
#       7
#     2   2   2   2   2   2   2
#     4   9  19  38  59  86 115 162 198 236 304 347
#     4   8  14  29  57  86 111 145 203 238 280 348
#     4   9  19  37  62  87 119 162 197 239 303 350
#     4  11  25  39  60  91 121 154 200 250 298 351
#     4   8  15  29  59  86 113 155 196 243 286 360
#     4   9  18  34  58  87 116 160 197 237 304 348
#     4  10  22  40  63  88 122 156 197 250 291 354
#
# _framework density 25.183371000000001
#
# number of rings (size 3 to 8) (size 9 to 14) (size 15 to 20)
#    0.000    2.857    0.000    0.857    8.000    1.143 
#    0.000    7.143    0.000    0.000    0.000    0.000 
#    0.000    0.000    0.000    0.000    0.000    0.000 
#
# Total GULP energy -77993.195852 kJ/mol
# GULP energy per Si atom -5570.942561 kJ/mol
# Density = 2.512605 g / cm^3
# Si number density = 25.183371 Si / 1000 Ang^3
#
#
#
# Elastic Constant Matrix: (Units=GPa)
#
#
# Indices 1 2 3 4 5 6 
#
# 1 62.0026 1.8742 3.6951 4.8537 0.6601 14.1459
# 2 1.8742 100.5002 13.3978 16.8776 -5.0643 3.4159
# 3 3.6951 13.3978 56.3130 -0.3080 6.1022 -9.4730
# 4 4.8537 16.8776 -0.3080 20.7167 2.9115 -10.7060
# 5 0.6601 -5.0643 6.1022 2.9115 31.1306 6.0774
# 6 14.1459 3.4159 -9.4730 -10.7060 6.0774 25.0331
#
#
#
# Elastic Compliance Matrix: (Units=1/GPa)
#
#
# Indices 1 2 3 4 5 6 
#
# 1 0.030551 0.011069 -0.014626 -0.043044 0.017200 -0.046894
# 2 0.011069 0.020163 -0.013362 -0.039524 0.016173 -0.034893
# 3 -0.014626 -0.013362 0.031847 0.040707 -0.020611 0.044553
# 4 -0.043044 -0.039524 0.040707 0.165450 -0.054159 0.129028
# 5 0.017200 0.016173 -0.020611 -0.054159 0.054448 -0.056107
# 6 -0.046894 -0.034893 0.044553 0.129028 -0.056107 0.156870
#
#
# Mechanical properties :
#
#
# Convention : Reuss Voigt Hill
#
# Bulk Modulus (GPa) = 20.52353 28.52776 24.52565
# Shear Modulus (GPa) = 9.81531 28.69932 19.25731
#
# Velocity S-wave (km/s) = 1.97636 3.37948 2.76829
# Velocity P-wave (km/s) = 3.65723 5.15562 4.46966
#
# Compressibility (1/GPa) = 0.04872456
#
# Stress axis : x y z
#
# Youngs Moduli (GPa) = 32.73251 49.59462 31.39970
#
# Poissons Ratio (x) = -0.54898 0.45925
# Poissons Ratio (y) = -0.36233 0.41956
# Poissons Ratio (z) = 0.47875 0.66268
#
# Static dielectric constant tensor:
#      x y z
#    x 15.784710 -3.635500 1.729680 
#    y -3.635500 3.081020 -0.545380 
#    z 1.729680 -0.545380 2.275120 
# 
# From -- ./inp_files/186037.got.cif
#   From: 2010.05.17/outbox.cif.g08.bks.cpg/sg2_94_cif.got.tgz:186037.got - 2010.06.03 11:33:40.
