data_PCOD9024236
_publ_section_title
;
Structure prediction by ZEFSAII (Michael W. Deem and Ramdas Pophale) SiO2 
 PCOD9024236
Probable space group: P -1
;
_chemical_formula_sum "Si O2"
_cell_formula_units_Z 14
_cell_length_a 9.372111
_cell_length_b 8.105310
_cell_length_c 8.991892
_cell_angle_alpha 75.818386
_cell_angle_beta 115.745735
_cell_angle_gamma 64.514546
_cell_volume 470.551585
_symmetry_space_group_name_H-M "P -1"
_symmetry_group_IT_number 2
_symmetry_cell_setting 'triclinic'
loop_
_space_group_symop_operation_xyz
x,y,z
-x,-y,-z
loop_
_atom_site_type_symbol
_atom_site_label
_atom_site_fract_x
_atom_site_fract_y
_atom_site_fract_z
Si Si1 0.406702 0.532343 0.250155
Si Si2 0.000000 0.500000 0.500000
Si Si3 0.621148 0.694479 0.466042
Si Si4 0.250356 0.147376 0.153077
Si Si5 0.347779 0.398747 0.957821
Si Si6 0.031873 0.156008 0.339215
Si Si7 0.210496 0.007068 0.767397
Si Si8 0.000000 0.000000 0.000000
O O1 0.562948 0.569036 0.366901
O O2 0.433427 0.337011 0.389334
O O3 0.414308 0.494947 0.088064
O O4 0.191323 0.741102 0.156391
O O5 0.156968 0.411488 0.454237
O O6 0.138771 0.247701 0.691957
O O7 0.482246 0.945807 0.316608
O O8 0.235282 0.335011 0.024591
O O9 0.144285 0.185182 0.255220
O O10 0.158316 0.055931 0.035932
O O11 0.555779 0.177957 0.044391
O O12 0.160893 0.607997 0.735494
O O13 0.171890 0.002886 0.570582
O O14 0.941766 0.047278 0.235151
#
# Coordination Sequence:
#
# PCOD9024236 Si02
#       8
#     2   1   2   2   2   2   2   1
#     4  10  23  40  72 100 138 183 235 293 355 417
#     4  12  26  46  68 100 144 190 236 292 352 432
#     4  10  24  42  67 101 141 186 232 291 358 422
#     4  11  23  45  69 109 135 180 244 290 353 422
#     4  12  24  47  74 108 138 187 243 299 347 432
#     4  11  26  47  73 102 144 189 235 296 361 421
#     4  11  28  47  69 102 146 191 239 288 362 428
#     4  10  22  40  64 104 144 170 220 298 354 412
#
# _framework density 29.752314999999999
#
# number of rings (size 3 to 8) (size 9 to 14) (size 15 to 20)
#    0.000    1.143    2.857    1.714   12.000    1.143 
#    0.000    0.714    0.000    0.000    0.000    0.000 
#    0.000    0.000    0.000    0.000    0.000    0.000 
#
# Total GULP energy -78232.149603 kJ/mol
# GULP energy per Si atom -5588.010686 kJ/mol
# Density = 2.968460 g / cm^3
# Si number density = 29.752315 Si / 1000 Ang^3
#
#
#
# Elastic Constant Matrix: (Units=GPa)
#
#
# Indices 1 2 3 4 5 6 
#
# 1 139.1913 56.2625 46.1766 -8.7512 11.5087 -16.4892
# 2 56.2625 97.2277 27.8825 -30.8761 12.8004 -10.5415
# 3 46.1766 27.8825 141.7900 -29.0144 7.8441 1.6677
# 4 -8.7512 -30.8761 -29.0144 63.1533 0.3514 3.8368
# 5 11.5087 12.8004 7.8441 0.3514 62.7339 -16.2938
# 6 -16.4892 -10.5415 1.6677 3.8368 -16.2938 45.6248
#
#
#
# Elastic Compliance Matrix: (Units=1/GPa)
#
#
# Indices 1 2 3 4 5 6 
#
# 1 0.010756 -0.006060 -0.002991 -0.003032 0.000435 0.003007
# 2 -0.006060 0.016320 0.000386 0.007321 -0.002271 0.000140
# 3 -0.002991 0.000386 0.008855 0.003976 -0.001199 -0.002078
# 4 -0.003032 0.007321 0.003976 0.020957 -0.002086 -0.002057
# 5 0.000435 -0.002271 -0.001199 -0.002086 0.018129 0.006326
# 6 0.003007 0.000140 -0.002078 -0.002057 0.006326 0.025545
#
#
# Mechanical properties :
#
#
# Convention : Reuss Voigt Hill
#
# Bulk Modulus (GPa) = 53.75905 70.98357 62.37131
# Shear Modulus (GPa) = 40.29269 50.82823 45.56046
#
# Velocity S-wave (km/s) = 3.68403 4.13774 3.91746
# Velocity P-wave (km/s) = 6.01700 6.83650 6.43980
#
# Compressibility (1/GPa) = 0.01860152
#
# Stress axis : x y z
#
# Youngs Moduli (GPa) = 92.97242 61.27318 112.92966
#
# Poissons Ratio (x) = 0.37134 0.33776
# Poissons Ratio (y) = 0.56345 -0.04365
# Poissons Ratio (z) = 0.27807 -0.02368
#
# Static dielectric constant tensor:
#      x y z
#    x 1.958690 -0.489410 -0.250870 
#    y -0.489410 3.622810 1.096960 
#    z -0.250870 1.096960 2.918920 
# 
# From -- ./inp_files/159003.got.cif
#   From: 2010.05.17/outbox.cif.g08.bks.cpg/sg2_80_cif.got.tgz:159003.got - 2010.06.03 11:33:40.
