data_PCOD9024763
_publ_section_title
;
Structure prediction by ZEFSAII (Michael W. Deem and Ramdas Pophale) SiO2 
 PCOD9024763
Probable space group: P -1
;
_chemical_formula_sum "Si O2"
_cell_formula_units_Z 14
_cell_length_a 15.725986
_cell_length_b 8.952578
_cell_length_c 10.409821
_cell_angle_alpha 55.798339
_cell_angle_beta 144.652798
_cell_angle_gamma 106.105004
_cell_volume 649.088680
_symmetry_space_group_name_H-M "P -1"
_symmetry_group_IT_number 2
_symmetry_cell_setting 'triclinic'
loop_
_space_group_symop_operation_xyz
x,y,z
-x,-y,-z
loop_
_atom_site_type_symbol
_atom_site_label
_atom_site_fract_x
_atom_site_fract_y
_atom_site_fract_z
Si Si1 0.840903 0.963546 0.852096
Si Si2 0.093305 0.121351 0.726910
Si Si3 0.342240 0.694099 0.696061
Si Si4 0.792821 0.585386 0.403062
Si Si5 0.474344 0.800509 0.044000
Si Si6 0.900277 0.576853 0.971637
Si Si7 0.789114 0.274775 0.092121
O O1 0.827138 0.804542 0.810192
O O2 0.698782 0.172080 0.545914
O O3 0.868522 0.894757 0.066667
O O4 0.000000 0.000000 0.000000
O O5 0.207807 0.226327 0.762949
O O6 0.917845 0.229214 0.391565
O O7 0.141867 0.904857 0.834513
O O8 0.215859 0.592668 0.604066
O O9 0.500000 0.500000 0.000000
O O10 0.361359 0.827694 0.767914
O O11 0.649044 0.645423 0.298843
O O12 0.958460 0.504374 0.714309
O O13 0.378546 0.727951 0.065020
O O14 0.500000 0.000000 0.000000
O O15 0.783237 0.467434 0.916629
O O16 0.000000 0.500000 0.000000
#
# Coordination Sequence:
#
# PCOD9024763 Si02
#       7
#     2   2   2   2   2   2   2
#     4  12  23  41  72 102 133 178 231 289 339 408
#     4  10  22  40  69 103 136 172 239 281 342 403
#     4  10  24  43  67  96 136 182 223 277 350 409
#     4  10  22  43  67  96 138 183 219 288 336 415
#     4  11  22  41  69  91 132 188 229 266 347 412
#     4  11  25  41  69 103 140 172 231 291 342 398
#     4  10  22  40  66 104 137 181 226 288 339 412
#
# _framework density 21.568701000000001
#
# number of rings (size 3 to 8) (size 9 to 14) (size 15 to 20)
#    0.000    1.429    2.857    1.714    4.000    1.143 
#    0.000    3.571    0.000    0.000    0.000    0.000 
#    0.000    0.000    0.000    0.000    0.000    0.000 
#
# Total GULP energy -77958.725749 kJ/mol
# GULP energy per Si atom -5568.480411 kJ/mol
# Density = 2.151961 g / cm^3
# Si number density = 21.568701 Si / 1000 Ang^3
#
#
#
# Elastic Constant Matrix: (Units=GPa)
#
#
# Indices 1 2 3 4 5 6 
#
# 1 105.0337 52.0119 21.8146 -6.7295 6.1095 18.1701
# 2 52.0119 178.4589 27.1315 -0.1122 -13.6068 16.6547
# 3 21.8146 27.1315 60.9523 -17.8856 -4.9867 -0.3175
# 4 -6.7295 -0.1122 -17.8856 35.0351 -1.4694 0.5729
# 5 6.1095 -13.6068 -4.9867 -1.4694 23.0725 6.1835
# 6 18.1701 16.6547 -0.3175 0.5729 6.1835 41.3731
#
#
#
# Elastic Compliance Matrix: (Units=1/GPa)
#
#
# Indices 1 2 3 4 5 6 
#
# 1 0.012790 -0.003262 -0.003392 0.000561 -0.005048 -0.003583
# 2 -0.003262 0.007518 -0.002177 -0.001449 0.005376 -0.002394
# 3 -0.003392 -0.002177 0.022152 0.010817 0.004637 0.001693
# 4 0.000561 -0.001449 0.010817 0.034332 0.003684 -0.000606
# 5 -0.005048 0.005376 0.004637 0.003684 0.051123 -0.007603
# 6 -0.003583 -0.002394 0.001693 -0.000606 -0.007603 0.027865
#
#
# Mechanical properties :
#
#
# Convention : Reuss Voigt Hill
#
# Bulk Modulus (GPa) = 40.32748 60.70676 50.51712
# Shear Modulus (GPa) = 27.51666 36.12861 31.82263
#
# Velocity S-wave (km/s) = 3.57566 4.09718 3.84527
# Velocity P-wave (km/s) = 5.98205 7.11262 6.57169
#
# Compressibility (1/GPa) = 0.02479699
#
# Stress axis : x y z
#
# Youngs Moduli (GPa) = 78.18517 133.02210 45.14358
#
# Poissons Ratio (x) = 0.43392 0.15315
# Poissons Ratio (y) = 0.25504 0.09826
# Poissons Ratio (z) = 0.26524 0.28954
#
# Static dielectric constant tensor:
#      x y z
#    x 1.882790 -0.088710 -0.035460 
#    y -0.088710 1.106830 -0.393030 
#    z -0.035460 -0.393030 1.651390 
# 
# From -- ./inp_files/178027.got.cif
#   From: 2010.05.17/outbox.cif.g08.bks.cpg/sg2_90_cif.got.tgz:178027.got - 2010.06.03 11:33:40.
