data_PCOD9024958
_publ_section_title
;
Structure prediction by ZEFSAII (Michael W. Deem and Ramdas Pophale) SiO2 
 PCOD9024958
Probable space group: P -1
;
_chemical_formula_sum "Si O2"
_cell_formula_units_Z 14
_cell_length_a 5.955554
_cell_length_b 11.854785
_cell_length_c 8.881519
_cell_angle_alpha 73.102160
_cell_angle_beta 89.763650
_cell_angle_gamma 77.479158
_cell_volume 584.543738
_symmetry_space_group_name_H-M "P -1"
_symmetry_group_IT_number 2
_symmetry_cell_setting 'triclinic'
loop_
_space_group_symop_operation_xyz
x,y,z
-x,-y,-z
loop_
_atom_site_type_symbol
_atom_site_label
_atom_site_fract_x
_atom_site_fract_y
_atom_site_fract_z
Si Si1 0.957913 0.654426 0.591508
Si Si2 0.726924 0.092151 0.828558
Si Si3 0.918519 0.824978 0.016884
Si Si4 0.293995 0.556647 0.366941
Si Si5 0.489665 0.136857 0.491315
Si Si6 0.281638 0.716849 0.800024
Si Si7 0.551059 0.695614 0.079561
O O1 0.814359 0.551546 0.649376
O O2 0.769978 0.781165 0.545067
O O3 0.096164 0.637172 0.440547
O O4 0.149177 0.639311 0.727562
O O5 0.606000 0.138091 0.654363
O O6 0.566895 0.164864 0.931051
O O7 0.764542 0.948857 0.900366
O O8 0.968047 0.128756 0.853376
O O9 0.100902 0.780437 0.900963
O O10 0.811136 0.708832 0.095487
O O11 0.500000 0.500000 0.500000
O O12 0.416798 0.622917 0.217044
O O13 0.638726 0.191970 0.349663
O O14 0.500000 0.000000 0.500000
O O15 0.502268 0.660117 0.923920
#
# Coordination Sequence:
#
# PCOD9024958 Si02
#       7
#     2   2   2   2   2   2   2
#     4  11  25  47  69 100 140 177 229 290 338 402
#     4  10  22  40  66  97 136 184 232 279 335 406
#     4  10  23  42  65  99 140 181 227 282 341 403
#     4  11  26  47  74 100 131 181 237 285 341 408
#     4  12  26  44  70 104 141 182 229 280 339 409
#     4  11  24  42  65 100 138 178 226 276 344 410
#     4  11  23  42  68  98 133 178 228 284 345 406
#
# _framework density 23.950306000000001
#
# number of rings (size 3 to 8) (size 9 to 14) (size 15 to 20)
#    0.000    1.143    0.000    5.571    0.000   15.429 
#    0.000    5.000    0.000    0.000    0.000    0.000 
#    0.000    0.000    0.000    0.000    0.000    0.000 
#
# Total GULP energy -78301.486974 kJ/mol
# GULP energy per Si atom -5592.963355 kJ/mol
# Density = 2.389579 g / cm^3
# Si number density = 23.950306 Si / 1000 Ang^3
#
#
#
# Elastic Constant Matrix: (Units=GPa)
#
#
# Indices 1 2 3 4 5 6 
#
# 1 129.2741 50.3409 69.4791 -2.2458 -14.8555 42.4734
# 2 50.3409 94.5132 27.9720 9.9920 -10.8487 16.3438
# 3 69.4791 27.9720 119.2634 14.6743 8.4211 40.5172
# 4 -2.2458 9.9920 14.6743 30.0072 8.3691 -1.2828
# 5 -14.8555 -10.8487 8.4211 8.3691 41.8179 4.7521
# 6 42.4734 16.3438 40.5172 -1.2828 4.7521 59.1237
#
#
#
# Elastic Compliance Matrix: (Units=1/GPa)
#
#
# Indices 1 2 3 4 5 6 
#
# 1 0.016351 -0.005453 -0.007353 0.004856 0.005532 -0.005539
# 2 -0.005453 0.014485 0.000676 -0.006462 0.003084 -0.000937
# 3 -0.007353 0.000676 0.015544 -0.007657 -0.003415 -0.005449
# 4 0.004856 -0.006462 -0.007657 0.041853 -0.007359 0.005045
# 5 0.005532 0.003084 -0.003415 -0.007359 0.029408 -0.005010
# 6 -0.005539 -0.000937 -0.005449 0.005045 -0.005010 0.025398
#
#
# Mechanical properties :
#
#
# Convention : Reuss Voigt Hill
#
# Bulk Modulus (GPa) = 45.21093 70.95942 58.08518
# Shear Modulus (GPa) = 28.62488 39.20699 33.91594
#
# Velocity S-wave (km/s) = 3.46089 4.05039 3.76719
# Velocity P-wave (km/s) = 5.90663 7.18097 6.57475
#
# Compressibility (1/GPa) = 0.02211854
#
# Stress axis : x y z
#
# Youngs Moduli (GPa) = 61.15886 69.03914 64.33275
#
# Poissons Ratio (x) = 0.37650 0.47302
# Poissons Ratio (y) = 0.33352 -0.04346
# Poissons Ratio (z) = 0.44968 -0.04664
#
# Static dielectric constant tensor:
#      x y z
#    x 2.160390 -0.015310 0.029280 
#    y -0.015310 1.917020 -0.005780 
#    z 0.029280 -0.005780 1.895660 
# 
# From -- ./inp_files/131474.got.cif
#   From: 2010.05.17/outbox.cif.g08.bks.cpg/sg2_66_cif.got.tgz:131474.got - 2010.06.03 11:33:40.
