data_PCOD9024323
_publ_section_title
;
Structure prediction by ZEFSAII (Michael W. Deem and Ramdas Pophale) SiO2 
 PCOD9024323
Probable space group: P -1
;
_chemical_formula_sum "Si O2"
_cell_formula_units_Z 14
_cell_length_a 11.290716
_cell_length_b 11.832681
_cell_length_c 15.218500
_cell_angle_alpha 28.454958
_cell_angle_beta 46.996445
_cell_angle_gamma 40.265625
_cell_volume 625.719669
_symmetry_space_group_name_H-M "P -1"
_symmetry_group_IT_number 2
_symmetry_cell_setting 'triclinic'
loop_
_space_group_symop_operation_xyz
x,y,z
-x,-y,-z
loop_
_atom_site_type_symbol
_atom_site_label
_atom_site_fract_x
_atom_site_fract_y
_atom_site_fract_z
Si Si1 0.116688 0.106682 0.422196
Si Si2 0.757695 0.356151 0.890967
Si Si3 0.929138 0.588880 0.072904
Si Si4 0.656811 0.224721 0.215564
Si Si5 0.625503 0.434265 0.281628
Si Si6 0.788483 0.182273 0.807112
Si Si7 0.935752 0.685107 0.509405
O O1 0.033107 0.180466 0.510709
O O2 0.082896 0.373797 0.206627
O O3 0.317562 0.857277 0.504387
O O4 0.000000 0.000000 0.500000
O O5 0.558410 0.621319 0.803547
O O6 0.768713 0.167748 0.932369
O O7 0.909535 0.445492 0.727792
O O8 0.761437 0.242899 0.062972
O O9 0.744948 0.552535 0.189451
O O10 0.000000 0.500000 0.000000
O O11 0.880282 0.888750 0.918892
O O12 0.675527 0.369083 0.196656
O O13 0.746090 0.911453 0.408703
O O14 0.412999 0.639436 0.251704
O O15 0.904667 0.341030 0.618325
#
# Coordination Sequence:
#
# PCOD9024323 Si02
#       7
#     2   2   2   2   2   2   2
#     4   9  20  40  63  90 120 169 216 253 313 383
#     4  10  22  40  64  92 130 167 217 262 317 373
#     4  11  22  40  68  92 124 168 215 265 319 379
#     4   9  20  41  66  93 121 170 219 259 311 382
#     4   9  20  41  67  93 129 163 213 266 318 376
#     4  11  23  40  60 100 132 163 210 268 318 378
#     4  11  22  38  63  90 132 171 210 256 321 386
#
# _framework density 22.374237000000001
#
# number of rings (size 3 to 8) (size 9 to 14) (size 15 to 20)
#    0.000    2.000    0.000    3.857    4.000    0.571 
#    2.571    7.857    0.000    0.000    0.000    0.000 
#    0.000    0.000    0.000    0.000    0.000    0.000 
#
# Total GULP energy -78171.697093 kJ/mol
# GULP energy per Si atom -5583.692650 kJ/mol
# Density = 2.232331 g / cm^3
# Si number density = 22.374237 Si / 1000 Ang^3
#
#
#
# Elastic Constant Matrix: (Units=GPa)
#
#
# Indices 1 2 3 4 5 6 
#
# 1 61.0866 23.7615 35.9567 -6.8462 14.6395 -2.6388
# 2 23.7615 110.5556 56.5460 -7.5107 11.5152 2.8462
# 3 35.9567 56.5460 136.1753 -0.4553 21.8554 -4.7732
# 4 -6.8462 -7.5107 -0.4553 31.2868 -0.6244 5.1904
# 5 14.6395 11.5152 21.8554 -0.6244 40.3283 4.9210
# 6 -2.6388 2.8462 -4.7732 5.1904 4.9210 29.2944
#
#
#
# Elastic Compliance Matrix: (Units=1/GPa)
#
#
# Indices 1 2 3 4 5 6 
#
# 1 0.021107 -0.001770 -0.003940 0.003763 -0.005162 0.001632
# 2 -0.001770 0.012048 -0.004629 0.002871 0.000073 -0.002605
# 3 -0.003940 -0.004629 0.010976 -0.002367 -0.003587 0.002905
# 4 0.003763 0.002871 -0.002367 0.034530 0.000427 -0.006515
# 5 -0.005162 0.000073 -0.003587 0.000427 0.029340 -0.006061
# 6 0.001632 -0.002605 0.002905 -0.006515 -0.006061 0.037182
#
#
# Mechanical properties :
#
#
# Convention : Reuss Voigt Hill
#
# Bulk Modulus (GPa) = 42.63902 60.03842 51.33872
# Shear Modulus (GPa) = 28.78894 32.95212 30.87053
#
# Velocity S-wave (km/s) = 3.59095 3.84183 3.71851
# Velocity P-wave (km/s) = 6.02427 6.82434 6.43674
#
# Compressibility (1/GPa) = 0.02345270
#
# Stress axis : x y z
#
# Youngs Moduli (GPa) = 47.37713 83.00374 91.11137
#
# Poissons Ratio (x) = 0.14692 0.35898
# Poissons Ratio (y) = 0.08386 0.42174
# Poissons Ratio (z) = 0.18667 0.38421
#
# Static dielectric constant tensor:
#      x y z
#    x 1.855700 0.016100 -0.021990 
#    y 0.016100 1.839850 -0.008650 
#    z -0.021990 -0.008650 1.849980 
# 
# From -- ./inp_files/425627.got.cif
#   From: 2010.05.17/outbox.cif.g08.bks.cpg/sg2_213_cif.got.tgz:425627.got - 2010.06.03 11:33:40.
