data_PCOD9024454
_publ_section_title
;
Structure prediction by ZEFSAII (Michael W. Deem and Ramdas Pophale) SiO2 
 PCOD9024454
Probable space group: P -1
;
_chemical_formula_sum "Si O2"
_cell_formula_units_Z 14
_cell_length_a 18.230286
_cell_length_b 11.029694
_cell_length_c 15.149572
_cell_angle_alpha 37.538530
_cell_angle_beta 155.589355
_cell_angle_gamma 153.405559
_cell_volume 559.825501
_symmetry_space_group_name_H-M "P -1"
_symmetry_group_IT_number 2
_symmetry_cell_setting 'triclinic'
loop_
_space_group_symop_operation_xyz
x,y,z
-x,-y,-z
loop_
_atom_site_type_symbol
_atom_site_label
_atom_site_fract_x
_atom_site_fract_y
_atom_site_fract_z
Si Si1 0.212177 0.915065 0.637164
Si Si2 0.773400 0.704643 0.016752
Si Si3 0.719721 0.826852 0.271818
Si Si4 0.671837 0.044937 0.785813
Si Si5 0.318571 0.806406 0.097885
Si Si6 0.278254 0.483481 0.754362
Si Si7 0.959654 0.581105 0.142836
O O1 0.948348 0.781235 0.393099
O O2 0.148640 0.676154 0.765887
O O3 0.358909 0.164350 0.721936
O O4 0.395515 0.022883 0.696113
O O5 0.811654 0.565759 0.214870
O O6 0.914474 0.736625 0.066488
O O7 0.486016 0.484283 0.803242
O O8 0.812328 0.945908 0.968942
O O9 0.711210 0.001444 0.092732
O O10 0.000000 0.000000 0.500000
O O11 0.400522 0.764287 0.677412
O O12 0.760359 0.238067 0.686545
O O13 0.749258 0.217361 0.860889
O O14 0.176494 0.546712 0.027412
O O15 0.500000 0.500000 0.000000
#
# Coordination Sequence:
#
# PCOD9024454 Si02
#       7
#     2   2   2   2   2   2   2
#     4  11  22  41  70  94 125 169 214 268 311 375
#     4  11  21  41  64  95 128 168 218 257 315 373
#     4  11  20  37  68  96 125 161 218 264 309 370
#     4  11  23  37  64  94 137 166 205 261 328 375
#     4  11  22  42  64  98 126 167 217 262 315 373
#     4  10  22  40  64  98 126 164 212 266 317 371
#     4  11  22  41  62  96 132 170 208 263 318 382
#
# _framework density 25.007792999999999
#
# number of rings (size 3 to 8) (size 9 to 14) (size 15 to 20)
#    0.000    1.143    4.286    3.429    2.000    2.857 
#    0.000    0.000    0.000   14.571    0.000    0.000 
#    0.000    0.000    0.000    0.000    0.000    0.000 
#
# Total GULP energy -78060.679089 kJ/mol
# GULP energy per Si atom -5575.762792 kJ/mol
# Density = 2.495087 g / cm^3
# Si number density = 25.007793 Si / 1000 Ang^3
#
#
#
# Elastic Constant Matrix: (Units=GPa)
#
#
# Indices 1 2 3 4 5 6 
#
# 1 231.4088 53.4847 22.1121 14.2128 -11.3157 14.0454
# 2 53.4847 64.5631 9.9605 25.0612 -11.5316 -11.1602
# 3 22.1121 9.9605 92.6905 20.6276 -4.8687 2.2971
# 4 14.2128 25.0612 20.6276 22.8227 -1.9390 1.5308
# 5 -11.3157 -11.5316 -4.8687 -1.9390 33.6226 15.3265
# 6 14.0454 -11.1602 2.2971 1.5308 15.3265 53.6506
#
#
#
# Elastic Compliance Matrix: (Units=1/GPa)
#
#
# Indices 1 2 3 4 5 6 
#
# 1 0.006230 -0.008091 -0.002071 0.007227 0.001153 -0.003761
# 2 -0.008091 0.043292 0.008538 -0.050449 0.005624 0.010591
# 3 -0.002071 0.008538 0.015312 -0.021821 0.002470 0.001580
# 4 0.007227 -0.050449 -0.021821 0.114861 -0.005394 -0.013188
# 5 0.001153 0.005624 0.002470 -0.005394 0.036432 -0.009491
# 6 -0.003761 0.010591 0.001580 -0.013188 -0.009491 0.024847
#
#
# Mechanical properties :
#
#
# Convention : Reuss Voigt Hill
#
# Bulk Modulus (GPa) = 16.23768 62.19744 39.21756
# Shear Modulus (GPa) = 18.88568 42.22618 30.55593
#
# Velocity S-wave (km/s) = 2.75106 4.11362 3.49930
# Velocity P-wave (km/s) = 4.07409 6.89113 5.66065
#
# Compressibility (1/GPa) = 0.06158516
#
# Stress axis : x y z
#
# Youngs Moduli (GPa) = 160.51053 23.09891 65.30872
#
# Poissons Ratio (x) = 0.18690 0.13528
# Poissons Ratio (y) = 1.29871 -0.55761
# Poissons Ratio (z) = 0.33248 -0.19722
#
# Static dielectric constant tensor:
#      x y z
#    x 2.112810 -0.012370 0.055310 
#    y -0.012370 2.171960 0.022640 
#    z 0.055310 0.022640 2.007750 
# 
# From -- ./inp_files/456853.got.cif
#   From: 2010.05.17/outbox.cif.g08.bks.cpg/sg2_229_cif.got.tgz:456853.got - 2010.06.03 11:33:40.
