data_PCOD9024604
_publ_section_title
;
Structure prediction by ZEFSAII (Michael W. Deem and Ramdas Pophale) SiO2 
 PCOD9024604
Probable space group: P -1
;
_chemical_formula_sum "Si O2"
_cell_formula_units_Z 16
_cell_length_a 9.785647
_cell_length_b 16.712727
_cell_length_c 14.203261
_cell_angle_alpha 134.299952
_cell_angle_beta 48.423203
_cell_angle_gamma 155.626337
_cell_volume 683.103962
_symmetry_space_group_name_H-M "P -1"
_symmetry_group_IT_number 2
_symmetry_cell_setting 'triclinic'
loop_
_space_group_symop_operation_xyz
x,y,z
-x,-y,-z
loop_
_atom_site_type_symbol
_atom_site_label
_atom_site_fract_x
_atom_site_fract_y
_atom_site_fract_z
Si Si1 0.100678 0.876614 0.723396
Si Si2 0.191964 0.706682 0.806596
Si Si3 0.507199 0.659968 0.696012
Si Si4 0.063506 0.212605 0.074087
Si Si5 0.900647 0.756057 0.420372
Si Si6 0.544605 0.643968 0.301153
Si Si7 0.648000 0.221683 0.429499
Si Si8 0.564554 0.760311 0.207915
O O1 0.115568 0.750385 0.607440
O O2 0.757751 0.752794 0.740767
O O3 0.152651 0.931028 0.854567
O O4 0.373100 0.077582 0.701053
O O5 0.418168 0.744415 0.798970
O O6 0.311177 0.756695 0.684443
O O7 0.140425 0.813737 0.926996
O O8 0.821053 0.466999 0.793786
O O9 0.691129 0.716526 0.562211
O O10 0.183672 0.415872 0.657865
O O11 0.334810 0.435640 0.180923
O O12 0.259545 0.214368 0.936804
O O13 0.755620 0.710840 0.346877
O O14 0.281501 0.987908 0.431892
O O15 0.330489 0.641404 0.431119
O O16 0.739244 0.799031 0.252684
#
# Coordination Sequence:
#
# PCOD9024604 Si02
#       8
#     2   2   2   2   2   2   2   2
#     4  11  24  43  68  97 127 168 214 268 316 384
#     4  10  22  40  65  94 130 163 210 267 313 383
#     4  11  23  40  63  97 132 166 209 258 332 376
#     4  10  23  45  67  91 127 173 219 263 311 371
#     4  11  23  39  62  96 141 164 200 265 322 396
#     4  11  21  39  66  96 129 166 207 262 315 384
#     4  11  24  40  66 100 132 165 208 258 334 379
#     4  11  24  42  71  89 128 174 222 258 312 373
#
# _framework density 23.422495999999999
#
# number of rings (size 3 to 8) (size 9 to 14) (size 15 to 20)
#    0.000    1.250    2.500    3.750    1.750   10.500 
#    0.000    1.250    8.250    0.000    0.000    0.000 
#    0.000    0.000    0.000    0.000    0.000    0.000 
#
# Total GULP energy -89443.863917 kJ/mol
# GULP energy per Si atom -5590.241495 kJ/mol
# Density = 2.336919 g / cm^3
# Si number density = 23.422496 Si / 1000 Ang^3
#
#
#
# Elastic Constant Matrix: (Units=GPa)
#
#
# Indices 1 2 3 4 5 6 
#
# 1 160.4635 27.3948 18.4347 6.6674 -25.3326 -16.0488
# 2 27.3948 109.1867 6.0924 -2.0776 -6.5487 -26.0273
# 3 18.4347 6.0924 67.5420 5.0645 -12.7634 -9.3510
# 4 6.6674 -2.0776 5.0645 21.9028 -9.3875 -1.4537
# 5 -25.3326 -6.5487 -12.7634 -9.3875 26.5261 -3.4646
# 6 -16.0488 -26.0273 -9.3510 -1.4537 -3.4646 39.8120
#
#
#
# Elastic Compliance Matrix: (Units=1/GPa)
#
#
# Indices 1 2 3 4 5 6 
#
# 1 0.007968 -0.000621 -0.000157 0.001354 0.008323 0.003543
# 2 -0.000621 0.011578 0.000932 0.003806 0.005122 0.008123
# 3 -0.000157 0.000932 0.017225 0.000474 0.009243 0.005414
# 4 0.001354 0.003806 0.000474 0.055913 0.023189 0.007205
# 5 0.008323 0.005122 0.009243 0.023189 0.061535 0.015076
# 6 0.003543 0.008123 0.005414 0.007205 0.015076 0.034703
#
#
# Mechanical properties :
#
#
# Convention : Reuss Voigt Hill
#
# Bulk Modulus (GPa) = 26.96905 49.00397 37.98651
# Shear Modulus (GPa) = 24.87897 36.66620 30.77259
#
# Velocity S-wave (km/s) = 3.26265 3.96084 3.62858
# Velocity P-wave (km/s) = 5.07271 6.47185 5.81452
#
# Compressibility (1/GPa) = 0.03707954
#
# Stress axis : x y z
#
# Youngs Moduli (GPa) = 125.50239 86.36890 58.05519
#
# Poissons Ratio (x) = 0.05363 0.00912
# Poissons Ratio (y) = 0.07793 -0.05412
# Poissons Ratio (z) = 0.01971 -0.08051
#
# Static dielectric constant tensor:
#      x y z
#    x 1.894030 0.007100 -0.003040 
#    y 0.007100 1.947370 -0.003800 
#    z -0.003040 -0.003800 1.879420 
# 
# From -- ./inp_files/505475.got.cif
#   From: 2010.05.17/outbox.cif.g08.bks.cpg/sg2_253_cif.got.tgz:505475.got - 2010.06.03 11:33:40.
