data_PCOD9024341
_publ_section_title
;
Structure prediction by ZEFSAII (Michael W. Deem and Ramdas Pophale) SiO2 
 PCOD9024341
Probable space group: P -1
;
_chemical_formula_sum "Si O2"
_cell_formula_units_Z 13
_cell_length_a 12.648696
_cell_length_b 21.111190
_cell_length_c 4.915398
_cell_angle_alpha 125.262951
_cell_angle_beta 64.441783
_cell_angle_gamma 151.260512
_cell_volume 505.875436
_symmetry_space_group_name_H-M "P -1"
_symmetry_group_IT_number 2
_symmetry_cell_setting 'triclinic'
loop_
_space_group_symop_operation_xyz
x,y,z
-x,-y,-z
loop_
_atom_site_type_symbol
_atom_site_label
_atom_site_fract_x
_atom_site_fract_y
_atom_site_fract_z
Si Si1 0.000000 0.000000 0.500000
Si Si2 0.643154 0.677940 0.213719
Si Si3 0.709755 0.960344 0.028217
Si Si4 0.004053 0.364457 0.711065
Si Si5 0.646729 0.354138 0.320931
Si Si6 0.829797 0.706729 0.555282
Si Si7 0.722540 0.242235 0.231006
O O1 0.842797 0.852183 0.485562
O O2 0.829374 0.975567 0.705200
O O3 0.431967 0.611366 0.360155
O O4 0.694462 0.635629 0.250702
O O5 0.691318 0.682270 0.859846
O O6 0.558870 0.812301 0.993828
O O7 0.529300 0.916574 0.986166
O O8 0.916506 0.119351 0.332477
O O9 0.169553 0.522556 0.799667
O O10 0.138244 0.360175 0.528889
O O11 0.090546 0.683107 0.999353
O O12 0.788182 0.249593 0.470132
O O13 0.728981 0.339000 0.416994
#
# Coordination Sequence:
#
# PCOD9024341 Si02
#       7
#     1   2   2   2   2   2   2
#     4   8  16  38  60  88 116 154 190 258 286 362
#     4  10  22  40  64  93 126 153 212 248 320 348
#     4   8  20  39  61  93 118 158 204 251 307 350
#     4  12  24  42  63  87 132 162 209 240 313 360
#     4   9  22  43  63  94 115 170 202 268 288 368
#     4  11  24  40  62  95 125 165 192 262 303 379
#     4  10  24  41  64  91 119 168 206 256 290 372
#
# _framework density 25.698025999999999
#
# number of rings (size 3 to 8) (size 9 to 14) (size 15 to 20)
#    0.923    1.231    0.000    1.846    0.000   12.923 
#    0.000    0.000    0.000    0.000    0.000    0.000 
#    0.000    0.000    0.000    0.000    0.000    0.000 
#
# Total GULP energy -72437.907793 kJ/mol
# GULP energy per Si atom -5572.146753 kJ/mol
# Density = 2.563954 g / cm^3
# Si number density = 25.698026 Si / 1000 Ang^3
#
#
#
# Elastic Constant Matrix: (Units=GPa)
#
#
# Indices 1 2 3 4 5 6 
#
# 1 111.0805 12.1099 29.9267 6.1801 -4.6990 3.9756
# 2 12.1099 79.3171 19.2888 13.6130 7.3804 24.8483
# 3 29.9267 19.2888 62.1747 13.6221 18.5594 1.4140
# 4 6.1801 13.6130 13.6221 28.3003 7.5929 2.9681
# 5 -4.6990 7.3804 18.5594 7.5929 28.7061 -1.3766
# 6 3.9756 24.8483 1.4140 2.9681 -1.3766 38.4539
#
#
#
# Elastic Compliance Matrix: (Units=1/GPa)
#
#
# Indices 1 2 3 4 5 6 
#
# 1 0.011317 -0.000388 -0.007204 -0.000589 0.006748 -0.000368
# 2 -0.000388 0.018081 -0.003540 -0.005322 -0.001551 -0.011158
# 3 -0.007204 -0.003540 0.026543 -0.005434 -0.015901 0.001906
# 4 -0.000589 -0.005322 -0.005434 0.042336 -0.006403 0.000203
# 5 0.006748 -0.001551 -0.015901 -0.006403 0.048463 0.003118
# 6 -0.000368 -0.011158 0.001906 0.000203 0.003118 0.033279
#
#
# Mechanical properties :
#
#
# Convention : Reuss Voigt Hill
#
# Bulk Modulus (GPa) = 29.69268 41.69147 35.69207
# Shear Modulus (GPa) = 23.41826 31.84186 27.63006
#
# Velocity S-wave (km/s) = 3.02203 3.52387 3.28255
# Velocity P-wave (km/s) = 4.87405 5.72850 5.31847
#
# Compressibility (1/GPa) = 0.03367833
#
# Stress axis : x y z
#
# Youngs Moduli (GPa) = 88.36323 55.30652 37.67450
#
# Poissons Ratio (x) = 0.02143 0.27140
# Poissons Ratio (y) = 0.03424 0.13337
# Poissons Ratio (z) = 0.63655 0.19579
#
# Static dielectric constant tensor:
#      x y z
#    x 1.959020 0.024440 0.027040 
#    y 0.024440 1.967610 0.093520 
#    z 0.027040 0.093520 2.116640 
# 
# From -- ./inp_files/81973.got.cif
#   From: 2010.05.17/outbox.cif.g08.bks.cpg/sg2_41_cif.got.tgz:81973.got - 2010.06.03 11:33:40.
