data_PCOD9024395
_publ_section_title
;
Structure prediction by ZEFSAII (Michael W. Deem and Ramdas Pophale) SiO2 
 PCOD9024395
Probable space group: P -1
;
_chemical_formula_sum "Si O2"
_cell_formula_units_Z 16
_cell_length_a 11.873063
_cell_length_b 14.541277
_cell_length_c 11.911715
_cell_angle_alpha 28.904240
_cell_angle_beta 59.857108
_cell_angle_gamma 51.029926
_cell_volume 766.391955
_symmetry_space_group_name_H-M "P -1"
_symmetry_group_IT_number 2
_symmetry_cell_setting 'triclinic'
loop_
_space_group_symop_operation_xyz
x,y,z
-x,-y,-z
loop_
_atom_site_type_symbol
_atom_site_label
_atom_site_fract_x
_atom_site_fract_y
_atom_site_fract_z
Si Si1 0.603531 0.647741 0.000884
Si Si2 0.734404 0.634894 0.588598
Si Si3 0.662996 0.897982 0.878493
Si Si4 0.608332 0.250853 0.356398
Si Si5 0.846135 0.180458 0.920311
Si Si6 0.674713 0.013540 0.345165
Si Si7 0.665939 0.845340 0.178995
Si Si8 0.590809 0.451447 0.618512
O O1 0.660522 0.436039 0.121687
O O2 0.512223 0.571158 0.211962
O O3 0.703094 0.712426 0.963127
O O4 0.487694 0.856137 0.769073
O O5 0.569249 0.656371 0.654007
O O6 0.838244 0.394851 0.754175
O O7 0.747833 0.784558 0.321667
O O8 0.740426 0.759743 0.563577
O O9 0.664124 0.099598 0.599964
O O10 0.492294 0.957545 0.927970
O O11 0.729952 0.863273 0.007320
O O12 0.664577 0.096151 0.387072
O O13 0.744711 0.251059 0.783244
O O14 0.773028 0.093823 0.140810
O O15 0.000000 0.000000 0.000000
O O16 0.629569 0.646677 0.397472
O O17 0.500000 0.500000 0.500000
#
# Coordination Sequence:
#
# PCOD9024395 Si02
#       8
#     2   2   2   2   2   2   2   2
#     4  11  18  28  45  75 109 138 170 217 281 315
#     4  10  19  33  52  78 107 141 178 222 272 327
#     4  10  18  25  43  69 110 138 163 208 279 323
#     4  11  20  31  46  81 111 140 177 225 278 323
#     4  10  23  38  53  79 113 146 182 221 271 328
#     4  11  21  33  53  73 109 147 182 221 269 327
#     4   9  16  28  43  70 111 134 162 217 264 319
#     4  10  17  31  53  79 107 137 182 223 270 323
#
# _framework density 20.877046
#
# number of rings (size 3 to 8) (size 9 to 14) (size 15 to 20)
#    0.000    1.750    8.750    0.750    0.000    0.500 
#    0.000    0.000    0.000    0.000    0.000    4.375 
#    0.000    0.000    0.000    0.000    0.000    0.000 
#
# Total GULP energy -89111.836825 kJ/mol
# GULP energy per Si atom -5569.489802 kJ/mol
# Density = 2.082953 g / cm^3
# Si number density = 20.877046 Si / 1000 Ang^3
#
#
#
# Elastic Constant Matrix: (Units=GPa)
#
#
# Indices 1 2 3 4 5 6 
#
# 1 25.2630 32.0218 12.2887 -4.8672 5.7458 10.9526
# 2 32.0218 114.1836 36.0957 -16.8459 5.3689 18.0493
# 3 12.2887 36.0957 88.1678 -11.2919 -8.3830 4.1824
# 4 -4.8672 -16.8459 -11.2919 34.3287 13.0826 -3.5988
# 5 5.7458 5.3689 -8.3830 13.0826 18.1959 -6.0230
# 6 10.9526 18.0493 4.1824 -3.5988 -6.0230 24.6958
#
#
#
# Elastic Compliance Matrix: (Units=1/GPa)
#
#
# Indices 1 2 3 4 5 6 
#
# 1 0.097734 -0.009528 -0.010510 0.026537 -0.067603 -0.047222
# 2 -0.009528 0.016542 -0.005137 0.009484 -0.014049 -0.009039
# 3 -0.010510 -0.005137 0.015597 -0.005050 0.018840 0.009633
# 4 0.026537 0.009484 -0.005050 0.057247 -0.062886 -0.024840
# 5 -0.067603 -0.014049 0.018840 -0.062886 0.156186 0.065987
# 6 -0.047222 -0.009039 0.009633 -0.024840 0.065987 0.078884
#
#
# Mechanical properties :
#
#
# Convention : Reuss Voigt Hill
#
# Bulk Modulus (GPa) = 12.57489 43.15852 27.86671
# Shear Modulus (GPa) = 10.01907 25.25796 17.63852
#
# Velocity S-wave (km/s) = 2.19306 3.48205 2.90983
# Velocity P-wave (km/s) = 3.52832 6.07321 4.96653
#
# Compressibility (1/GPa) = 0.07952354
#
# Stress axis : x y z
#
# Youngs Moduli (GPa) = 10.23187 60.45118 64.11292
#
# Poissons Ratio (x) = 0.57597 0.67384
# Poissons Ratio (y) = 0.09749 0.32934
# Poissons Ratio (z) = 0.10754 0.31053
#
# Static dielectric constant tensor:
#      x y z
#    x 1.853420 0.130120 -0.037110 
#    y 0.130120 1.886840 -0.046220 
#    z -0.037110 -0.046220 1.843130 
# 
# From -- ./inp_files/433087.got.cif
#   From: 2010.05.17/outbox.cif.g08.bks.cpg/sg2_217_cif.got.tgz:433087.got - 2010.06.03 11:33:40.
