data_PCOD9024491
_publ_section_title
;
Structure prediction by ZEFSAII (Michael W. Deem and Ramdas Pophale) SiO2 
 PCOD9024491
Probable space group: P -1
;
_chemical_formula_sum "Si O2"
_cell_formula_units_Z 16
_cell_length_a 9.502511
_cell_length_b 11.101346
_cell_length_c 17.145263
_cell_angle_alpha 150.065577
_cell_angle_beta 46.551434
_cell_angle_gamma 130.764419
_cell_volume 647.078348
_symmetry_space_group_name_H-M "P -1"
_symmetry_group_IT_number 2
_symmetry_cell_setting 'triclinic'
loop_
_space_group_symop_operation_xyz
x,y,z
-x,-y,-z
loop_
_atom_site_type_symbol
_atom_site_label
_atom_site_fract_x
_atom_site_fract_y
_atom_site_fract_z
Si Si1 0.965493 0.062788 0.322926
Si Si2 0.623255 0.055118 0.845013
Si Si3 0.153751 0.868571 0.420774
Si Si4 0.133856 0.828052 0.746043
Si Si5 0.298043 0.687768 0.829558
Si Si6 0.887049 0.676838 0.908611
Si Si7 0.552482 0.750935 0.544913
Si Si8 0.228005 0.463563 0.894906
O O1 0.924912 0.174179 0.485008
O O2 0.956060 0.194600 0.318414
O O3 0.182460 0.992345 0.209716
O O4 0.796280 0.823565 0.245698
O O5 0.433681 0.942168 0.903215
O O6 0.613950 0.901906 0.683993
O O7 0.653768 0.346249 0.983380
O O8 0.188342 0.610902 0.227395
O O9 0.351700 0.063567 0.454290
O O10 0.000000 0.000000 0.500000
O O11 0.319537 0.688799 0.594811
O O12 0.976161 0.744474 0.826580
O O13 0.223542 0.107754 0.897066
O O14 0.353094 0.492487 0.636483
O O15 0.321870 0.563562 0.833404
O O16 0.073275 0.708741 0.913990
O O17 0.000000 0.500000 0.000000
#
# Coordination Sequence:
#
# PCOD9024491 Si02
#       8
#     2   2   2   2   2   2   2   2
#     4  11  23  45  66 101 140 183 224 282 352 409
#     4  11  23  39  72 102 133 180 237 282 335 402
#     4  12  23  43  76 103 130 183 238 285 338 408
#     4  11  28  46  66 101 150 182 214 290 354 410
#     4  12  22  44  74 102 135 177 240 290 326 406
#     4  11  24  47  71  99 143 185 227 275 354 419
#     4  12  25  44  69 106 135 176 236 287 336 402
#     4  10  22  40  65 101 136 174 226 286 334 397
#
# _framework density 24.726527000000001
#
# number of rings (size 3 to 8) (size 9 to 14) (size 15 to 20)
#    0.000    0.750    5.000    2.250    5.250    1.500 
#    0.000    0.000    0.000    0.000    0.000    0.000 
#    0.000    0.000    0.000    0.000    0.000    0.000 
#
# Total GULP energy -89518.928712 kJ/mol
# GULP energy per Si atom -5594.933045 kJ/mol
# Density = 2.467025 g / cm^3
# Si number density = 24.726527 Si / 1000 Ang^3
#
#
#
# Elastic Constant Matrix: (Units=GPa)
#
#
# Indices 1 2 3 4 5 6 
#
# 1 67.9183 4.3441 -0.3626 -11.0836 19.1119 -21.4413
# 2 4.3441 68.7945 11.0079 1.4758 10.5129 -2.5005
# 3 -0.3626 11.0079 73.0983 12.4925 15.5593 -0.7191
# 4 -11.0836 1.4758 12.4925 46.0382 -0.8360 15.3734
# 5 19.1119 10.5129 15.5593 -0.8360 33.8550 -7.0142
# 6 -21.4413 -2.5005 -0.7191 15.3734 -7.0142 38.7057
#
#
#
# Elastic Compliance Matrix: (Units=1/GPa)
#
#
# Indices 1 2 3 4 5 6 
#
# 1 0.020905 0.000306 0.002301 0.001127 -0.011021 0.009198
# 2 0.000306 0.015406 -0.001362 -0.000290 -0.004237 0.000487
# 3 0.002301 -0.001362 0.016444 -0.004631 -0.008164 0.001852
# 4 0.001127 -0.000290 -0.004631 0.026607 0.000164 -0.010019
# 5 -0.011021 -0.004237 -0.008164 0.000164 0.041004 0.000835
# 6 0.009198 0.000487 0.001852 -0.010019 0.000835 0.035128
#
#
# Mechanical properties :
#
#
# Convention : Reuss Voigt Hill
#
# Bulk Modulus (GPa) = 18.10105 26.64334 22.37219
# Shear Modulus (GPa) = 29.16817 36.70789 32.93803
#
# Velocity S-wave (km/s) = 3.43830 3.85717 3.65374
# Velocity P-wave (km/s) = 4.80614 5.53495 5.18337
#
# Compressibility (1/GPa) = 0.05524543
#
# Stress axis : x y z
#
# Youngs Moduli (GPa) = 47.83505 64.90936 60.81151
#
# Poissons Ratio (x) = -0.01986 -0.13994
# Poissons Ratio (y) = -0.01464 0.08284
# Poissons Ratio (z) = -0.11008 0.08843
#
# Static dielectric constant tensor:
#      x y z
#    x 1.935910 -0.031960 0.027010 
#    y -0.031960 2.009030 0.012000 
#    z 0.027010 0.012000 2.001710 
# 
# From -- ./inp_files/560133.got.cif
#   From: 2010.05.17/outbox.cif.g08.bks.cpg/sg2_281_cif.got.tgz:560133.got - 2010.06.03 11:33:40.
