data_PCOD9024179
_publ_section_title
;
Structure prediction by ZEFSAII (Michael W. Deem and Ramdas Pophale) SiO2 
 PCOD9024179
Probable space group: P -1
;
_chemical_formula_sum "Si O2"
_cell_formula_units_Z 14
_cell_length_a 14.315712
_cell_length_b 9.262907
_cell_length_c 12.205329
_cell_angle_alpha 25.292029
_cell_angle_beta 123.440446
_cell_angle_gamma 112.815673
_cell_volume 548.599488
_symmetry_space_group_name_H-M "P -1"
_symmetry_group_IT_number 2
_symmetry_cell_setting 'triclinic'
loop_
_space_group_symop_operation_xyz
x,y,z
-x,-y,-z
loop_
_atom_site_type_symbol
_atom_site_label
_atom_site_fract_x
_atom_site_fract_y
_atom_site_fract_z
Si Si1 0.442602 0.214792 0.109020
Si Si2 0.957925 0.923526 0.699850
Si Si3 0.671793 0.710261 0.252520
Si Si4 0.261472 0.552060 0.930127
Si Si5 0.356928 0.197604 0.594754
Si Si6 0.788823 0.289339 0.984897
Si Si7 0.932986 0.240673 0.692282
O O1 0.544830 0.844763 0.407048
O O2 0.500000 0.500000 0.000000
O O3 0.393937 0.306712 0.891069
O O4 0.335929 0.252753 0.099666
O O5 0.084411 0.990173 0.719870
O O6 0.856815 0.196289 0.376201
O O7 0.923240 0.992712 0.755587
O O8 0.000000 0.500000 0.000000
O O9 0.610594 0.686255 0.345605
O O10 0.801550 0.438506 0.510887
O O11 0.699109 0.080952 0.034261
O O12 0.237108 0.445884 0.109391
O O13 0.335743 0.816132 0.832988
O O14 0.227440 0.458667 0.303233
O O15 0.000000 0.500000 0.500000
O O16 0.000000 0.000000 0.000000
#
# Coordination Sequence:
#
# PCOD9024179 Si02
#       7
#     2   2   2   2   2   2   2
#     4  10  22  44  67  93 131 177 236 294 362 424
#     4  12  23  42  68 102 139 187 236 293 367 431
#     4  11  23  43  67  98 136 180 235 295 358 432
#     4  10  22  40  63  96 133 173 224 290 352 423
#     4  10  22  42  66  92 130 180 230 284 353 428
#     4  11  23  39  66  97 134 178 231 287 360 438
#     4  12  27  46  73 110 152 194 243 301 370 448
#
# _framework density 25.519528000000001
#
# number of rings (size 3 to 8) (size 9 to 14) (size 15 to 20)
#    0.000    1.143    4.286    1.714    2.000    2.286 
#    0.000    2.857    0.000    0.000    0.000    0.000 
#    0.000    0.000    0.000    0.000    0.000    0.000 
#
# Total GULP energy -78128.633408 kJ/mol
# GULP energy per Si atom -5580.616672 kJ/mol
# Density = 2.546144 g / cm^3
# Si number density = 25.519528 Si / 1000 Ang^3
#
#
#
# Elastic Constant Matrix: (Units=GPa)
#
#
# Indices 1 2 3 4 5 6 
#
# 1 76.1123 59.3862 33.7936 1.1551 21.9275 -19.0003
# 2 59.3862 195.0689 57.3675 25.4651 13.3161 -35.1599
# 3 33.7936 57.3675 105.9650 24.0156 28.2629 -13.1573
# 4 1.1551 25.4651 24.0156 48.8292 0.3844 0.9622
# 5 21.9275 13.3161 28.2629 0.3844 38.7285 -6.7854
# 6 -19.0003 -35.1599 -13.1573 0.9622 -6.7854 63.0453
#
#
#
# Elastic Compliance Matrix: (Units=1/GPa)
#
#
# Indices 1 2 3 4 5 6 
#
# 1 0.021033 -0.005280 -0.002176 0.003351 -0.008187 0.002008
# 2 -0.005280 0.008155 -0.002337 -0.003052 0.002407 0.002775
# 3 -0.002176 -0.002337 0.015221 -0.006152 -0.008950 0.000348
# 4 0.003351 -0.003052 -0.006152 0.025034 0.003038 -0.002032
# 5 -0.008187 0.002407 -0.008950 0.003038 0.036282 0.000866
# 6 0.002008 0.002775 0.000348 -0.002032 0.000866 0.018211
#
#
# Mechanical properties :
#
#
# Convention : Reuss Voigt Hill
#
# Bulk Modulus (GPa) = 40.28400 75.36009 57.82204
# Shear Modulus (GPa) = 32.93870 45.22718 39.08294
#
# Velocity S-wave (km/s) = 3.59656 4.21439 3.91767
# Velocity P-wave (km/s) = 5.75038 7.29903 6.57049
#
# Compressibility (1/GPa) = 0.02482375
#
# Stress axis : x y z
#
# Youngs Moduli (GPa) = 47.54372 122.61707 65.69879
#
# Poissons Ratio (x) = 0.64743 0.14295
# Poissons Ratio (y) = 0.25104 0.15354
# Poissons Ratio (z) = 0.10344 0.28657
#
# Static dielectric constant tensor:
#      x y z
#    x 2.438670 0.114510 -0.004450 
#    y 0.114510 1.996680 -0.026160 
#    z -0.004450 -0.026160 2.054710 
# 
# From -- ./inp_files/40161.got.cif
#   From: 2010.05.17/outbox.cif.g08.bks.cpg/sg2_21_cif.got.tgz:40161.got - 2010.06.03 11:33:40.
