data_PCOD9024012
_publ_section_title
;
Structure prediction by ZEFSAII (Michael W. Deem and Ramdas Pophale) SiO2 
 PCOD9024012
Probable space group: P -1
;
_chemical_formula_sum "Si O2"
_cell_formula_units_Z 16
_cell_length_a 8.867599
_cell_length_b 12.168191
_cell_length_c 10.910773
_cell_angle_alpha 66.405211
_cell_angle_beta 45.489667
_cell_angle_gamma 66.245804
_cell_volume 755.800379
_symmetry_space_group_name_H-M "P -1"
_symmetry_group_IT_number 2
_symmetry_cell_setting 'triclinic'
loop_
_space_group_symop_operation_xyz
x,y,z
-x,-y,-z
loop_
_atom_site_type_symbol
_atom_site_label
_atom_site_fract_x
_atom_site_fract_y
_atom_site_fract_z
Si Si1 0.250830 0.284255 0.912544
Si Si2 0.699362 0.946243 0.659594
Si Si3 0.716914 0.534263 0.406709
Si Si4 0.205678 0.060261 0.882961
Si Si5 0.649821 0.099767 0.835060
Si Si6 0.084947 0.136061 0.662392
Si Si7 0.134265 0.331230 0.231981
Si Si8 0.806737 0.611063 0.578049
O O1 0.220949 0.374280 0.773481
O O2 0.170351 0.160994 0.966523
O O3 0.497847 0.227482 0.833977
O O4 0.160469 0.344585 0.064869
O O5 0.781427 0.954268 0.471984
O O6 0.802449 0.815003 0.717315
O O7 0.437674 0.970878 0.798004
O O8 0.757896 0.049264 0.668689
O O9 0.500000 0.500000 0.500000
O O10 0.672055 0.596530 0.539077
O O11 0.900229 0.411433 0.359407
O O12 0.207583 0.131027 0.722115
O O13 0.000000 0.000000 0.000000
O O14 0.840981 0.112178 0.812864
O O15 0.500000 0.000000 0.000000
O O16 0.090222 0.268874 0.547947
O O17 0.276725 0.381910 0.236510
O O18 0.000000 0.500000 0.500000
#
# Coordination Sequence:
#
# PCOD9024012 Si02
#       8
#     2   2   2   2   2   2   2   2
#     4  11  23  42  65  96 133 170 213 263 333 386
#     4  10  22  40  62  96 127 172 221 258 323 390
#     4  11  24  45  68  96 126 169 222 274 324 378
#     4  11  24  41  64  96 138 170 211 271 324 387
#     4  11  22  39  64  97 134 173 212 263 327 392
#     4  11  21  40  65  93 129 173 216 267 321 382
#     4  10  22  43  68  88 132 169 212 271 317 396
#     4   9  21  42  66  90 128 166 217 268 324 383
#
# _framework density 21.169609999999999
#
# number of rings (size 3 to 8) (size 9 to 14) (size 15 to 20)
#    0.000    1.500    2.500    2.625    5.250    0.000 
#    4.500    0.625    0.000    0.000    0.000    0.000 
#    0.000    0.000    0.000    0.000    0.000    0.000 
#
# Total GULP energy -89070.234662 kJ/mol
# GULP energy per Si atom -5566.889666 kJ/mol
# Density = 2.112143 g / cm^3
# Si number density = 21.169610 Si / 1000 Ang^3
#
#
#
# Elastic Constant Matrix: (Units=GPa)
#
#
# Indices 1 2 3 4 5 6 
#
# 1 151.4835 30.4348 41.6722 13.1051 15.8552 10.1009
# 2 30.4348 75.9065 11.0964 15.9908 -5.7426 -7.7672
# 3 41.6722 11.0964 54.0982 17.8872 17.2572 13.6335
# 4 13.1051 15.9908 17.8872 31.9680 8.9739 10.5128
# 5 15.8552 -5.7426 17.2572 8.9739 48.1337 8.2863
# 6 10.1009 -7.7672 13.6335 10.5128 8.2863 41.9438
#
#
#
# Elastic Compliance Matrix: (Units=1/GPa)
#
#
# Indices 1 2 3 4 5 6 
#
# 1 0.009035 -0.003382 -0.006312 0.002244 -0.001355 -0.001045
# 2 -0.003382 0.017732 -0.000482 -0.010399 0.004306 0.006010
# 3 -0.006312 -0.000482 0.030057 -0.010854 -0.005967 -0.004440
# 4 0.002244 -0.010399 -0.010854 0.046186 -0.005061 -0.009514
# 5 -0.001355 0.004306 -0.005967 -0.005061 0.024920 -0.000591
# 6 -0.001045 0.006010 -0.004440 -0.009514 -0.000591 0.029151
#
#
# Mechanical properties :
#
#
# Convention : Reuss Voigt Hill
#
# Bulk Modulus (GPa) = 27.41849 49.76612 38.59231
# Shear Modulus (GPa) = 26.37266 37.62809 32.00037
#
# Velocity S-wave (km/s) = 3.53339 4.22056 3.89217
# Velocity P-wave (km/s) = 5.44301 6.87824 6.20228
#
# Compressibility (1/GPa) = 0.03647174
#
# Stress axis : x y z
#
# Youngs Moduli (GPa) = 110.68530 56.39498 33.26988
#
# Poissons Ratio (x) = 0.19072 0.21000
# Poissons Ratio (y) = 0.37432 0.01604
# Poissons Ratio (z) = 0.69866 0.02719
#
# Static dielectric constant tensor:
#      x y z
#    x 1.829180 -0.011640 0.090120 
#    y -0.011640 1.770380 -0.030780 
#    z 0.090120 -0.030780 1.900600 
# 
# From -- ./inp_files/308769.got.cif
#   From: 2010.05.17/outbox.cif.g08.bks.cpg/sg2_155_cif.got.tgz:308769.got - 2010.06.03 11:33:40.
