data_PCOD9024189
_publ_section_title
;
Structure prediction by ZEFSAII (Michael W. Deem and Ramdas Pophale) SiO2 
 PCOD9024189
Probable space group: P -1
;
_chemical_formula_sum "Si O2"
_cell_formula_units_Z 16
_cell_length_a 8.987364
_cell_length_b 5.318480
_cell_length_c 17.590119
_cell_angle_alpha 55.050894
_cell_angle_beta 87.127198
_cell_angle_gamma 88.112717
_cell_volume 688.289440
_symmetry_space_group_name_H-M "P -1"
_symmetry_group_IT_number 2
_symmetry_cell_setting 'triclinic'
loop_
_space_group_symop_operation_xyz
x,y,z
-x,-y,-z
loop_
_atom_site_type_symbol
_atom_site_label
_atom_site_fract_x
_atom_site_fract_y
_atom_site_fract_z
Si Si1 0.483916 0.142597 0.584101
Si Si2 0.400290 0.261949 0.995766
Si Si3 0.219530 0.100236 0.898160
Si Si4 0.752019 0.916152 0.528396
Si Si5 0.740972 0.948600 0.269229
Si Si6 0.016586 0.580943 0.608682
Si Si7 0.859120 0.565463 0.937276
Si Si8 0.017275 0.588429 0.779176
O O1 0.500000 0.500000 0.500000
O O2 0.353476 0.027929 0.551075
O O3 0.413569 0.112040 0.674101
O O4 0.635643 0.959123 0.593012
O O5 0.305714 0.337874 0.909129
O O6 0.500000 0.500000 0.000000
O O7 0.263983 0.202195 0.067054
O O8 0.500000 0.000000 0.000000
O O9 0.284712 0.053103 0.820391
O O10 0.056183 0.235171 0.859606
O O11 0.210551 0.777213 0.998190
O O12 0.852919 0.606858 0.569896
O O13 0.876049 0.179897 0.477827
O O14 0.870800 0.702068 0.331955
O O15 0.823817 0.247075 0.246439
O O16 0.968359 0.657432 0.683634
O O17 0.910923 0.681934 0.834098
O O18 0.000000 0.500000 0.000000
#
# Coordination Sequence:
#
# PCOD9024189 Si02
#       8
#     2   2   2   2   2   2   2   2
#     4  11  22  40  66  96 129 177 222 279 344 429
#     4  12  26  46  70 103 141 185 234 289 359 416
#     4  11  23  42  73 100 139 185 235 290 355 419
#     4  10  22  40  65  93 132 173 227 276 352 413
#     4  11  22  40  66 100 134 176 232 287 350 411
#     4  10  22  40  63  97 130 175 221 291 339 413
#     4  12  23  43  74 103 133 189 240 288 344 425
#     4  11  23  40  68 103 136 174 239 291 345 413
#
# _framework density 23.246034000000002
#
# number of rings (size 3 to 8) (size 9 to 14) (size 15 to 20)
#    0.000    1.000    6.250    0.375    0.000    1.500 
#    2.250    1.250    0.000    0.000    0.000    0.000 
#    0.000    0.000    0.000    0.000    0.000    0.000 
#
# Total GULP energy -89149.241516 kJ/mol
# GULP energy per Si atom -5571.827595 kJ/mol
# Density = 2.319312 g / cm^3
# Si number density = 23.246034 Si / 1000 Ang^3
#
#
#
# Elastic Constant Matrix: (Units=GPa)
#
#
# Indices 1 2 3 4 5 6 
#
# 1 127.5345 23.9557 26.6271 10.6000 -19.7003 -15.3910
# 2 23.9557 63.4936 9.3073 13.5640 -13.1962 -2.3820
# 3 26.6271 9.3073 82.7992 18.6117 -24.3999 -9.1018
# 4 10.6000 13.5640 18.6117 36.3521 -11.2301 -1.7015
# 5 -19.7003 -13.1962 -24.3999 -11.2301 36.2906 13.4689
# 6 -15.3910 -2.3820 -9.1018 -1.7015 13.4689 35.2242
#
#
#
# Elastic Compliance Matrix: (Units=1/GPa)
#
#
# Indices 1 2 3 4 5 6 
#
# 1 0.009361 -0.002771 -0.001856 -0.000064 0.001791 0.002735
# 2 -0.002771 0.018762 0.001323 -0.005336 0.005249 -0.001865
# 3 -0.001856 0.001323 0.016364 -0.005624 0.008781 -0.000122
# 4 -0.000064 -0.005336 -0.005624 0.034033 0.005651 -0.002359
# 5 0.001791 0.005249 0.008781 0.005651 0.042797 -0.012685
# 6 0.002735 -0.001865 -0.000122 -0.002359 -0.012685 0.034163
#
#
# Mechanical properties :
#
#
# Convention : Reuss Voigt Hill
#
# Bulk Modulus (GPa) = 26.39983 43.73417 35.06700
# Shear Modulus (GPa) = 28.61815 35.83588 32.22701
#
# Velocity S-wave (km/s) = 3.51251 3.93057 3.72740
# Velocity P-wave (km/s) = 5.27557 6.28121 5.80023
#
# Compressibility (1/GPa) = 0.03787902
#
# Stress axis : x y z
#
# Youngs Moduli (GPa) = 106.82432 53.29917 61.11038
#
# Poissons Ratio (x) = 0.14771 0.11342
# Poissons Ratio (y) = 0.29604 -0.08087
# Poissons Ratio (z) = 0.19827 -0.07053
#
# Static dielectric constant tensor:
#      x y z
#    x 2.131700 -0.255050 0.165940 
#    y -0.255050 2.366780 -0.225230 
#    z 0.165940 -0.225230 2.006470 
# 
# From -- ./inp_files/105182.got.cif
#   From: 2010.05.17/outbox.cif.g08.bks.cpg/sg2_53_cif.got.tgz:105182.got - 2010.06.03 11:33:40.
