data_PCOD9024810
_publ_section_title
;
Structure prediction by ZEFSAII (Michael W. Deem and Ramdas Pophale) SiO2 
 PCOD9024810
Probable space group: P -1
;
_chemical_formula_sum "Si O2"
_cell_formula_units_Z 13
_cell_length_a 5.513117
_cell_length_b 16.107770
_cell_length_c 16.361627
_cell_angle_alpha 26.048644
_cell_angle_beta 121.175086
_cell_angle_gamma 127.675275
_cell_volume 502.938977
_symmetry_space_group_name_H-M "P -1"
_symmetry_group_IT_number 2
_symmetry_cell_setting 'triclinic'
loop_
_space_group_symop_operation_xyz
x,y,z
-x,-y,-z
loop_
_atom_site_type_symbol
_atom_site_label
_atom_site_fract_x
_atom_site_fract_y
_atom_site_fract_z
Si Si1 0.938159 0.678353 0.378635
Si Si2 0.072622 0.984063 0.704620
Si Si3 0.256173 0.613006 0.261160
Si Si4 0.742742 0.382923 0.937373
Si Si5 0.500000 0.000000 0.500000
Si Si6 0.942687 0.902776 0.933946
Si Si7 0.274939 0.214195 0.385365
O O1 0.603011 0.666071 0.303300
O O2 0.935742 0.600934 0.539420
O O3 0.000000 0.500000 0.500000
O O4 0.133228 0.920735 0.190049
O O5 0.117542 0.003484 0.792016
O O6 0.309114 0.166881 0.528532
O O7 0.107422 0.773873 0.871687
O O8 0.733192 0.965956 0.637768
O O9 0.230121 0.598245 0.172555
O O10 0.136545 0.789093 0.111816
O O11 0.845651 0.605504 0.797801
O O12 0.379305 0.276136 0.986926
O O13 0.528079 0.213763 0.366648
O O14 0.000000 0.000000 0.500000
#
# Coordination Sequence:
#
# PCOD9024810 Si02
#       7
#     2   2   2   2   1   2   2
#     4  11  24  42  66  96 132 172 213 262 320 380
#     4  10  23  43  66  92 127 168 213 265 321 381
#     4  10  24  42  65  94 130 172 216 261 316 382
#     4  11  24  42  67  95 127 170 218 265 319 380
#     4  10  22  40  66  92 122 162 210 264 320 378
#     4  11  24  42  66  96 130 169 216 267 318 378
#     4  10  23  43  64  91 127 166 211 264 321 383
#
# _framework density 25.848064999999998
#
# number of rings (size 3 to 8) (size 9 to 14) (size 15 to 20)
#    0.000    1.538    0.000    3.231    0.000   19.692 
#    0.000    6.923    0.000    0.000    0.000    0.000 
#    0.000    0.000    0.000    0.000    0.000    0.000 
#
# Total GULP energy -72468.418134 kJ/mol
# GULP energy per Si atom -5574.493703 kJ/mol
# Density = 2.578923 g / cm^3
# Si number density = 25.848065 Si / 1000 Ang^3
#
#
#
# Elastic Constant Matrix: (Units=GPa)
#
#
# Indices 1 2 3 4 5 6 
#
# 1 55.5508 10.3900 30.7271 -2.0943 26.4941 -6.0227
# 2 10.3900 48.0971 22.6688 -2.7514 8.4981 -2.1628
# 3 30.7271 22.6688 164.4451 -10.8282 64.3894 -1.7529
# 4 -2.0943 -2.7514 -10.8282 50.7870 -3.1622 11.5036
# 5 26.4941 8.4981 64.3894 -3.1622 55.7105 -0.0074
# 6 -6.0227 -2.1628 -1.7529 11.5036 -0.0074 39.5775
#
#
#
# Elastic Compliance Matrix: (Units=1/GPa)
#
#
# Indices 1 2 3 4 5 6 
#
# 1 0.024278 -0.003279 0.000460 -0.000644 -0.011614 0.003721
# 2 -0.003279 0.022732 -0.003197 0.000419 0.001811 0.000480
# 3 0.000460 -0.003197 0.011685 0.001526 -0.013150 -0.000033
# 4 -0.000644 0.000419 0.001526 0.021403 -0.000307 -0.006229
# 5 -0.011614 0.001811 -0.013150 -0.000307 0.038377 -0.002154
# 6 0.003721 0.000480 -0.000033 -0.006229 -0.002154 0.027668
#
#
# Mechanical properties :
#
#
# Convention : Reuss Voigt Hill
#
# Bulk Modulus (GPa) = 21.43041 43.96275 32.69658
# Shear Modulus (GPa) = 28.78020 42.83547 35.80784
#
# Velocity S-wave (km/s) = 3.34044 4.07529 3.72603
# Velocity P-wave (km/s) = 4.81529 6.26012 5.58462
#
# Compressibility (1/GPa) = 0.04666266
#
# Stress axis : x y z
#
# Youngs Moduli (GPa) = 41.18880 43.99061 85.58171
#
# Poissons Ratio (x) = 0.14425 -0.03939
# Poissons Ratio (y) = 0.13506 0.27364
# Poissons Ratio (z) = -0.01896 0.14066
#
# Static dielectric constant tensor:
#      x y z
#    x 2.150200 -0.053170 -0.052500 
#    y -0.053170 2.061230 -0.025170 
#    z -0.052500 -0.025170 1.981370 
# 
# From -- ./inp_files/7313.got.cif
#   From: 2010.05.17/outbox.cif.g08.bks.cpg/sg2_4_cif.got.tgz:7313.got - 2010.06.03 11:33:40.
