data_PCOD9024882
_publ_section_title
;
Structure prediction by ZEFSAII (Michael W. Deem and Ramdas Pophale) SiO2 
 PCOD9024882
Probable space group: P -1
;
_chemical_formula_sum "Si O2"
_cell_formula_units_Z 16
_cell_length_a 14.985968
_cell_length_b 7.485092
_cell_length_c 11.319678
_cell_angle_alpha 35.303853
_cell_angle_beta 101.918710
_cell_angle_gamma 103.053898
_cell_volume 714.282152
_symmetry_space_group_name_H-M "P -1"
_symmetry_group_IT_number 2
_symmetry_cell_setting 'triclinic'
loop_
_space_group_symop_operation_xyz
x,y,z
-x,-y,-z
loop_
_atom_site_type_symbol
_atom_site_label
_atom_site_fract_x
_atom_site_fract_y
_atom_site_fract_z
Si Si1 0.430734 0.848336 0.160048
Si Si2 0.443572 0.793194 0.830525
Si Si3 0.664572 0.816686 0.542331
Si Si4 0.889308 0.433151 0.361498
Si Si5 0.161925 0.969369 0.667653
Si Si6 0.265262 0.476878 0.056527
Si Si7 0.762066 0.900900 0.990405
Si Si8 0.092039 0.612053 0.343913
O O1 0.404913 0.485655 0.332812
O O2 0.484347 0.932652 0.250729
O O3 0.334159 0.996564 0.049616
O O4 0.500000 0.000000 0.000000
O O5 0.393823 0.889299 0.645298
O O6 0.500000 0.500000 0.000000
O O7 0.360619 0.696105 0.950652
O O8 0.721200 0.753674 0.708495
O O9 0.739365 0.860531 0.435561
O O10 0.876232 0.205890 0.367656
O O11 0.891917 0.279692 0.574323
O O12 0.987443 0.635166 0.266794
O O13 0.808425 0.658301 0.215881
O O14 0.103697 0.242824 0.543494
O O15 0.184202 0.704436 0.910838
O O16 0.254445 0.281075 0.039424
O O17 0.834792 0.196944 0.822934
#
# Coordination Sequence:
#
# PCOD9024882 Si02
#       8
#     2   2   2   2   2   2   2   2
#     4  12  24  42  63  91 128 169 218 265 317 381
#     4  11  23  42  58  88 122 166 212 263 315 371
#     4  11  23  41  63  90 129 163 217 263 316 387
#     4  10  24  42  65 100 131 164 217 268 323 396
#     4  10  22  40  66  94 133 168 211 265 324 388
#     4  10  22  41  61  91 125 170 213 263 319 382
#     4  11  23  43  64  91 131 169 212 267 324 381
#     4  11  22  41  69  97 128 172 213 263 332 385
#
# _framework density 22.400110999999999
#
# number of rings (size 3 to 8) (size 9 to 14) (size 15 to 20)
#    0.000    1.250    3.750    1.875    1.750    0.500 
#    2.250    0.000    0.000    8.250    0.000    0.000 
#    0.000    0.000    0.000    0.000    0.000    0.000 
#
# Total GULP energy -89406.732759 kJ/mol
# GULP energy per Si atom -5587.920797 kJ/mol
# Density = 2.234913 g / cm^3
# Si number density = 22.400111 Si / 1000 Ang^3
#
#
#
# Elastic Constant Matrix: (Units=GPa)
#
#
# Indices 1 2 3 4 5 6 
#
# 1 93.9692 -2.2259 19.0480 -3.1371 3.6040 10.9362
# 2 -2.2259 57.1473 24.0648 -5.7439 5.1798 6.9622
# 3 19.0480 24.0648 86.0441 8.7939 16.3789 8.5910
# 4 -3.1371 -5.7439 8.7939 23.7075 1.1108 1.1907
# 5 3.6040 5.1798 16.3789 1.1108 36.2291 -7.9517
# 6 10.9362 6.9622 8.5910 1.1907 -7.9517 25.5093
#
#
#
# Elastic Compliance Matrix: (Units=1/GPa)
#
#
# Indices 1 2 3 4 5 6 
#
# 1 0.012183 0.002982 -0.003043 0.003826 -0.001631 -0.005699
# 2 0.002982 0.022275 -0.006785 0.008710 -0.002022 -0.006110
# 3 -0.003043 -0.006785 0.016745 -0.007713 -0.007006 -0.004307
# 4 0.003826 0.008710 -0.007713 0.047869 -0.000438 -0.003791
# 5 -0.001631 -0.002022 -0.007006 -0.000438 0.034384 0.014349
# 6 -0.005699 -0.006110 -0.004307 -0.003791 0.014349 0.049413
#
#
# Mechanical properties :
#
#
# Convention : Reuss Voigt Hill
#
# Bulk Modulus (GPa) = 26.65811 35.43717 31.04764
# Shear Modulus (GPa) = 23.91606 30.17409 27.04508
#
# Velocity S-wave (km/s) = 3.27108 3.67420 3.47848
# Velocity P-wave (km/s) = 5.11794 5.81843 5.47939
#
# Compressibility (1/GPa) = 0.03751203
#
# Stress axis : x y z
#
# Youngs Moduli (GPa) = 82.08339 44.89292 59.71800
#
# Poissons Ratio (x) = -0.13389 0.18170
# Poissons Ratio (y) = -0.24481 0.40522
# Poissons Ratio (z) = 0.24975 0.30462
#
# Static dielectric constant tensor:
#      x y z
#    x 1.803090 0.001590 0.016330 
#    y 0.001590 1.868220 0.016770 
#    z 0.016330 0.016770 1.857620 
# 
# From -- ./inp_files/53235.got.cif
#   From: 2010.05.17/outbox.cif.g08.bks.cpg/sg2_27_cif.got.tgz:53235.got - 2010.06.03 11:33:40.
