data_PCOD9024689
_publ_section_title
;
Structure prediction by ZEFSAII (Michael W. Deem and Ramdas Pophale) SiO2 
 PCOD9024689
Probable space group: P -1
;
_chemical_formula_sum "Si O2"
_cell_formula_units_Z 15
_cell_length_a 11.172139
_cell_length_b 11.879452
_cell_length_c 9.334958
_cell_angle_alpha 124.882332
_cell_angle_beta 101.293759
_cell_angle_gamma 42.901754
_cell_volume 634.252923
_symmetry_space_group_name_H-M "P -1"
_symmetry_group_IT_number 2
_symmetry_cell_setting 'triclinic'
loop_
_space_group_symop_operation_xyz
x,y,z
-x,-y,-z
loop_
_atom_site_type_symbol
_atom_site_label
_atom_site_fract_x
_atom_site_fract_y
_atom_site_fract_z
Si Si1 0.383469 0.270207 0.543418
Si Si2 0.000000 0.000000 0.000000
Si Si3 0.908718 0.226872 0.651537
Si Si4 0.001493 0.467945 0.262201
Si Si5 0.312949 0.580113 0.964376
Si Si6 0.233370 0.026991 0.944341
Si Si7 0.652792 0.616339 0.696427
Si Si8 0.789485 0.815684 0.257785
O O1 0.369579 0.391643 0.756976
O O2 0.395350 0.347301 0.455551
O O3 0.186508 0.353516 0.553112
O O4 0.570968 0.013753 0.401230
O O5 0.144524 0.954343 0.883317
O O6 0.813842 0.217118 0.023788
O O7 0.744973 0.399466 0.622849
O O8 0.085058 0.176595 0.629769
O O9 0.812992 0.339561 0.864727
O O10 0.000000 0.000000 0.500000
O O11 0.182826 0.410958 0.268015
O O12 0.895817 0.586631 0.169771
O O13 0.086986 0.245326 0.162355
O O14 0.500000 0.500000 0.000000
O O15 0.216928 0.127547 0.866003
O O16 0.458298 0.827581 0.886301
#
# Coordination Sequence:
#
# PCOD9024689 Si02
#       8
#     2   1   2   2   2   2   2   2
#     4  11  23  44  68 102 142 183 236 303 358 428
#     4  12  24  44  72 102 144 186 244 298 354 432
#     4  11  23  43  65  99 138 183 238 290 353 427
#     4  11  21  42  69 102 140 187 235 299 356 435
#     4  12  26  45  69 104 141 191 242 290 366 429
#     4  11  22  42  67 100 141 187 240 290 366 424
#     4  10  25  42  70 103 142 185 241 297 363 429
#     4  10  22  40  65  98 138 183 235 289 361 426
#
# _framework density 23.649868999999999
#
# number of rings (size 3 to 8) (size 9 to 14) (size 15 to 20)
#    0.000    1.067    2.667    3.200    1.867    1.067 
#    0.000    7.333    0.000    0.000    0.000    0.000 
#    0.000    0.000    0.000    0.000    0.000    0.000 
#
# Total GULP energy -83514.492906 kJ/mol
# GULP energy per Si atom -5567.632860 kJ/mol
# Density = 2.359604 g / cm^3
# Si number density = 23.649869 Si / 1000 Ang^3
#
#
#
# Elastic Constant Matrix: (Units=GPa)
#
#
# Indices 1 2 3 4 5 6 
#
# 1 88.4909 38.0567 26.6652 18.8160 -21.5974 -23.8650
# 2 38.0567 143.1609 27.7345 29.9806 -11.8222 -9.2670
# 3 26.6652 27.7345 83.4002 13.4955 -18.3660 -8.3663
# 4 18.8160 29.9806 13.4955 41.2028 -6.1652 -21.4833
# 5 -21.5974 -11.8222 -18.3660 -6.1652 38.6880 4.9831
# 6 -23.8650 -9.2670 -8.3663 -21.4833 4.9831 43.4778
#
#
#
# Elastic Compliance Matrix: (Units=1/GPa)
#
#
# Indices 1 2 3 4 5 6 
#
# 1 0.016860 -0.003060 -0.002215 0.000132 0.006481 0.007498
# 2 -0.003060 0.009217 -0.001388 -0.006549 -0.000182 -0.003197
# 3 -0.002215 -0.001388 0.014570 -0.002199 0.004952 -0.000362
# 4 0.000132 -0.006549 -0.002199 0.038894 0.000991 0.017358
# 5 0.006481 -0.000182 0.004952 0.000991 0.031748 0.001322
# 6 0.007498 -0.003197 -0.000362 0.017358 0.001322 0.034791
#
#
# Mechanical properties :
#
#
# Convention : Reuss Voigt Hill
#
# Bulk Modulus (GPa) = 36.60139 55.55163 46.07651
# Shear Modulus (GPa) = 29.67134 39.51345 34.59239
#
# Velocity S-wave (km/s) = 3.54589 4.09194 3.82866
# Velocity P-wave (km/s) = 5.68106 6.77240 6.25059
#
# Compressibility (1/GPa) = 0.02732137
#
# Stress axis : x y z
#
# Youngs Moduli (GPa) = 59.31255 108.49674 68.63345
#
# Poissons Ratio (x) = 0.33198 0.15202
# Poissons Ratio (y) = 0.18149 0.09526
# Poissons Ratio (z) = 0.13138 0.15058
#
# Static dielectric constant tensor:
#      x y z
#    x 1.908670 0.020470 -0.018690 
#    y 0.020470 1.902090 -0.050370 
#    z -0.018690 -0.050370 1.988330 
# 
# From -- ./inp_files/259522.got.cif
#   From: 2010.05.17/outbox.cif.g08.bks.cpg/sg2_130_cif.got.tgz:259522.got - 2010.06.03 11:33:40.
