data_PCOD9024257
_publ_section_title
;
Structure prediction by ZEFSAII (Michael W. Deem and Ramdas Pophale) SiO2 
 PCOD9024257
Probable space group: P -1
;
_chemical_formula_sum "Si O2"
_cell_formula_units_Z 11
_cell_length_a 8.948070
_cell_length_b 7.430551
_cell_length_c 7.801652
_cell_angle_alpha 60.981940
_cell_angle_beta 85.857520
_cell_angle_gamma 94.822887
_cell_volume 448.183319
_symmetry_space_group_name_H-M "P -1"
_symmetry_group_IT_number 2
_symmetry_cell_setting 'triclinic'
loop_
_space_group_symop_operation_xyz
x,y,z
-x,-y,-z
loop_
_atom_site_type_symbol
_atom_site_label
_atom_site_fract_x
_atom_site_fract_y
_atom_site_fract_z
Si Si1 0.157545 0.018814 0.079190
Si Si2 0.804684 0.273621 0.481509
Si Si3 0.328421 0.471868 0.383432
Si Si4 0.500000 0.000000 0.500000
Si Si5 0.574961 0.855403 0.260683
Si Si6 0.912804 0.636348 0.820107
O O1 0.153287 0.200583 0.131365
O O2 0.173517 0.824981 0.288596
O O3 0.291723 0.063186 0.911665
O O4 0.000000 0.000000 0.000000
O O5 0.761567 0.497263 0.444748
O O6 0.666334 0.157682 0.438239
O O7 0.959016 0.272102 0.367813
O O8 0.465506 0.659701 0.285284
O O9 0.382729 0.242663 0.508336
O O10 0.224292 0.474805 0.228262
O O11 0.501544 0.962167 0.732665
O O12 0.000000 0.500000 0.000000
#
# Coordination Sequence:
#
# PCOD9024257 Si02
#       6
#     2   2   2   1   2   2
#     4  12  24  39  62  90 122 158 201 246 297 355
#     4  11  23  40  62  89 123 158 198 248 295 353
#     4  10  22  41  62  87 121 157 199 247 296 353
#     4  10  22  40  64  88 120 156 198 246 298 352
#     4  10  22  41  64  89 119 158 199 248 298 351
#     4  12  24  39  62  89 122 161 199 244 298 355
#
# _framework density 24.543531000000002
#
# number of rings (size 3 to 8) (size 9 to 14) (size 15 to 20)
#    0.000    1.091    0.000    6.545    0.000    5.091 
#    0.000    0.000    0.000    0.000    0.000    0.000 
#    0.000    0.000    0.000    0.000    0.000    0.000 
#
# Total GULP energy -61362.170550 kJ/mol
# GULP energy per Si atom -5578.379141 kJ/mol
# Density = 2.448767 g / cm^3
# Si number density = 24.543531 Si / 1000 Ang^3
#
#
#
# Elastic Constant Matrix: (Units=GPa)
#
#
# Indices 1 2 3 4 5 6 
#
# 1 100.9481 9.0472 72.0643 12.7993 -8.6591 17.5573
# 2 9.0472 72.8232 24.9279 30.8745 11.6411 17.8331
# 3 72.0643 24.9279 144.4069 4.1607 -18.7787 20.3100
# 4 12.7993 30.8745 4.1607 38.7858 -6.1017 11.5043
# 5 -8.6591 11.6411 -18.7787 -6.1017 77.1338 11.1483
# 6 17.5573 17.8331 20.3100 11.5043 11.1483 41.0897
#
#
#
# Elastic Compliance Matrix: (Units=1/GPa)
#
#
# Indices 1 2 3 4 5 6 
#
# 1 0.017390 0.005477 -0.009220 -0.008611 -0.001446 -0.002447
# 2 0.005477 0.026788 -0.007262 -0.022752 -0.006679 -0.002195
# 3 -0.009220 -0.007262 0.013594 0.009100 0.004585 -0.003420
# 4 -0.008611 -0.022752 0.009100 0.049482 0.009670 -0.007422
# 5 -0.001446 -0.006679 0.004585 0.009670 0.016551 -0.005947
# 6 -0.002447 -0.002195 -0.003420 -0.007422 -0.005947 0.031718
#
#
# Mechanical properties :
#
#
# Convention : Reuss Voigt Hill
#
# Bulk Modulus (GPa) = 27.96099 58.91743 43.43921
# Shear Modulus (GPa) = 26.39171 45.54445 35.96808
#
# Velocity S-wave (km/s) = 3.28274 4.31241 3.83231
# Velocity P-wave (km/s) = 5.07796 6.98951 6.10896
#
# Compressibility (1/GPa) = 0.03576411
#
# Stress axis : x y z
#
# Youngs Moduli (GPa) = 57.50365 37.32954 73.56017
#
# Poissons Ratio (x) = -0.20444 0.67819
# Poissons Ratio (y) = -0.31493 0.53416
# Poissons Ratio (z) = 0.53016 0.27107
#
# Static dielectric constant tensor:
#      x y z
#    x 1.990200 0.107360 0.199960 
#    y 0.107360 1.616040 -0.244820 
#    z 0.199960 -0.244820 1.902630 
# 
# From -- ./inp_files/16971.got.cif
#   From: 2010.05.17/outbox.cif.g08.bks.cpg/sg2_9_cif.got.tgz:16971.got - 2010.06.03 11:33:40.
