data_PCOD9024450
_publ_section_title
;
Structure prediction by ZEFSAII (Michael W. Deem and Ramdas Pophale) SiO2 
 PCOD9024450
Probable space group: P -1
;
_chemical_formula_sum "Si O2"
_cell_formula_units_Z 16
_cell_length_a 5.471308
_cell_length_b 8.878657
_cell_length_c 18.485039
_cell_angle_alpha 92.241703
_cell_angle_beta 88.726774
_cell_angle_gamma 49.750896
_cell_volume 683.510514
_symmetry_space_group_name_H-M "P -1"
_symmetry_group_IT_number 2
_symmetry_cell_setting 'triclinic'
loop_
_space_group_symop_operation_xyz
x,y,z
-x,-y,-z
loop_
_atom_site_type_symbol
_atom_site_label
_atom_site_fract_x
_atom_site_fract_y
_atom_site_fract_z
Si Si1 0.121749 0.554548 0.795954
Si Si2 0.225152 0.149648 0.319143
Si Si3 0.548782 0.432113 0.081326
Si Si4 0.801443 0.954393 0.424877
Si Si5 0.062099 0.233155 0.831434
Si Si6 0.683671 0.053075 0.045714
Si Si7 0.814192 0.295679 0.462641
Si Si8 0.755820 0.206158 0.707685
O O1 0.154863 0.653185 0.867259
O O2 0.119753 0.386680 0.824631
O O3 0.435470 0.419579 0.738745
O O4 0.835742 0.714272 0.745668
O O5 0.929214 0.287935 0.380548
O O6 0.525935 0.038526 0.369482
O O7 0.243372 0.973585 0.283025
O O8 0.488890 0.278822 0.073490
O O9 0.286451 0.634276 0.127587
O O10 0.500000 0.500000 0.000000
O O11 0.877673 0.810878 0.487379
O O12 0.137895 0.817040 0.375686
O O13 0.747664 0.143636 0.457750
O O14 0.035430 0.165570 0.753870
O O15 0.260240 0.058703 0.882898
O O16 0.500000 0.000000 0.000000
O O17 0.000000 0.000000 0.000000
O O18 0.500000 0.500000 0.500000
#
# Coordination Sequence:
#
# PCOD9024450 Si02
#       8
#     2   2   2   2   2   2   2   2
#     4  11  25  41  68  98 135 180 233 290 355 426
#     4  11  23  41  67  97 135 177 229 285 349 420
#     4  11  24  45  68  98 136 176 234 288 355 422
#     4  10  22  40  64  97 132 175 227 283 343 415
#     4  11  25  43  69  96 133 180 227 292 351 427
#     4  12  27  45  72 101 139 183 235 294 366 434
#     4  10  22  40  65  95 136 176 226 280 343 415
#     4  10  23  43  63  93 135 174 229 280 352 415
#
# _framework density 23.408562
#
# number of rings (size 3 to 8) (size 9 to 14) (size 15 to 20)
#    0.000    1.250    1.250    3.375    3.500    9.500 
#    0.000    0.000    0.000    0.000    0.000    0.000 
#    0.000    0.000    0.000    0.000    0.000    0.000 
#
# Total GULP energy -89238.367650 kJ/mol
# GULP energy per Si atom -5577.397978 kJ/mol
# Density = 2.335528 g / cm^3
# Si number density = 23.408562 Si / 1000 Ang^3
#
#
#
# Elastic Constant Matrix: (Units=GPa)
#
#
# Indices 1 2 3 4 5 6 
#
# 1 69.1971 23.5371 36.8990 -3.2437 16.4795 10.1025
# 2 23.5371 103.3560 73.6329 -15.5287 15.5280 8.4287
# 3 36.8990 73.6329 143.0598 -6.8798 8.3330 5.5744
# 4 -3.2437 -15.5287 -6.8798 57.4407 5.3606 -8.3845
# 5 16.4795 15.5280 8.3330 5.3606 38.9029 8.2767
# 6 10.1025 8.4287 5.5744 -8.3845 8.2767 38.0833
#
#
#
# Elastic Compliance Matrix: (Units=1/GPa)
#
#
# Indices 1 2 3 4 5 6 
#
# 1 0.018746 0.000213 -0.004414 0.000801 -0.006603 -0.002763
# 2 0.000213 0.017004 -0.008268 0.004063 -0.005559 -0.000507
# 3 -0.004414 -0.008268 0.012156 -0.001221 0.002655 0.000376
# 4 0.000801 0.004063 -0.001221 0.019570 -0.005362 0.004541
# 5 -0.006603 -0.005559 0.002655 -0.005362 0.032074 -0.005558
# 6 -0.002763 -0.000507 0.000376 0.004541 -0.005558 0.029256
#
#
# Mechanical properties :
#
#
# Convention : Reuss Voigt Hill
#
# Bulk Modulus (GPa) = 43.53772 64.86122 54.19947
# Shear Modulus (GPa) = 30.97896 38.98829 34.98363
#
# Velocity S-wave (km/s) = 3.64181 4.08555 3.87004
# Velocity P-wave (km/s) = 6.02687 7.07277 6.57066
#
# Compressibility (1/GPa) = 0.02296859
#
# Stress axis : x y z
#
# Youngs Moduli (GPa) = 53.34419 58.80966 82.26260
#
# Poissons Ratio (x) = -0.01255 0.36312
# Poissons Ratio (y) = -0.01138 0.68015
# Poissons Ratio (z) = 0.23547 0.48624
#
# Static dielectric constant tensor:
#      x y z
#    x 2.082590 -0.158640 0.024090 
#    y -0.158640 1.902600 -0.059970 
#    z 0.024090 -0.059970 1.985790 
# 
# From -- ./inp_files/358287.got.cif
#   From: 2010.05.17/outbox.cif.g08.bks.cpg/sg2_180_cif.got.tgz:358287.got - 2010.06.03 11:33:40.
