data_PCOD9024643
_publ_section_title
;
Structure prediction by ZEFSAII (Michael W. Deem and Ramdas Pophale) SiO2 
 PCOD9024643
Probable space group: P -1
;
_chemical_formula_sum "Si O2"
_cell_formula_units_Z 16
_cell_length_a 15.799131
_cell_length_b 7.871354
_cell_length_c 5.506232
_cell_angle_alpha 82.288360
_cell_angle_beta 117.717361
_cell_angle_gamma 101.669539
_cell_volume 593.018680
_symmetry_space_group_name_H-M "P -1"
_symmetry_group_IT_number 2
_symmetry_cell_setting 'triclinic'
loop_
_space_group_symop_operation_xyz
x,y,z
-x,-y,-z
loop_
_atom_site_type_symbol
_atom_site_label
_atom_site_fract_x
_atom_site_fract_y
_atom_site_fract_z
Si Si1 0.867082 0.841639 0.921809
Si Si2 0.515605 0.826916 0.348235
Si Si3 0.988891 0.156890 0.278653
Si Si4 0.340678 0.902116 0.828369
Si Si5 0.120161 0.527293 0.802102
Si Si6 0.399509 0.434415 0.753048
Si Si7 0.231235 0.636391 0.428604
Si Si8 0.671348 0.838531 0.887328
O O1 0.902771 0.682356 0.151904
O O2 0.751659 0.811994 0.803823
O O3 0.907593 0.802826 0.722026
O O4 0.912905 0.041421 0.011092
O O5 0.407754 0.791593 0.100808
O O6 0.566730 0.656746 0.421841
O O7 0.562577 0.879892 0.664874
O O8 0.580845 0.958951 0.229517
O O9 0.955540 0.335221 0.291498
O O10 0.000000 0.000000 0.500000
O O11 0.282852 0.990749 0.934818
O O12 0.266521 0.829879 0.534081
O O13 0.185535 0.589448 0.116187
O O14 0.169035 0.560028 0.596244
O O15 0.335291 0.574599 0.573791
O O16 0.500000 0.500000 0.000000
O O17 0.341057 0.310901 0.900126
#
# Coordination Sequence:
#
# PCOD9024643 Si02
#       8
#     2   2   2   2   2   2   2   2
#     4  11  26  50  76 117 153 199 258 321 398 475
#     4  10  22  40  65  95 143 199 257 313 383 440
#     4  11  29  51  85 116 149 202 251 329 404 481
#     4  10  23  40  64 102 145 195 259 316 373 450
#     4  12  29  51  81 116 160 203 259 321 397 472
#     4  11  23  42  64 100 149 198 259 308 371 446
#     4  12  27  47  74 115 151 208 259 317 383 461
#     4  11  23  42  70 101 142 202 250 320 382 456
#
# _framework density 26.980599999999999
#
# number of rings (size 3 to 8) (size 9 to 14) (size 15 to 20)
#    0.000    1.000    2.500    2.250    8.750    4.000 
#    0.000    0.000    0.000    0.000    0.000    0.000 
#    0.000    0.000    0.000    0.000    0.000    0.000 
#
# Total GULP energy -89362.502914 kJ/mol
# GULP energy per Si atom -5585.156432 kJ/mol
# Density = 2.691919 g / cm^3
# Si number density = 26.980600 Si / 1000 Ang^3
#
#
#
# Elastic Constant Matrix: (Units=GPa)
#
#
# Indices 1 2 3 4 5 6 
#
# 1 115.1470 27.4512 20.6727 -11.7988 -1.3514 1.7356
# 2 27.4512 80.6667 -4.1288 -3.1001 3.7990 -5.8372
# 3 20.6727 -4.1288 113.9183 4.7407 28.8181 2.3504
# 4 -11.7988 -3.1001 4.7407 43.9816 4.3378 4.1087
# 5 -1.3514 3.7990 28.8181 4.3378 33.2037 -15.0481
# 6 1.7356 -5.8372 2.3504 4.1087 -15.0481 27.1536
#
#
#
# Elastic Compliance Matrix: (Units=1/GPa)
#
#
# Indices 1 2 3 4 5 6 
#
# 1 0.010388 -0.003724 -0.002913 0.002520 0.003106 0.000128
# 2 -0.003724 0.013994 0.001787 -0.000119 -0.002510 0.001719
# 3 -0.002913 0.001787 0.013863 0.000473 -0.017006 -0.010125
# 4 0.002520 -0.000119 0.000473 0.024797 -0.007128 -0.007930
# 5 0.003106 -0.002510 -0.017006 -0.007128 0.062821 0.036627
# 6 0.000128 0.001719 -0.010125 -0.007930 0.036627 0.059563
#
#
# Mechanical properties :
#
#
# Convention : Reuss Voigt Hill
#
# Bulk Modulus (GPa) = 35.03405 44.19137 39.61271
# Shear Modulus (GPa) = 24.43296 38.58358 31.50827
#
# Velocity S-wave (km/s) = 3.01254 3.78570 3.42103
# Velocity P-wave (km/s) = 5.01135 5.96014 5.50622
#
# Compressibility (1/GPa) = 0.02854366
#
# Stress axis : x y z
#
# Youngs Moduli (GPa) = 96.26229 71.46107 72.13540
#
# Poissons Ratio (x) = 0.26616 0.21016
# Poissons Ratio (y) = 0.35853 -0.12893
# Poissons Ratio (z) = 0.28045 -0.12773
#
# Static dielectric constant tensor:
#      x y z
#    x 2.089690 -0.061520 -0.029240 
#    y -0.061520 2.580590 0.427380 
#    z -0.029240 0.427380 2.609190 
# 
# From -- ./inp_files/90215.got.cif
#   From: 2010.05.17/outbox.cif.g08.bks.cpg/sg2_46_cif.got.tgz:90215.got - 2010.06.03 11:33:40.
