data_PCOD9024966
_publ_section_title
;
Structure prediction by ZEFSAII (Michael W. Deem and Ramdas Pophale) SiO2 
 PCOD9024966
Probable space group: P -1
;
_chemical_formula_sum "Si O2"
_cell_formula_units_Z 16
_cell_length_a 6.770792
_cell_length_b 6.173554
_cell_length_c 25.462659
_cell_angle_alpha 53.448675
_cell_angle_beta 124.924555
_cell_angle_gamma 106.590475
_cell_volume 698.539139
_symmetry_space_group_name_H-M "P -1"
_symmetry_group_IT_number 2
_symmetry_cell_setting 'triclinic'
loop_
_space_group_symop_operation_xyz
x,y,z
-x,-y,-z
loop_
_atom_site_type_symbol
_atom_site_label
_atom_site_fract_x
_atom_site_fract_y
_atom_site_fract_z
Si Si1 0.658688 0.341707 0.162491
Si Si2 0.359648 0.873529 0.415502
Si Si3 0.235148 0.120890 0.068848
Si Si4 0.285869 0.452227 0.551037
Si Si5 0.357476 0.481831 0.316259
Si Si6 0.225481 0.122941 0.945874
Si Si7 0.986604 0.798604 0.280948
Si Si8 0.486055 0.458467 0.781209
O O1 0.419805 0.311769 0.095614
O O2 0.780094 0.617154 0.129584
O O3 0.565641 0.336874 0.208700
O O4 0.854349 0.096582 0.215650
O O5 0.381230 0.700001 0.496498
O O6 0.601567 0.810434 0.426209
O O7 0.148004 0.768898 0.362011
O O8 0.298464 0.189008 0.370236
O O9 0.376485 0.819102 0.135333
O O10 0.186793 0.206235 0.989055
O O11 0.981540 0.082306 0.064983
O O12 0.397955 0.452571 0.626041
O O13 0.000000 0.500000 0.500000
O O14 0.163366 0.717773 0.271378
O O15 0.371454 0.454389 0.260087
O O16 0.500000 0.000000 0.000000
O O17 0.771283 0.607293 0.271399
#
# Coordination Sequence:
#
# PCOD9024966 Si02
#       8
#     2   2   2   2   2   2   2   2
#     4  11  24  46  72  99 139 186 224 287 348 399
#     4  10  22  40  66  98 127 175 227 275 338 395
#     4  10  25  44  67 103 134 174 235 277 340 420
#     4  10  22  41  65  95 132 174 222 278 334 400
#     4  11  24  41  67  97 136 177 222 282 335 405
#     4  11  23  47  71  99 138 179 228 287 341 407
#     4  10  24  43  64  96 135 176 227 279 334 412
#     4  11  24  43  63 102 135 173 225 277 339 408
#
# _framework density 22.904941999999998
#
# number of rings (size 3 to 8) (size 9 to 14) (size 15 to 20)
#    0.000    1.500    1.250    2.250    3.500    7.000 
#    2.250    0.000    0.000    0.000    0.000    0.000 
#    0.000    0.000    0.000    0.000    0.000    0.000 
#
# Total GULP energy -89500.391786 kJ/mol
# GULP energy per Si atom -5593.774487 kJ/mol
# Density = 2.285281 g / cm^3
# Si number density = 22.904942 Si / 1000 Ang^3
#
#
#
# Elastic Constant Matrix: (Units=GPa)
#
#
# Indices 1 2 3 4 5 6 
#
# 1 106.1318 25.3418 33.9561 6.6880 13.3330 -10.1216
# 2 25.3418 45.1141 16.0633 5.0910 4.0017 -13.6690
# 3 33.9561 16.0633 63.3659 14.2320 2.9201 -14.5148
# 4 6.6880 5.0910 14.2320 34.5993 0.6151 10.6316
# 5 13.3330 4.0017 2.9201 0.6151 49.1345 8.2600
# 6 -10.1216 -13.6690 -14.5148 10.6316 8.2600 30.7446
#
#
#
# Elastic Compliance Matrix: (Units=1/GPa)
#
#
# Indices 1 2 3 4 5 6 
#
# 1 0.012691 -0.005051 -0.005620 0.000728 -0.002664 -0.000257
# 2 -0.005051 0.031148 0.000868 -0.009050 -0.003925 0.016779
# 3 -0.005620 0.000868 0.025763 -0.014656 -0.002664 0.016482
# 4 0.000728 -0.009050 -0.014656 0.044494 0.005487 -0.027563
# 5 -0.002664 -0.003925 -0.002664 0.005487 0.023518 -0.012096
# 6 -0.000257 0.016779 0.016482 -0.027563 -0.012096 0.060464
#
#
# Mechanical properties :
#
#
# Convention : Reuss Voigt Hill
#
# Bulk Modulus (GPa) = 20.00219 40.59269 30.29744
# Shear Modulus (GPa) = 21.33576 32.17906 26.75741
#
# Velocity S-wave (km/s) = 3.05535 3.75226 3.42159
# Velocity P-wave (km/s) = 4.60418 6.04428 5.37270
#
# Compressibility (1/GPa) = 0.04999453
#
# Stress axis : x y z
#
# Youngs Moduli (GPa) = 78.79788 32.10504 38.81564
#
# Poissons Ratio (x) = 0.16218 0.21813
# Poissons Ratio (y) = 0.39804 -0.03368
# Poissons Ratio (z) = 0.44282 -0.02786
#
# Static dielectric constant tensor:
#      x y z
#    x 1.871580 -0.005620 0.009560 
#    y -0.005620 1.838770 0.000080 
#    z 0.009560 0.000080 1.834660 
# 
# From -- ./inp_files/14770.got.cif
#   From: 2010.05.17/outbox.cif.g08.bks.cpg/sg2_8_cif.got.tgz:14770.got - 2010.06.03 11:33:40.
