data_PCOD9024228
_publ_section_title
;
Structure prediction by ZEFSAII (Michael W. Deem and Ramdas Pophale) SiO2 
 PCOD9024228
Probable space group: P -1
;
_chemical_formula_sum "Si O2"
_cell_formula_units_Z 15
_cell_length_a 11.563703
_cell_length_b 9.002757
_cell_length_c 9.851036
_cell_angle_alpha 124.341559
_cell_angle_beta 101.561107
_cell_angle_gamma 47.394881
_cell_volume 594.828626
_symmetry_space_group_name_H-M "P -1"
_symmetry_group_IT_number 2
_symmetry_cell_setting 'triclinic'
loop_
_space_group_symop_operation_xyz
x,y,z
-x,-y,-z
loop_
_atom_site_type_symbol
_atom_site_label
_atom_site_fract_x
_atom_site_fract_y
_atom_site_fract_z
Si Si1 0.830374 0.030225 0.168674
Si Si2 0.913800 0.418029 0.372571
Si Si3 0.000000 0.000000 0.000000
Si Si4 0.341675 0.885755 0.559862
Si Si5 0.525193 0.885742 0.163306
Si Si6 0.998821 0.201438 0.552305
Si Si7 0.374326 0.449511 0.742895
Si Si8 0.247161 0.280383 0.109307
O O1 0.729634 0.150642 0.347220
O O2 0.762514 0.242030 0.139034
O O3 0.016191 0.887231 0.103501
O O4 0.801743 0.853787 0.039271
O O5 0.898246 0.313360 0.448635
O O6 0.731029 0.610203 0.365778
O O7 0.000000 0.500000 0.500000
O O8 0.014974 0.194802 0.172633
O O9 0.487084 0.646941 0.382280
O O10 0.406454 0.007037 0.693220
O O11 0.185560 0.069790 0.519022
O O12 0.548336 0.693718 0.171100
O O13 0.343823 0.126386 0.190641
O O14 0.628910 0.749305 0.978795
O O15 0.908925 0.431924 0.751247
O O16 0.000000 0.000000 0.500000
#
# Coordination Sequence:
#
# PCOD9024228 Si02
#       8
#     2   2   1   2   2   2   2   2
#     4  10  23  42  69  99 143 188 228 300 359 418
#     4  11  24  44  72 104 142 185 232 296 357 420
#     4  10  22  40  64 102 138 178 236 286 348 420
#     4  11  24  42  66 101 142 187 236 292 360 426
#     4  10  23  43  71 100 136 184 233 297 359 426
#     4  12  26  43  68  97 133 185 238 292 354 429
#     4  11  23  42  71 105 139 186 243 289 354 433
#     4  10  24  46  68 100 141 182 235 294 365 430
#
# _framework density 25.217347
#
# number of rings (size 3 to 8) (size 9 to 14) (size 15 to 20)
#    0.000    1.333    0.000    4.800    0.000   13.333 
#    0.000    0.000    0.000    0.000    0.000    0.000 
#    0.000    0.000    0.000    0.000    0.000    0.000 
#
# Total GULP energy -83600.342946 kJ/mol
# GULP energy per Si atom -5573.356196 kJ/mol
# Density = 2.515995 g / cm^3
# Si number density = 25.217347 Si / 1000 Ang^3
#
#
#
# Elastic Constant Matrix: (Units=GPa)
#
#
# Indices 1 2 3 4 5 6 
#
# 1 92.6673 16.5772 39.3902 11.0519 -12.7570 8.9451
# 2 16.5772 104.9048 31.1048 -5.9780 -11.0250 9.0106
# 3 39.3902 31.1048 103.8986 6.1952 -6.0498 7.4499
# 4 11.0519 -5.9780 6.1952 36.5815 13.0196 -9.9447
# 5 -12.7570 -11.0250 -6.0498 13.0196 36.8115 -9.8116
# 6 8.9451 9.0106 7.4499 -9.9447 -9.8116 49.7907
#
#
#
# Elastic Compliance Matrix: (Units=1/GPa)
#
#
# Indices 1 2 3 4 5 6 
#
# 1 0.014551 -0.000544 -0.004494 -0.006342 0.005863 -0.001955
# 2 -0.000544 0.010846 -0.002977 0.001595 0.001808 -0.000745
# 3 -0.004494 -0.002977 0.012352 -0.001389 -0.000143 -0.000808
# 4 -0.006342 0.001595 -0.001389 0.035969 -0.013165 0.005649
# 5 0.005863 0.001808 -0.000143 -0.013165 0.035155 0.002939
# 6 -0.001955 -0.000745 -0.000808 0.005649 0.002939 0.022398
#
#
# Mechanical properties :
#
#
# Convention : Reuss Voigt Hill
#
# Bulk Modulus (GPa) = 46.04334 52.84614 49.44474
# Shear Modulus (GPa) = 32.35367 38.92997 35.64182
#
# Velocity S-wave (km/s) = 3.58577 3.93336 3.76358
# Velocity P-wave (km/s) = 5.95331 6.45214 6.20774
#
# Compressibility (1/GPa) = 0.02171867
#
# Stress axis : x y z
#
# Youngs Moduli (GPa) = 68.72313 92.19934 80.95668
#
# Poissons Ratio (x) = 0.05018 0.36382
# Poissons Ratio (y) = 0.03740 0.24102
# Poissons Ratio (z) = 0.30884 0.27449
#
# Static dielectric constant tensor:
#      x y z
#    x 5.739650 -2.470750 -2.979170 
#    y -2.470750 3.766310 1.957290 
#    z -2.979170 1.957290 4.464600 
# 
# From -- ./inp_files/245547.got.cif
#   From: 2010.05.17/outbox.cif.g08.bks.cpg/sg2_123_cif.got.tgz:245547.got - 2010.06.03 11:33:40.
