data_PCOD9024488
_publ_section_title
;
Structure prediction by ZEFSAII (Michael W. Deem and Ramdas Pophale) SiO2 
 PCOD9024488
Probable space group: P -1
;
_chemical_formula_sum "Si O2"
_cell_formula_units_Z 12
_cell_length_a 9.504687
_cell_length_b 5.183883
_cell_length_c 11.099989
_cell_angle_alpha 86.062623
_cell_angle_beta 69.865836
_cell_angle_gamma 87.590445
_cell_volume 512.176614
_symmetry_space_group_name_H-M "P -1"
_symmetry_group_IT_number 2
_symmetry_cell_setting 'triclinic'
loop_
_space_group_symop_operation_xyz
x,y,z
-x,-y,-z
loop_
_atom_site_type_symbol
_atom_site_label
_atom_site_fract_x
_atom_site_fract_y
_atom_site_fract_z
Si Si1 0.261128 0.403020 0.829471
Si Si2 0.399434 0.248683 0.545047
Si Si3 0.425941 0.718939 0.931706
Si Si4 0.273777 0.103510 0.090059
Si Si5 0.906764 0.884899 0.421338
Si Si6 0.985966 0.389293 0.260129
O O1 0.324410 0.254809 0.699818
O O2 0.371489 0.635778 0.820913
O O3 0.096371 0.502797 0.838452
O O4 0.270239 0.245444 0.955876
O O5 0.500000 0.500000 0.500000
O O6 0.255461 0.232399 0.499804
O O7 0.500000 0.000000 0.500000
O O8 0.569693 0.902088 0.881106
O O9 0.500000 0.500000 0.000000
O O10 0.278597 0.812372 0.047151
O O11 0.142453 0.238963 0.197703
O O12 0.990448 0.640227 0.338388
O O13 0.884098 0.150186 0.342393
O O14 0.000000 0.000000 0.500000
#
# Coordination Sequence:
#
# PCOD9024488 Si02
#       6
#     2   2   2   2   2   2
#     4  10  23  40  66  96 137 173 227 286 332 415
#     4  11  25  45  69  98 132 182 236 283 341 400
#     4   9  21  39  61  93 141 172 229 269 338 408
#     4  10  22  40  65 100 138 179 219 280 348 413
#     4  11  26  48  69 102 142 181 236 292 337 416
#     4  11  25  42  72 103 138 182 230 279 352 412
#
# _framework density 23.429417999999998
#
# number of rings (size 3 to 8) (size 9 to 14) (size 15 to 20)
#    0.000    1.667    0.000    3.000   11.667    3.333 
#    3.000    0.000    0.000    0.000    0.000    0.000 
#    0.000    0.000    0.000    0.000    0.000    0.000 
#
# Total GULP energy -66882.065820 kJ/mol
# GULP energy per Si atom -5573.505485 kJ/mol
# Density = 2.337609 g / cm^3
# Si number density = 23.429418 Si / 1000 Ang^3
#
#
#
# Elastic Constant Matrix: (Units=GPa)
#
#
# Indices 1 2 3 4 5 6 
#
# 1 160.7732 49.9491 47.7388 42.0673 10.1341 6.0994
# 2 49.9491 142.5732 35.0229 35.8808 -0.7386 0.2468
# 3 47.7388 35.0229 51.7315 25.0050 2.5797 0.2110
# 4 42.0673 35.8808 25.0050 45.4256 -0.0130 -9.6949
# 5 10.1341 -0.7386 2.5797 -0.0130 32.8422 12.9619
# 6 6.0994 0.2468 0.2110 -9.6949 12.9619 45.1086
#
#
#
# Elastic Compliance Matrix: (Units=1/GPa)
#
#
# Indices 1 2 3 4 5 6 
#
# 1 0.009845 -0.000543 -0.005732 -0.005977 -0.001784 -0.002073
# 2 -0.000543 0.009383 -0.003290 -0.005412 0.001217 -0.001476
# 3 -0.005732 -0.003290 0.031592 -0.009779 -0.000244 -0.001387
# 4 -0.005977 -0.005412 -0.009779 0.039278 -0.001324 0.009706
# 5 -0.001784 0.001217 -0.000244 -0.001324 0.035038 -0.010117
# 6 -0.002073 -0.001476 -0.001387 0.009706 -0.010117 0.027457
#
#
# Mechanical properties :
#
#
# Convention : Reuss Voigt Hill
#
# Bulk Modulus (GPa) = 31.55414 68.94438 50.24926
# Shear Modulus (GPa) = 27.42917 39.49977 33.46447
#
# Velocity S-wave (km/s) = 3.42528 4.11043 3.78340
# Velocity P-wave (km/s) = 5.39819 7.21234 6.37017
#
# Compressibility (1/GPa) = 0.03169156
#
# Stress axis : x y z
#
# Youngs Moduli (GPa) = 101.56930 106.57189 31.65334
#
# Poissons Ratio (x) = 0.05784 0.18143
# Poissons Ratio (y) = 0.05513 0.10415
# Poissons Ratio (z) = 0.58217 0.35065
#
# Static dielectric constant tensor:
#      x y z
#    x 2.230780 -0.673000 -0.080120 
#    y -0.673000 4.498160 0.057360 
#    z -0.080120 0.057360 1.937050 
# 
# From -- ./inp_files/362387.got.cif
#   From: 2010.05.17/outbox.cif.g08.bks.cpg/sg2_182_cif.got.tgz:362387.got - 2010.06.03 11:33:40.
