data_PCOD9024847
_publ_section_title
;
Structure prediction by ZEFSAII (Michael W. Deem and Ramdas Pophale) SiO2 
 PCOD9024847
Probable space group: P -1
;
_chemical_formula_sum "Si O2"
_cell_formula_units_Z 14
_cell_length_a 8.398588
_cell_length_b 16.036051
_cell_length_c 8.838014
_cell_angle_alpha 83.049907
_cell_angle_beta 71.535859
_cell_angle_gamma 140.196415
_cell_volume 578.211936
_symmetry_space_group_name_H-M "P -1"
_symmetry_group_IT_number 2
_symmetry_cell_setting 'triclinic'
loop_
_space_group_symop_operation_xyz
x,y,z
-x,-y,-z
loop_
_atom_site_type_symbol
_atom_site_label
_atom_site_fract_x
_atom_site_fract_y
_atom_site_fract_z
Si Si1 0.850996 0.206611 0.008463
Si Si2 0.327272 0.511774 0.595783
Si Si3 0.522223 0.769698 0.591378
Si Si4 0.320089 0.033717 0.984615
Si Si5 0.785090 0.864226 0.801029
Si Si6 0.164288 0.311774 0.188457
Si Si7 0.127321 0.699719 0.485742
O O1 0.502166 0.075422 0.069706
O O2 0.082681 0.376105 0.830355
O O3 0.886445 0.219252 0.173107
O O4 0.940887 0.150124 0.936407
O O5 0.500000 0.500000 0.500000
O O6 0.534574 0.677622 0.558437
O O7 0.120402 0.449378 0.523989
O O8 0.516280 0.772654 0.774400
O O9 0.240127 0.690315 0.593179
O O10 0.858144 0.957673 0.403686
O O11 0.564584 0.142292 0.744720
O O12 0.246265 0.096769 0.043662
O O13 0.779282 0.762184 0.832516
O O14 0.046118 0.293475 0.390279
O O15 0.500000 0.500000 0.000000
#
# Coordination Sequence:
#
# PCOD9024847 Si02
#       7
#     2   2   2   2   2   2   2
#     4  10  22  40  66  93 129 169 212 265 320 382
#     4  11  22  41  66  96 131 169 214 267 322 380
#     4  11  24  42  66  97 133 173 218 264 321 384
#     4  10  23  43  67  97 128 169 218 266 323 381
#     4  11  25  43  67  96 132 173 217 269 319 381
#     4  12  26  44  66  95 129 170 216 267 326 386
#     4  11  25  43  68  96 130 171 216 268 324 386
#
# _framework density 24.212575000000001
#
# number of rings (size 3 to 8) (size 9 to 14) (size 15 to 20)
#    0.000    1.143    0.000    5.571    0.000   14.857 
#    0.000    5.000    0.000    0.000    0.000    0.000 
#    0.000    0.000    0.000    0.000    0.000    0.000 
#
# Total GULP energy -78332.560905 kJ/mol
# GULP energy per Si atom -5595.182922 kJ/mol
# Density = 2.415747 g / cm^3
# Si number density = 24.212575 Si / 1000 Ang^3
#
#
#
# Elastic Constant Matrix: (Units=GPa)
#
#
# Indices 1 2 3 4 5 6 
#
# 1 101.6196 42.4296 20.0722 18.3053 13.4631 -10.2575
# 2 42.4296 138.1836 27.4761 14.2698 16.2405 -35.3913
# 3 20.0722 27.4761 89.7340 28.8485 -0.6961 -18.8037
# 4 18.3053 14.2698 28.8485 39.3256 3.2612 3.7154
# 5 13.4631 16.2405 -0.6961 3.2612 27.5544 17.2973
# 6 -10.2575 -35.3913 -18.8037 3.7154 17.2973 59.4997
#
#
#
# Elastic Compliance Matrix: (Units=1/GPa)
#
#
# Indices 1 2 3 4 5 6 
#
# 1 0.012711 -0.001689 -0.000030 -0.005046 -0.006796 0.003468
# 2 -0.001689 0.012584 -0.000016 -0.003736 -0.013222 0.011266
# 3 -0.000030 -0.000016 0.016582 -0.012588 -0.002252 0.006667
# 4 -0.005046 -0.003736 -0.012588 0.038877 0.006985 -0.011529
# 5 -0.006796 -0.013222 -0.002252 0.006985 0.064727 -0.029001
# 6 0.003468 0.011266 0.006667 -0.011529 -0.029001 0.035363
#
#
# Mechanical properties :
#
#
# Convention : Reuss Voigt Hill
#
# Bulk Modulus (GPa) = 26.03705 56.61034 41.32369
# Shear Modulus (GPa) = 25.36579 41.24657 33.30618
#
# Velocity S-wave (km/s) = 3.24022 4.13185 3.71290
# Velocity P-wave (km/s) = 4.97751 6.79663 5.95692
#
# Compressibility (1/GPa) = 0.03840682
#
# Stress axis : x y z
#
# Youngs Moduli (GPa) = 78.67144 79.46797 60.30689
#
# Poissons Ratio (x) = 0.13423 0.00180
# Poissons Ratio (y) = 0.13288 0.00096
# Poissons Ratio (z) = 0.00235 0.00126
#
# Static dielectric constant tensor:
#      x y z
#    x 2.022730 0.009320 -0.036630 
#    y 0.009320 1.890510 0.024860 
#    z -0.036630 0.024860 1.912170 
# 
# From -- ./inp_files/207615.got.cif
#   From: 2010.05.17/outbox.cif.g08.bks.cpg/sg2_104_cif.got.tgz:207615.got - 2010.06.03 11:33:40.
