data_PCOD9024909
_publ_section_title
;
Structure prediction by ZEFSAII (Michael W. Deem and Ramdas Pophale) SiO2 
 PCOD9024909
Probable space group: P -1
;
_chemical_formula_sum "Si O2"
_cell_formula_units_Z 16
_cell_length_a 8.321734
_cell_length_b 16.757730
_cell_length_c 11.020605
_cell_angle_alpha 148.586596
_cell_angle_beta 110.673635
_cell_angle_gamma 68.965247
_cell_volume 744.192169
_symmetry_space_group_name_H-M "P -1"
_symmetry_group_IT_number 2
_symmetry_cell_setting 'triclinic'
loop_
_space_group_symop_operation_xyz
x,y,z
-x,-y,-z
loop_
_atom_site_type_symbol
_atom_site_label
_atom_site_fract_x
_atom_site_fract_y
_atom_site_fract_z
Si Si1 0.203064 0.519876 0.455465
Si Si2 0.098591 0.324601 0.773266
Si Si3 0.480441 0.168006 0.268816
Si Si4 0.691645 0.484920 0.082349
Si Si5 0.777835 0.181687 0.563839
Si Si6 0.497010 0.701765 0.821621
Si Si7 0.164347 0.365499 0.486517
Si Si8 0.632355 0.914485 0.323062
O O1 0.316370 0.636193 0.702663
O O2 0.336428 0.425517 0.276861
O O3 0.143924 0.398912 0.380486
O O4 0.026493 0.609723 0.476016
O O5 0.219422 0.370385 0.756627
O O6 0.238802 0.229251 0.776031
O O7 0.952291 0.208661 0.572957
O O8 0.000000 0.500000 0.000000
O O9 0.621435 0.197205 0.445040
O O10 0.495469 0.269375 0.283748
O O11 0.289013 0.207734 0.324134
O O12 0.500000 0.000000 0.000000
O O13 0.722836 0.507932 0.261593
O O14 0.500000 0.500000 0.000000
O O15 0.770684 0.320481 0.839564
O O16 0.750073 0.030941 0.439035
O O17 0.519850 0.846115 0.098613
O O18 0.500000 0.000000 0.500000
#
# Coordination Sequence:
#
# PCOD9024909 Si02
#       8
#     2   2   2   2   2   2   2   2
#     4   9  22  41  65  98 125 172 227 286 326 400
#     4  10  26  43  68  99 130 183 230 278 333 411
#     4  11  22  43  65  93 134 179 220 268 343 411
#     4  11  22  39  69  97 133 175 226 286 336 401
#     4  11  24  44  66 100 136 180 224 282 343 408
#     4  10  23  41  70  93 130 179 219 279 343 403
#     4  10  22  40  66  95 133 169 231 279 337 394
#     4  12  26  45  68 102 144 175 226 282 358 408
#
# _framework density 21.499824
#
# number of rings (size 3 to 8) (size 9 to 14) (size 15 to 20)
#    0.000    1.500    2.500    1.125    8.750    2.000 
#    2.250    0.625    0.000    0.000    0.000    0.000 
#    0.000    0.000    0.000    0.000    0.000    0.000 
#
# Total GULP energy -89089.842646 kJ/mol
# GULP energy per Si atom -5568.115165 kJ/mol
# Density = 2.145089 g / cm^3
# Si number density = 21.499824 Si / 1000 Ang^3
#
#
#
# Elastic Constant Matrix: (Units=GPa)
#
#
# Indices 1 2 3 4 5 6 
#
# 1 96.1316 48.8103 27.8443 0.9844 18.6639 -18.6253
# 2 48.8103 105.0604 30.3346 4.3601 0.3943 -6.5917
# 3 27.8443 30.3346 116.3369 -0.5886 -1.5942 -5.4076
# 4 0.9844 4.3601 -0.5886 25.1930 4.8543 6.9735
# 5 18.6639 0.3943 -1.5942 4.8543 29.1304 5.5799
# 6 -18.6253 -6.5917 -5.4076 6.9735 5.5799 40.1365
#
#
#
# Elastic Compliance Matrix: (Units=1/GPa)
#
#
# Indices 1 2 3 4 5 6 
#
# 1 0.019763 -0.007860 -0.002438 0.000731 -0.014623 0.009458
# 2 -0.007860 0.013626 -0.001700 -0.002622 0.005570 -0.001957
# 3 -0.002438 -0.001700 0.009632 0.000330 0.002147 -0.000469
# 4 0.000731 -0.002622 0.000330 0.043194 -0.006335 -0.006671
# 5 -0.014623 0.005570 0.002147 -0.006335 0.046902 -0.011001
# 6 0.009458 -0.001957 -0.000469 -0.006671 -0.011001 0.031608
#
#
# Mechanical properties :
#
#
# Convention : Reuss Voigt Hill
#
# Bulk Modulus (GPa) = 52.55959 59.05639 55.80799
# Shear Modulus (GPa) = 25.63292 32.92795 29.28044
#
# Velocity S-wave (km/s) = 3.45663 3.91774 3.69439
# Velocity P-wave (km/s) = 6.35851 6.92769 6.64919
#
# Compressibility (1/GPa) = 0.01902602
#
# Stress axis : x y z
#
# Youngs Moduli (GPa) = 50.59861 73.38955 103.82423
#
# Poissons Ratio (x) = 0.57685 0.25310
# Poissons Ratio (y) = 0.39771 0.17646
# Poissons Ratio (z) = 0.12335 0.12473
#
# Static dielectric constant tensor:
#      x y z
#    x 1.894300 0.026020 -0.070300 
#    y 0.026020 1.920480 0.007100 
#    z -0.070300 0.007100 1.807420 
# 
# From -- ./inp_files/402533.got.cif
#   From: 2010.05.17/outbox.cif.g08.bks.cpg/sg2_202_cif.got.tgz:402533.got - 2010.06.03 11:33:40.
