data_PCOD9024397
_publ_section_title
;
Structure prediction by ZEFSAII (Michael W. Deem and Ramdas Pophale) SiO2 
 PCOD9024397
Probable space group: P -1
;
_chemical_formula_sum "Si O2"
_cell_formula_units_Z 14
_cell_length_a 5.143312
_cell_length_b 12.101599
_cell_length_c 12.108119
_cell_angle_alpha 116.576701
_cell_angle_beta 73.024941
_cell_angle_gamma 128.846043
_cell_volume 524.868633
_symmetry_space_group_name_H-M "P -1"
_symmetry_group_IT_number 2
_symmetry_cell_setting 'triclinic'
loop_
_space_group_symop_operation_xyz
x,y,z
-x,-y,-z
loop_
_atom_site_type_symbol
_atom_site_label
_atom_site_fract_x
_atom_site_fract_y
_atom_site_fract_z
Si Si1 0.556012 0.694097 0.999550
Si Si2 0.275266 0.529095 0.393184
Si Si3 0.532821 0.842980 0.472400
Si Si4 0.047565 0.219052 0.333960
Si Si5 0.077583 0.461845 0.138599
Si Si6 0.556459 0.975543 0.108363
Si Si7 0.945168 0.039717 0.698935
O O1 0.821949 0.655329 0.939587
O O2 0.287946 0.611964 0.896897
O O3 0.338097 0.607366 0.096602
O O4 0.682644 0.867925 0.056126
O O5 0.564068 0.706842 0.442434
O O6 0.129158 0.506014 0.278733
O O7 0.000000 0.500000 0.500000
O O8 0.316165 0.395344 0.353144
O O9 0.174848 0.791712 0.539459
O O10 0.669918 0.878065 0.346086
O O11 0.763958 0.995201 0.583386
O O12 0.803458 0.128711 0.218142
O O13 0.180203 0.118911 0.299255
O O14 0.197071 0.889314 0.177483
O O15 0.500000 0.000000 0.000000
#
# Coordination Sequence:
#
# PCOD9024397 Si02
#       7
#     2   2   2   2   2   2   2
#     4  10  24  44  70  97 138 181 235 288 345 408
#     4  10  22  43  66  98 136 177 226 282 356 409
#     4   9  21  42  62  94 131 168 225 280 340 412
#     4  10  22  40  64  95 129 173 222 280 342 418
#     4  10  23  45  68 101 136 180 233 290 342 421
#     4  11  25  40  66  95 135 178 228 282 349 409
#     4  10  22  40  65  96 130 170 226 277 345 411
#
# _framework density 26.673342999999999
#
# number of rings (size 3 to 8) (size 9 to 14) (size 15 to 20)
#    0.000    2.000    0.000    1.286    6.000    3.429 
#   10.286    0.000    0.000    0.000    0.000    0.000 
#    0.000    0.000    0.000    0.000    0.000    0.000 
#
# Total GULP energy -78380.222867 kJ/mol
# GULP energy per Si atom -5598.587348 kJ/mol
# Density = 2.661263 g / cm^3
# Si number density = 26.673343 Si / 1000 Ang^3
#
#
#
# Elastic Constant Matrix: (Units=GPa)
#
#
# Indices 1 2 3 4 5 6 
#
# 1 78.7581 25.5411 38.3856 3.2305 -1.0409 -16.3471
# 2 25.5411 148.7430 41.1791 9.7819 -12.0627 -20.2885
# 3 38.3856 41.1791 159.6375 -8.4454 3.2202 8.2041
# 4 3.2305 9.7819 -8.4454 39.0589 2.7000 -0.2391
# 5 -1.0409 -12.0627 3.2202 2.7000 29.0099 6.6698
# 6 -16.3471 -20.2885 8.2041 -0.2391 6.6698 32.5203
#
#
#
# Elastic Compliance Matrix: (Units=1/GPa)
#
#
# Indices 1 2 3 4 5 6 
#
# 1 0.017177 -0.000249 -0.004670 -0.002237 -0.001026 0.009851
# 2 -0.000249 0.008656 -0.002659 -0.002892 0.002931 0.005323
# 3 -0.004670 -0.002659 0.008555 0.002944 -0.001138 -0.005909
# 4 -0.002237 -0.002892 0.002944 0.027375 -0.003526 -0.002747
# 5 -0.001026 0.002931 -0.001138 -0.003526 0.037514 -0.006120
# 6 0.009851 0.005323 -0.005909 -0.002747 -0.006120 0.041749
#
#
# Mechanical properties :
#
#
# Convention : Reuss Voigt Hill
#
# Bulk Modulus (GPa) = 51.99459 66.37226 59.18342
# Shear Modulus (GPa) = 30.75181 38.91999 34.83590
#
# Velocity S-wave (km/s) = 3.39913 3.82401 3.61781
# Velocity P-wave (km/s) = 5.91108 6.66594 6.29982
#
# Compressibility (1/GPa) = 0.01923277
#
# Stress axis : x y z
#
# Youngs Moduli (GPa) = 58.21810 115.53047 116.88666
#
# Poissons Ratio (x) = 0.02877 0.54585
# Poissons Ratio (y) = 0.01450 0.31075
# Poissons Ratio (z) = 0.27187 0.30715
#
# Static dielectric constant tensor:
#      x y z
#    x 2.098420 0.032260 0.033190 
#    y 0.032260 2.116770 0.005770 
#    z 0.033190 0.005770 2.097850 
# 
# From -- ./inp_files/363862.got.cif
#   From: 2010.05.17/outbox.cif.g08.bks.cpg/sg2_182_cif.got.tgz:363862.got - 2010.06.03 11:33:40.
