data_PCOD9024668
_publ_section_title
;
Structure prediction by ZEFSAII (Michael W. Deem and Ramdas Pophale) SiO2 
 PCOD9024668
Probable space group: P -1
;
_chemical_formula_sum "Si O2"
_cell_formula_units_Z 16
_cell_length_a 10.577151
_cell_length_b 8.803181
_cell_length_c 11.663618
_cell_angle_alpha 127.208343
_cell_angle_beta 64.004564
_cell_angle_gamma 126.304960
_cell_volume 691.579799
_symmetry_space_group_name_H-M "P -1"
_symmetry_group_IT_number 2
_symmetry_cell_setting 'triclinic'
loop_
_space_group_symop_operation_xyz
x,y,z
-x,-y,-z
loop_
_atom_site_type_symbol
_atom_site_label
_atom_site_fract_x
_atom_site_fract_y
_atom_site_fract_z
Si Si1 0.173517 0.886925 0.376445
Si Si2 0.749907 0.651404 0.230259
Si Si3 0.364248 0.576671 0.607432
Si Si4 0.422479 0.004440 0.911268
Si Si5 0.288574 0.582496 0.085154
Si Si6 0.480744 0.191661 0.539706
Si Si7 0.959287 0.907176 0.660854
Si Si8 0.159402 0.149029 0.075370
O O1 0.183572 0.683224 0.228047
O O2 0.141622 0.014197 0.343591
O O3 0.336807 0.058474 0.447432
O O4 0.041936 0.816425 0.496603
O O5 0.759748 0.589852 0.330788
O O6 0.589457 0.678365 0.297952
O O7 0.895418 0.877001 0.250968
O O8 0.749065 0.482662 0.062770
O O9 0.500000 0.500000 0.500000
O O10 0.355628 0.643938 0.511235
O O11 0.409952 0.797240 0.756353
O O12 0.537360 0.218994 0.894714
O O13 0.258553 0.015783 0.992217
O O14 0.500000 0.000000 0.000000
O O15 0.258110 0.367779 0.065714
O O16 0.500000 0.000000 0.500000
O O17 0.873650 0.789043 0.755820
O O18 0.000000 0.000000 0.000000
#
# Coordination Sequence:
#
# PCOD9024668 Si02
#       8
#     2   2   2   2   2   2   2   2
#     4  10  23  44  71  98 135 189 241 297 351 428
#     4  10  22  40  67  99 135 180 236 284 346 429
#     4  10  22  42  68 102 131 181 236 288 360 417
#     4  12  25  45  74 105 141 183 241 301 354 425
#     4  12  24  44  70 111 142 183 241 299 370 412
#     4  10  22  40  65  96 139 178 224 292 361 413
#     4  10  23  47  70  94 143 192 243 287 353 440
#     4  12  28  46  72 106 151 193 237 297 368 438
#
# _framework density 23.135435000000001
#
# number of rings (size 3 to 8) (size 9 to 14) (size 15 to 20)
#    0.000    1.250    3.750    1.125    1.750    3.000 
#    0.000    0.000    0.000    0.000    0.000    0.000 
#    0.000    0.000    0.000    0.000    0.000    0.000 
#
# Total GULP energy -89368.998787 kJ/mol
# GULP energy per Si atom -5585.562424 kJ/mol
# Density = 2.308278 g / cm^3
# Si number density = 23.135435 Si / 1000 Ang^3
#
#
#
# Elastic Constant Matrix: (Units=GPa)
#
#
# Indices 1 2 3 4 5 6 
#
# 1 88.8183 16.9156 51.0909 -5.9757 -11.8561 -14.8434
# 2 16.9156 112.0618 23.2314 -15.3633 -1.6394 -14.6098
# 3 51.0909 23.2314 159.9801 11.2016 -7.5511 -3.4063
# 4 -5.9757 -15.3633 11.2016 44.2744 -4.1427 4.9690
# 5 -11.8561 -1.6394 -7.5511 -4.1427 20.9842 3.5854
# 6 -14.8434 -14.6098 -3.4063 4.9690 3.5854 23.3213
#
#
#
# Elastic Compliance Matrix: (Units=1/GPa)
#
#
# Indices 1 2 3 4 5 6 
#
# 1 0.016656 0.000161 -0.005076 0.003309 0.006848 0.008203
# 2 0.000161 0.010462 -0.001691 0.003444 0.000011 0.005674
# 3 -0.005076 -0.001691 0.008274 -0.003120 -0.000232 -0.002381
# 4 0.003309 0.003444 -0.003120 0.025942 0.006605 -0.002735
# 5 0.006848 0.000011 -0.000232 0.006605 0.053655 -0.005325
# 6 0.008203 0.005674 -0.002381 -0.002735 -0.005325 0.052709
#
#
# Mechanical properties :
#
#
# Convention : Reuss Voigt Hill
#
# Bulk Modulus (GPa) = 45.08397 60.37068 52.72732
# Shear Modulus (GPa) = 26.55300 35.69081 31.12190
#
# Velocity S-wave (km/s) = 3.39148 3.93197 3.67168
# Velocity P-wave (km/s) = 5.90470 6.83849 6.38868
#
# Compressibility (1/GPa) = 0.02218083
#
# Stress axis : x y z
#
# Youngs Moduli (GPa) = 60.03882 95.58550 120.85688
#
# Poissons Ratio (x) = -0.01543 0.61352
# Poissons Ratio (y) = -0.00969 0.20432
# Poissons Ratio (z) = 0.30478 0.16159
#
# Static dielectric constant tensor:
#      x y z
#    x 1.979330 0.006940 0.039380 
#    y 0.006940 1.929420 -0.043730 
#    z 0.039380 -0.043730 1.887080 
# 
# From -- ./inp_files/418385.got.cif
#   From: 2010.05.17/outbox.cif.g08.bks.cpg/sg2_210_cif.got.tgz:418385.got - 2010.06.03 11:33:40.
