data_PCOD9024049
_publ_section_title
;
Structure prediction by ZEFSAII (Michael W. Deem and Ramdas Pophale) SiO2 
 PCOD9024049
Probable space group: P -1
;
_chemical_formula_sum "Si O2"
_cell_formula_units_Z 12
_cell_length_a 11.915960
_cell_length_b 13.666039
_cell_length_c 11.855831
_cell_angle_alpha 32.808599
_cell_angle_beta 147.157859
_cell_angle_gamma 147.137098
_cell_volume 505.078062
_symmetry_space_group_name_H-M "P -1"
_symmetry_group_IT_number 2
_symmetry_cell_setting 'triclinic'
loop_
_space_group_symop_operation_xyz
x,y,z
-x,-y,-z
loop_
_atom_site_type_symbol
_atom_site_label
_atom_site_fract_x
_atom_site_fract_y
_atom_site_fract_z
Si Si1 0.297282 0.262826 0.694350
Si Si2 0.623498 0.824238 0.640742
Si Si3 0.272526 0.849340 0.162099
Si Si4 0.063151 0.758977 0.409887
Si Si5 0.374033 0.279326 0.494498
Si Si6 0.792842 0.573364 0.133072
O O1 0.107373 0.294722 0.575024
O O2 0.239011 0.219780 0.554530
O O3 0.527218 0.480604 0.677581
O O4 0.321067 0.074881 0.951878
O O5 0.396621 0.841650 0.392621
O O6 0.741706 0.839810 0.602180
O O7 0.782337 0.001585 0.685457
O O8 0.588266 0.616717 0.869231
O O9 0.400571 0.765171 0.264280
O O10 0.004818 0.701531 0.100226
O O11 0.226001 0.648963 0.667059
O O12 0.903075 0.677113 0.244665
#
# Coordination Sequence:
#
# PCOD9024049 Si02
#       6
#     2   2   2   2   2   2
#     4  11  20  42  65  86 127 160 197 249 307 352
#     4  10  23  39  63  94 117 159 207 242 304 354
#     4  10  22  40  63  88 124 158 197 250 301 353
#     4  11  23  40  64  88 122 166 194 255 301 348
#     4   9  23  40  60  95 119 159 204 243 303 362
#     4  11  23  44  59  90 128 154 206 247 301 359
#
# _framework density 23.758703000000001
#
# number of rings (size 3 to 8) (size 9 to 14) (size 15 to 20)
#    1.000    0.667    3.333    1.000    2.333    1.333 
#    0.000    3.333    0.000    0.000    0.000    0.000 
#    0.000    0.000    0.000    0.000    0.000    0.000 
#
# Total GULP energy -67062.132765 kJ/mol
# GULP energy per Si atom -5588.511064 kJ/mol
# Density = 2.370463 g / cm^3
# Si number density = 23.758703 Si / 1000 Ang^3
#
#
#
# Elastic Constant Matrix: (Units=GPa)
#
#
# Indices 1 2 3 4 5 6 
#
# 1 122.5726 -3.9766 26.7662 -0.0877 -3.6943 -14.8611
# 2 -3.9766 39.8917 24.5401 -7.1013 4.7639 -2.4801
# 3 26.7662 24.5401 164.0728 -25.9253 4.0314 -4.7408
# 4 -0.0877 -7.1013 -25.9253 34.7298 1.4162 -1.5418
# 5 -3.6943 4.7639 4.0314 1.4162 22.0447 -6.3878
# 6 -14.8611 -2.4801 -4.7408 -1.5418 -6.3878 29.8233
#
#
#
# Elastic Compliance Matrix: (Units=1/GPa)
#
#
# Indices 1 2 3 4 5 6 
#
# 1 0.009340 0.001880 -0.001872 -0.000886 0.003041 0.005118
# 2 0.001880 0.028965 -0.003950 0.003260 -0.004899 0.001837
# 3 -0.001872 -0.003950 0.007823 0.005076 -0.001222 -0.000017
# 4 -0.000886 0.003260 0.005076 0.033461 -0.003460 0.001625
# 5 0.003041 -0.004899 -0.001222 -0.003460 0.050739 0.011603
# 6 0.005118 0.001837 -0.000017 0.001625 0.011603 0.038801
#
#
# Mechanical properties :
#
#
# Convention : Reuss Voigt Hill
#
# Bulk Modulus (GPa) = 26.14876 46.79958 36.47417
# Shear Modulus (GPa) = 26.34920 35.93338 31.14129
#
# Velocity S-wave (km/s) = 3.33383 3.89322 3.62433
# Velocity P-wave (km/s) = 5.08420 6.32061 5.73582
#
# Compressibility (1/GPa) = 0.03824273
#
# Stress axis : x y z
#
# Youngs Moduli (GPa) = 107.06955 34.52452 127.83410
#
# Poissons Ratio (x) = -0.06490 0.23926
# Poissons Ratio (y) = -0.20126 0.50499
# Poissons Ratio (z) = 0.20039 0.13638
#
# Static dielectric constant tensor:
#      x y z
#    x 1.959530 0.036630 0.027750 
#    y 0.036630 1.883230 0.006150 
#    z 0.027750 0.006150 1.885570 
# 
# From -- ./inp_files/188967.got.cif
#   From: 2010.05.17/outbox.cif.g08.bks.cpg/sg2_95_cif.got.tgz:188967.got - 2010.06.03 11:33:40.
