data_PCOD9024686
_publ_section_title
;
Structure prediction by ZEFSAII (Michael W. Deem and Ramdas Pophale) SiO2 
 PCOD9024686
Probable space group: P -1
;
_chemical_formula_sum "Si O2"
_cell_formula_units_Z 14
_cell_length_a 9.395997
_cell_length_b 10.210293
_cell_length_c 13.129756
_cell_angle_alpha 145.787542
_cell_angle_beta 73.024323
_cell_angle_gamma 84.476627
_cell_volume 527.164609
_symmetry_space_group_name_H-M "P -1"
_symmetry_group_IT_number 2
_symmetry_cell_setting 'triclinic'
loop_
_space_group_symop_operation_xyz
x,y,z
-x,-y,-z
loop_
_atom_site_type_symbol
_atom_site_label
_atom_site_fract_x
_atom_site_fract_y
_atom_site_fract_z
Si Si1 0.888116 0.516859 0.935566
Si Si2 0.838157 0.072078 0.284101
Si Si3 0.831183 0.507733 0.444617
Si Si4 0.546500 0.695654 0.253165
Si Si5 0.754756 0.766429 0.840465
Si Si6 0.616769 0.423347 0.273798
Si Si7 0.190855 0.723921 0.363372
O O1 0.688469 0.607059 0.074523
O O2 0.869450 0.782158 0.053804
O O3 0.950345 0.264401 0.679108
O O4 0.000000 0.500000 0.000000
O O5 0.921160 0.182118 0.263749
O O6 0.610011 0.332874 0.503795
O O7 0.902135 0.063905 0.381035
O O8 0.718632 0.735168 0.708621
O O9 0.709124 0.536196 0.394973
O O10 0.014153 0.476115 0.357263
O O11 0.649607 0.454448 0.168499
O O12 0.352767 0.744333 0.303256
O O13 0.500000 0.000000 0.500000
O O14 0.693320 0.615101 0.829346
O O15 0.682607 0.100298 0.084804
#
# Coordination Sequence:
#
# PCOD9024686 Si02
#       7
#     2   2   2   2   2   2   2
#     4  12  26  43  69  97 129 176 223 265 327 383
#     4  10  23  43  63  97 133 167 219 268 320 396
#     4  10  22  40  65  98 133 163 212 271 331 377
#     4  11  24  48  64  96 133 173 222 267 317 393
#     4  10  23  41  65 101 127 167 215 268 330 386
#     4  11  22  39  69  91 133 170 214 267 322 385
#     4  10  23  45  70  90 136 169 215 273 322 384
#
# _framework density 26.557171
#
# number of rings (size 3 to 8) (size 9 to 14) (size 15 to 20)
#    0.000    1.429    2.857    2.143    4.000    8.000 
#    2.571    0.000    0.000    0.000    0.000    0.000 
#    0.000    0.000    0.000    0.000    0.000    0.000 
#
# Total GULP energy -78399.252604 kJ/mol
# GULP energy per Si atom -5599.946615 kJ/mol
# Density = 2.649673 g / cm^3
# Si number density = 26.557171 Si / 1000 Ang^3
#
#
#
# Elastic Constant Matrix: (Units=GPa)
#
#
# Indices 1 2 3 4 5 6 
#
# 1 159.6560 29.2479 28.5323 -14.5212 37.2272 0.4576
# 2 29.2479 77.1808 4.7042 1.6732 10.1746 17.6937
# 3 28.5323 4.7042 105.7091 15.0234 49.2785 2.9164
# 4 -14.5212 1.6732 15.0234 42.5943 6.5547 11.7775
# 5 37.2272 10.1746 49.2785 6.5547 48.3068 -5.8501
# 6 0.4576 17.6937 2.9164 11.7775 -5.8501 54.9892
#
#
#
# Elastic Compliance Matrix: (Units=1/GPa)
#
#
# Indices 1 2 3 4 5 6 
#
# 1 0.008734 -0.002150 0.000809 0.004308 -0.007830 -0.001180
# 2 -0.002150 0.015507 0.002094 0.000148 -0.004443 -0.005587
# 3 0.000809 0.002094 0.019305 -0.002472 -0.020833 -0.003391
# 4 0.004308 0.000148 -0.002472 0.028494 -0.005500 -0.006640
# 5 -0.007830 -0.004443 -0.020833 -0.005500 0.050781 0.009180
# 6 -0.001180 -0.005587 -0.003391 -0.006640 0.009180 0.022572
#
#
# Mechanical properties :
#
#
# Convention : Reuss Voigt Hill
#
# Bulk Modulus (GPa) = 22.19625 51.94609 37.07117
# Shear Modulus (GPa) = 31.46563 47.84883 39.65723
#
# Velocity S-wave (km/s) = 3.44586 4.24928 3.86849
# Velocity P-wave (km/s) = 4.92017 6.60892 5.82605
#
# Compressibility (1/GPa) = 0.04505266
#
# Stress axis : x y z
#
# Youngs Moduli (GPa) = 114.49902 64.48752 51.79977
#
# Poissons Ratio (x) = 0.13863 -0.04190
# Poissons Ratio (y) = 0.24614 -0.10848
# Poissons Ratio (z) = -0.09262 -0.13506
#
# Static dielectric constant tensor:
#      x y z
#    x 2.076890 -0.096210 -0.013770 
#    y -0.096210 2.215350 0.001950 
#    z -0.013770 0.001950 2.051160 
# 
# From -- ./inp_files/501133.got.cif
#   From: 2010.05.17/outbox.cif.g08.bks.cpg/sg2_251_cif.got.tgz:501133.got - 2010.06.03 11:33:40.
