data_PCOD9024879
_publ_section_title
;
Structure prediction by ZEFSAII (Michael W. Deem and Ramdas Pophale) SiO2 
 PCOD9024879
Probable space group: P -1
;
_chemical_formula_sum "Si O2"
_cell_formula_units_Z 16
_cell_length_a 13.926388
_cell_length_b 11.901839
_cell_length_c 13.821141
_cell_angle_alpha 116.622131
_cell_angle_beta 138.811876
_cell_angle_gamma 31.332066
_cell_volume 645.327342
_symmetry_space_group_name_H-M "P -1"
_symmetry_group_IT_number 2
_symmetry_cell_setting 'triclinic'
loop_
_space_group_symop_operation_xyz
x,y,z
-x,-y,-z
loop_
_atom_site_type_symbol
_atom_site_label
_atom_site_fract_x
_atom_site_fract_y
_atom_site_fract_z
Si Si1 0.331861 0.684607 0.629294
Si Si2 0.483514 0.226126 0.099283
Si Si3 0.494696 0.679716 0.494348
Si Si4 0.777767 0.486518 0.158775
Si Si5 0.621896 0.852800 0.272207
Si Si6 0.050508 0.766238 0.619209
Si Si7 0.120490 0.273090 0.886119
Si Si8 0.406431 0.941619 0.355000
O O1 0.530469 0.657216 0.786938
O O2 0.446572 0.507568 0.564503
O O3 0.287567 0.627347 0.665128
O O4 0.000000 0.000000 0.500000
O O5 0.749338 0.921413 0.173257
O O6 0.507281 0.282679 0.038142
O O7 0.188696 0.362358 0.937221
O O8 0.503815 0.758541 0.433238
O O9 0.764797 0.519825 0.708019
O O10 0.176464 0.951562 0.409410
O O11 0.828836 0.591583 0.274513
O O12 0.762827 0.419341 0.217907
O O13 0.040108 0.226251 0.192624
O O14 0.821644 0.826165 0.434929
O O15 0.518586 0.867744 0.301173
O O16 0.330871 0.097426 0.074248
O O17 0.500000 0.000000 0.500000
#
# Coordination Sequence:
#
# PCOD9024879 Si02
#       8
#     2   2   2   2   2   2   2   2
#     4  12  25  45  66  91 135 183 213 263 340 391
#     4  10  22  42  67  97 130 174 220 271 329 387
#     4  11  24  44  70  99 134 171 220 278 318 397
#     4  10  22  40  66  94 132 169 218 276 319 388
#     4  11  22  38  64 101 132 169 214 273 331 379
#     4  11  25  39  65 101 129 173 223 261 333 397
#     4  10  22  41  68 101 129 165 225 277 324 381
#     4  11  21  39  64 101 133 169 216 270 333 375
#
# _framework density 24.793619
#
# number of rings (size 3 to 8) (size 9 to 14) (size 15 to 20)
#    0.000    1.250    3.750    2.625    5.250    1.500 
#    2.250    3.750    0.000    0.000    0.000    0.000 
#    0.000    0.000    0.000    0.000    0.000    0.000 
#
# Total GULP energy -89456.883281 kJ/mol
# GULP energy per Si atom -5591.055205 kJ/mol
# Density = 2.473719 g / cm^3
# Si number density = 24.793619 Si / 1000 Ang^3
#
#
#
# Elastic Constant Matrix: (Units=GPa)
#
#
# Indices 1 2 3 4 5 6 
#
# 1 134.3405 47.5429 49.5644 12.2425 -23.2337 -13.7467
# 2 47.5429 142.5978 41.8460 24.7086 -0.1149 5.3229
# 3 49.5644 41.8460 69.2890 5.0766 -16.9360 6.4116
# 4 12.2425 24.7086 5.0766 28.4525 7.9476 -8.2946
# 5 -23.2337 -0.1149 -16.9360 7.9476 34.6097 0.1212
# 6 -13.7467 5.3229 6.4116 -8.2946 0.1212 30.7111
#
#
#
# Elastic Compliance Matrix: (Units=1/GPa)
#
#
# Indices 1 2 3 4 5 6 
#
# 1 0.012537 -0.002092 -0.006872 -0.001867 0.005451 0.006883
# 2 -0.002092 0.010545 -0.004265 -0.008259 -0.001546 -0.004098
# 3 -0.006872 -0.004265 0.024847 -0.002435 0.008119 -0.008214
# 4 -0.001867 -0.008259 -0.002435 0.052035 -0.014475 0.015215
# 5 0.005451 -0.001546 0.008119 -0.014475 0.039855 -0.003054
# 6 0.006883 -0.004098 -0.008214 0.015215 -0.003054 0.042189
#
#
# Mechanical properties :
#
#
# Convention : Reuss Voigt Hill
#
# Bulk Modulus (GPa) = 46.57786 69.34822 57.96304
# Shear Modulus (GPa) = 23.18853 32.57292 27.88072
#
# Velocity S-wave (km/s) = 3.06152 3.62852 3.35701
# Velocity P-wave (km/s) = 5.59681 6.75172 6.20121
#
# Compressibility (1/GPa) = 0.02146943
#
# Stress axis : x y z
#
# Youngs Moduli (GPa) = 79.76428 94.83429 40.24615
#
# Poissons Ratio (x) = 0.19841 0.27658
# Poissons Ratio (y) = 0.16688 0.17166
# Poissons Ratio (z) = 0.54816 0.40449
#
# Static dielectric constant tensor:
#      x y z
#    x 2.048310 0.011030 0.045580 
#    y 0.011030 1.966580 -0.035190 
#    z 0.045580 -0.035190 2.210330 
# 
# From -- ./inp_files/532619.got.cif
#   From: 2010.05.17/outbox.cif.g08.bks.cpg/sg2_267_cif.got.tgz:532619.got - 2010.06.03 11:33:40.
