data_PCOD9024262
_publ_section_title
;
Structure prediction by ZEFSAII (Michael W. Deem and Ramdas Pophale) SiO2 
 PCOD9024262
Probable space group: P -1
;
_chemical_formula_sum "Si O2"
_cell_formula_units_Z 16
_cell_length_a 8.648840
_cell_length_b 19.890602
_cell_length_c 22.614316
_cell_angle_alpha 21.931455
_cell_angle_beta 28.256796
_cell_angle_gamma 30.532125
_cell_volume 666.009445
_symmetry_space_group_name_H-M "P -1"
_symmetry_group_IT_number 2
_symmetry_cell_setting 'triclinic'
loop_
_space_group_symop_operation_xyz
x,y,z
-x,-y,-z
loop_
_atom_site_type_symbol
_atom_site_label
_atom_site_fract_x
_atom_site_fract_y
_atom_site_fract_z
Si Si1 0.000189 0.043256 0.653874
Si Si2 0.345588 0.928001 0.016286
Si Si3 0.250844 0.730463 0.088520
Si Si4 0.345845 0.411983 0.760941
Si Si5 0.745953 0.199465 0.484068
Si Si6 0.098735 0.556288 0.603107
Si Si7 0.586948 0.848484 0.778478
Si Si8 0.258996 0.700060 0.905651
O O1 0.913370 0.100075 0.569102
O O2 0.055150 0.224509 0.520184
O O3 0.663048 0.009466 0.825981
O O4 0.278211 0.847958 0.727329
O O5 0.284150 0.802885 0.083581
O O6 0.389757 0.786474 0.172292
O O7 0.034956 0.105327 0.979541
O O8 0.115004 0.547281 0.280868
O O9 0.568897 0.726825 0.942306
O O10 0.453832 0.592959 0.599147
O O11 0.113486 0.475179 0.730692
O O12 0.092994 0.353958 0.939750
O O13 0.050617 0.209225 0.329409
O O14 0.540391 0.062577 0.638106
O O15 0.500000 0.500000 0.500000
O O16 0.313406 0.815163 0.851210
O O17 0.500000 0.500000 0.000000
#
# Coordination Sequence:
#
# PCOD9024262 Si02
#       8
#     2   2   2   2   2   2   2   2
#     4  10  22  41  64  91 125 163 203 256 314 360
#     4  10  22  40  64  91 122 171 200 250 316 367
#     4  11  22  40  64  91 129 162 209 249 306 377
#     4  10  22  40  64  88 128 162 203 254 316 362
#     4  10  22  42  62  89 127 160 205 261 305 360
#     4  11  22  39  63  94 123 158 208 261 301 362
#     4  11  22  39  63  91 123 162 205 256 303 363
#     4  11  22  41  63  91 123 162 206 251 308 372
#
# _framework density 24.023683999999999
#
# number of rings (size 3 to 8) (size 9 to 14) (size 15 to 20)
#    0.000    1.500    5.000    0.000    0.000    3.000 
#    0.000    5.000    0.000    0.000    0.000    0.000 
#    0.000    0.000    0.000    0.000    0.000    0.000 
#
# Total GULP energy -89349.658200 kJ/mol
# GULP energy per Si atom -5584.353638 kJ/mol
# Density = 2.396901 g / cm^3
# Si number density = 24.023684 Si / 1000 Ang^3
#
#
#
# Elastic Constant Matrix: (Units=GPa)
#
#
# Indices 1 2 3 4 5 6 
#
# 1 45.0789 14.4738 39.9363 -23.4559 -20.4849 12.4633
# 2 14.4738 61.9474 43.7136 -14.5754 4.0317 -5.3380
# 3 39.9363 43.7136 140.3428 -28.0573 -21.3292 7.9917
# 4 -23.4559 -14.5754 -28.0573 44.9529 5.9024 6.3979
# 5 -20.4849 4.0317 -21.3292 5.9024 53.8999 -11.5459
# 6 12.4633 -5.3380 7.9917 6.3979 -11.5459 28.2771
#
#
#
# Elastic Compliance Matrix: (Units=1/GPa)
#
#
# Indices 1 2 3 4 5 6 
#
# 1 0.053019 -0.005504 -0.005503 0.024490 0.010543 -0.024089
# 2 -0.005504 0.023133 -0.006762 0.000140 -0.005102 0.006589
# 3 -0.005503 -0.006762 0.011693 0.002145 0.002456 -0.001638
# 4 0.024490 0.000140 0.002145 0.038959 0.001704 -0.019493
# 5 0.010543 -0.005102 0.002456 0.001704 0.024430 0.003286
# 6 -0.024089 0.006589 -0.001638 -0.019493 0.003286 0.053440
#
#
# Mechanical properties :
#
#
# Convention : Reuss Voigt Hill
#
# Bulk Modulus (GPa) = 19.11781 49.29072 34.20427
# Shear Modulus (GPa) = 19.40631 35.37566 27.39098
#
# Velocity S-wave (km/s) = 2.84526 3.84152 3.38030
# Velocity P-wave (km/s) = 4.33234 6.34338 5.43174
#
# Compressibility (1/GPa) = 0.05230723
#
# Stress axis : x y z
#
# Youngs Moduli (GPa) = 18.86106 43.22823 85.52319
#
# Poissons Ratio (x) = 0.23795 0.47062
# Poissons Ratio (y) = 0.10382 0.57827
# Poissons Ratio (z) = 0.10379 0.29229
#
# Static dielectric constant tensor:
#      x y z
#    x 1.932150 -0.023590 0.063610 
#    y -0.023590 2.134420 0.050730 
#    z 0.063610 0.050730 1.966150 
# 
# From -- ./inp_files/299319.got.cif
#   From: 2010.05.17/outbox.cif.g08.bks.cpg/sg2_150_cif.got.tgz:299319.got - 2010.06.03 11:33:40.
