data_PCOD9024723
_publ_section_title
;
Structure prediction by ZEFSAII (Michael W. Deem and Ramdas Pophale) SiO2 
 PCOD9024723
Probable space group: P -1
;
_chemical_formula_sum "Si O2"
_cell_formula_units_Z 15
_cell_length_a 6.864811
_cell_length_b 12.898262
_cell_length_c 15.445418
_cell_angle_alpha 44.722620
_cell_angle_beta 134.928313
_cell_angle_gamma 107.489445
_cell_volume 623.264823
_symmetry_space_group_name_H-M "P -1"
_symmetry_group_IT_number 2
_symmetry_cell_setting 'triclinic'
loop_
_space_group_symop_operation_xyz
x,y,z
-x,-y,-z
loop_
_atom_site_type_symbol
_atom_site_label
_atom_site_fract_x
_atom_site_fract_y
_atom_site_fract_z
Si Si1 0.440314 0.137464 0.656663
Si Si2 0.596629 0.282658 0.472567
Si Si3 0.837078 0.863204 0.656185
Si Si4 0.262610 0.154656 0.783945
Si Si5 0.577267 0.617596 0.203621
Si Si6 0.090468 0.176151 0.093987
Si Si7 0.000000 0.000000 0.500000
Si Si8 0.492329 0.342229 0.048735
O O1 0.467891 0.286208 0.526843
O O2 0.399899 0.164555 0.728746
O O3 0.737507 0.978847 0.819375
O O4 0.171600 0.096547 0.557406
O O5 0.357677 0.234158 0.374138
O O6 0.617303 0.440016 0.346722
O O7 0.940506 0.152653 0.662228
O O8 0.887862 0.854339 0.777989
O O9 0.730348 0.031423 0.473551
O O10 0.170828 0.801736 0.747950
O O11 0.194716 0.312623 0.727547
O O12 0.500000 0.000000 0.000000
O O13 0.558040 0.636820 0.082308
O O14 0.265232 0.734132 0.081667
O O15 0.245714 0.296382 0.044413
O O16 0.500000 0.500000 0.000000
#
# Coordination Sequence:
#
# PCOD9024723 Si02
#       8
#     2   2   2   2   2   2   1   2
#     4  11  26  43  71 105 136 185 237 287 350 414
#     4  11  26  45  69 103 138 185 233 298 344 416
#     4  10  23  41  67 108 140 178 230 285 358 412
#     4  12  28  48  72  98 141 191 242 287 342 418
#     4  11  26  46  70 103 143 187 236 286 349 418
#     4  11  23  42  73 101 145 185 227 294 347 418
#     4  10  22  40  66 100 140 168 228 286 344 398
#     4  11  22  41  70 103 141 184 229 283 353 421
#
# _framework density 24.066814999999998
#
# number of rings (size 3 to 8) (size 9 to 14) (size 15 to 20)
#    0.000    1.067    1.333    3.600    5.600   10.133 
#    0.000    0.000    0.000    0.000    0.000    0.000 
#    0.000    0.000    0.000    0.000    0.000    0.000 
#
# Total GULP energy -83737.460742 kJ/mol
# GULP energy per Si atom -5582.497383 kJ/mol
# Density = 2.401204 g / cm^3
# Si number density = 24.066815 Si / 1000 Ang^3
#
#
#
# Elastic Constant Matrix: (Units=GPa)
#
#
# Indices 1 2 3 4 5 6 
#
# 1 99.3480 49.2893 31.9528 9.6640 -38.5521 -2.7225
# 2 49.2893 115.7835 31.2545 3.2278 -27.4774 9.2152
# 3 31.9528 31.2545 88.4447 14.5046 -27.1527 4.6195
# 4 9.6640 3.2278 14.5046 32.5411 3.6121 -13.9578
# 5 -38.5521 -27.4774 -27.1527 3.6121 52.4085 5.9300
# 6 -2.7225 9.2152 4.6195 -13.9578 5.9300 41.9101
#
#
#
# Elastic Compliance Matrix: (Units=1/GPa)
#
#
# Indices 1 2 3 4 5 6 
#
# 1 0.017048 -0.004342 -0.000170 -0.006437 0.010800 -0.001591
# 2 -0.004342 0.011820 -0.001420 -0.001035 0.002730 -0.003456
# 3 -0.000170 -0.001420 0.016970 -0.011281 0.009454 -0.006664
# 4 -0.006437 -0.001035 -0.011281 0.047923 -0.016617 0.019364
# 5 0.010800 0.002730 0.009454 -0.016617 0.035805 -0.011541
# 6 -0.001591 -0.003456 -0.006664 0.019364 -0.011541 0.033334
#
#
# Mechanical properties :
#
#
# Convention : Reuss Voigt Hill
#
# Bulk Modulus (GPa) = 29.43484 58.72992 44.08238
# Shear Modulus (GPa) = 26.86858 38.11059 32.48958
#
# Velocity S-wave (km/s) = 3.34491 3.98368 3.67819
# Velocity P-wave (km/s) = 5.21295 6.75392 6.03284
#
# Compressibility (1/GPa) = 0.03397335
#
# Stress axis : x y z
#
# Youngs Moduli (GPa) = 58.65733 84.59950 58.92674
#
# Poissons Ratio (x) = 0.36737 0.01003
# Poissons Ratio (y) = 0.25472 0.08368
# Poissons Ratio (z) = 0.00998 0.12013
#
# Static dielectric constant tensor:
#      x y z
#    x 2.370380 0.250340 -0.942160 
#    y 0.250340 2.093740 -0.632080 
#    z -0.942160 -0.632080 4.514120 
# 
# From -- ./inp_files/484316.got.cif
#   From: 2010.05.17/outbox.cif.g08.bks.cpg/sg2_243_cif.got.tgz:484316.got - 2010.06.03 11:33:40.
