data_PCOD9024919
_publ_section_title
;
Structure prediction by ZEFSAII (Michael W. Deem and Ramdas Pophale) SiO2 
 PCOD9024919
Probable space group: P -1
;
_chemical_formula_sum "Si O2"
_cell_formula_units_Z 12
_cell_length_a 6.958380
_cell_length_b 8.721715
_cell_length_c 9.120684
_cell_angle_alpha 105.110268
_cell_angle_beta 84.547028
_cell_angle_gamma 103.555224
_cell_volume 519.162374
_symmetry_space_group_name_H-M "P -1"
_symmetry_group_IT_number 2
_symmetry_cell_setting 'triclinic'
loop_
_space_group_symop_operation_xyz
x,y,z
-x,-y,-z
loop_
_atom_site_type_symbol
_atom_site_label
_atom_site_fract_x
_atom_site_fract_y
_atom_site_fract_z
Si Si1 0.784682 0.970785 0.080373
Si Si2 0.119481 0.915609 0.585989
Si Si3 0.669470 0.285610 0.683221
Si Si4 0.391032 0.752703 0.988655
Si Si5 0.798106 0.603869 0.605647
Si Si6 0.378784 0.499428 0.703352
O O1 0.798187 0.972929 0.255201
O O2 0.689430 0.120760 0.074939
O O3 0.629199 0.810900 0.997376
O O4 0.000000 0.000000 0.000000
O O5 0.280606 0.844732 0.465262
O O6 0.965647 0.763585 0.632047
O O7 0.000000 0.000000 0.500000
O O8 0.814995 0.459926 0.679594
O O9 0.460997 0.336943 0.682554
O O10 0.685671 0.239122 0.838476
O O11 0.325440 0.576332 0.876055
O O12 0.575716 0.627555 0.661738
O O13 0.773919 0.529687 0.424843
#
# Coordination Sequence:
#
# PCOD9024919 Si02
#       6
#     2   2   2   2   2   2
#     4  11  26  44  66  96 140 173 215 264 335 391
#     4  12  25  42  65  96 135 171 219 268 326 395
#     4  10  22  40  66  96 123 172 219 267 326 371
#     4  11  23  44  68  98 132 174 216 273 323 393
#     4   9  21  40  65  94 128 165 220 270 321 378
#     4   9  20  40  68  91 129 164 223 268 326 372
#
# _framework density 23.114156000000001
#
# number of rings (size 3 to 8) (size 9 to 14) (size 15 to 20)
#    1.000    0.667    0.000    4.000    2.333    2.000 
#    0.000    1.667    0.000    0.000    0.000    0.000 
#    0.000    0.000    0.000    0.000    0.000    0.000 
#
# Total GULP energy -67051.622442 kJ/mol
# GULP energy per Si atom -5587.635204 kJ/mol
# Density = 2.306155 g / cm^3
# Si number density = 23.114156 Si / 1000 Ang^3
#
#
#
# Elastic Constant Matrix: (Units=GPa)
#
#
# Indices 1 2 3 4 5 6 
#
# 1 56.8686 17.3168 13.3416 -2.1578 -2.5947 13.8800
# 2 17.3168 67.4979 21.9980 -11.1309 5.0485 4.2740
# 3 13.3416 21.9980 127.6327 -5.9413 7.7848 5.0916
# 4 -2.1578 -11.1309 -5.9413 36.1112 -6.5107 5.7813
# 5 -2.5947 5.0485 7.7848 -6.5107 30.2541 1.5141
# 6 13.8800 4.2740 5.0916 5.7813 1.5141 30.2725
#
#
#
# Elastic Compliance Matrix: (Units=1/GPa)
#
#
# Indices 1 2 3 4 5 6 
#
# 1 0.021899 -0.004557 -0.001260 0.001956 0.003872 -0.009753
# 2 -0.004557 0.017650 -0.002212 0.004625 -0.001730 -0.000827
# 3 -0.001260 -0.002212 0.008498 0.000398 -0.001814 -0.000525
# 4 0.001956 0.004625 0.000398 0.031759 0.006529 -0.008009
# 5 0.003872 -0.001730 -0.001814 0.006529 0.035759 -0.004261
# 6 -0.009753 -0.000827 -0.000525 -0.008009 -0.004261 0.039452
#
#
# Mechanical properties :
#
#
# Convention : Reuss Voigt Hill
#
# Bulk Modulus (GPa) = 31.26064 39.70133 35.48098
# Shear Modulus (GPa) = 27.51216 32.61708 30.06462
#
# Velocity S-wave (km/s) = 3.45378 3.76058 3.61044
# Velocity P-wave (km/s) = 5.42758 6.00578 5.72398
#
# Compressibility (1/GPa) = 0.03198911
#
# Stress axis : x y z
#
# Youngs Moduli (GPa) = 45.66465 56.65819 117.67524
#
# Poissons Ratio (x) = 0.25820 0.14824
# Poissons Ratio (y) = 0.20810 0.26028
# Poissons Ratio (z) = 0.05752 0.12532
#
# Static dielectric constant tensor:
#      x y z
#    x 1.901930 0.014550 -0.032230 
#    y 0.014550 1.877850 0.002580 
#    z -0.032230 0.002580 1.841000 
# 
# From -- ./inp_files/155458.got.cif
#   From: 2010.05.17/outbox.cif.g08.bks.cpg/sg2_78_cif.got.tgz:155458.got - 2010.06.03 11:33:40.
