data_PCOD9024602
_publ_section_title
;
Structure prediction by ZEFSAII (Michael W. Deem and Ramdas Pophale) SiO2 
 PCOD9024602
Probable space group: P -1
;
_chemical_formula_sum "Si O2"
_cell_formula_units_Z 13
_cell_length_a 5.912377
_cell_length_b 23.721614
_cell_length_c 4.996026
_cell_angle_alpha 59.415352
_cell_angle_beta 82.974329
_cell_angle_gamma 56.893008
_cell_volume 493.381932
_symmetry_space_group_name_H-M "P -1"
_symmetry_group_IT_number 2
_symmetry_cell_setting 'triclinic'
loop_
_space_group_symop_operation_xyz
x,y,z
-x,-y,-z
loop_
_atom_site_type_symbol
_atom_site_label
_atom_site_fract_x
_atom_site_fract_y
_atom_site_fract_z
Si Si1 0.129482 0.830670 0.021552
Si Si2 0.500000 0.500000 0.000000
Si Si3 0.926504 0.656216 0.876709
Si Si4 0.297179 0.940597 0.739027
Si Si5 0.854642 0.317700 0.708108
Si Si6 0.222744 0.086218 0.636376
Si Si7 0.698012 0.563627 0.279389
O O1 0.229538 0.740449 0.231519
O O2 0.868230 0.876613 0.149033
O O3 0.312790 0.862474 0.008799
O O4 0.033576 0.859747 0.660863
O O5 0.206741 0.569430 0.016692
O O6 0.339166 0.473164 0.886924
O O7 0.920155 0.691085 0.507392
O O8 0.999616 0.698141 0.988874
O O9 0.692522 0.642122 0.018541
O O10 0.529204 0.918275 0.540760
O O11 0.293612 0.997263 0.829273
O O12 0.000000 0.000000 0.500000
O O13 0.562450 0.406730 0.547410
O O14 0.000000 0.500000 0.500000
#
# Coordination Sequence:
#
# PCOD9024602 Si02
#       7
#     2   1   2   2   2   2   2
#     4  11  23  41  62  93 135 176 218 274 333 399
#     4  10  22  42  68  98 126 164 226 282 338 414
#     4  11  23  43  66  94 131 172 218 279 343 405
#     4   9  21  40  66  96 127 169 222 277 328 389
#     4  11  26  42  63  98 137 177 230 277 337 421
#     4  10  22  40  65  94 128 172 224 273 331 396
#     4  11  24  45  73 101 135 180 230 291 352 408
#
# _framework density 26.348755000000001
#
# number of rings (size 3 to 8) (size 9 to 14) (size 15 to 20)
#    0.000    1.538    0.000    3.692    0.000   16.615 
#    0.000    2.308    0.000    0.000    0.000    0.000 
#    0.000    0.000    0.000    0.000    0.000    0.000 
#
# Total GULP energy -72630.768920 kJ/mol
# GULP energy per Si atom -5586.982225 kJ/mol
# Density = 2.628878 g / cm^3
# Si number density = 26.348755 Si / 1000 Ang^3
#
#
#
# Elastic Constant Matrix: (Units=GPa)
#
#
# Indices 1 2 3 4 5 6 
#
# 1 98.4561 43.5168 7.0746 6.5229 -20.0418 18.1415
# 2 43.5168 142.6641 32.2193 8.1048 -11.2761 31.0729
# 3 7.0746 32.2193 60.8617 22.9689 -7.6777 2.7110
# 4 6.5229 8.1048 22.9689 46.6093 8.2360 -6.3264
# 5 -20.0418 -11.2761 -7.6777 8.2360 52.6041 -2.9527
# 6 18.1415 31.0729 2.7110 -6.3264 -2.9527 37.8757
#
#
#
# Elastic Compliance Matrix: (Units=1/GPa)
#
#
# Indices 1 2 3 4 5 6 
#
# 1 0.013479 -0.003063 0.002450 -0.004081 0.005229 -0.004393
# 2 -0.003063 0.010539 -0.004973 0.000130 -0.000036 -0.006804
# 3 0.002450 -0.004973 0.024139 -0.012375 0.005301 -0.000475
# 4 -0.004081 0.000130 -0.012375 0.030441 -0.007694 0.007219
# 5 0.005229 -0.000036 0.005301 -0.007694 0.022840 -0.002359
# 6 -0.004393 -0.006804 -0.000475 0.007219 -0.002359 0.035144
#
#
# Mechanical properties :
#
#
# Convention : Reuss Voigt Hill
#
# Bulk Modulus (GPa) = 27.03870 51.95592 39.49731
# Shear Modulus (GPa) = 31.23402 42.02924 36.63163
#
# Velocity S-wave (km/s) = 3.44671 3.99822 3.73266
# Velocity P-wave (km/s) = 5.11115 6.40903 5.79653
#
# Compressibility (1/GPa) = 0.03698403
#
# Stress axis : x y z
#
# Youngs Moduli (GPa) = 74.19122 94.88879 41.42695
#
# Poissons Ratio (x) = 0.29063 -0.10151
# Poissons Ratio (y) = 0.22724 0.20604
# Poissons Ratio (z) = -0.18179 0.47193
#
# Static dielectric constant tensor:
#      x y z
#    x 1.018920 0.258040 -0.054200 
#    y 0.258040 1.914420 -0.015860 
#    z -0.054200 -0.015860 1.854190 
# 
# From -- ./inp_files/8745.got.cif
#   From: 2010.05.17/outbox.cif.g08.bks.cpg/sg2_5_cif.got.tgz:8745.got - 2010.06.03 11:33:40.
