data_PCOD9024749
_publ_section_title
;
Structure prediction by ZEFSAII (Michael W. Deem and Ramdas Pophale) SiO2 
 PCOD9024749
Probable space group: P -1
;
_chemical_formula_sum "Si O2"
_cell_formula_units_Z 14
_cell_length_a 5.082609
_cell_length_b 21.541708
_cell_length_c 12.309775
_cell_angle_alpha 150.834063
_cell_angle_beta 119.867589
_cell_angle_gamma 69.979446
_cell_volume 555.773384
_symmetry_space_group_name_H-M "P -1"
_symmetry_group_IT_number 2
_symmetry_cell_setting 'triclinic'
loop_
_space_group_symop_operation_xyz
x,y,z
-x,-y,-z
loop_
_atom_site_type_symbol
_atom_site_label
_atom_site_fract_x
_atom_site_fract_y
_atom_site_fract_z
Si Si1 0.297011 0.361757 0.282588
Si Si2 0.269403 0.297589 0.946377
Si Si3 0.655472 0.182347 0.560147
Si Si4 0.606340 0.454921 0.071010
Si Si5 0.047837 0.680153 0.636068
Si Si6 0.626344 0.951857 0.345478
Si Si7 0.712604 0.904754 0.850979
O O1 0.500000 0.500000 0.500000
O O2 0.068168 0.373129 0.350117
O O3 0.578562 0.288614 0.258720
O O4 0.124229 0.318568 0.066872
O O5 0.479280 0.202981 0.893726
O O6 0.027619 0.208021 0.678226
O O7 0.402206 0.424413 0.094712
O O8 0.510512 0.186876 0.420564
O O9 0.526620 0.036891 0.358252
O O10 0.617618 0.305718 0.812904
O O11 0.890032 0.570859 0.347324
O O12 0.500000 0.500000 0.000000
O O13 0.888768 0.805179 0.794574
O O14 0.500000 0.000000 0.500000
O O15 0.000000 0.000000 0.500000
O O16 0.500000 0.000000 0.000000
O O17 0.000000 0.000000 0.000000
#
# Coordination Sequence:
#
# PCOD9024749 Si02
#       7
#     2   2   2   2   2   2   2
#     4  12  26  47  75 111 159 201 250 313 389 466
#     4  11  26  44  75 109 150 195 251 319 381 451
#     4  11  26  48  74 111 148 195 258 313 384 447
#     4  12  25  46  75 111 151 198 253 318 375 459
#     4  12  28  49  76 114 155 206 257 313 391 458
#     4  10  22  40  66 102 140 180 235 299 367 430
#     4  12  30  53  76 107 155 207 257 314 384 464
#
# _framework density 25.190124000000001
#
# number of rings (size 3 to 8) (size 9 to 14) (size 15 to 20)
#    0.000    0.571    4.286    2.143    8.000    1.714 
#    0.000    0.000    0.000    0.000    0.000    0.000 
#    0.000    0.000    0.000    0.000    0.000    0.000 
#
# Total GULP energy -77967.625244 kJ/mol
# GULP energy per Si atom -5569.116089 kJ/mol
# Density = 2.513279 g / cm^3
# Si number density = 25.190124 Si / 1000 Ang^3
#
#
#
# Elastic Constant Matrix: (Units=GPa)
#
#
# Indices 1 2 3 4 5 6 
#
# 1 129.3647 36.3364 37.0414 -0.5092 -9.0341 -4.1941
# 2 36.3364 143.3330 26.7723 19.3159 2.9730 -3.5863
# 3 37.0414 26.7723 104.8796 -20.2449 0.5139 -6.4667
# 4 -0.5092 19.3159 -20.2449 56.2230 -4.9612 -1.8477
# 5 -9.0341 2.9730 0.5139 -4.9612 42.4503 4.9627
# 6 -4.1941 -3.5863 -6.4667 -1.8477 4.9627 34.1713
#
#
#
# Elastic Compliance Matrix: (Units=1/GPa)
#
#
# Indices 1 2 3 4 5 6 
#
# 1 0.009198 -0.001834 -0.002806 -0.000109 0.002096 0.000095
# 2 -0.001834 0.008405 -0.002213 -0.003819 -0.001426 0.000239
# 3 -0.002806 -0.002213 0.012218 0.005182 -0.000224 0.002048
# 4 -0.000109 -0.003819 0.005182 0.021229 0.002505 0.001351
# 5 0.002096 -0.001426 -0.000224 0.002505 0.024796 -0.003400
# 6 0.000095 0.000239 0.002048 0.001351 -0.003400 0.030256
#
#
# Mechanical properties :
#
#
# Convention : Reuss Voigt Hill
#
# Bulk Modulus (GPa) = 62.05340 64.20861 63.13100
# Shear Modulus (GPa) = 39.94254 45.06406 42.50330
#
# Velocity S-wave (km/s) = 3.98633 4.23420 4.11213
# Velocity P-wave (km/s) = 6.77313 7.03203 6.90380
#
# Compressibility (1/GPa) = 0.01611515
#
# Stress axis : x y z
#
# Youngs Moduli (GPa) = 108.72376 118.97077 81.84403
#
# Poissons Ratio (x) = 0.21820 0.22962
# Poissons Ratio (y) = 0.19941 0.18115
# Poissons Ratio (z) = 0.30504 0.26333
#
# Static dielectric constant tensor:
#      x y z
#    x 2.182510 -0.135940 -0.191660 
#    y -0.135940 2.135280 0.158680 
#    z -0.191660 0.158680 2.582110 
# 
# From -- ./inp_files/370580.got.cif
#   From: 2010.05.17/outbox.cif.g08.bks.cpg/sg2_186_cif.got.tgz:370580.got - 2010.06.03 11:33:40.
