data_PCOD9024498
_publ_section_title
;
Structure prediction by ZEFSAII (Michael W. Deem and Ramdas Pophale) SiO2 
 PCOD9024498
Probable space group: P -1
;
_chemical_formula_sum "Si O2"
_cell_formula_units_Z 13
_cell_length_a 5.530383
_cell_length_b 10.903820
_cell_length_c 10.366549
_cell_angle_alpha 90.952647
_cell_angle_beta 112.897663
_cell_angle_gamma 67.010440
_cell_volume 523.335529
_symmetry_space_group_name_H-M "P -1"
_symmetry_group_IT_number 2
_symmetry_cell_setting 'triclinic'
loop_
_space_group_symop_operation_xyz
x,y,z
-x,-y,-z
loop_
_atom_site_type_symbol
_atom_site_label
_atom_site_fract_x
_atom_site_fract_y
_atom_site_fract_z
Si Si1 0.428721 0.974860 0.200567
Si Si2 0.642865 0.312800 0.106617
Si Si3 0.359542 0.775052 0.376779
Si Si4 0.689003 0.416046 0.838674
Si Si5 0.735367 0.819818 0.024805
Si Si6 0.000000 0.000000 0.500000
Si Si7 0.780535 0.827592 0.638295
O O1 0.486895 0.065239 0.326622
O O2 0.330301 0.872605 0.250117
O O3 0.676956 0.889537 0.151951
O O4 0.198332 0.086493 0.061625
O O5 0.440808 0.424883 0.167469
O O6 0.967640 0.273102 0.221031
O O7 0.587208 0.367760 0.949079
O O8 0.555960 0.187794 0.085663
O O9 0.382243 0.639071 0.310218
O O10 0.652164 0.756531 0.511299
O O11 0.119347 0.856545 0.433121
O O12 0.031625 0.331859 0.919327
O O13 0.094216 0.077988 0.404556
#
# Coordination Sequence:
#
# PCOD9024498 Si02
#       7
#     2   2   2   2   2   1   2
#     4  10  22  40  65 102 132 162 213 280 338 385
#     4  11  25  45  68  93 131 179 225 269 319 390
#     4  11  25  42  64 102 134 173 214 274 329 396
#     4  11  25  45  68  93 131 179 225 269 319 390
#     4  11  23  40  70 100 129 169 220 280 332 389
#     4  10  24  40  70  92 142 170 214 266 340 382
#     4  11  25  42  64 102 134 173 214 274 329 396
#
# _framework density 24.840661000000001
#
# number of rings (size 3 to 8) (size 9 to 14) (size 15 to 20)
#    0.000    1.231    3.077    2.308    8.615    5.538 
#    0.000    0.769    0.000    0.000    0.000    0.000 
#    0.000    0.000    0.000    0.000    0.000    0.000 
#
# Total GULP energy -72482.575128 kJ/mol
# GULP energy per Si atom -5575.582702 kJ/mol
# Density = 2.478412 g / cm^3
# Si number density = 24.840661 Si / 1000 Ang^3
#
#
#
# Elastic Constant Matrix: (Units=GPa)
#
#
# Indices 1 2 3 4 5 6 
#
# 1 45.0348 14.9779 35.4875 19.2444 -5.1762 -4.4830
# 2 14.9779 102.1098 48.0257 44.9191 5.2643 -27.1882
# 3 35.4875 48.0257 106.1855 44.7007 4.4404 -9.0307
# 4 19.2444 44.9191 44.7007 51.2245 -2.1291 -4.5607
# 5 -5.1762 5.2643 4.4404 -2.1291 51.5668 6.8776
# 6 -4.4830 -27.1882 -9.0307 -4.5607 6.8776 36.0689
#
#
#
# Elastic Compliance Matrix: (Units=1/GPa)
#
#
# Indices 1 2 3 4 5 6 
#
# 1 0.031735 0.002790 -0.009314 -0.005899 0.003143 0.002370
# 2 0.002790 0.022573 -0.002146 -0.017787 -0.004636 0.015460
# 3 -0.009314 -0.002146 0.018099 -0.010444 -0.002836 0.000977
# 4 -0.005899 -0.017787 -0.010444 0.045609 0.005614 -0.012059
# 5 0.003143 -0.004636 -0.002836 0.005614 0.021621 -0.007227
# 6 0.002370 0.015460 0.000977 -0.012059 -0.007227 0.039770
#
#
# Mechanical properties :
#
#
# Convention : Reuss Voigt Hill
#
# Bulk Modulus (GPa) = 18.15949 50.03470 34.09709
# Shear Modulus (GPa) = 23.24469 38.09466 30.66968
#
# Velocity S-wave (km/s) = 3.06232 3.92032 3.51758
# Velocity P-wave (km/s) = 4.45309 6.37792 5.50036
#
# Compressibility (1/GPa) = 0.05506763
#
# Stress axis : x y z
#
# Youngs Moduli (GPa) = 31.51117 44.30028 55.25150
#
# Poissons Ratio (x) = -0.12360 0.51462
# Poissons Ratio (y) = -0.08792 0.11855
# Poissons Ratio (z) = 0.29350 0.09505
#
# Static dielectric constant tensor:
#      x y z
#    x 1.324570 0.079340 -0.536120 
#    y 0.079340 1.933720 0.091920 
#    z -0.536120 0.091920 1.481820 
# 
# From -- ./inp_files/131866.got.cif
#   From: 2010.05.17/outbox.cif.g08.bks.cpg/sg2_66_cif.got.tgz:131866.got - 2010.06.03 11:33:40.
