data_PCOD9024628
_publ_section_title
;
Structure prediction by ZEFSAII (Michael W. Deem and Ramdas Pophale) SiO2 
 PCOD9024628
Probable space group: P -1
;
_chemical_formula_sum "Si O2"
_cell_formula_units_Z 16
_cell_length_a 12.526815
_cell_length_b 8.527857
_cell_length_c 6.746032
_cell_angle_alpha 95.246552
_cell_angle_beta 79.918732
_cell_angle_gamma 115.224818
_cell_volume 641.757132
_symmetry_space_group_name_H-M "P -1"
_symmetry_group_IT_number 2
_symmetry_cell_setting 'triclinic'
loop_
_space_group_symop_operation_xyz
x,y,z
-x,-y,-z
loop_
_atom_site_type_symbol
_atom_site_label
_atom_site_fract_x
_atom_site_fract_y
_atom_site_fract_z
Si Si1 0.454323 0.237792 0.590684
Si Si2 0.402009 0.825110 0.114708
Si Si3 0.550615 0.436811 0.186526
Si Si4 0.934958 0.798210 0.059538
Si Si5 0.758413 0.037266 0.608975
Si Si6 0.727449 0.700894 0.803392
Si Si7 0.141888 0.411889 0.549433
Si Si8 0.932001 0.309535 0.296180
O O1 0.533650 0.189746 0.708825
O O2 0.529052 0.336072 0.389081
O O3 0.407284 0.365958 0.731846
O O4 0.348616 0.071573 0.516670
O O5 0.284432 0.848659 0.219140
O O6 0.381794 0.652369 0.977523
O O7 0.500000 0.000000 0.000000
O O8 0.584794 0.627304 0.867072
O O9 0.907281 0.743217 0.291385
O O10 0.811419 0.715524 0.964686
O O11 0.026339 0.724280 0.934246
O O12 0.000000 0.000000 0.000000
O O13 0.862983 0.144586 0.438788
O O14 0.775864 0.895643 0.723615
O O15 0.746619 0.590331 0.604154
O O16 0.147783 0.582337 0.677117
O O17 0.052905 0.398284 0.395287
#
# Coordination Sequence:
#
# PCOD9024628 Si02
#       8
#     2   2   2   2   2   2   2   2
#     4  10  23  43  65  89 132 173 222 267 325 384
#     4  12  23  42  64  96 131 173 221 277 320 381
#     4  10  23  44  67  92 133 179 215 270 325 388
#     4  11  22  40  69  98 130 165 215 266 325 393
#     4  11  23  43  67  94 134 175 218 272 326 382
#     4  10  22  40  65  95 129 170 213 261 329 383
#     4  10  22  43  67  96 131 165 213 268 325 392
#     4  10  23  43  66  94 133 167 209 272 326 383
#
# _framework density 24.931550000000001
#
# number of rings (size 3 to 8) (size 9 to 14) (size 15 to 20)
#    0.000    1.500    2.500    2.625    1.750    5.000 
#    2.250    1.250    0.000    0.000    0.000    0.000 
#    0.000    0.000    0.000    0.000    0.000    0.000 
#
# Total GULP energy -89570.274934 kJ/mol
# GULP energy per Si atom -5598.142183 kJ/mol
# Density = 2.487480 g / cm^3
# Si number density = 24.931550 Si / 1000 Ang^3
#
#
#
# Elastic Constant Matrix: (Units=GPa)
#
#
# Indices 1 2 3 4 5 6 
#
# 1 66.1925 15.9460 29.8719 6.3326 -8.0681 -6.4945
# 2 15.9460 75.6748 -0.2692 12.4771 -5.7560 -8.3926
# 3 29.8719 -0.2692 102.4548 17.2323 -16.9145 -7.5849
# 4 6.3326 12.4771 17.2323 28.2392 4.7745 -5.7507
# 5 -8.0681 -5.7560 -16.9145 4.7745 34.0231 -7.0039
# 6 -6.4945 -8.3926 -7.5849 -5.7507 -7.0039 27.5226
#
#
#
# Elastic Compliance Matrix: (Units=1/GPa)
#
#
# Indices 1 2 3 4 5 6 
#
# 1 0.018679 -0.003689 -0.005137 0.000797 0.001645 0.002452
# 2 -0.003689 0.016504 0.004015 -0.008949 0.006193 0.004975
# 3 -0.005137 0.004015 0.014842 -0.010360 0.009173 0.004272
# 4 0.000797 -0.008949 -0.010360 0.047967 -0.012932 0.001336
# 5 0.001645 0.006193 0.009173 -0.012932 0.039718 0.012210
# 6 0.002452 0.004975 0.004272 0.001336 0.012210 0.042993
#
#
# Mechanical properties :
#
#
# Convention : Reuss Voigt Hill
#
# Bulk Modulus (GPa) = 24.75003 37.26882 31.00943
# Shear Modulus (GPa) = 24.53472 31.20853 27.87163
#
# Velocity S-wave (km/s) = 3.14041 3.54187 3.34717
# Velocity P-wave (km/s) = 4.80607 5.63093 5.23477
#
# Compressibility (1/GPa) = 0.04040399
#
# Stress axis : x y z
#
# Youngs Moduli (GPa) = 53.53588 60.59028 67.37766
#
# Poissons Ratio (x) = 0.22349 0.34610
# Poissons Ratio (y) = 0.19747 -0.27051
# Poissons Ratio (z) = 0.27500 -0.24326
#
# Static dielectric constant tensor:
#      x y z
#    x 2.020920 -0.015480 -0.016460 
#    y -0.015480 2.011640 0.001960 
#    z -0.016460 0.001960 2.001250 
# 
# From -- ./inp_files/90459.got.cif
#   From: 2010.05.17/outbox.cif.g08.bks.cpg/sg2_46_cif.got.tgz:90459.got - 2010.06.03 11:33:40.
