data_PCOD9024378
_publ_section_title
;
Structure prediction by ZEFSAII (Michael W. Deem and Ramdas Pophale) SiO2 
 PCOD9024378
Probable space group: P -1
;
_chemical_formula_sum "Si O2"
_cell_formula_units_Z 14
_cell_length_a 12.447973
_cell_length_b 8.556152
_cell_length_c 19.008645
_cell_angle_alpha 135.506026
_cell_angle_beta 32.666775
_cell_angle_gamma 114.617889
_cell_volume 669.215644
_symmetry_space_group_name_H-M "P -1"
_symmetry_group_IT_number 2
_symmetry_cell_setting 'triclinic'
loop_
_space_group_symop_operation_xyz
x,y,z
-x,-y,-z
loop_
_atom_site_type_symbol
_atom_site_label
_atom_site_fract_x
_atom_site_fract_y
_atom_site_fract_z
Si Si1 0.895666 0.355424 0.964439
Si Si2 0.451627 0.654917 0.236473
Si Si3 0.194302 0.060551 0.057395
Si Si4 0.338030 0.083529 0.327358
Si Si5 0.696100 0.434277 0.426899
Si Si6 0.342527 0.881738 0.524920
Si Si7 0.099205 0.484461 0.363021
O O1 0.784773 0.215924 0.027247
O O2 0.721845 0.523761 0.054230
O O3 0.095183 0.118131 0.740693
O O4 0.000000 0.500000 0.000000
O O5 0.381959 0.780326 0.392132
O O6 0.342514 0.471928 0.229591
O O7 0.363880 0.847297 0.282100
O O8 0.135427 0.244476 0.217999
O O9 0.958369 0.226224 0.196181
O O10 0.433201 0.009693 0.875803
O O11 0.325769 0.295718 0.456159
O O12 0.095565 0.245465 0.474525
O O13 0.500000 0.500000 0.500000
O O14 0.641920 0.321052 0.490808
O O15 0.500000 0.000000 0.500000
O O16 0.000000 0.500000 0.500000
#
# Coordination Sequence:
#
# PCOD9024378 Si02
#       7
#     2   2   2   2   2   2   2
#     4  11  23  40  65  95 128 168 220 263 322 389
#     4  12  25  42  66  99 130 174 216 268 329 391
#     4  10  24  44  64  96 131 171 218 270 327 388
#     4  11  25  42  64  98 134 170 218 268 328 392
#     4  10  22  40  64  94 131 174 217 267 327 382
#     4  11  22  40  65  92 131 171 216 268 320 385
#     4  11  24  46  72  94 127 170 223 273 327 392
#
# _framework density 20.920013000000001
#
# number of rings (size 3 to 8) (size 9 to 14) (size 15 to 20)
#    0.000    1.143    1.429    5.571    2.000    8.000 
#    0.000    0.000    0.000    0.000    0.000    0.000 
#    0.000    0.000    0.000    0.000    0.000    0.000 
#
# Total GULP energy -78148.086968 kJ/mol
# GULP energy per Si atom -5582.006212 kJ/mol
# Density = 2.087240 g / cm^3
# Si number density = 20.920013 Si / 1000 Ang^3
#
#
#
# Elastic Constant Matrix: (Units=GPa)
#
#
# Indices 1 2 3 4 5 6 
#
# 1 93.4631 19.8461 17.1067 5.8064 -23.1015 6.2589
# 2 19.8461 87.2380 -1.6736 2.0541 -0.4990 12.3247
# 3 17.1067 -1.6736 73.8484 2.0581 -8.7353 -9.0778
# 4 5.8064 2.0541 2.0581 29.1542 1.2166 -4.5044
# 5 -23.1015 -0.4990 -8.7353 1.2166 27.7941 -2.4265
# 6 6.2589 12.3247 -9.0778 -4.5044 -2.4265 33.2714
#
#
#
# Elastic Compliance Matrix: (Units=1/GPa)
#
#
# Indices 1 2 3 4 5 6 
#
# 1 0.014987 -0.003034 -0.002305 -0.003394 0.011658 -0.001933
# 2 -0.003034 0.012788 0.000167 -0.000885 -0.002588 -0.004429
# 3 -0.002305 0.000167 0.015040 -0.000022 0.003226 0.004708
# 4 -0.003394 -0.000885 -0.000022 0.036063 -0.003937 0.005555
# 5 0.011658 -0.002588 0.003226 -0.003937 0.047030 0.002543
# 6 -0.001933 -0.004429 0.004708 0.005555 0.002543 0.034282
#
#
# Mechanical properties :
#
#
# Convention : Reuss Voigt Hill
#
# Bulk Modulus (GPa) = 30.79634 36.12310 33.45972
# Shear Modulus (GPa) = 27.56975 32.66196 30.11585
#
# Velocity S-wave (km/s) = 3.63418 3.95559 3.79828
# Velocity P-wave (km/s) = 5.68882 6.17794 5.93842
#
# Compressibility (1/GPa) = 0.03247139
#
# Stress axis : x y z
#
# Youngs Moduli (GPa) = 66.72320 78.19764 66.49025
#
# Poissons Ratio (x) = 0.23725 0.15324
# Poissons Ratio (y) = 0.20244 -0.01108
# Poissons Ratio (z) = 0.15377 -0.01304
#
# Static dielectric constant tensor:
#      x y z
#    x 1.780520 0.025910 -0.056000 
#    y 0.025910 1.793840 -0.066630 
#    z -0.056000 -0.066630 1.793030 
# 
# From -- ./inp_files/270730.got.cif
#   From: 2010.05.17/outbox.cif.g08.bks.cpg/sg2_136_cif.got.tgz:270730.got - 2010.06.03 11:33:40.
