data_PCOD9024154
_publ_section_title
;
Structure prediction by ZEFSAII (Michael W. Deem and Ramdas Pophale) SiO2 
 PCOD9024154
Probable space group: P -1
;
_chemical_formula_sum "Si O2"
_cell_formula_units_Z 16
_cell_length_a 15.756120
_cell_length_b 5.096679
_cell_length_c 15.708210
_cell_angle_alpha 74.665581
_cell_angle_beta 141.508357
_cell_angle_gamma 115.546069
_cell_volume 702.337678
_symmetry_space_group_name_H-M "P -1"
_symmetry_group_IT_number 2
_symmetry_cell_setting 'triclinic'
loop_
_space_group_symop_operation_xyz
x,y,z
-x,-y,-z
loop_
_atom_site_type_symbol
_atom_site_label
_atom_site_fract_x
_atom_site_fract_y
_atom_site_fract_z
Si Si1 0.820859 0.362323 0.374019
Si Si2 0.811185 0.553246 0.067671
Si Si3 0.237465 0.266660 0.171597
Si Si4 0.198105 0.672735 0.250745
Si Si5 0.772414 0.736476 0.454323
Si Si6 0.599153 0.339958 0.055176
Si Si7 0.446644 0.591632 0.541323
Si Si8 0.025200 0.851521 0.769310
O O1 0.761057 0.493109 0.395926
O O2 0.742016 0.404157 0.222350
O O3 0.000000 0.500000 0.500000
O O4 0.767838 0.017334 0.378893
O O5 0.656225 0.480647 0.996736
O O6 0.839386 0.252402 0.124840
O O7 0.931864 0.825397 0.187638
O O8 0.807870 0.664996 0.961156
O O9 0.230896 0.523729 0.204991
O O10 0.402581 0.266910 0.301437
O O11 0.150604 0.942481 0.168695
O O12 0.343327 0.766863 0.416749
O O13 0.076966 0.403433 0.226465
O O14 0.660869 0.644199 0.455794
O O15 0.934181 0.823947 0.614835
O O16 0.500000 0.500000 0.000000
O O17 0.500000 0.000000 0.000000
O O18 0.500000 0.500000 0.500000
#
# Coordination Sequence:
#
# PCOD9024154 Si02
#       8
#     2   2   2   2   2   2   2   2
#     4  12  26  46  76 105 137 181 243 294 344 417
#     4  12  26  43  66  95 132 183 215 282 333 421
#     4  11  23  38  63  92 134 173 227 257 336 404
#     4  10  22  40  63  95 127 177 215 285 321 384
#     4  11  24  43  74 102 131 181 230 288 341 409
#     4  12  28  49  71 100 145 179 226 290 361 409
#     4   9  22  42  65  96 137 173 225 282 336 399
#     4  11  23  43  67  97 139 169 229 271 342 388
#
# _framework density 22.781064000000001
#
# number of rings (size 3 to 8) (size 9 to 14) (size 15 to 20)
#    0.000    1.000    0.000    6.000    3.500   10.000 
#    0.000    0.000    0.000    0.000    0.000    0.000 
#    0.000    0.000    0.000    0.000    0.000    0.000 
#
# Total GULP energy -89466.211529 kJ/mol
# GULP energy per Si atom -5591.638221 kJ/mol
# Density = 2.272921 g / cm^3
# Si number density = 22.781064 Si / 1000 Ang^3
#
#
#
# Elastic Constant Matrix: (Units=GPa)
#
#
# Indices 1 2 3 4 5 6 
#
# 1 80.2760 5.6320 20.4427 1.8293 14.1744 1.7513
# 2 5.6320 70.4362 19.2351 -8.6573 3.2676 -9.5241
# 3 20.4427 19.2351 78.7588 -3.9578 -8.4565 -4.1225
# 4 1.8293 -8.6573 -3.9578 35.9787 0.2880 3.3244
# 5 14.1744 3.2676 -8.4565 0.2880 29.9946 4.5939
# 6 1.7513 -9.5241 -4.1225 3.3244 4.5939 32.3981
#
#
#
# Elastic Compliance Matrix: (Units=1/GPa)
#
#
# Indices 1 2 3 4 5 6 
#
# 1 0.015274 0.000420 -0.005057 -0.001163 -0.008679 0.000004
# 2 0.000420 0.016472 -0.004157 0.003098 -0.003888 0.004524
# 3 -0.005057 -0.004157 0.015854 0.000948 0.007314 -0.000066
# 4 -0.001163 0.003098 0.000948 0.028878 0.000499 -0.001940
# 5 -0.008679 -0.003888 0.007314 0.000499 0.040776 -0.005576
# 6 0.000004 0.004524 -0.000066 -0.001940 -0.005576 0.033177
#
#
# Mechanical properties :
#
#
# Convention : Reuss Voigt Hill
#
# Bulk Modulus (GPa) = 33.31975 35.56564 34.44270
# Shear Modulus (GPa) = 28.08619 31.95170 30.01894
#
# Velocity S-wave (km/s) = 3.51504 3.74913 3.63397
# Velocity P-wave (km/s) = 5.57959 5.86406 5.72359
#
# Compressibility (1/GPa) = 0.03001223
#
# Stress axis : x y z
#
# Youngs Moduli (GPa) = 65.46940 60.71036 63.07401
#
# Poissons Ratio (x) = -0.02550 0.31898
# Poissons Ratio (y) = -0.02750 0.26219
# Poissons Ratio (z) = 0.33110 0.25236
#
# Static dielectric constant tensor:
#      x y z
#    x 1.898450 0.008450 0.051730 
#    y 0.008450 1.829540 0.022630 
#    z 0.051730 0.022630 1.862560 
# 
# From -- ./inp_files/525631.got.cif
#   From: 2010.05.17/outbox.cif.g08.bks.cpg/sg2_263_cif.got.tgz:525631.got - 2010.06.03 11:33:40.
