data_PCOD9024431
_publ_section_title
;
Structure prediction by ZEFSAII (Michael W. Deem and Ramdas Pophale) SiO2 
 PCOD9024431
Probable space group: P -1
;
_chemical_formula_sum "Si O2"
_cell_formula_units_Z 16
_cell_length_a 6.905937
_cell_length_b 8.794479
_cell_length_c 14.211631
_cell_angle_alpha 60.610863
_cell_angle_beta 113.139517
_cell_angle_gamma 104.214352
_cell_volume 690.051988
_symmetry_space_group_name_H-M "P -1"
_symmetry_group_IT_number 2
_symmetry_cell_setting 'triclinic'
loop_
_space_group_symop_operation_xyz
x,y,z
-x,-y,-z
loop_
_atom_site_type_symbol
_atom_site_label
_atom_site_fract_x
_atom_site_fract_y
_atom_site_fract_z
Si Si1 0.749352 0.118971 0.806849
Si Si2 0.446282 0.198099 0.410763
Si Si3 0.800943 0.514019 0.393684
Si Si4 0.612511 0.734141 0.840602
Si Si5 0.860039 0.648306 0.162781
Si Si6 0.586683 0.198558 0.950010
Si Si7 0.433798 0.299132 0.569418
Si Si8 0.212375 0.596694 0.926184
O O1 0.653531 0.214581 0.849816
O O2 0.634810 0.194311 0.669980
O O3 0.995178 0.175026 0.848560
O O4 0.700844 0.911299 0.855327
O O5 0.644959 0.340021 0.416843
O O6 0.372640 0.230508 0.279727
O O7 0.316838 0.233785 0.471490
O O8 0.500000 0.000000 0.500000
O O9 0.871306 0.547109 0.292168
O O10 0.700362 0.684911 0.366462
O O11 0.000000 0.500000 0.500000
O O12 0.379669 0.683408 0.854490
O O13 0.729371 0.564763 0.945988
O O14 0.613526 0.690753 0.092129
O O15 0.940016 0.517862 0.137974
O O16 0.780874 0.248815 0.042751
O O17 0.500000 0.000000 0.000000
O O18 0.500000 0.500000 0.500000
#
# Coordination Sequence:
#
# PCOD9024431 Si02
#       8
#     2   2   2   2   2   2   2   2
#     4  12  25  41  70 100 130 177 232 275 331 410
#     4  11  21  38  68  95 128 175 218 276 339 398
#     4  11  23  42  68  96 133 175 223 276 336 407
#     4  11  21  41  67  94 133 180 220 268 343 395
#     4  12  23  43  69  97 134 179 223 276 338 397
#     4  12  23  42  70  96 135 175 223 280 336 393
#     4  10  22  40  64  96 132 172 219 268 344 397
#     4  11  22  43  66  95 133 183 217 272 343 394
#
# _framework density 23.18666
#
# number of rings (size 3 to 8) (size 9 to 14) (size 15 to 20)
#    0.000    0.750    7.500    1.500    1.750    2.500 
#    0.000    0.625    2.750    0.000    0.000    0.000 
#    0.000    0.000    0.000    0.000    0.000    0.000 
#
# Total GULP energy -89163.251921 kJ/mol
# GULP energy per Si atom -5572.703245 kJ/mol
# Density = 2.313389 g / cm^3
# Si number density = 23.186660 Si / 1000 Ang^3
#
#
#
# Elastic Constant Matrix: (Units=GPa)
#
#
# Indices 1 2 3 4 5 6 
#
# 1 41.6824 25.6943 16.4053 12.8252 -7.1545 1.0710
# 2 25.6943 171.0254 36.3382 16.6057 -11.4405 3.1733
# 3 16.4053 36.3382 131.3160 27.3298 -33.8146 -9.2071
# 4 12.8252 16.6057 27.3298 45.2295 -7.4053 -8.8155
# 5 -7.1545 -11.4405 -33.8146 -7.4053 28.3915 6.4832
# 6 1.0710 3.1733 -9.2071 -8.8155 6.4832 35.6609
#
#
#
# Elastic Compliance Matrix: (Units=1/GPa)
#
#
# Indices 1 2 3 4 5 6 
#
# 1 0.029077 -0.003275 -0.000394 -0.006680 0.004516 -0.003156
# 2 -0.003275 0.006743 -0.001223 -0.000956 0.000445 -0.001135
# 3 -0.000394 -0.001223 0.012297 -0.004811 0.012852 -0.000230
# 4 -0.006680 -0.000956 -0.004811 0.028190 -0.001897 0.006357
# 5 0.004516 0.000445 0.012852 -0.001897 0.052939 -0.006950
# 6 -0.003156 -0.001135 -0.000230 0.006357 -0.006950 0.031013
#
#
# Mechanical properties :
#
#
# Convention : Reuss Voigt Hill
#
# Bulk Modulus (GPa) = 26.08767 55.65550 40.87159
# Shear Modulus (GPa) = 27.34921 39.56209 33.45565
#
# Velocity S-wave (km/s) = 3.43814 4.13515 3.80265
# Velocity P-wave (km/s) = 5.19968 6.84505 6.07830
#
# Compressibility (1/GPa) = 0.03833228
#
# Stress axis : x y z
#
# Youngs Moduli (GPa) = 34.39171 148.31065 81.31836
#
# Poissons Ratio (x) = 0.48577 0.03206
# Poissons Ratio (y) = 0.11265 0.09941
# Poissons Ratio (z) = 0.01356 0.18131
#
# Static dielectric constant tensor:
#      x y z
#    x 6.320200 5.281320 0.125960 
#    y 5.281320 8.544010 0.183720 
#    z 0.125960 0.183720 1.905480 
# 
# From -- ./inp_files/492337.got.cif
#   From: 2010.05.17/outbox.cif.g08.bks.cpg/sg2_247_cif.got.tgz:492337.got - 2010.06.03 11:33:40.
