data_PCOD9024088
_publ_section_title
;
Structure prediction by ZEFSAII (Michael W. Deem and Ramdas Pophale) SiO2 
 PCOD9024088
Probable space group: P -1
;
_chemical_formula_sum "Si O2"
_cell_formula_units_Z 14
_cell_length_a 28.516902
_cell_length_b 26.089263
_cell_length_c 15.172693
_cell_angle_alpha 160.932609
_cell_angle_beta 18.413649
_cell_angle_gamma 170.465119
_cell_volume 580.951453
_symmetry_space_group_name_H-M "P -1"
_symmetry_group_IT_number 2
_symmetry_cell_setting 'triclinic'
loop_
_space_group_symop_operation_xyz
x,y,z
-x,-y,-z
loop_
_atom_site_type_symbol
_atom_site_label
_atom_site_fract_x
_atom_site_fract_y
_atom_site_fract_z
Si Si1 0.128729 0.008734 0.207396
Si Si2 0.700521 0.721774 0.351896
Si Si3 0.556536 0.764445 0.221434
Si Si4 0.697175 0.361874 0.995948
Si Si5 0.872999 0.219922 0.554864
Si Si6 0.335466 0.860441 0.475308
Si Si7 0.733101 0.809879 0.232413
O O1 0.478350 0.368283 0.172173
O O2 0.000000 0.000000 0.500000
O O3 0.967844 0.927484 0.274804
O O4 0.986954 0.713673 0.010247
O O5 0.783330 0.832323 0.282856
O O6 0.519874 0.704756 0.686055
O O7 0.221704 0.520508 0.443679
O O8 0.789768 0.042257 0.327519
O O9 0.640772 0.936145 0.263164
O O10 0.525331 0.549365 0.917984
O O11 0.785820 0.315288 0.836606
O O12 0.555000 0.137911 0.802624
O O13 0.691149 0.955752 0.523462
O O14 0.000000 0.500000 0.500000
O O15 0.500000 0.000000 0.500000
O O16 0.000000 0.000000 0.000000
#
# Coordination Sequence:
#
# PCOD9024088 Si02
#       7
#     2   2   2   2   2   2   2
#     4  10  23  42  67  99 137 175 218 270 339 407
#     4  11  25  42  70 101 128 187 219 274 344 389
#     4  10  22  40  63  91 132 171 219 270 330 392
#     4  10  23  43  67  95 144 166 227 273 332 415
#     4  10  22  41  66  95 127 181 217 279 333 377
#     4  11  24  37  61  96 129 174 208 266 336 385
#     4  10  24  45  71  95 137 174 235 279 325 398
#
# _framework density 24.098399000000001
#
# number of rings (size 3 to 8) (size 9 to 14) (size 15 to 20)
#    0.000    1.714    0.000    3.857    4.000   14.286 
#    0.000    0.000    0.000   18.857    0.000    0.000 
#    0.000    0.000    0.000    0.000    0.000    0.000 
#
# Total GULP energy -78311.650187 kJ/mol
# GULP energy per Si atom -5593.689299 kJ/mol
# Density = 2.404355 g / cm^3
# Si number density = 24.098399 Si / 1000 Ang^3
#
#
#
# Elastic Constant Matrix: (Units=GPa)
#
#
# Indices 1 2 3 4 5 6 
#
# 1 123.5666 17.1625 19.4744 3.7881 -0.1446 -21.9851
# 2 17.1625 82.7471 32.3099 10.6559 -7.4106 -19.3543
# 3 19.4744 32.3099 135.4755 6.9828 -1.1143 -3.9414
# 4 3.7881 10.6559 6.9828 38.0298 -10.7467 -9.6974
# 5 -0.1446 -7.4106 -1.1143 -10.7467 49.0840 15.4694
# 6 -21.9851 -19.3543 -3.9414 -9.6974 15.4694 47.9983
#
#
#
# Elastic Compliance Matrix: (Units=1/GPa)
#
#
# Indices 1 2 3 4 5 6 
#
# 1 0.009108 -0.000612 -0.001057 0.000161 -0.001418 0.004328
# 2 -0.000612 0.014930 -0.003212 -0.002227 0.000120 0.004988
# 3 -0.001057 -0.003212 0.008307 -0.000864 -0.000098 -0.001240
# 4 0.000161 -0.002227 -0.000864 0.029345 0.004990 0.003425
# 5 -0.001418 0.000120 -0.000098 0.004990 0.023766 -0.007261
# 6 0.004328 0.004988 -0.001240 0.003425 -0.007261 0.027758
#
#
# Mechanical properties :
#
#
# Convention : Reuss Voigt Hill
#
# Bulk Modulus (GPa) = 44.28091 53.29810 48.78950
# Shear Modulus (GPa) = 38.31308 45.21192 41.76250
#
# Velocity S-wave (km/s) = 3.99163 4.33614 4.16745
# Velocity P-wave (km/s) = 6.29755 6.87273 6.59141
#
# Compressibility (1/GPa) = 0.02258310
#
# Stress axis : x y z
#
# Youngs Moduli (GPa) = 109.79552 66.97840 120.37937
#
# Poissons Ratio (x) = 0.04097 0.12729
# Poissons Ratio (y) = 0.06715 0.38665
# Poissons Ratio (z) = 0.11610 0.21513
#
# Static dielectric constant tensor:
#      x y z
#    x 1.961880 -0.035350 -0.026640 
#    y -0.035350 1.927190 0.000360 
#    z -0.026640 0.000360 1.992970 
# 
# From -- ./inp_files/545167.got.cif
#   From: 2010.05.17/outbox.cif.g08.bks.cpg/sg2_273_cif.got.tgz:545167.got - 2010.06.03 11:33:40.
