data_PCOD9024070
_publ_section_title
;
Structure prediction by ZEFSAII (Michael W. Deem and Ramdas Pophale) SiO2 
 PCOD9024070
Probable space group: P -1
;
_chemical_formula_sum "Si O2"
_cell_formula_units_Z 16
_cell_length_a 11.990673
_cell_length_b 12.231858
_cell_length_c 5.202561
_cell_angle_alpha 95.670623
_cell_angle_beta 65.219944
_cell_angle_gamma 84.931384
_cell_volume 682.253292
_symmetry_space_group_name_H-M "P -1"
_symmetry_group_IT_number 2
_symmetry_cell_setting 'triclinic'
loop_
_space_group_symop_operation_xyz
x,y,z
-x,-y,-z
loop_
_atom_site_type_symbol
_atom_site_label
_atom_site_fract_x
_atom_site_fract_y
_atom_site_fract_z
Si Si1 0.947886 0.322553 0.422364
Si Si2 0.124870 0.438992 0.597978
Si Si3 0.042566 0.928666 0.692233
Si Si4 0.419400 0.040888 0.839878
Si Si5 0.286748 0.444056 0.919837
Si Si6 0.287185 0.690851 0.045229
Si Si7 0.725418 0.126734 0.261776
Si Si8 0.498128 0.261150 0.802524
O O1 0.941352 0.432495 0.275239
O O2 0.997973 0.194619 0.281352
O O3 0.804653 0.319479 0.631905
O O4 0.023490 0.361108 0.601977
O O5 0.208618 0.402677 0.753312
O O6 0.212557 0.437767 0.258489
O O7 0.191766 0.910260 0.581718
O O8 0.000000 0.000000 0.500000
O O9 0.000000 0.000000 0.000000
O O10 0.401791 0.173255 0.910897
O O11 0.500000 0.000000 0.500000
O O12 0.301309 0.978796 0.901010
O O13 0.500000 0.000000 0.000000
O O14 0.420959 0.373260 0.805235
O O15 0.302013 0.570886 0.874603
O O16 0.418119 0.719685 0.027878
O O17 0.217854 0.787517 0.955544
O O18 0.598498 0.200242 0.493129
#
# Coordination Sequence:
#
# PCOD9024070 Si02
#       8
#     2   2   2   2   2   2   2   2
#     4  10  23  48  72  98 136 185 232 279 348 406
#     4  10  25  46  71  99 138 183 229 283 336 411
#     4  12  27  43  67 101 134 174 229 286 340 398
#     4  10  22  40  63  90 126 173 227 264 320 397
#     4  11  26  41  67 108 137 175 226 281 343 398
#     4  11  22  42  71 100 140 177 227 278 341 416
#     4  11  24  43  69  95 137 183 227 276 346 408
#     4  11  24  42  67 100 138 180 222 277 340 412
#
# _framework density 23.451702999999998
#
# number of rings (size 3 to 8) (size 9 to 14) (size 15 to 20)
#    0.000    1.250    2.500    1.875    3.500   10.000 
#    0.000    0.000    0.000    0.000    0.000    0.000 
#    0.000    0.000    0.000    0.000    0.000    0.000 
#
# Total GULP energy -89440.081494 kJ/mol
# GULP energy per Si atom -5590.005093 kJ/mol
# Density = 2.339833 g / cm^3
# Si number density = 23.451703 Si / 1000 Ang^3
#
#
#
# Elastic Constant Matrix: (Units=GPa)
#
#
# Indices 1 2 3 4 5 6 
#
# 1 116.9891 55.0331 37.0448 5.8047 31.2864 -5.8290
# 2 55.0331 138.0018 27.7424 19.0465 16.6810 11.0772
# 3 37.0448 27.7424 87.4524 -1.0700 26.8605 -9.5882
# 4 5.8047 19.0465 -1.0700 33.0854 -3.9207 8.6643
# 5 31.2864 16.6810 26.8605 -3.9207 40.7630 -1.1413
# 6 -5.8290 11.0772 -9.5882 8.6643 -1.1413 40.9475
#
#
#
# Elastic Compliance Matrix: (Units=1/GPa)
#
#
# Indices 1 2 3 4 5 6 
#
# 1 0.013182 -0.003994 -0.001770 -0.001651 -0.007400 0.002686
# 2 -0.003994 0.010080 -0.001733 -0.004485 -0.000426 -0.002764
# 3 -0.001770 -0.001733 0.015637 -0.000114 -0.008145 0.003676
# 4 -0.001651 -0.004485 -0.000114 0.035525 0.006416 -0.006387
# 5 -0.007400 -0.000426 -0.008145 0.006416 0.036281 -0.003192
# 6 0.002686 -0.002764 0.003676 -0.006387 -0.003192 0.027675
#
#
# Mechanical properties :
#
#
# Convention : Reuss Voigt Hill
#
# Bulk Modulus (GPa) = 41.83027 64.67601 53.25314
# Shear Modulus (GPa) = 30.99019 37.80071 34.39545
#
# Velocity S-wave (km/s) = 3.63912 4.01915 3.83384
# Velocity P-wave (km/s) = 5.96096 7.01258 6.50805
#
# Compressibility (1/GPa) = 0.02390613
#
# Stress axis : x y z
#
# Youngs Moduli (GPa) = 75.86167 99.20864 63.94979
#
# Poissons Ratio (x) = 0.39626 0.11316
# Poissons Ratio (y) = 0.30301 0.11080
# Poissons Ratio (z) = 0.13424 0.17189
#
# Static dielectric constant tensor:
#      x y z
#    x 1.920320 0.030140 -0.052210 
#    y 0.030140 1.950650 -0.013130 
#    z -0.052210 -0.013130 1.933120 
# 
# From -- ./inp_files/67137.got.cif
#   From: 2010.05.17/outbox.cif.g08.bks.cpg/sg2_34_cif.got.tgz:67137.got - 2010.06.03 11:33:40.
