data_PCOD9024986
_publ_section_title
;
Structure prediction by ZEFSAII (Michael W. Deem and Ramdas Pophale) SiO2 
 PCOD9024986
Probable space group: P -1
;
_chemical_formula_sum "Si O2"
_cell_formula_units_Z 16
_cell_length_a 9.624415
_cell_length_b 5.534785
_cell_length_c 14.038937
_cell_angle_alpha 75.126237
_cell_angle_beta 92.307036
_cell_angle_gamma 108.045742
_cell_volume 686.602108
_symmetry_space_group_name_H-M "P -1"
_symmetry_group_IT_number 2
_symmetry_cell_setting 'triclinic'
loop_
_space_group_symop_operation_xyz
x,y,z
-x,-y,-z
loop_
_atom_site_type_symbol
_atom_site_label
_atom_site_fract_x
_atom_site_fract_y
_atom_site_fract_z
Si Si1 0.705426 0.959112 0.123791
Si Si2 0.472159 0.178087 0.338271
Si Si3 0.888159 0.718631 0.049114
Si Si4 0.658156 0.705891 0.504218
Si Si5 0.594464 0.285334 0.770945
Si Si6 0.040679 0.311947 0.442570
Si Si7 0.175843 0.616528 0.080220
Si Si8 0.221033 0.847783 0.682491
O O1 0.766526 0.106013 0.208999
O O2 0.780121 0.733498 0.128178
O O3 0.533216 0.847304 0.143065
O O4 0.751504 0.142870 0.014189
O O5 0.381308 0.098088 0.441325
O O6 0.432395 0.439868 0.282488
O O7 0.648431 0.261012 0.338359
O O8 0.426746 0.931886 0.290122
O O9 0.002393 0.562984 0.091075
O O10 0.804251 0.620294 0.958437
O O11 0.000000 0.000000 0.000000
O O12 0.500000 0.500000 0.500000
O O13 0.782825 0.600496 0.565078
O O14 0.726799 0.862851 0.395447
O O15 0.747575 0.341270 0.821709
O O16 0.000000 0.500000 0.500000
O O17 0.937932 0.305375 0.348620
O O18 0.000000 0.000000 0.500000
#
# Coordination Sequence:
#
# PCOD9024986 Si02
#       8
#     2   2   2   2   2   2   2   2
#     4  10  22  40  66  99 128 179 220 271 341 399
#     4  11  25  43  65 103 133 181 227 275 341 399
#     4   9  21  40  66  89 131 169 231 264 343 392
#     4  11  22  44  74 100 139 182 224 284 342 398
#     4  11  26  42  67 100 139 170 229 280 332 400
#     4  10  23  42  65  97 128 173 221 273 333 395
#     4  10  22  43  64  97 132 176 222 279 335 402
#     4  10  23  44  67  97 140 175 228 280 333 409
#
# _framework density 23.303165
#
# number of rings (size 3 to 8) (size 9 to 14) (size 15 to 20)
#    0.000    1.750    0.000    3.000    7.000    6.500 
#    4.500    0.000    0.000    0.000    0.000    0.000 
#    0.000    0.000    0.000    0.000    0.000    0.000 
#
# Total GULP energy -89360.160599 kJ/mol
# GULP energy per Si atom -5585.010037 kJ/mol
# Density = 2.325013 g / cm^3
# Si number density = 23.303165 Si / 1000 Ang^3
#
#
#
# Elastic Constant Matrix: (Units=GPa)
#
#
# Indices 1 2 3 4 5 6 
#
# 1 141.5774 38.1232 34.4216 34.9322 5.9448 1.9710
# 2 38.1232 105.7407 22.5323 11.4541 2.3957 -4.3494
# 3 34.4216 22.5323 58.2778 5.1287 11.1049 -6.7296
# 4 34.9322 11.4541 5.1287 37.2754 3.7156 -6.2865
# 5 5.9448 2.3957 11.1049 3.7156 42.6491 11.2787
# 6 1.9710 -4.3494 -6.7296 -6.2865 11.2787 42.5468
#
#
#
# Elastic Compliance Matrix: (Units=1/GPa)
#
#
# Indices 1 2 3 4 5 6 
#
# 1 0.011524 -0.001982 -0.005934 -0.010187 0.001913 -0.003687
# 2 -0.001982 0.010932 -0.002986 -0.001052 0.000406 0.000474
# 3 -0.005934 -0.002986 0.023488 0.005039 -0.007239 0.006348
# 4 -0.010187 -0.001052 0.005039 0.037909 -0.005295 0.008166
# 5 0.001913 0.000406 -0.007239 -0.005295 0.027988 -0.009394
# 6 -0.003687 0.000474 0.006348 0.008166 -0.009394 0.028424
#
#
# Mechanical properties :
#
#
# Convention : Reuss Voigt Hill
#
# Bulk Modulus (GPa) = 41.42615 55.08334 48.25475
# Shear Modulus (GPa) = 29.39176 38.52886 33.96031
#
# Velocity S-wave (km/s) = 3.55530 4.07058 3.82164
# Velocity P-wave (km/s) = 5.88805 6.76623 6.34236
#
# Compressibility (1/GPa) = 0.02413934
#
# Stress axis : x y z
#
# Youngs Moduli (GPa) = 86.77401 91.47299 42.57544
#
# Poissons Ratio (x) = 0.18129 0.25265
# Poissons Ratio (y) = 0.17198 0.12714
# Poissons Ratio (z) = 0.51494 0.27316
#
# Static dielectric constant tensor:
#      x y z
#    x 1.897790 -0.058210 0.026790 
#    y -0.058210 1.965890 -0.058970 
#    z 0.026790 -0.058970 1.915420 
# 
# From -- ./inp_files/488292.got.cif
#   From: 2010.05.17/outbox.cif.g08.bks.cpg/sg2_245_cif.got.tgz:488292.got - 2010.06.03 11:33:40.
