data_PCOD9024570
_publ_section_title
;
Structure prediction by ZEFSAII (Michael W. Deem and Ramdas Pophale) SiO2 
 PCOD9024570
Probable space group: P -1
;
_chemical_formula_sum "Si O2"
_cell_formula_units_Z 16
_cell_length_a 25.269750
_cell_length_b 25.552337
_cell_length_c 5.499987
_cell_angle_alpha 61.860349
_cell_angle_beta 61.807230
_cell_angle_gamma 11.023004
_cell_volume 597.813069
_symmetry_space_group_name_H-M "P -1"
_symmetry_group_IT_number 2
_symmetry_cell_setting 'triclinic'
loop_
_space_group_symop_operation_xyz
x,y,z
-x,-y,-z
loop_
_atom_site_type_symbol
_atom_site_label
_atom_site_fract_x
_atom_site_fract_y
_atom_site_fract_z
Si Si1 0.822335 0.455610 0.242906
Si Si2 0.296105 0.955399 0.025677
Si Si3 0.578962 0.975358 0.067057
Si Si4 0.161019 0.979997 0.954214
Si Si5 0.431010 0.223082 0.523752
Si Si6 0.895658 0.514811 0.716208
Si Si7 0.399480 0.509929 0.221020
Si Si8 0.095757 0.959780 0.555757
O O1 0.874962 0.468869 0.977090
O O2 0.098720 0.152915 0.254699
O O3 0.586656 0.651913 0.162548
O O4 0.698945 0.593682 0.466561
O O5 0.160314 0.046604 0.914164
O O6 0.375100 0.941475 0.755044
O O7 0.838629 0.713094 0.245613
O O8 0.344891 0.214633 0.242969
O O9 0.500000 0.000000 0.000000
O O10 0.603181 0.014338 0.782392
O O11 0.394277 0.743165 0.760638
O O12 0.252519 0.853209 0.268139
O O13 0.852371 0.255825 0.944540
O O14 0.176881 0.427630 0.531406
O O15 0.677538 0.280705 0.206585
O O16 0.177621 0.742829 0.401944
O O17 0.000000 0.000000 0.500000
#
# Coordination Sequence:
#
# PCOD9024570 Si02
#       8
#     2   2   2   2   2   2   2   2
#     4  10  22  40  65  93 125 164 212 260 312 381
#     4  11  24  41  65  96 126 168 215 257 319 381
#     4  11  24  41  64  95 126 162 211 260 313 381
#     4  11  24  43  64  94 134 166 213 271 311 380
#     4  10  24  44  68  92 131 169 207 266 319 373
#     4  10  22  41  63  94 124 163 213 254 316 381
#     4  10  24  42  66  97 128 173 218 258 327 379
#     4  11  24  42  66  96 130 171 217 266 320 376
#
# _framework density 26.764220000000002
#
# number of rings (size 3 to 8) (size 9 to 14) (size 15 to 20)
#    0.000    1.500    0.000    4.500    0.000   16.000 
#    0.000    2.500    0.000    2.250    0.000    0.000 
#    0.000    0.000    0.000    0.000    0.000    0.000 
#
# Total GULP energy -89332.132337 kJ/mol
# GULP energy per Si atom -5583.258271 kJ/mol
# Density = 2.670330 g / cm^3
# Si number density = 26.764220 Si / 1000 Ang^3
#
#
#
# Elastic Constant Matrix: (Units=GPa)
#
#
# Indices 1 2 3 4 5 6 
#
# 1 140.3214 51.5985 41.5479 2.1287 46.3657 -7.9762
# 2 51.5985 215.1504 44.9077 -4.4930 23.1753 1.6613
# 3 41.5479 44.9077 74.2694 0.8354 12.9939 -3.7663
# 4 2.1287 -4.4930 0.8354 38.3868 2.3927 16.9434
# 5 46.3657 23.1753 12.9939 2.3927 51.9948 -0.8652
# 6 -7.9762 1.6613 -3.7663 16.9434 -0.8652 38.0113
#
#
#
# Elastic Compliance Matrix: (Units=1/GPa)
#
#
# Indices 1 2 3 4 5 6 
#
# 1 0.011915 -0.001029 -0.004333 -0.001208 -0.008987 0.002450
# 2 -0.001029 0.005613 -0.002732 0.001455 -0.000992 -0.001403
# 3 -0.004333 -0.002732 0.017491 -0.001162 0.000789 0.001479
# 4 -0.001208 0.001455 -0.001162 0.033091 -0.001056 -0.015206
# 5 -0.008987 -0.000992 0.000789 -0.001056 0.027529 -0.000667
# 6 0.002450 -0.001403 0.001479 -0.015206 -0.000667 0.033793
#
#
# Mechanical properties :
#
#
# Convention : Reuss Voigt Hill
#
# Bulk Modulus (GPa) = 53.10737 78.42772 65.76754
# Shear Modulus (GPa) = 32.91694 45.12440 39.02067
#
# Velocity S-wave (km/s) = 3.51078 4.11054 3.82244
# Velocity P-wave (km/s) = 6.02659 7.20386 6.64136
#
# Compressibility (1/GPa) = 0.01882978
#
# Stress axis : x y z
#
# Youngs Moduli (GPa) = 83.92719 178.15625 57.17331
#
# Poissons Ratio (x) = 0.18336 0.24774
# Poissons Ratio (y) = 0.08638 0.15621
# Poissons Ratio (z) = 0.36366 0.48677
#
# Static dielectric constant tensor:
#      x y z
#    x 2.166500 -0.016330 -0.053950 
#    y -0.016330 2.020710 -0.025620 
#    z -0.053950 -0.025620 2.111700 
# 
# From -- ./inp_files/127746.got.cif
#   From: 2010.05.17/outbox.cif.g08.bks.cpg/sg2_64_cif.got.tgz:127746.got - 2010.06.03 11:33:40.
