data_PCOD9024020
_publ_section_title
;
Structure prediction by ZEFSAII (Michael W. Deem and Ramdas Pophale) SiO2 
 PCOD9024020
Probable space group: P -1
;
_chemical_formula_sum "Si O2"
_cell_formula_units_Z 12
_cell_length_a 6.917759
_cell_length_b 9.377403
_cell_length_c 18.488336
_cell_angle_alpha 140.311804
_cell_angle_beta 52.482019
_cell_angle_gamma 142.320395
_cell_volume 468.162518
_symmetry_space_group_name_H-M "P -1"
_symmetry_group_IT_number 2
_symmetry_cell_setting 'triclinic'
loop_
_space_group_symop_operation_xyz
x,y,z
-x,-y,-z
loop_
_atom_site_type_symbol
_atom_site_label
_atom_site_fract_x
_atom_site_fract_y
_atom_site_fract_z
Si Si1 0.481755 0.477931 0.243969
Si Si2 0.714803 0.526324 0.554388
Si Si3 0.458143 0.084495 0.687293
Si Si4 0.837676 0.958410 0.112912
Si Si5 0.066811 0.286244 0.568558
Si Si6 0.775707 0.190888 0.071821
O O1 0.296822 0.444949 0.346090
O O2 0.665912 0.785259 0.282625
O O3 0.731199 0.429063 0.187103
O O4 0.200445 0.237164 0.160361
O O5 0.021654 0.271618 0.487334
O O6 0.434428 0.532782 0.596803
O O7 0.642642 0.222384 0.435121
O O8 0.368839 0.084740 0.789281
O O9 0.831075 0.306110 0.671835
O O10 0.727982 0.020801 0.089920
O O11 0.892898 0.722738 0.998325
O O12 0.000000 0.000000 0.500000
O O13 0.500000 0.000000 0.000000
#
# Coordination Sequence:
#
# PCOD9024020 Si02
#       6
#     2   2   2   2   2   2
#     4  11  24  39  70  97 132 179 218 265 330 392
#     4  10  22  40  62  97 142 177 215 266 319 394
#     4  11  23  39  63 102 135 176 218 269 322 391
#     4  10  23  45  69  94 133 166 223 284 324 388
#     4   9  21  38  62  93 133 180 222 260 317 385
#     4   9  22  47  69  94 125 174 220 277 340 383
#
# _framework density 25.632128000000002
#
# number of rings (size 3 to 8) (size 9 to 14) (size 15 to 20)
#    0.000    2.000    0.000    1.500    9.333    6.000 
#    3.000    7.500    0.000    0.000    0.000    0.000 
#    0.000    0.000    0.000    0.000    0.000    0.000 
#
# Total GULP energy -67044.052161 kJ/mol
# GULP energy per Si atom -5587.004347 kJ/mol
# Density = 2.557379 g / cm^3
# Si number density = 25.632128 Si / 1000 Ang^3
#
#
#
# Elastic Constant Matrix: (Units=GPa)
#
#
# Indices 1 2 3 4 5 6 
#
# 1 175.5158 45.9502 87.0296 -23.2533 -19.2800 -38.4037
# 2 45.9502 86.2074 59.5002 -29.7963 -4.6099 -35.6645
# 3 87.0296 59.5002 164.0141 -37.3027 -19.8739 -25.1742
# 4 -23.2533 -29.7963 -37.3027 45.5848 -5.6360 -1.6432
# 5 -19.2800 -4.6099 -19.8739 -5.6360 71.6870 -0.7823
# 6 -38.4037 -35.6645 -25.1742 -1.6432 -0.7823 42.1997
#
#
#
# Elastic Compliance Matrix: (Units=1/GPa)
#
#
# Indices 1 2 3 4 5 6 
#
# 1 0.009475 0.002683 -0.003303 0.004492 0.002258 0.009136
# 2 0.002683 0.031237 -0.003409 0.020451 0.003695 0.027672
# 3 -0.003303 -0.003409 0.010619 0.005078 0.002243 0.000686
# 4 0.004492 0.020451 0.005078 0.043644 0.007649 0.026243
# 5 0.002258 0.003695 0.002243 0.007649 0.016095 0.007112
# 6 0.009136 0.027672 0.000686 0.026243 0.007112 0.056961
#
#
# Mechanical properties :
#
#
# Convention : Reuss Voigt Hill
#
# Bulk Modulus (GPa) = 23.10975 90.07745 56.59360
# Shear Modulus (GPa) = 26.24453 47.44481 36.84467
#
# Velocity S-wave (km/s) = 3.20330 4.30698 3.79547
# Velocity P-wave (km/s) = 4.76624 7.74288 6.42920
#
# Compressibility (1/GPa) = 0.04327178
#
# Stress axis : x y z
#
# Youngs Moduli (GPa) = 105.53538 32.01281 94.17317
#
# Poissons Ratio (x) = -0.08588 0.31110
# Poissons Ratio (y) = -0.28312 0.32106
# Poissons Ratio (z) = 0.34863 0.10914
#
# Static dielectric constant tensor:
#      x y z
#    x 2.131640 0.115750 0.042240 
#    y 0.115750 2.057330 0.084890 
#    z 0.042240 0.084890 2.105380 
# 
# From -- ./inp_files/164514.got.cif
#   From: 2010.05.17/outbox.cif.g08.bks.cpg/sg2_83_cif.got.tgz:164514.got - 2010.06.03 11:33:40.
