data_PCOD9024352
_publ_section_title
;
Structure prediction by ZEFSAII (Michael W. Deem and Ramdas Pophale) SiO2 
 PCOD9024352
Probable space group: P -1
;
_chemical_formula_sum "Si O2"
_cell_formula_units_Z 14
_cell_length_a 14.726432
_cell_length_b 4.921000
_cell_length_c 10.273256
_cell_angle_alpha 85.042158
_cell_angle_beta 49.720710
_cell_angle_gamma 73.322378
_cell_volume 539.053793
_symmetry_space_group_name_H-M "P -1"
_symmetry_group_IT_number 2
_symmetry_cell_setting 'triclinic'
loop_
_space_group_symop_operation_xyz
x,y,z
-x,-y,-z
loop_
_atom_site_type_symbol
_atom_site_label
_atom_site_fract_x
_atom_site_fract_y
_atom_site_fract_z
Si Si1 0.208316 0.401797 0.209723
Si Si2 0.536981 0.608707 0.666994
Si Si3 0.694901 0.468521 0.279572
Si Si4 0.991878 0.830162 0.225942
Si Si5 0.143482 0.905966 0.420551
Si Si6 0.475065 0.160227 0.879705
Si Si7 0.132715 0.156318 0.916138
O O1 0.089537 0.582871 0.228556
O O2 0.874571 0.987680 0.419251
O O3 0.206625 0.088382 0.263690
O O4 0.335382 0.373785 0.018050
O O5 0.424499 0.547233 0.691567
O O6 0.564116 0.353223 0.757411
O O7 0.493733 0.915777 0.763136
O O8 0.353799 0.420433 0.536395
O O9 0.772055 0.671075 0.145890
O O10 0.786339 0.149348 0.205282
O O11 0.940230 0.939686 0.894844
O O12 0.801325 0.424149 0.653508
O O13 0.953380 0.707840 0.133398
O O14 0.000000 0.000000 0.500000
O O15 0.500000 0.000000 0.000000
#
# Coordination Sequence:
#
# PCOD9024352 Si02
#       7
#     2   2   2   2   2   2   2
#     4  11  24  43  67  94 133 178 220 271 336 404
#     4  11  25  47  72  99 139 177 229 283 338 410
#     4  11  25  46  71 101 133 184 228 278 343 396
#     4  10  24  43  66 101 139 178 224 278 339 402
#     4  10  22  40  64  93 128 174 222 266 324 401
#     4  12  26  45  71 103 135 177 227 284 344 404
#     4  11  25  41  68 102 138 175 226 281 335 404
#
# _framework density 25.971436000000001
#
# number of rings (size 3 to 8) (size 9 to 14) (size 15 to 20)
#    0.000    1.143    0.000    5.571    0.000   18.286 
#    0.000    0.000    0.000    0.000    0.000    0.000 
#    0.000    0.000    0.000    0.000    0.000    0.000 
#
# Total GULP energy -78538.020626 kJ/mol
# GULP energy per Si atom -5609.858616 kJ/mol
# Density = 2.591232 g / cm^3
# Si number density = 25.971436 Si / 1000 Ang^3
#
#
#
# Elastic Constant Matrix: (Units=GPa)
#
#
# Indices 1 2 3 4 5 6 
#
# 1 72.9687 10.3307 4.4531 1.6938 6.8964 4.6394
# 2 10.3307 96.3314 1.5389 17.4911 4.7430 14.2370
# 3 4.4531 1.5389 116.4650 19.2757 2.9534 2.5575
# 4 1.6938 17.4911 19.2757 47.7586 10.7443 9.4661
# 5 6.8964 4.7430 2.9534 10.7443 39.4577 -6.8827
# 6 4.6394 14.2370 2.5575 9.4661 -6.8827 40.7083
#
#
#
# Elastic Compliance Matrix: (Units=1/GPa)
#
#
# Indices 1 2 3 4 5 6 
#
# 1 0.014305 -0.001325 -0.000624 0.001283 -0.002980 -0.001930
# 2 -0.001325 0.011698 0.000592 -0.003651 -0.000794 -0.003262
# 3 -0.000624 0.000592 0.009263 -0.004116 0.000522 0.000327
# 4 0.001283 -0.003651 -0.004116 0.026893 -0.007881 -0.006197
# 5 -0.002980 -0.000794 0.000522 -0.007881 0.029354 0.007380
# 6 -0.001930 -0.003262 0.000327 -0.006197 0.007380 0.028594
#
#
# Mechanical properties :
#
#
# Convention : Reuss Voigt Hill
#
# Bulk Modulus (GPa) = 30.72006 35.37892 33.04949
# Shear Modulus (GPa) = 37.40546 43.54775 40.47661
#
# Velocity S-wave (km/s) = 3.79918 4.09926 3.95207
# Velocity P-wave (km/s) = 5.57666 6.00476 5.79466
#
# Compressibility (1/GPa) = 0.03255202
#
# Stress axis : x y z
#
# Youngs Moduli (GPa) = 69.90685 85.48746 107.95577
#
# Poissons Ratio (x) = 0.11327 0.06734
# Poissons Ratio (y) = 0.09263 -0.06392
# Poissons Ratio (z) = 0.04361 -0.05062
#
# Static dielectric constant tensor:
#      x y z
#    x 2.140580 -0.086550 0.036090 
#    y -0.086550 2.018000 0.027390 
#    z 0.036090 0.027390 2.021510 
# 
# From -- ./inp_files/441010.got.cif
#   From: 2010.05.17/outbox.cif.g08.bks.cpg/sg2_221_cif.got.tgz:441010.got - 2010.06.03 11:33:40.
