data_PCOD9024463
_publ_section_title
;
Structure prediction by ZEFSAII (Michael W. Deem and Ramdas Pophale) SiO2 
 PCOD9024463
Probable space group: P -1
;
_chemical_formula_sum "Si O2"
_cell_formula_units_Z 16
_cell_length_a 21.369444
_cell_length_b 5.587375
_cell_length_c 7.754966
_cell_angle_alpha 89.685959
_cell_angle_beta 60.437539
_cell_angle_gamma 59.866343
_cell_volume 659.462800
_symmetry_space_group_name_H-M "P -1"
_symmetry_group_IT_number 2
_symmetry_cell_setting 'triclinic'
loop_
_space_group_symop_operation_xyz
x,y,z
-x,-y,-z
loop_
_atom_site_type_symbol
_atom_site_label
_atom_site_fract_x
_atom_site_fract_y
_atom_site_fract_z
Si Si1 0.213985 0.912319 0.550451
Si Si2 0.217648 0.518389 0.845093
Si Si3 0.682765 0.302190 0.076529
Si Si4 0.076263 0.548881 0.883503
Si Si5 0.517144 0.716005 0.079129
Si Si6 0.012479 0.784417 0.630700
Si Si7 0.850330 0.847278 0.716173
Si Si8 0.363319 0.869740 0.524711
O O1 0.203152 0.721142 0.700783
O O2 0.313596 0.815135 0.441671
O O3 0.155910 0.243292 0.696558
O O4 0.180565 0.925112 0.403653
O O5 0.253000 0.606702 0.953228
O O6 0.122748 0.571693 0.987983
O O7 0.296803 0.198004 0.680767
O O8 0.615017 0.513254 0.023904
O O9 0.629644 0.315902 0.317619
O O10 0.755181 0.964175 0.923366
O O11 0.041231 0.798142 0.783952
O O12 0.000000 0.500000 0.000000
O O13 0.449338 0.824783 0.330714
O O14 0.500000 0.500000 0.000000
O O15 0.500000 0.000000 0.000000
O O16 0.089748 0.466959 0.453931
O O17 0.918316 0.830367 0.759482
O O18 0.000000 0.000000 0.500000
#
# Coordination Sequence:
#
# PCOD9024463 Si02
#       8
#     2   2   2   2   2   2   2   2
#     4   9  20  42  65  97 138 189 238 304 362 446
#     4  10  23  41  71 101 140 198 239 301 376 435
#     4  11  26  46  73 107 150 192 250 312 373 460
#     4  10  22  40  64  98 137 183 245 307 363 437
#     4  12  30  52  82 118 152 199 248 311 384 464
#     4  10  22  41  65  93 136 186 240 304 355 437
#     4  10  22  41  65  98 140 183 244 297 368 428
#     4  10  24  45  74 106 149 188 245 308 372 447
#
# _framework density 24.262170999999999
#
# number of rings (size 3 to 8) (size 9 to 14) (size 15 to 20)
#    0.000    1.750    0.000    1.875   12.250    2.000 
#    4.500    0.000    0.000    0.000    0.000    0.000 
#    0.000    0.000    0.000    0.000    0.000    0.000 
#
# Total GULP energy -89406.488656 kJ/mol
# GULP energy per Si atom -5587.905541 kJ/mol
# Density = 2.420695 g / cm^3
# Si number density = 24.262171 Si / 1000 Ang^3
#
#
#
# Elastic Constant Matrix: (Units=GPa)
#
#
# Indices 1 2 3 4 5 6 
#
# 1 157.9531 64.7726 41.8781 -1.5114 -1.6994 -30.8700
# 2 64.7726 131.8009 36.1267 -8.2574 -4.0811 -31.2223
# 3 41.8781 36.1267 108.6825 5.2946 -19.8405 -20.4833
# 4 -1.5114 -8.2574 5.2946 36.2984 -4.6126 -3.5895
# 5 -1.6994 -4.0811 -19.8405 -4.6126 39.2249 -0.1056
# 6 -30.8700 -31.2223 -20.4833 -3.5895 -0.1056 36.2912
#
#
#
# Elastic Compliance Matrix: (Units=1/GPa)
#
#
# Indices 1 2 3 4 5 6 
#
# 1 0.008766 -0.002871 -0.001834 0.000270 -0.000804 0.003975
# 2 -0.002871 0.011215 -0.001371 0.003399 0.000767 0.006770
# 3 -0.001834 -0.001371 0.012256 -0.001025 0.005868 0.004094
# 4 0.000270 0.003399 -0.001025 0.029449 0.003325 0.005497
# 5 -0.000804 0.000767 0.005868 0.003325 0.028908 0.003701
# 6 0.003975 0.006770 0.004094 0.005497 0.003701 0.039626
#
#
# Mechanical properties :
#
#
# Convention : Reuss Voigt Hill
#
# Bulk Modulus (GPa) = 49.79130 75.99904 62.89517
# Shear Modulus (GPa) = 33.54207 39.40685 36.47446
#
# Velocity S-wave (km/s) = 3.72221 4.03452 3.88151
# Velocity P-wave (km/s) = 6.24819 7.28665 6.78731
#
# Compressibility (1/GPa) = 0.02008383
#
# Stress axis : x y z
#
# Youngs Moduli (GPa) = 114.08354 89.16953 81.59176
#
# Poissons Ratio (x) = 0.25604 0.14963
# Poissons Ratio (y) = 0.32758 0.11186
# Poissons Ratio (z) = 0.20921 0.12225
#
# Static dielectric constant tensor:
#      x y z
#    x 2.017590 0.066160 -0.047030 
#    y 0.066160 1.961600 -0.052480 
#    z -0.047030 -0.052480 1.998090 
# 
# From -- ./inp_files/340317.got.cif
#   From: 2010.05.17/outbox.cif.g08.bks.cpg/sg2_171_cif.got.tgz:340317.got - 2010.06.03 11:33:40.
