data_PCOD9024835
_publ_section_title
;
Structure prediction by ZEFSAII (Michael W. Deem and Ramdas Pophale) SiO2 
 PCOD9024835
Probable space group: P -1
;
_chemical_formula_sum "Si O2"
_cell_formula_units_Z 14
_cell_length_a 18.231598
_cell_length_b 13.232970
_cell_length_c 9.240377
_cell_angle_alpha 36.405634
_cell_angle_beta 131.485659
_cell_angle_gamma 149.835318
_cell_volume 660.651478
_symmetry_space_group_name_H-M "P -1"
_symmetry_group_IT_number 2
_symmetry_cell_setting 'triclinic'
loop_
_space_group_symop_operation_xyz
x,y,z
-x,-y,-z
loop_
_atom_site_type_symbol
_atom_site_label
_atom_site_fract_x
_atom_site_fract_y
_atom_site_fract_z
Si Si1 0.532851 0.486079 0.823743
Si Si2 0.634965 0.957250 0.295703
Si Si3 0.731989 0.772175 0.037031
Si Si4 0.034250 0.575203 0.792054
Si Si5 0.966794 0.641007 0.224009
Si Si6 0.229091 0.564727 0.541323
Si Si7 0.480587 0.060369 0.136074
O O1 0.545869 0.666424 0.529665
O O2 0.369757 0.268383 0.930550
O O3 0.644392 0.668360 0.891212
O O4 0.561470 0.339891 0.960286
O O5 0.578341 0.025792 0.256383
O O6 0.804405 0.136187 0.340378
O O7 0.614282 0.013432 0.045785
O O8 0.741528 0.586052 0.302296
O O9 0.893741 0.059615 0.908947
O O10 0.043880 0.414003 0.896081
O O11 0.907284 0.527959 0.614250
O O12 0.000000 0.500000 0.000000
O O13 0.823641 0.515205 0.269022
O O14 0.000000 0.500000 0.500000
O O15 0.372274 0.861398 0.352358
#
# Coordination Sequence:
#
# PCOD9024835 Si02
#       7
#     2   2   2   2   2   2   2
#     4  11  23  42  68  98 135 180 224 278 335 400
#     4  11  24  44  66 101 136 178 227 277 334 404
#     4  11  24  41  65 101 134 171 230 276 335 403
#     4  11  23  43  68  96 133 177 225 270 336 401
#     4  10  22  40  66  92 134 174 216 272 336 387
#     4  11  22  44  67  99 136 174 219 285 331 399
#     4  11  24  43  71  97 138 177 226 277 337 397
#
# _framework density 21.191203999999999
#
# number of rings (size 3 to 8) (size 9 to 14) (size 15 to 20)
#    0.000    1.143    2.857    4.286    2.000    1.714 
#    0.000    0.714    0.000    0.000    0.000    0.000 
#    0.000    0.000    0.000    0.000    0.000    0.000 
#
# Total GULP energy -78255.493076 kJ/mol
# GULP energy per Si atom -5589.678077 kJ/mol
# Density = 2.114297 g / cm^3
# Si number density = 21.191204 Si / 1000 Ang^3
#
#
#
# Elastic Constant Matrix: (Units=GPa)
#
#
# Indices 1 2 3 4 5 6 
#
# 1 108.7055 31.3762 41.4341 -4.6558 -10.2195 -6.1944
# 2 31.3762 36.1090 23.3503 -4.2870 -12.8168 -6.7254
# 3 41.4341 23.3503 90.1721 -21.5259 4.3425 2.0271
# 4 -4.6558 -4.2870 -21.5259 40.8951 -0.9766 6.5456
# 5 -10.2195 -12.8168 4.3425 -0.9766 36.9686 -3.4042
# 6 -6.1944 -6.7254 2.0271 6.5456 -3.4042 28.8797
#
#
#
# Elastic Compliance Matrix: (Units=1/GPa)
#
#
# Indices 1 2 3 4 5 6 
#
# 1 0.013486 -0.007891 -0.004782 -0.002099 0.001689 0.002066
# 2 -0.007891 0.050388 -0.011395 -0.003383 0.017799 0.013706
# 3 -0.004782 -0.011395 0.019047 0.009390 -0.008007 -0.008089
# 4 -0.002099 -0.003383 0.009390 0.030186 -0.002895 -0.009080
# 5 0.001689 0.017799 -0.008007 -0.002895 0.035464 0.009906
# 6 0.002066 0.013706 -0.008089 -0.009080 0.009906 0.042055
#
#
# Mechanical properties :
#
#
# Convention : Reuss Voigt Hill
#
# Bulk Modulus (GPa) = 28.74830 47.47864 38.11347
# Shear Modulus (GPa) = 19.97131 30.60376 25.28753
#
# Velocity S-wave (km/s) = 3.07324 3.80435 3.45817
# Velocity P-wave (km/s) = 5.11749 6.46150 5.82836
#
# Compressibility (1/GPa) = 0.03478467
#
# Stress axis : x y z
#
# Youngs Moduli (GPa) = 74.14971 19.84582 52.50076
#
# Poissons Ratio (x) = 0.15660 0.25108
# Poissons Ratio (y) = 0.58512 0.59825
# Poissons Ratio (z) = 0.35462 0.22615
#
# Static dielectric constant tensor:
#      x y z
#    x 1.803790 -0.000580 -0.026020 
#    y -0.000580 1.775310 0.019870 
#    z -0.026020 0.019870 1.758290 
# 
# From -- ./inp_files/332754.got.cif
#   From: 2010.05.17/outbox.cif.g08.bks.cpg/sg2_167_cif.got.tgz:332754.got - 2010.06.03 11:33:40.
