data_PCOD9024025
_publ_section_title
;
Structure prediction by ZEFSAII (Michael W. Deem and Ramdas Pophale) SiO2 
 PCOD9024025
Probable space group: P -1
;
_chemical_formula_sum "Si O2"
_cell_formula_units_Z 16
_cell_length_a 14.059885
_cell_length_b 14.196907
_cell_length_c 5.568303
_cell_angle_alpha 53.300227
_cell_angle_beta 63.272443
_cell_angle_gamma 46.341962
_cell_volume 643.399784
_symmetry_space_group_name_H-M "P -1"
_symmetry_group_IT_number 2
_symmetry_cell_setting 'triclinic'
loop_
_space_group_symop_operation_xyz
x,y,z
-x,-y,-z
loop_
_atom_site_type_symbol
_atom_site_label
_atom_site_fract_x
_atom_site_fract_y
_atom_site_fract_z
Si Si1 0.618424 0.504203 0.454381
Si Si2 0.730454 0.624855 0.765366
Si Si3 0.120211 0.638983 0.370330
Si Si4 0.719311 0.043776 0.176735
Si Si5 0.634677 0.963642 0.000840
Si Si6 0.974209 0.950504 0.851113
Si Si7 0.480593 0.759309 0.586281
Si Si8 0.143360 0.246658 0.263430
O O1 0.500000 0.500000 0.500000
O O2 0.760310 0.375086 0.601513
O O3 0.548332 0.612577 0.592724
O O4 0.666279 0.568942 0.102277
O O5 0.824156 0.500338 0.653084
O O6 0.602540 0.752618 0.569435
O O7 0.801034 0.680864 0.752434
O O8 0.013963 0.656173 0.658307
O O9 0.051574 0.777815 0.060288
O O10 0.622090 0.203581 0.145280
O O11 0.813421 0.909582 0.450298
O O12 0.634916 0.994460 0.231550
O O13 0.819408 0.028320 0.897675
O O14 0.769610 0.811869 0.991993
O O15 0.612165 0.106615 0.687073
O O16 0.500000 0.000000 0.000000
O O17 0.000000 0.000000 0.500000
O O18 0.000000 0.000000 0.000000
#
# Coordination Sequence:
#
# PCOD9024025 Si02
#       8
#     2   2   2   2   2   2   2   2
#     4  11  26  45  69  98 145 191 248 304 366 444
#     4  11  23  43  67  98 142 190 236 302 370 446
#     4  10  26  46  70 105 140 188 246 304 373 447
#     4  10  23  41  67 100 142 183 240 306 365 440
#     4  11  21  37  68 102 141 186 235 298 366 439
#     4  11  28  48  77 107 145 193 252 313 376 445
#     4  10  22  40  62  98 134 181 240 289 368 426
#     4  10  22  41  68 103 143 181 240 302 373 439
#
# _framework density 24.867898
#
# number of rings (size 3 to 8) (size 9 to 14) (size 15 to 20)
#    0.000    1.500    0.000    3.375    7.000    9.500 
#    0.000    0.000    0.000    0.000    0.000    0.000 
#    0.000    0.000    0.000    0.000    0.000    0.000 
#
# Total GULP energy -89294.150836 kJ/mol
# GULP energy per Si atom -5580.884427 kJ/mol
# Density = 2.481130 g / cm^3
# Si number density = 24.867898 Si / 1000 Ang^3
#
#
#
# Elastic Constant Matrix: (Units=GPa)
#
#
# Indices 1 2 3 4 5 6 
#
# 1 156.1139 47.5703 22.2362 14.3644 -14.2708 -20.0906
# 2 47.5703 143.6368 33.6122 27.1787 -1.7838 -27.2260
# 3 22.2362 33.6122 81.4641 14.9703 -14.6528 -19.4270
# 4 14.3644 27.1787 14.9703 31.6375 -6.1991 -1.9962
# 5 -14.2708 -1.7838 -14.6528 -6.1991 32.6966 5.4990
# 6 -20.0906 -27.2260 -19.4270 -1.9962 5.4990 34.4618
#
#
#
# Elastic Compliance Matrix: (Units=1/GPa)
#
#
# Indices 1 2 3 4 5 6 
#
# 1 0.007626 -0.001758 -0.000060 -0.001266 0.002537 0.002544
# 2 -0.001758 0.010586 -0.001495 -0.007850 -0.003457 0.006593
# 3 -0.000060 -0.001495 0.016402 -0.005008 0.005129 0.006921
# 4 -0.001266 -0.007850 -0.005008 0.041973 0.006131 -0.008310
# 5 0.002537 -0.003457 0.005129 0.006131 0.035584 -0.003683
# 6 0.002544 0.006593 0.006921 -0.008310 -0.003683 0.039718
#
#
# Mechanical properties :
#
#
# Convention : Reuss Voigt Hill
#
# Bulk Modulus (GPa) = 35.73083 65.33913 50.53498
# Shear Modulus (GPa) = 29.78957 38.27890 34.03424
#
# Velocity S-wave (km/s) = 3.46484 3.92763 3.70347
# Velocity P-wave (km/s) = 5.51419 6.84835 6.21716
#
# Compressibility (1/GPa) = 0.02798703
#
# Stress axis : x y z
#
# Youngs Moduli (GPa) = 131.13432 94.46297 60.96800
#
# Poissons Ratio (x) = 0.16608 0.00368
# Poissons Ratio (y) = 0.23055 0.09115
# Poissons Ratio (z) = 0.00791 0.14123
#
# Static dielectric constant tensor:
#      x y z
#    x 1.985970 0.073530 0.028340 
#    y 0.073530 1.919720 -0.015770 
#    z 0.028340 -0.015770 2.205850 
# 
# From -- ./inp_files/97552.got.cif
#   From: 2010.05.17/outbox.cif.g08.bks.cpg/sg2_49_cif.got.tgz:97552.got - 2010.06.03 11:33:40.
