data_PCOD9024917
_publ_section_title
;
Structure prediction by ZEFSAII (Michael W. Deem and Ramdas Pophale) SiO2 
 PCOD9024917
Probable space group: P -1
;
_chemical_formula_sum "Si O2"
_cell_formula_units_Z 16
_cell_length_a 19.612289
_cell_length_b 7.898026
_cell_length_c 13.260191
_cell_angle_alpha 61.994885
_cell_angle_beta 145.973960
_cell_angle_gamma 142.236955
_cell_volume 591.621655
_symmetry_space_group_name_H-M "P -1"
_symmetry_group_IT_number 2
_symmetry_cell_setting 'triclinic'
loop_
_space_group_symop_operation_xyz
x,y,z
-x,-y,-z
loop_
_atom_site_type_symbol
_atom_site_label
_atom_site_fract_x
_atom_site_fract_y
_atom_site_fract_z
Si Si1 0.639238 0.398404 0.571124
Si Si2 0.797128 0.295804 0.205120
Si Si3 0.870347 0.398934 0.965172
Si Si4 0.092875 0.354756 0.367187
Si Si5 0.644377 0.086875 0.299707
Si Si6 0.610592 0.608248 0.809525
Si Si7 0.006999 0.863379 0.170367
Si Si8 0.706488 0.808289 0.102196
O O1 0.758603 0.513810 0.579350
O O2 0.425985 0.238544 0.335608
O O3 0.659406 0.235358 0.711319
O O4 0.785269 0.750614 0.697980
O O5 0.773662 0.259909 0.306082
O O6 0.801055 0.094521 0.214388
O O7 0.973554 0.664710 0.274712
O O8 0.577922 0.098780 0.947346
O O9 0.909969 0.264076 0.122187
O O10 0.000000 0.500000 0.000000
O O11 0.966901 0.687216 0.071823
O O12 0.239979 0.647397 0.545745
O O13 0.931686 0.985957 0.311507
O O14 0.568695 0.778021 0.324395
O O15 0.826486 0.787558 0.993049
O O16 0.602692 0.643634 0.908857
O O17 0.500000 0.500000 0.000000
#
# Coordination Sequence:
#
# PCOD9024917 Si02
#       8
#     2   2   2   2   2   2   2   2
#     4  11  24  44  69 101 138 182 237 286 344 407
#     4  10  22  40  66  95 143 179 228 278 342 408
#     4  10  23  44  71 100 133 184 229 292 343 410
#     4  11  23  44  70  97 142 183 232 285 349 403
#     4  10  22  41  66 100 134 187 227 275 345 416
#     4  11  24  41  68 104 141 180 233 283 342 408
#     4  11  22  43  70  98 143 180 224 292 343 405
#     4  12  23  42  67 100 141 182 225 286 337 411
#
# _framework density 27.044311
#
# number of rings (size 3 to 8) (size 9 to 14) (size 15 to 20)
#    0.000    1.250    3.750    1.875    0.000    2.000 
#    0.000    3.750    0.000    0.000    0.000    0.000 
#    0.000    0.000    0.000    0.000    0.000    0.000 
#
# Total GULP energy -89391.675691 kJ/mol
# GULP energy per Si atom -5586.979731 kJ/mol
# Density = 2.698276 g / cm^3
# Si number density = 27.044311 Si / 1000 Ang^3
#
#
#
# Elastic Constant Matrix: (Units=GPa)
#
#
# Indices 1 2 3 4 5 6 
#
# 1 100.2576 -12.3035 17.4238 3.9717 -21.8496 -17.2260
# 2 -12.3035 58.4623 10.0939 17.5462 5.3479 -9.4154
# 3 17.4238 10.0939 93.0638 -11.4197 2.7191 -1.6197
# 4 3.9717 17.5462 -11.4197 39.4617 1.4687 5.9858
# 5 -21.8496 5.3479 2.7191 1.4687 50.5981 1.8453
# 6 -17.2260 -9.4154 -1.6197 5.9858 1.8453 38.8587
#
#
#
# Elastic Compliance Matrix: (Units=1/GPa)
#
#
# Indices 1 2 3 4 5 6 
#
# 1 0.014670 0.006987 -0.004428 -0.007425 0.005726 0.008883
# 2 0.006987 0.026156 -0.005903 -0.015823 0.000606 0.011598
# 3 -0.004428 -0.005903 0.013132 0.007541 -0.002070 -0.003909
# 4 -0.007425 -0.015823 0.007541 0.037288 -0.002568 -0.012433
# 5 0.005726 0.000606 -0.002070 -0.002568 0.022287 0.001936
# 6 0.008883 0.011598 -0.003909 -0.012433 0.001936 0.034143
#
#
# Mechanical properties :
#
#
# Convention : Reuss Voigt Hill
#
# Bulk Modulus (GPa) = 21.15467 31.35689 26.25578
# Shear Modulus (GPa) = 29.39111 41.55499 35.47305
#
# Velocity S-wave (km/s) = 3.30021 3.92414 3.62562
# Velocity P-wave (km/s) = 4.72874 5.67024 5.22076
#
# Compressibility (1/GPa) = 0.04727088
#
# Stress axis : x y z
#
# Youngs Moduli (GPa) = 68.16783 38.23224 76.14789
#
# Poissons Ratio (x) = -0.26714 0.33720
# Poissons Ratio (y) = -0.47631 0.44947
# Poissons Ratio (z) = 0.30186 0.22567
#
# Static dielectric constant tensor:
#      x y z
#    x 2.089940 0.027340 0.032010 
#    y 0.027340 2.158630 -0.038900 
#    z 0.032010 -0.038900 2.157580 
# 
# From -- ./inp_files/469954.got.cif
#   From: 2010.05.17/outbox.cif.g08.bks.cpg/sg2_235_cif.got.tgz:469954.got - 2010.06.03 11:33:40.
