data_PCOD9024054
_publ_section_title
;
Structure prediction by ZEFSAII (Michael W. Deem and Ramdas Pophale) SiO2 
 PCOD9024054
Probable space group: P -1
;
_chemical_formula_sum "Si O2"
_cell_formula_units_Z 14
_cell_length_a 13.114766
_cell_length_b 11.332780
_cell_length_c 11.129014
_cell_angle_alpha 127.976526
_cell_angle_beta 35.578913
_cell_angle_gamma 145.703761
_cell_volume 534.138292
_symmetry_space_group_name_H-M "P -1"
_symmetry_group_IT_number 2
_symmetry_cell_setting 'triclinic'
loop_
_space_group_symop_operation_xyz
x,y,z
-x,-y,-z
loop_
_atom_site_type_symbol
_atom_site_label
_atom_site_fract_x
_atom_site_fract_y
_atom_site_fract_z
Si Si1 0.073363 0.092197 0.854485
Si Si2 0.324273 0.459132 0.538040
Si Si3 0.213237 0.495975 0.027226
Si Si4 0.000000 0.500000 0.000000
Si Si5 0.539913 0.857148 0.133764
Si Si6 0.215396 0.594790 0.514066
Si Si7 0.000000 0.000000 0.500000
Si Si8 0.212056 0.913354 0.430314
O O1 0.828199 0.998665 0.959515
O O2 0.242269 0.341486 0.865883
O O3 0.166055 0.008472 0.636370
O O4 0.000000 0.000000 0.000000
O O5 0.500000 0.500000 0.500000
O O6 0.358636 0.611445 0.500929
O O7 0.095625 0.396851 0.790389
O O8 0.224017 0.255721 0.436855
O O9 0.414646 0.675490 0.040802
O O10 0.941289 0.353919 0.264179
O O11 0.177674 0.579455 0.999265
O O12 0.402603 0.741439 0.319077
O O13 0.473074 0.986698 0.243824
O O14 0.001537 0.345538 0.522799
O O15 0.186147 0.989644 0.381575
#
# Coordination Sequence:
#
# PCOD9024054 Si02
#       8
#     2   2   2   1   2   2   1   2
#     4  12  26  39  63  99 124 157 214 260 306 375
#     4  10  22  40  63  89 121 163 204 254 313 367
#     4  10  22  42  64  91 125 162 207 256 310 373
#     4  10  22  42  64  90 126 160 204 262 306 366
#     4  11  24  44  65  87 128 174 201 256 322 362
#     4   9  20  41  64  89 123 164 211 250 304 378
#     4  10  22  42  64  90 126 160 204 262 306 366
#     4  10  22  42  64  91 125 162 207 256 310 373
#
# _framework density 26.210439999999998
#
# number of rings (size 3 to 8) (size 9 to 14) (size 15 to 20)
#    0.000    1.714    0.000    5.143    0.000   11.429 
#    0.000    3.571    0.000    0.000    0.000    0.000 
#    0.000    0.000    0.000    0.000    0.000    0.000 
#
# Total GULP energy -77975.949336 kJ/mol
# GULP energy per Si atom -5569.710667 kJ/mol
# Density = 2.615078 g / cm^3
# Si number density = 26.210440 Si / 1000 Ang^3
#
#
#
# Elastic Constant Matrix: (Units=GPa)
#
#
# Indices 1 2 3 4 5 6 
#
# 1 163.7876 28.4857 16.1623 -5.7822 -14.5626 5.3142
# 2 28.4857 57.1682 13.0208 3.3206 -4.2823 7.1663
# 3 16.1623 13.0208 101.6636 15.8481 -16.6498 3.9589
# 4 -5.7822 3.3206 15.8481 27.2323 -0.7230 -4.4191
# 5 -14.5626 -4.2823 -16.6498 -0.7230 52.6950 0.2266
# 6 5.3142 7.1663 3.9589 -4.4191 0.2266 46.4029
#
#
#
# Elastic Compliance Matrix: (Units=1/GPa)
#
#
# Indices 1 2 3 4 5 6 
#
# 1 0.006976 -0.003322 -0.000825 0.002405 0.001430 0.000006
# 2 -0.003322 0.020013 -0.001459 -0.002753 0.000222 -0.002849
# 3 -0.000825 -0.001459 0.011844 -0.007026 0.003306 -0.001376
# 4 0.002405 -0.002753 -0.007026 0.042402 -0.001218 0.004793
# 5 0.001430 0.000222 0.003306 -0.001218 0.020421 -0.000696
# 6 0.000006 -0.002849 -0.001376 0.004793 -0.000696 0.022567
#
#
# Mechanical properties :
#
#
# Convention : Reuss Voigt Hill
#
# Bulk Modulus (GPa) = 36.20013 48.66188 42.43101
# Shear Modulus (GPa) = 34.56804 42.92941 38.74872
#
# Velocity S-wave (km/s) = 3.63556 4.05146 3.84913
# Velocity P-wave (km/s) = 5.60931 6.36332 5.99818
#
# Compressibility (1/GPa) = 0.02762421
#
# Stress axis : x y z
#
# Youngs Moduli (GPa) = 143.33942 49.96667 84.42769
#
# Poissons Ratio (x) = 0.16598 0.06962
# Poissons Ratio (y) = 0.47614 0.12315
# Poissons Ratio (z) = 0.11820 0.07288
#
# Static dielectric constant tensor:
#      x y z
#    x 2.014570 0.025130 0.039970 
#    y 0.025130 2.128710 -0.108290 
#    z 0.039970 -0.108290 2.097230 
# 
# From -- ./inp_files/426629.got.cif
#   From: 2010.05.17/outbox.cif.g08.bks.cpg/sg2_214_cif.got.tgz:426629.got - 2010.06.03 11:33:40.
