data_PCOD9024558
_publ_section_title
;
Structure prediction by ZEFSAII (Michael W. Deem and Ramdas Pophale) SiO2 
 PCOD9024558
Probable space group: P -1
;
_chemical_formula_sum "Si O2"
_cell_formula_units_Z 11
_cell_length_a 10.627164
_cell_length_b 12.989632
_cell_length_c 11.061715
_cell_angle_alpha 45.080340
_cell_angle_beta 153.191865
_cell_angle_gamma 130.255088
_cell_volume 487.042458
_symmetry_space_group_name_H-M "P -1"
_symmetry_group_IT_number 2
_symmetry_cell_setting 'triclinic'
loop_
_space_group_symop_operation_xyz
x,y,z
-x,-y,-z
loop_
_atom_site_type_symbol
_atom_site_label
_atom_site_fract_x
_atom_site_fract_y
_atom_site_fract_z
Si Si1 0.298372 0.332970 0.345384
Si Si2 0.780308 0.416254 0.295173
Si Si3 0.646357 0.089694 0.420126
Si Si4 0.862980 0.491897 0.699765
Si Si5 0.000000 0.000000 0.000000
Si Si6 0.312669 0.012212 0.711279
O O1 0.572451 0.422930 0.456257
O O2 0.219650 0.402329 0.350013
O O3 0.363033 0.167546 0.559877
O O4 0.036698 0.362126 0.012352
O O5 0.709211 0.248101 0.403280
O O6 0.000000 0.500000 0.500000
O O7 0.933137 0.428632 0.286728
O O8 0.500000 0.500000 0.000000
O O9 0.896547 0.000917 0.765360
O O10 0.658420 0.104234 0.273633
O O11 0.331763 0.029759 0.225663
O O12 0.000000 0.000000 0.500000
O O13 0.500000 0.000000 0.000000
#
# Coordination Sequence:
#
# PCOD9024558 Si02
#       6
#     2   2   2   2   1   2
#     4  10  22  40  65  92 121 165 208 263 323 374
#     4  12  26  42  66  95 129 175 219 270 328 384
#     4  11  25  45  67  97 134 173 222 275 324 392
#     4  10  22  41  63  91 126 160 213 264 311 383
#     4  10  24  44  68  92 132 178 216 268 324 384
#     4  12  25  41  67  98 132 171 214 269 336 396
#
# _framework density 22.585298000000002
#
# number of rings (size 3 to 8) (size 9 to 14) (size 15 to 20)
#    0.000    1.091    0.000    5.455    0.000   13.091 
#    0.000    0.000    0.000    0.000    0.000    0.000 
#    0.000    0.000    0.000    0.000    0.000    0.000 
#
# Total GULP energy -61249.193409 kJ/mol
# GULP energy per Si atom -5568.108492 kJ/mol
# Density = 2.253389 g / cm^3
# Si number density = 22.585298 Si / 1000 Ang^3
#
#
#
# Elastic Constant Matrix: (Units=GPa)
#
#
# Indices 1 2 3 4 5 6 
#
# 1 81.9691 7.0346 31.2760 22.6743 15.2564 9.4489
# 2 7.0346 79.4872 31.3713 9.1555 5.9709 1.9043
# 3 31.2760 31.3713 163.0785 54.0180 9.9174 -8.3033
# 4 22.6743 9.1555 54.0180 32.2487 4.1204 1.3611
# 5 15.2564 5.9709 9.9174 4.1204 45.2417 12.8948
# 6 9.4489 1.9043 -8.3033 1.3611 12.8948 24.4420
#
#
#
# Elastic Compliance Matrix: (Units=1/GPa)
#
#
# Indices 1 2 3 4 5 6 
#
# 1 0.016375 -0.000086 0.001209 -0.012907 -0.003672 -0.003257
# 2 -0.000086 0.013775 -0.003299 0.001843 -0.000693 -0.001898
# 3 0.001209 -0.003299 0.016007 -0.026641 -0.003493 0.008554
# 4 -0.012907 0.001843 -0.026641 0.083961 0.005689 -0.011881
# 5 -0.003672 -0.000693 -0.003493 0.005689 0.027882 -0.014739
# 6 -0.003257 -0.001898 0.008554 -0.011881 -0.014739 0.053664
#
#
# Mechanical properties :
#
#
# Convention : Reuss Voigt Hill
#
# Bulk Modulus (GPa) = 23.91950 51.54428 37.73189
# Shear Modulus (GPa) = 21.74387 37.37669 29.56028
#
# Velocity S-wave (km/s) = 3.10618 4.07247 3.62170
# Velocity P-wave (km/s) = 4.84543 6.70709 5.85078
#
# Compressibility (1/GPa) = 0.04180689
#
# Stress axis : x y z
#
# Youngs Moduli (GPa) = 61.06819 72.59386 62.47186
#
# Poissons Ratio (x) = 0.00622 -0.07552
# Poissons Ratio (y) = 0.00524 0.20607
# Poissons Ratio (z) = -0.07383 0.23945
#
# Static dielectric constant tensor:
#      x y z
#    x 1.851820 0.004670 -0.058090 
#    y 0.004670 1.852960 -0.033080 
#    z -0.058090 -0.033080 1.792910 
# 
# From -- ./inp_files/425366.got.cif
#   From: 2010.05.17/outbox.cif.g08.bks.cpg/sg2_213_cif.got.tgz:425366.got - 2010.06.03 11:33:40.
