data_PCOD9024852
_publ_section_title
;
Structure prediction by ZEFSAII (Michael W. Deem and Ramdas Pophale) SiO2 
 PCOD9024852
Probable space group: P -1
;
_chemical_formula_sum "Si O2"
_cell_formula_units_Z 14
_cell_length_a 12.269473
_cell_length_b 7.019929
_cell_length_c 19.908542
_cell_angle_alpha 66.655955
_cell_angle_beta 23.143401
_cell_angle_gamma 62.154245
_cell_volume 593.178441
_symmetry_space_group_name_H-M "P -1"
_symmetry_group_IT_number 2
_symmetry_cell_setting 'triclinic'
loop_
_space_group_symop_operation_xyz
x,y,z
-x,-y,-z
loop_
_atom_site_type_symbol
_atom_site_label
_atom_site_fract_x
_atom_site_fract_y
_atom_site_fract_z
Si Si1 0.753789 0.249462 0.633304
Si Si2 0.251769 0.657159 0.891790
Si Si3 0.204980 0.514232 0.202297
Si Si4 0.800067 0.996857 0.367681
Si Si5 0.119943 0.643144 0.812208
Si Si6 0.376956 0.159351 0.267264
Si Si7 0.283933 0.672965 0.516197
O O1 0.558255 0.471778 0.740565
O O2 0.746622 0.271631 0.553283
O O3 0.087691 0.193567 0.471535
O O4 0.614148 0.053855 0.751526
O O5 0.153809 0.693926 0.864883
O O6 0.333306 0.854296 0.853980
O O7 0.051556 0.538350 0.062256
O O8 0.305188 0.366255 0.231244
O O9 0.007583 0.756354 0.295084
O O10 0.991452 0.407615 0.297147
O O11 0.500000 0.500000 0.000000
O O12 0.500000 0.000000 0.500000
O O13 0.972394 0.131261 0.206442
O O14 0.712166 0.126355 0.468542
O O15 0.423560 0.521892 0.621333
#
# Coordination Sequence:
#
# PCOD9024852 Si02
#       7
#     2   2   2   2   2   2   2
#     4   9  21  40  65  98 126 172 218 272 332 392
#     4  10  22  41  67  97 133 167 221 283 324 384
#     4  11  27  44  66 103 134 172 225 273 332 396
#     4  12  26  43  72  94 131 189 217 265 337 396
#     4  10  23  44  65 101 133 174 226 268 328 402
#     4  10  22  40  66  93 133 173 215 277 332 387
#     4  10  23  45  66  96 136 169 223 274 322 398
#
# _framework density 23.601669000000001
#
# number of rings (size 3 to 8) (size 9 to 14) (size 15 to 20)
#    0.000    1.714    1.429    0.857    6.000    4.000 
#    0.000    2.143    0.000    0.000    0.000    0.000 
#    0.000    0.000    0.000    0.000    0.000    0.000 
#
# Total GULP energy -78289.942790 kJ/mol
# GULP energy per Si atom -5592.138771 kJ/mol
# Density = 2.354795 g / cm^3
# Si number density = 23.601669 Si / 1000 Ang^3
#
#
#
# Elastic Constant Matrix: (Units=GPa)
#
#
# Indices 1 2 3 4 5 6 
#
# 1 67.6622 32.0255 25.0365 -20.1633 -0.4865 16.5446
# 2 32.0255 93.5000 15.1398 -10.3216 5.7874 8.5044
# 3 25.0365 15.1398 92.4476 -17.6725 -4.7608 24.9082
# 4 -20.1633 -10.3216 -17.6725 36.1179 0.7563 -3.1927
# 5 -0.4865 5.7874 -4.7608 0.7563 28.3820 -13.1411
# 6 16.5446 8.5044 24.9082 -3.1927 -13.1411 39.2667
#
#
#
# Elastic Compliance Matrix: (Units=1/GPa)
#
#
# Indices 1 2 3 4 5 6 
#
# 1 0.022689 -0.005634 -0.001492 0.009722 -0.002400 -0.007406
# 2 -0.005634 0.013060 -0.000356 0.000365 -0.003457 -0.001356
# 3 -0.001492 -0.000356 0.014568 0.005464 -0.001658 -0.008646
# 4 0.009722 0.000365 0.005464 0.035450 -0.002532 -0.005606
# 5 -0.002400 -0.003457 -0.001658 -0.002532 0.043658 0.017217
# 6 -0.007406 -0.001356 -0.008646 -0.005606 0.017217 0.039672
#
#
# Mechanical properties :
#
#
# Convention : Reuss Voigt Hill
#
# Bulk Modulus (GPa) = 28.28563 44.22369 36.25466
# Shear Modulus (GPa) = 25.53043 32.84718 29.18880
#
# Velocity S-wave (km/s) = 3.29252 3.73464 3.52053
# Velocity P-wave (km/s) = 5.14440 6.11350 5.64977
#
# Compressibility (1/GPa) = 0.03535364
#
# Stress axis : x y z
#
# Youngs Moduli (GPa) = 44.07442 76.56767 68.64474
#
# Poissons Ratio (x) = 0.43141 0.10239
# Poissons Ratio (y) = 0.24833 0.02442
# Poissons Ratio (z) = 0.06574 0.02724
#
# Static dielectric constant tensor:
#      x y z
#    x 1.932810 -0.006040 -0.014820 
#    y -0.006040 1.935720 -0.042260 
#    z -0.014820 -0.042260 1.921580 
# 
# From -- ./inp_files/611148.got.cif
#   From: 2010.05.17/outbox.cif.g08.bks.cpg/sg2_306_cif.got.tgz:611148.got - 2010.06.03 11:33:40.
