data_PCOD9024039
_publ_section_title
;
Structure prediction by ZEFSAII (Michael W. Deem and Ramdas Pophale) SiO2 
 PCOD9024039
Probable space group: P -1
;
_chemical_formula_sum "Si O2"
_cell_formula_units_Z 14
_cell_length_a 9.831831
_cell_length_b 9.530000
_cell_length_c 11.802143
_cell_angle_alpha 55.168769
_cell_angle_beta 37.432880
_cell_angle_gamma 70.889520
_cell_volume 533.806385
_symmetry_space_group_name_H-M "P -1"
_symmetry_group_IT_number 2
_symmetry_cell_setting 'triclinic'
loop_
_space_group_symop_operation_xyz
x,y,z
-x,-y,-z
loop_
_atom_site_type_symbol
_atom_site_label
_atom_site_fract_x
_atom_site_fract_y
_atom_site_fract_z
Si Si1 0.568344 0.965577 0.736359
Si Si2 0.263417 0.795661 0.196348
Si Si3 0.309270 0.843098 0.755047
Si Si4 0.276275 0.467641 0.912077
Si Si5 0.181301 0.125875 0.977623
Si Si6 0.693413 0.541506 0.758306
Si Si7 0.046101 0.749382 0.582520
O O1 0.832513 0.076847 0.506323
O O2 0.442745 0.823512 0.792087
O O3 0.400773 0.100967 0.772034
O O4 0.519872 0.870553 0.935689
O O5 0.172564 0.614501 0.269756
O O6 0.258813 0.755764 0.350920
O O7 0.153390 0.954229 0.157199
O O8 0.250592 0.660914 0.807138
O O9 0.063208 0.886286 0.914757
O O10 0.500000 0.000000 0.500000
O O11 0.542531 0.518926 0.755476
O O12 0.242319 0.311650 0.916730
O O13 0.089687 0.393857 0.171338
O O14 0.863565 0.717745 0.613014
O O15 0.500000 0.500000 0.000000
#
# Coordination Sequence:
#
# PCOD9024039 Si02
#       7
#     2   2   2   2   2   2   2
#     4  10  23  43  68 101 135 178 227 278 341 399
#     4  10  23  42  69 102 144 175 227 272 357 405
#     4  12  26  49  71  96 134 186 242 283 337 401
#     4  11  25  44  68 103 141 179 231 283 343 404
#     4  10  25  45  71  98 142 184 231 282 330 410
#     4  10  22  40  63 102 140 177 217 282 343 413
#     4  11  22  41  69 103 141 177 219 280 349 414
#
# _framework density 26.226738000000001
#
# number of rings (size 3 to 8) (size 9 to 14) (size 15 to 20)
#    0.857    0.571    0.000    5.143    4.000    0.571 
#    2.571    1.429    0.000    0.000    0.000    0.000 
#    0.000    0.000    0.000    0.000    0.000    0.000 
#
# Total GULP energy -78008.966260 kJ/mol
# GULP energy per Si atom -5572.069019 kJ/mol
# Density = 2.616705 g / cm^3
# Si number density = 26.226738 Si / 1000 Ang^3
#
#
#
# Elastic Constant Matrix: (Units=GPa)
#
#
# Indices 1 2 3 4 5 6 
#
# 1 138.9431 32.6393 11.6848 -15.5968 -45.2242 6.9419
# 2 32.6393 180.7927 32.0332 -26.6413 -11.2089 7.7372
# 3 11.6848 32.0332 111.8759 -35.2661 -14.8342 11.5941
# 4 -15.5968 -26.6413 -35.2661 33.2001 16.4388 -1.2042
# 5 -45.2242 -11.2089 -14.8342 16.4388 42.9195 -6.0376
# 6 6.9419 7.7372 11.5941 -1.2042 -6.0376 35.4932
#
#
#
# Elastic Compliance Matrix: (Units=1/GPa)
#
#
# Indices 1 2 3 4 5 6 
#
# 1 0.011366 -0.001599 0.000385 -0.001635 0.012324 0.000041
# 2 -0.001599 0.006561 -0.000178 0.005408 -0.002282 -0.001264
# 3 0.000385 -0.000178 0.014122 0.015535 -0.001321 -0.004347
# 4 -0.001635 0.005408 0.015535 0.059141 -0.018590 -0.007090
# 5 0.012324 -0.002282 -0.001321 -0.018590 0.043087 0.005217
# 6 0.000041 -0.001264 -0.004347 -0.007090 0.005217 0.030509
#
#
# Mechanical properties :
#
#
# Convention : Reuss Voigt Hill
#
# Bulk Modulus (GPa) = 34.17075 64.92513 49.54794
# Shear Modulus (GPa) = 28.19688 46.00620 37.10154
#
# Velocity S-wave (km/s) = 3.28246 4.19283 3.76526
# Velocity P-wave (km/s) = 5.23673 6.94614 6.15110
#
# Compressibility (1/GPa) = 0.02926480
#
# Stress axis : x y z
#
# Youngs Moduli (GPa) = 87.98092 152.41525 70.81386
#
# Poissons Ratio (x) = 0.24368 -0.02728
# Poissons Ratio (y) = 0.14066 0.01263
# Poissons Ratio (z) = -0.03389 0.02718
#
# Static dielectric constant tensor:
#      x y z
#    x 2.188720 -0.026950 -0.039570 
#    y -0.026950 2.239400 0.089250 
#    z -0.039570 0.089250 2.208790 
# 
# From -- ./inp_files/414171.got.cif
#   From: 2010.05.17/outbox.cif.g08.bks.cpg/sg2_208_cif.got.tgz:414171.got - 2010.06.03 11:33:40.
