data_PCOD9024784
_publ_section_title
;
Structure prediction by ZEFSAII (Michael W. Deem and Ramdas Pophale) SiO2 
 PCOD9024784
Probable space group: P -1
;
_chemical_formula_sum "Si O2"
_cell_formula_units_Z 16
_cell_length_a 8.127084
_cell_length_b 14.543097
_cell_length_c 13.636001
_cell_angle_alpha 28.953076
_cell_angle_beta 101.784222
_cell_angle_gamma 107.191240
_cell_volume 740.172647
_symmetry_space_group_name_H-M "P -1"
_symmetry_group_IT_number 2
_symmetry_cell_setting 'triclinic'
loop_
_space_group_symop_operation_xyz
x,y,z
-x,-y,-z
loop_
_atom_site_type_symbol
_atom_site_label
_atom_site_fract_x
_atom_site_fract_y
_atom_site_fract_z
Si Si1 0.294860 0.080976 0.010270
Si Si2 0.551592 0.192083 0.612877
Si Si3 0.813662 0.729317 0.522079
Si Si4 0.963252 0.900652 0.695073
Si Si5 0.177322 0.419380 0.732852
Si Si6 0.343988 0.917264 0.484654
Si Si7 0.063543 0.204243 0.730538
Si Si8 0.056170 0.510355 0.844759
O O1 0.441647 0.970550 0.152889
O O2 0.114979 0.956126 0.153473
O O3 0.320722 0.290481 0.869496
O O4 0.226646 0.111351 0.864592
O O5 0.386860 0.281854 0.503065
O O6 0.722061 0.365756 0.487226
O O7 0.577893 0.104831 0.591423
O O8 0.888850 0.684589 0.468108
O O9 0.885088 0.593473 0.733734
O O10 0.900861 0.955394 0.351251
O O11 0.777080 0.931230 0.674778
O O12 0.966723 0.673761 0.913398
O O13 0.000000 0.000000 0.500000
O O14 0.053403 0.323593 0.717536
O O15 0.095924 0.422422 0.826243
O O16 0.216418 0.704289 0.697539
O O17 0.500000 0.000000 0.500000
#
# Coordination Sequence:
#
# PCOD9024784 Si02
#       8
#     2   2   2   2   2   2   2   2
#     4   9  19  36  58  84 115 161 203 250 294 349
#     4  11  22  37  58  86 128 161 197 251 300 363
#     4  11  24  38  56  93 127 160 204 247 304 359
#     4  11  24  44  67  90 119 157 205 257 309 363
#     4   9  19  37  59  87 115 158 207 242 294 362
#     4  10  22  41  65  93 121 155 203 253 306 364
#     4   9  19  38  59  88 120 160 207 250 292 362
#     4  10  22  40  66  88 121 163 202 249 304 366
#
# _framework density 21.616578000000001
#
# number of rings (size 3 to 8) (size 9 to 14) (size 15 to 20)
#    0.750    1.250    0.000    4.500    0.000    6.500 
#    0.000    3.750    0.000    0.000    0.000    0.000 
#    0.000    0.000    0.000    0.000    0.000    0.000 
#
# Total GULP energy -89216.428057 kJ/mol
# GULP energy per Si atom -5576.026754 kJ/mol
# Density = 2.156738 g / cm^3
# Si number density = 21.616578 Si / 1000 Ang^3
#
#
#
# Elastic Constant Matrix: (Units=GPa)
#
#
# Indices 1 2 3 4 5 6 
#
# 1 51.3457 8.2279 24.7715 6.2513 14.6331 -0.2869
# 2 8.2279 82.2654 24.3358 -1.6002 -1.8893 7.3885
# 3 24.7715 24.3358 154.3733 4.9994 21.9084 8.8098
# 4 6.2513 -1.6002 4.9994 25.6757 -5.8950 1.4944
# 5 14.6331 -1.8893 21.9084 -5.8950 17.6352 2.3084
# 6 -0.2869 7.3885 8.8098 1.4944 2.3084 21.8738
#
#
#
# Elastic Compliance Matrix: (Units=1/GPa)
#
#
# Indices 1 2 3 4 5 6 
#
# 1 0.031671 -0.005062 0.000699 -0.016353 -0.034014 0.006551
# 2 -0.005062 0.014455 -0.003087 0.005861 0.012249 -0.005399
# 3 0.000699 -0.003087 0.009019 -0.005234 -0.013764 -0.000771
# 4 -0.016353 0.005861 -0.005234 0.053906 0.039761 -0.007965
# 5 -0.034014 0.012249 -0.013764 0.039761 0.118497 -0.014262
# 6 0.006551 -0.005399 -0.000771 -0.007965 -0.014262 0.049986
#
#
# Mechanical properties :
#
#
# Convention : Reuss Voigt Hill
#
# Bulk Modulus (GPa) = 24.84710 44.73942 34.79326
# Shear Modulus (GPa) = 16.34789 28.41356 22.38072
#
# Velocity S-wave (km/s) = 2.75301 3.62945 3.22118
# Velocity P-wave (km/s) = 4.65025 6.18915 5.47405
#
# Compressibility (1/GPa) = 0.04024615
#
# Stress axis : x y z
#
# Youngs Moduli (GPa) = 31.57444 69.17839 110.87658
#
# Poissons Ratio (x) = 0.35018 -0.07749
# Poissons Ratio (y) = 0.15983 0.34223
# Poissons Ratio (z) = -0.02207 0.21353
#
# Static dielectric constant tensor:
#      x y z
#    x 1.799830 -0.017590 0.047680 
#    y -0.017590 1.789380 0.005890 
#    z 0.047680 0.005890 1.863150 
# 
# From -- ./inp_files/503679.got.cif
#   From: 2010.05.17/outbox.cif.g08.bks.cpg/sg2_252_cif.got.tgz:503679.got - 2010.06.03 11:33:40.
