data_PCOD9024789
_publ_section_title
;
Structure prediction by ZEFSAII (Michael W. Deem and Ramdas Pophale) SiO2 
 PCOD9024789
Probable space group: P -1
;
_chemical_formula_sum "Si O2"
_cell_formula_units_Z 14
_cell_length_a 16.115616
_cell_length_b 18.398535
_cell_length_c 9.748638
_cell_angle_alpha 138.800920
_cell_angle_beta 145.447017
_cell_angle_gamma 21.537207
_cell_volume 600.534901
_symmetry_space_group_name_H-M "P -1"
_symmetry_group_IT_number 2
_symmetry_cell_setting 'triclinic'
loop_
_space_group_symop_operation_xyz
x,y,z
-x,-y,-z
loop_
_atom_site_type_symbol
_atom_site_label
_atom_site_fract_x
_atom_site_fract_y
_atom_site_fract_z
Si Si1 0.261920 0.707996 0.052032
Si Si2 0.070260 0.662803 0.095362
Si Si3 0.267664 0.367573 0.749105
Si Si4 0.436539 0.883700 0.951809
Si Si5 0.657780 0.756447 0.786702
Si Si6 0.713441 0.058896 0.692170
Si Si7 0.462661 0.390248 0.457249
O O1 0.237110 0.852440 0.181978
O O2 0.342871 0.663852 0.259215
O O3 0.500000 0.500000 0.000000
O O4 0.978328 0.840618 0.805728
O O5 0.259445 0.585426 0.364936
O O6 0.218014 0.518097 0.961980
O O7 0.840760 0.890030 0.069650
O O8 0.918587 0.651938 0.941382
O O9 0.503106 0.213269 0.743669
O O10 0.000000 0.500000 0.500000
O O11 0.363772 0.234074 0.818316
O O12 0.558945 0.858225 0.944626
O O13 0.400834 0.778589 0.705330
O O14 0.436050 0.912923 0.591229
O O15 0.683733 0.607441 0.637904
#
# Coordination Sequence:
#
# PCOD9024789 Si02
#       7
#     2   2   2   2   2   2   2
#     4  10  22  40  66  89 112 159 211 252 298 346
#     4  11  19  35  60  88 123 162 202 235 303 365
#     4  11  23  40  58  88 132 163 190 243 311 367
#     4   9  22  35  57  88 121 159 201 244 296 356
#     4   9  18  37  57  88 118 161 196 251 291 352
#     4  10  22  41  61  89 126 152 200 259 295 350
#     4   8  20  34  57  86 113 150 199 254 291 338
#
# _framework density 23.312549000000001
#
# number of rings (size 3 to 8) (size 9 to 14) (size 15 to 20)
#    0.857    1.429    1.429    0.857    2.000    1.714 
#    2.571    2.857    0.000    5.143    0.000    0.000 
#    0.000    0.000    0.000    0.000    0.000    0.000 
#
# Total GULP energy -78166.646325 kJ/mol
# GULP energy per Si atom -5583.331880 kJ/mol
# Density = 2.325949 g / cm^3
# Si number density = 23.312549 Si / 1000 Ang^3
#
#
#
# Elastic Constant Matrix: (Units=GPa)
#
#
# Indices 1 2 3 4 5 6 
#
# 1 53.3539 17.5095 55.1539 -4.0956 -4.1623 -7.3691
# 2 17.5095 117.8369 54.9168 -32.8948 -22.4724 -4.8282
# 3 55.1539 54.9168 178.9558 -43.1972 -48.8920 -0.0354
# 4 -4.0956 -32.8948 -43.1972 41.7098 4.9701 -2.7403
# 5 -4.1623 -22.4724 -48.8920 4.9701 37.7698 1.1008
# 6 -7.3691 -4.8282 -0.0354 -2.7403 1.1008 31.3849
#
#
#
# Elastic Compliance Matrix: (Units=1/GPa)
#
#
# Indices 1 2 3 4 5 6 
#
# 1 0.043100 -0.006156 -0.024221 -0.021877 -0.027627 0.008204
# 2 -0.006156 0.013171 0.003641 0.012425 0.010198 0.001312
# 3 -0.024221 0.003641 0.025706 0.023292 0.029828 -0.004110
# 4 -0.021877 0.012425 0.023292 0.052411 0.028224 0.000387
# 5 -0.027627 0.010198 0.029828 0.028224 0.064533 -0.004683
# 6 0.008204 0.001312 -0.004110 0.000387 -0.004683 0.034184
#
#
# Mechanical properties :
#
#
# Convention : Reuss Voigt Hill
#
# Bulk Modulus (GPa) = 35.08091 67.25633 51.16862
# Shear Modulus (GPa) = 16.88735 37.01067 26.94901
#
# Velocity S-wave (km/s) = 2.69437 3.98877 3.40367
# Velocity P-wave (km/s) = 4.97597 7.07999 6.11909
#
# Compressibility (1/GPa) = 0.02850553
#
# Stress axis : x y z
#
# Youngs Moduli (GPa) = 23.20192 75.92270 38.90092
#
# Poissons Ratio (x) = 0.46735 0.94223
# Poissons Ratio (y) = 0.14282 -0.14163
# Poissons Ratio (z) = 0.56198 -0.27643
#
# Static dielectric constant tensor:
#      x y z
#    x 1.974550 0.138810 0.013820 
#    y 0.138810 2.080070 -0.008460 
#    z 0.013820 -0.008460 1.898020 
# 
# From -- ./inp_files/337854.got.cif
#   From: 2010.05.17/outbox.cif.g08.bks.cpg/sg2_169_cif.got.tgz:337854.got - 2010.06.03 11:33:40.
