data_PCOD9024563
_publ_section_title
;
Structure prediction by ZEFSAII (Michael W. Deem and Ramdas Pophale) SiO2 
 PCOD9024563
Probable space group: P -1
;
_chemical_formula_sum "Si O2"
_cell_formula_units_Z 16
_cell_length_a 5.929946
_cell_length_b 24.368154
_cell_length_c 17.796824
_cell_angle_alpha 159.470917
_cell_angle_beta 115.729133
_cell_angle_gamma 73.541273
_cell_volume 748.079089
_symmetry_space_group_name_H-M "P -1"
_symmetry_group_IT_number 2
_symmetry_cell_setting 'triclinic'
loop_
_space_group_symop_operation_xyz
x,y,z
-x,-y,-z
loop_
_atom_site_type_symbol
_atom_site_label
_atom_site_fract_x
_atom_site_fract_y
_atom_site_fract_z
Si Si1 0.189241 0.099885 0.380030
Si Si2 0.825411 0.267137 0.908496
Si Si3 0.375216 0.989982 0.580933
Si Si4 0.289899 0.584711 0.608140
Si Si5 0.628941 0.849776 0.698099
Si Si6 0.771055 0.840542 0.087246
Si Si7 0.143132 0.800059 0.744190
Si Si8 0.956392 0.353848 0.630078
O O1 0.418113 0.086243 0.450547
O O2 0.254417 0.079884 0.277297
O O3 0.135363 0.272802 0.597888
O O4 0.918293 0.947061 0.172524
O O5 0.806707 0.144789 0.678274
O O6 0.069098 0.271586 0.003395
O O7 0.552875 0.164005 0.784933
O O8 0.882099 0.453102 0.123684
O O9 0.221552 0.031667 0.681107
O O10 0.500000 0.500000 0.500000
O O11 0.216350 0.665756 0.628376
O O12 0.000000 0.500000 0.500000
O O13 0.468468 0.725800 0.874189
O O14 0.341680 0.697134 0.442872
O O15 0.832933 0.785278 0.690138
O O16 0.655722 0.015823 0.962089
O O17 0.139932 0.757881 0.602617
#
# Coordination Sequence:
#
# PCOD9024563 Si02
#       8
#     2   2   2   2   2   2   2   2
#     4  10  22  40  65  94 125 175 219 276 342 412
#     4  10  24  41  67  96 128 168 228 281 351 406
#     4  10  22  44  67  93 127 176 221 282 347 415
#     4  12  29  42  67 105 143 184 230 286 343 413
#     4  10  22  40  65  92 129 179 221 277 339 409
#     4  11  24  43  68  88 136 174 228 274 345 410
#     4  10  23  39  62  91 133 176 228 267 341 407
#     4  11  22  39  63  95 129 170 219 287 335 406
#
# _framework density 21.388114000000002
#
# number of rings (size 3 to 8) (size 9 to 14) (size 15 to 20)
#    0.000    1.500    0.000    3.750   10.500    2.500 
#    0.000    2.500    0.000    0.000    0.000    0.000 
#    0.000    0.000    0.000    0.000    0.000    0.000 
#
# Total GULP energy -89291.956046 kJ/mol
# GULP energy per Si atom -5580.747253 kJ/mol
# Density = 2.133943 g / cm^3
# Si number density = 21.388114 Si / 1000 Ang^3
#
#
#
# Elastic Constant Matrix: (Units=GPa)
#
#
# Indices 1 2 3 4 5 6 
#
# 1 71.5098 31.3433 38.0232 17.3542 2.7121 -4.7530
# 2 31.3433 87.4969 43.7103 15.7908 3.3575 -16.0288
# 3 38.0232 43.7103 84.3246 20.2031 13.4114 -3.4219
# 4 17.3542 15.7908 20.2031 37.0247 -2.8125 -16.7205
# 5 2.7121 3.3575 13.4114 -2.8125 22.0332 -2.3116
# 6 -4.7530 -16.0288 -3.4219 -16.7205 -2.3116 33.0558
#
#
#
# Elastic Compliance Matrix: (Units=1/GPa)
#
#
# Indices 1 2 3 4 5 6 
#
# 1 0.019902 -0.003556 -0.006056 -0.005423 0.000858 -0.002173
# 2 -0.003556 0.018095 -0.008932 0.003402 0.004535 0.009376
# 3 -0.006056 -0.008932 0.024145 -0.012157 -0.015182 -0.009914
# 4 -0.005423 0.003402 -0.012157 0.047038 0.016127 0.024532
# 5 0.000858 0.004535 -0.015182 0.016127 0.057244 0.012912
# 6 -0.002173 0.009376 -0.009914 0.024532 0.012912 0.046772
#
#
# Mechanical properties :
#
#
# Convention : Reuss Voigt Hill
#
# Bulk Modulus (GPa) = 39.91528 52.16498 46.04013
# Shear Modulus (GPa) = 19.33236 27.10636 23.21936
#
# Velocity S-wave (km/s) = 3.00973 3.56386 3.29845
# Velocity P-wave (km/s) = 5.54805 6.43253 6.00659
#
# Compressibility (1/GPa) = 0.02505306
#
# Stress axis : x y z
#
# Youngs Moduli (GPa) = 50.24587 55.26536 41.41706
#
# Poissons Ratio (x) = 0.19654 0.25082
# Poissons Ratio (y) = 0.17869 0.36993
# Poissons Ratio (z) = 0.30429 0.49362
#
# Static dielectric constant tensor:
#      x y z
#    x 1.924080 -0.010690 0.004990 
#    y -0.010690 1.758420 0.001610 
#    z 0.004990 0.001610 1.768490 
# 
# From -- ./inp_files/99858.got.cif
#   From: 2010.05.17/outbox.cif.g08.bks.cpg/sg2_50_cif.got.tgz:99858.got - 2010.06.03 11:33:40.
