data_PCOD9024625
_publ_section_title
;
Structure prediction by ZEFSAII (Michael W. Deem and Ramdas Pophale) SiO2 
 PCOD9024625
Probable space group: P -1
;
_chemical_formula_sum "Si O2"
_cell_formula_units_Z 14
_cell_length_a 11.603816
_cell_length_b 10.932176
_cell_length_c 14.742009
_cell_angle_alpha 99.801467
_cell_angle_beta 161.853008
_cell_angle_gamma 79.018121
_cell_volume 571.430500
_symmetry_space_group_name_H-M "P -1"
_symmetry_group_IT_number 2
_symmetry_cell_setting 'triclinic'
loop_
_space_group_symop_operation_xyz
x,y,z
-x,-y,-z
loop_
_atom_site_type_symbol
_atom_site_label
_atom_site_fract_x
_atom_site_fract_y
_atom_site_fract_z
Si Si1 0.804748 0.114068 0.309055
Si Si2 0.227691 0.584261 0.873615
Si Si3 0.251474 0.736471 0.219928
Si Si4 0.893464 0.646400 0.457217
Si Si5 0.545031 0.948478 0.345690
Si Si6 0.916930 0.904182 0.136131
Si Si7 0.158714 0.419113 0.250517
O O1 0.365919 0.105806 0.991982
O O2 0.857972 0.257764 0.392412
O O3 0.053974 0.104755 0.403362
O O4 0.000000 0.000000 0.500000
O O5 0.912504 0.643350 0.579412
O O6 0.104053 0.512671 0.860104
O O7 0.500000 0.500000 0.000000
O O8 0.482416 0.683850 0.118121
O O9 0.327560 0.853299 0.228697
O O10 0.638485 0.694646 0.554580
O O11 0.979922 0.781208 0.105699
O O12 0.066109 0.631788 0.008079
O O13 0.000000 0.500000 0.500000
O O14 0.289532 0.997749 0.076623
O O15 0.687018 0.057106 0.528819
O O16 0.500000 0.500000 0.500000
#
# Coordination Sequence:
#
# PCOD9024625 Si02
#       7
#     2   2   2   2   2   2   2
#     4  10  23  40  65  98 133 168 218 280 335 385
#     4  10  22  41  66  91 122 168 218 268 323 389
#     4  12  25  43  66  91 128 175 215 263 327 404
#     4  10  22  40  65  95 128 170 217 264 325 401
#     4  11  22  42  66  94 128 167 217 269 326 398
#     4  11  24  41  64  96 129 168 212 270 333 391
#     4  12  26  43  63  95 130 168 217 272 327 388
#
# _framework density 24.499918000000001
#
# number of rings (size 3 to 8) (size 9 to 14) (size 15 to 20)
#    0.000    1.143    0.000    6.000    0.000   10.286 
#    0.000    0.000    0.000    0.000    0.000    0.000 
#    0.000    0.000    0.000    0.000    0.000    0.000 
#
# Total GULP energy -78081.704445 kJ/mol
# GULP energy per Si atom -5577.264603 kJ/mol
# Density = 2.444416 g / cm^3
# Si number density = 24.499918 Si / 1000 Ang^3
#
#
#
# Elastic Constant Matrix: (Units=GPa)
#
#
# Indices 1 2 3 4 5 6 
#
# 1 100.8533 17.3305 8.8680 12.7567 14.4772 -22.5563
# 2 17.3305 84.1276 5.8467 16.6952 2.4275 4.8039
# 3 8.8680 5.8467 104.8242 29.7853 -18.1642 -3.0286
# 4 12.7567 16.6952 29.7853 39.8879 4.0896 11.2752
# 5 14.4772 2.4275 -18.1642 4.0896 49.2086 2.0926
# 6 -22.5563 4.8039 -3.0286 11.2752 2.0926 32.2793
#
#
#
# Elastic Compliance Matrix: (Units=1/GPa)
#
#
# Indices 1 2 3 4 5 6 
#
# 1 0.014889 -0.002219 0.000867 -0.008001 -0.003876 0.013862
# 2 -0.002219 0.013393 0.001057 -0.005311 0.000894 -0.001648
# 3 0.000867 0.001057 0.014617 -0.014039 0.005986 0.006335
# 4 -0.008001 -0.005311 -0.014039 0.047191 -0.005542 -0.022242
# 5 -0.003876 0.000894 0.005986 -0.005542 0.024169 -0.001911
# 6 0.013862 -0.001648 0.006335 -0.022242 -0.001911 0.049399
#
#
# Mechanical properties :
#
#
# Convention : Reuss Voigt Hill
#
# Bulk Modulus (GPa) = 23.63636 39.32171 31.47903
# Shear Modulus (GPa) = 28.03448 41.45914 34.74681
#
# Velocity S-wave (km/s) = 3.38637 4.11812 3.77004
# Velocity P-wave (km/s) = 4.99585 6.22065 5.64158
#
# Compressibility (1/GPa) = 0.04230770
#
# Stress axis : x y z
#
# Youngs Moduli (GPa) = 67.16253 74.66745 68.41395
#
# Poissons Ratio (x) = 0.16571 -0.05928
# Poissons Ratio (y) = 0.14906 -0.07233
# Poissons Ratio (z) = -0.05820 -0.07894
#
# Static dielectric constant tensor:
#      x y z
#    x 1.920610 0.059280 -0.044190 
#    y 0.059280 1.935940 0.063890 
#    z -0.044190 0.063890 2.032550 
# 
# From -- ./inp_files/80268.got.cif
#   From: 2010.05.17/outbox.cif.g08.bks.cpg/sg2_41_cif.got.tgz:80268.got - 2010.06.03 11:33:40.
