data_PCOD9024579
_publ_section_title
;
Structure prediction by ZEFSAII (Michael W. Deem and Ramdas Pophale) SiO2 
 PCOD9024579
Probable space group: P -1
;
_chemical_formula_sum "Si O2"
_cell_formula_units_Z 15
_cell_length_a 17.578616
_cell_length_b 14.116777
_cell_length_c 6.042838
_cell_angle_alpha 97.826587
_cell_angle_beta 69.197171
_cell_angle_gamma 151.830370
_cell_volume 606.261460
_symmetry_space_group_name_H-M "P -1"
_symmetry_group_IT_number 2
_symmetry_cell_setting 'triclinic'
loop_
_space_group_symop_operation_xyz
x,y,z
-x,-y,-z
loop_
_atom_site_type_symbol
_atom_site_label
_atom_site_fract_x
_atom_site_fract_y
_atom_site_fract_z
Si Si1 0.746085 0.460248 0.136405
Si Si2 0.666663 0.694609 0.049929
Si Si3 0.000000 0.000000 0.500000
Si Si4 0.804910 0.375170 0.412726
Si Si5 0.857370 0.769219 0.174714
Si Si6 0.841462 0.220507 0.530751
Si Si7 0.384198 0.157018 0.649107
Si Si8 0.525231 0.886074 0.081774
O O1 0.814367 0.438761 0.188395
O O2 0.901000 0.706900 0.043807
O O3 0.591748 0.348375 0.415369
O O4 0.634797 0.321761 0.984393
O O5 0.500000 0.500000 0.000000
O O6 0.683271 0.617675 0.158897
O O7 0.646760 0.765417 0.247585
O O8 0.845639 0.896696 0.769569
O O9 0.161842 0.226716 0.548420
O O10 0.847954 0.308452 0.362007
O O11 0.962812 0.584629 0.483671
O O12 0.593785 0.170877 0.653640
O O13 0.000000 0.000000 0.000000
O O14 0.754265 0.034719 0.450538
O O15 0.690119 0.100717 0.826597
O O16 0.375557 0.090760 0.868902
#
# Coordination Sequence:
#
# PCOD9024579 Si02
#       8
#     2   2   1   2   2   2   2   2
#     4  10  22  41  63  92 127 168 213 264 318 377
#     4  11  23  41  64  91 125 165 209 260 314 375
#     4  10  24  40  60  88 120 158 204 258 314 370
#     4  10  23  41  65  93 129 169 212 263 316 379
#     4  10  23  40  61  91 125 163 211 261 319 378
#     4  10  23  42  63  96 129 166 215 261 316 380
#     4  10  23  40  64  94 128 168 214 262 316 380
#     4  10  22  40  65  93 128 169 209 259 317 376
#
# _framework density 24.741797999999999
#
# number of rings (size 3 to 8) (size 9 to 14) (size 15 to 20)
#    0.000    1.867    0.000    2.000    0.000   19.733 
#    0.000    2.667    0.000    0.000    0.000    0.000 
#    0.000    0.000    0.000    0.000    0.000    0.000 
#
# Total GULP energy -83575.623542 kJ/mol
# GULP energy per Si atom -5571.708236 kJ/mol
# Density = 2.468548 g / cm^3
# Si number density = 24.741798 Si / 1000 Ang^3
#
#
#
# Elastic Constant Matrix: (Units=GPa)
#
#
# Indices 1 2 3 4 5 6 
#
# 1 52.6399 -5.6673 22.5314 -11.6008 9.3056 2.4073
# 2 -5.6673 83.5851 23.9551 3.5355 -4.9645 6.9752
# 3 22.5314 23.9551 57.6110 -5.7161 -24.2892 5.3971
# 4 -11.6008 3.5355 -5.7161 38.2590 10.6659 4.6267
# 5 9.3056 -4.9645 -24.2892 10.6659 36.5942 -0.0856
# 6 2.4073 6.9752 5.3971 4.6267 -0.0856 29.8500
#
#
#
# Elastic Compliance Matrix: (Units=1/GPa)
#
#
# Indices 1 2 3 4 5 6 
#
# 1 0.050594 0.011955 -0.041290 0.020875 -0.044740 -0.002772
# 2 0.011955 0.016791 -0.016426 0.003454 -0.012678 -0.002489
# 3 -0.041290 -0.016426 0.061558 -0.016711 0.053998 -0.001217
# 4 0.020875 0.003454 -0.016711 0.037824 -0.026968 -0.005409
# 5 -0.044740 -0.012678 0.053998 -0.026968 0.080688 0.001219
# 6 -0.002772 -0.002489 -0.001217 -0.005409 0.001219 0.035368
#
#
# Mechanical properties :
#
#
# Convention : Reuss Voigt Hill
#
# Bulk Modulus (GPa) = 26.72363 30.60826 28.66595
# Shear Modulus (GPa) = 12.92602 31.14179 22.03390
#
# Velocity S-wave (km/s) = 2.28817 3.55162 2.98745
# Velocity P-wave (km/s) = 4.21964 5.40524 4.84882
#
# Compressibility (1/GPa) = 0.03742006
#
# Stress axis : x y z
#
# Youngs Moduli (GPa) = 19.76537 59.55661 16.24489
#
# Poissons Ratio (x) = -0.71199 0.67075
# Poissons Ratio (y) = -0.23629 0.26684
# Poissons Ratio (z) = 0.81611 0.97829
#
# Static dielectric constant tensor:
#      x y z
#    x 2.089250 0.046090 0.042950 
#    y 0.046090 2.272370 -0.116720 
#    z 0.042950 -0.116720 2.014680 
# 
# From -- ./inp_files/44116.got.cif
#   From: 2010.05.17/outbox.cif.g08.bks.cpg/sg2_23_cif.got.tgz:44116.got - 2010.06.03 11:33:40.
