data_PCOD9024196
_publ_section_title
;
Structure prediction by ZEFSAII (Michael W. Deem and Ramdas Pophale) SiO2 
 PCOD9024196
Probable space group: P -1
;
_chemical_formula_sum "Si O2"
_cell_formula_units_Z 15
_cell_length_a 17.392982
_cell_length_b 12.820865
_cell_length_c 10.532800
_cell_angle_alpha 50.600922
_cell_angle_beta 139.582388
_cell_angle_gamma 157.631055
_cell_volume 556.187949
_symmetry_space_group_name_H-M "P -1"
_symmetry_group_IT_number 2
_symmetry_cell_setting 'triclinic'
loop_
_space_group_symop_operation_xyz
x,y,z
-x,-y,-z
loop_
_atom_site_type_symbol
_atom_site_label
_atom_site_fract_x
_atom_site_fract_y
_atom_site_fract_z
Si Si1 0.814657 0.653870 0.817128
Si Si2 0.546570 0.920696 0.778348
Si Si3 0.227066 0.112401 0.509393
Si Si4 0.096258 0.598890 0.362118
Si Si5 0.000152 0.788832 0.211113
Si Si6 0.000000 0.000000 0.500000
Si Si7 0.462889 0.371077 0.932530
Si Si8 0.218005 0.689097 0.026793
O O1 0.523477 0.398205 0.681814
O O2 0.878800 0.834046 0.654566
O O3 0.781293 0.469330 0.870612
O O4 0.006528 0.853002 0.023471
O O5 0.258999 0.638959 0.588320
O O6 0.716612 0.152075 0.702086
O O7 0.549684 0.014243 0.837220
O O8 0.666155 0.897782 0.979194
O O9 0.051506 0.894538 0.572501
O O10 0.167539 0.006838 0.372141
O O11 0.046935 0.675906 0.333858
O O12 0.847137 0.313844 0.190031
O O13 0.725189 0.571060 0.063634
O O14 0.298689 0.292765 0.692081
O O15 0.500000 0.500000 0.000000
O O16 0.000000 0.500000 0.000000
#
# Coordination Sequence:
#
# PCOD9024196 Si02
#       8
#     2   2   2   2   2   1   2   2
#     4  10  22  40  63  98 124 166 214 265 318 375
#     4  10  22  43  65  93 128 167 211 266 316 380
#     4  11  23  40  65  90 131 169 212 265 318 375
#     4   9  21  41  67  98 120 164 219 262 321 373
#     4  11  22  41  64  95 131 165 214 265 316 386
#     4  12  26  44  60  94 132 176 216 256 324 392
#     4  12  27  44  63  92 134 172 215 261 326 385
#     4   9  19  36  61  91 124 155 207 261 312 374
#
# _framework density 26.969301000000002
#
# number of rings (size 3 to 8) (size 9 to 14) (size 15 to 20)
#    0.000    1.600    2.667    1.200    5.600    2.667 
#    4.800    2.667    0.000    0.000    0.000    0.000 
#    0.000    0.000    0.000    0.000    0.000    0.000 
#
# Total GULP energy -83651.929742 kJ/mol
# GULP energy per Si atom -5576.795316 kJ/mol
# Density = 2.690792 g / cm^3
# Si number density = 26.969301 Si / 1000 Ang^3
#
#
#
# Elastic Constant Matrix: (Units=GPa)
#
#
# Indices 1 2 3 4 5 6 
#
# 1 166.8370 23.4806 46.4142 5.6128 -2.1579 -21.0133
# 2 23.4806 43.8281 15.7968 -1.0733 -8.5279 -18.4204
# 3 46.4142 15.7968 138.1140 2.7708 -7.9114 -20.9145
# 4 5.6128 -1.0733 2.7708 39.7577 -8.5371 5.9275
# 5 -2.1579 -8.5279 -7.9114 -8.5371 50.7099 9.8203
# 6 -21.0133 -18.4204 -20.9145 5.9275 9.8203 52.1777
#
#
#
# Elastic Compliance Matrix: (Units=1/GPa)
#
#
# Indices 1 2 3 4 5 6 
#
# 1 0.007124 -0.002735 -0.001884 -0.001379 -0.000971 0.001488
# 2 -0.002735 0.028595 -0.000986 0.000715 0.003124 0.007929
# 3 -0.001884 -0.000986 0.008363 -0.000557 0.000537 0.002207
# 4 -0.001379 0.000715 -0.000557 0.027273 0.005467 -0.004653
# 5 -0.000971 0.003124 0.000537 0.005467 0.021949 -0.003825
# 6 0.001488 0.007929 0.002207 -0.004653 -0.003825 0.024697
#
#
# Mechanical properties :
#
#
# Convention : Reuss Voigt Hill
#
# Bulk Modulus (GPa) = 30.42184 57.79581 44.10883
# Shear Modulus (GPa) = 35.67156 46.06823 40.86990
#
# Velocity S-wave (km/s) = 3.64080 4.13749 3.89707
# Velocity P-wave (km/s) = 5.38318 6.65596 6.05312
#
# Compressibility (1/GPa) = 0.03287112
#
# Stress axis : x y z
#
# Youngs Moduli (GPa) = 140.36800 34.97128 119.58135
#
# Poissons Ratio (x) = 0.09565 0.22529
# Poissons Ratio (y) = 0.38392 0.11792
# Poissons Ratio (z) = 0.26445 0.03449
#
# Static dielectric constant tensor:
#      x y z
#    x 4.422550 1.318900 -1.586900 
#    y 1.318900 2.999120 -0.839410 
#    z -1.586900 -0.839410 3.207300 
# 
# From -- ./inp_files/464477.got.cif
#   From: 2010.05.17/outbox.cif.g08.bks.cpg/sg2_233_cif.got.tgz:464477.got - 2010.06.03 11:33:40.
