data_PCOD9024995
_publ_section_title
;
Structure prediction by ZEFSAII (Michael W. Deem and Ramdas Pophale) SiO2 
 PCOD9024995
Probable space group: P -1
;
_chemical_formula_sum "Si O2"
_cell_formula_units_Z 15
_cell_length_a 11.025095
_cell_length_b 5.533873
_cell_length_c 13.812457
_cell_angle_alpha 70.038164
_cell_angle_beta 61.046455
_cell_angle_gamma 81.559348
_cell_volume 692.911883
_symmetry_space_group_name_H-M "P -1"
_symmetry_group_IT_number 2
_symmetry_cell_setting 'triclinic'
loop_
_space_group_symop_operation_xyz
x,y,z
-x,-y,-z
loop_
_atom_site_type_symbol
_atom_site_label
_atom_site_fract_x
_atom_site_fract_y
_atom_site_fract_z
Si Si1 0.818724 0.263937 0.786336
Si Si2 0.787561 0.445318 0.582735
Si Si3 0.328378 0.648550 0.965302
Si Si4 0.102123 0.070540 0.647989
Si Si5 0.485408 0.383106 0.628819
Si Si6 0.000000 0.000000 0.500000
Si Si7 0.323361 0.839420 0.736454
Si Si8 0.603635 0.855416 0.910677
O O1 0.797535 0.500230 0.687438
O O2 0.977795 0.191792 0.739852
O O3 0.723110 0.043395 0.801068
O O4 0.752278 0.278744 0.915772
O O5 0.818825 0.704149 0.474633
O O6 0.636163 0.352753 0.621224
O O7 0.904128 0.235894 0.547905
O O8 0.270152 0.755282 0.874436
O O9 0.494423 0.723750 0.896459
O O10 0.325183 0.344098 0.018287
O O11 0.035668 0.904664 0.610182
O O12 0.205278 0.916716 0.696142
O O13 0.500000 0.500000 0.500000
O O14 0.405519 0.596734 0.694059
O O15 0.412958 0.102518 0.684119
O O16 0.500000 0.000000 0.000000
#
# Coordination Sequence:
#
# PCOD9024995 Si02
#       8
#     2   2   2   2   2   1   2   2
#     4  10  22  40  66  99 134 182 240 285 357 422
#     4  11  24  41  71 100 142 182 243 297 356 421
#     4  10  23  41  68  99 138 183 231 298 351 424
#     4  11  25  45  66 101 141 188 235 301 353 430
#     4  12  26  47  73 108 142 189 235 292 358 424
#     4  10  22  42  64  94 132 182 232 290 344 412
#     4  12  28  46  75 107 148 187 238 294 358 427
#     4   9  20  39  63  95 136 176 238 287 345 415
#
# _framework density 21.647772
#
# number of rings (size 3 to 8) (size 9 to 14) (size 15 to 20)
#    0.000    1.333    1.333    3.600   11.200    4.800 
#    0.000    0.667    0.000    0.000    0.000    0.000 
#    0.000    0.000    0.000    0.000    0.000    0.000 
#
# Total GULP energy -83508.211804 kJ/mol
# GULP energy per Si atom -5567.214120 kJ/mol
# Density = 2.159850 g / cm^3
# Si number density = 21.647772 Si / 1000 Ang^3
#
#
#
# Elastic Constant Matrix: (Units=GPa)
#
#
# Indices 1 2 3 4 5 6 
#
# 1 114.0888 24.4801 47.0560 -4.4471 23.6614 -14.7522
# 2 24.4801 80.6553 36.6060 2.6205 6.6474 3.4579
# 3 47.0560 36.6060 139.9426 4.7927 33.7165 -3.7116
# 4 -4.4471 2.6205 4.7927 28.9743 -3.9267 8.0530
# 5 23.6614 6.6474 33.7165 -3.9267 40.3450 -7.0469
# 6 -14.7522 3.4579 -3.7116 8.0530 -7.0469 18.9239
#
#
#
# Elastic Compliance Matrix: (Units=1/GPa)
#
#
# Indices 1 2 3 4 5 6 
#
# 1 0.012041 -0.002675 -0.002339 -0.000277 -0.003239 0.008329
# 2 -0.002675 0.014879 -0.003408 0.000412 0.001090 -0.005242
# 3 -0.002339 -0.003408 0.010668 -0.002607 -0.007365 -0.000741
# 4 -0.000277 0.000412 -0.002607 0.039913 0.003264 -0.016572
# 5 -0.003239 0.001090 -0.007365 0.003264 0.034235 0.007191
# 6 0.008329 -0.005242 -0.000741 -0.016572 0.007191 0.069878
#
#
# Mechanical properties :
#
#
# Convention : Reuss Voigt Hill
#
# Bulk Modulus (GPa) = 48.20429 61.21899 54.71164
# Shear Modulus (GPa) = 24.34597 32.75160 28.54878
#
# Velocity S-wave (km/s) = 3.35720 3.89386 3.63545
# Velocity P-wave (km/s) = 6.11095 6.96830 6.55366
#
# Compressibility (1/GPa) = 0.02074504
#
# Stress axis : x y z
#
# Youngs Moduli (GPa) = 83.04643 67.21058 93.73934
#
# Poissons Ratio (x) = 0.17975 0.21921
# Poissons Ratio (y) = 0.22211 0.31950
# Poissons Ratio (z) = 0.19421 0.22908
#
# Static dielectric constant tensor:
#      x y z
#    x 1.838650 0.097910 -0.014130 
#    y 0.097910 1.882330 0.046130 
#    z -0.014130 0.046130 1.974060 
# 
# From -- ./inp_files/509627.got.cif
#   From: 2010.05.17/outbox.cif.g08.bks.cpg/sg2_255_cif.got.tgz:509627.got - 2010.06.03 11:33:40.
