data_PCOD9024101
_publ_section_title
;
Structure prediction by ZEFSAII (Michael W. Deem and Ramdas Pophale) SiO2 
 PCOD9024101
Probable space group: P -1
;
_chemical_formula_sum "Si O2"
_cell_formula_units_Z 16
_cell_length_a 14.741429
_cell_length_b 14.806932
_cell_length_c 12.195534
_cell_angle_alpha 150.493719
_cell_angle_beta 130.682199
_cell_angle_gamma 31.573051
_cell_volume 643.681500
_symmetry_space_group_name_H-M "P -1"
_symmetry_group_IT_number 2
_symmetry_cell_setting 'triclinic'
loop_
_space_group_symop_operation_xyz
x,y,z
-x,-y,-z
loop_
_atom_site_type_symbol
_atom_site_label
_atom_site_fract_x
_atom_site_fract_y
_atom_site_fract_z
Si Si1 0.228249 0.808520 0.406538
Si Si2 0.658440 0.580464 0.721521
Si Si3 0.233239 0.690385 0.927801
Si Si4 0.760136 0.887035 0.097214
Si Si5 0.986014 0.508283 0.310241
Si Si6 0.959701 0.138885 0.343804
Si Si7 0.510490 0.326991 0.966226
Si Si8 0.275240 0.251705 0.449979
O O1 0.248611 0.631056 0.327633
O O2 0.201688 0.032538 0.682586
O O3 0.074670 0.951242 0.344719
O O4 0.418571 0.566514 0.234959
O O5 0.437290 0.818926 0.798554
O O6 0.748639 0.390777 0.481560
O O7 0.719547 0.722025 0.919963
O O8 0.379731 0.489235 0.929255
O O9 0.269175 0.473334 0.651621
O O10 0.292231 0.815083 0.056420
O O11 0.032279 0.934095 0.083160
O O12 0.927918 0.701539 0.946336
O O13 0.139507 0.320511 0.327824
O O14 0.975901 0.729368 0.494441
O O15 0.802597 0.669976 0.403680
O O16 0.539491 0.082933 0.765604
#
# Coordination Sequence:
#
# PCOD9024101 Si02
#       8
#     2   2   2   2   2   2   2   2
#     4  11  23  40  66  93 127 169 201 256 317 371
#     4  10  22  40  63  92 127 163 213 250 303 382
#     4  10  22  40  65  90 124 168 201 262 321 360
#     4  10  23  43  63  93 128 167 203 261 313 363
#     4  10  23  41  62  91 132 158 216 262 300 381
#     4  10  22  43  61  95 133 156 212 265 301 376
#     4  10  22  41  61  95 127 153 216 260 301 385
#     4  11  22  41  65  91 122 172 207 258 318 367
#
# _framework density 24.857015000000001
#
# number of rings (size 3 to 8) (size 9 to 14) (size 15 to 20)
#    0.000    1.750    1.250    1.875    1.750    6.500 
#    6.750    0.000    0.000    0.000    0.000    0.000 
#    0.000    0.000    0.000    0.000    0.000    0.000 
#
# Total GULP energy -89526.871218 kJ/mol
# GULP energy per Si atom -5595.429451 kJ/mol
# Density = 2.480044 g / cm^3
# Si number density = 24.857015 Si / 1000 Ang^3
#
#
#
# Elastic Constant Matrix: (Units=GPa)
#
#
# Indices 1 2 3 4 5 6 
#
# 1 30.5844 7.4592 -8.3973 -8.6568 4.9535 0.2877
# 2 7.4592 48.0246 7.4936 -2.7314 7.5265 8.8790
# 3 -8.3973 7.4936 130.2834 -12.8307 -7.4950 -15.7933
# 4 -8.6568 -2.7314 -12.8307 33.2737 7.7965 3.2336
# 5 4.9535 7.5265 -7.4950 7.7965 38.3612 6.2957
# 6 0.2877 8.8790 -15.7933 3.2336 6.2957 23.9138
#
#
#
# Elastic Compliance Matrix: (Units=1/GPa)
#
#
# Indices 1 2 3 4 5 6 
#
# 1 0.039935 -0.006004 0.004352 0.012639 -0.006454 0.004613
# 2 -0.006004 0.024749 -0.003167 0.001015 -0.003181 -0.010508
# 3 0.004352 -0.003167 0.009335 0.003814 -0.000004 0.006774
# 4 0.012639 0.001015 0.003814 0.036956 -0.008469 -0.000777
# 5 -0.006454 -0.003181 -0.000004 -0.008469 0.030155 -0.005537
# 6 0.004613 -0.010508 0.006774 -0.000777 -0.005537 0.051699
#
#
# Mechanical properties :
#
#
# Convention : Reuss Voigt Hill
#
# Bulk Modulus (GPa) = 15.53301 24.66706 20.10003
# Shear Modulus (GPa) = 22.32857 32.59887 27.46372
#
# Velocity S-wave (km/s) = 3.00038 3.62533 3.32756
# Velocity P-wave (km/s) = 4.27383 5.24110 4.78198
#
# Compressibility (1/GPa) = 0.06437902
#
# Stress axis : x y z
#
# Youngs Moduli (GPa) = 25.04056 40.40640 107.12539
#
# Poissons Ratio (x) = 0.24262 -0.46621
# Poissons Ratio (y) = 0.15035 0.33931
# Poissons Ratio (z) = -0.10898 0.12798
#
# Static dielectric constant tensor:
#      x y z
#    x 1.990650 -0.005040 -0.019380 
#    y -0.005040 1.926760 0.013390 
#    z -0.019380 0.013390 1.995170 
# 
# From -- ./inp_files/282962.got.cif
#   From: 2010.05.17/outbox.cif.g08.bks.cpg/sg2_142_cif.got.tgz:282962.got - 2010.06.03 11:33:40.
