data_PCOD9024507
_publ_section_title
;
Structure prediction by ZEFSAII (Michael W. Deem and Ramdas Pophale) SiO2 
 PCOD9024507
Probable space group: P -1
;
_chemical_formula_sum "Si O2"
_cell_formula_units_Z 16
_cell_length_a 8.888507
_cell_length_b 6.761299
_cell_length_c 19.386813
_cell_angle_alpha 84.909457
_cell_angle_beta 142.847453
_cell_angle_gamma 94.386281
_cell_volume 700.845578
_symmetry_space_group_name_H-M "P -1"
_symmetry_group_IT_number 2
_symmetry_cell_setting 'triclinic'
loop_
_space_group_symop_operation_xyz
x,y,z
-x,-y,-z
loop_
_atom_site_type_symbol
_atom_site_label
_atom_site_fract_x
_atom_site_fract_y
_atom_site_fract_z
Si Si1 0.523241 0.368675 0.942205
Si Si2 0.608361 0.164610 0.776965
Si Si3 0.795889 0.088134 0.308110
Si Si4 0.577134 0.278851 0.520206
Si Si5 0.556056 0.588292 0.800844
Si Si6 0.023173 0.115404 0.114363
Si Si7 0.052272 0.076541 0.764012
Si Si8 0.674684 0.004945 0.455078
O O1 0.547934 0.513064 0.879684
O O2 0.284553 0.220421 0.860899
O O3 0.500000 0.500000 0.000000
O O4 0.761321 0.224940 0.022558
O O5 0.578437 0.396061 0.767447
O O6 0.465401 0.079610 0.659825
O O7 0.440983 0.060065 0.777114
O O8 0.892255 0.089087 0.887177
O O9 0.697456 0.286399 0.301254
O O10 0.026941 0.997221 0.436327
O O11 0.875488 0.095918 0.257810
O O12 0.500000 0.500000 0.500000
O O13 0.392324 0.143071 0.501890
O O14 0.847903 0.218769 0.649941
O O15 0.580120 0.215527 0.443015
O O16 0.781663 0.730596 0.853828
O O17 0.058947 0.035264 0.207655
#
# Coordination Sequence:
#
# PCOD9024507 Si02
#       8
#     2   2   2   2   2   2   2   2
#     4  12  27  46  75 104 134 183 244 284 352 420
#     4  11  23  45  67 102 143 182 228 284 352 416
#     4  10  23  43  71  98 143 178 231 286 342 409
#     4  10  23  40  69 102 141 183 231 287 337 417
#     4  11  26  47  70 104 140 184 233 287 351 417
#     4  11  26  46  71 100 141 184 227 297 345 411
#     4  11  23  49  70 101 143 181 231 292 352 403
#     4  10  22  40  65 104 138 182 230 276 352 406
#
# _framework density 22.829566
#
# number of rings (size 3 to 8) (size 9 to 14) (size 15 to 20)
#    0.000    1.250    2.500    1.875    3.500    4.000 
#    0.000    0.000    0.000    0.000    0.000    0.000 
#    0.000    0.000    0.000    0.000    0.000    0.000 
#
# Total GULP energy -89266.827179 kJ/mol
# GULP energy per Si atom -5579.176699 kJ/mol
# Density = 2.277761 g / cm^3
# Si number density = 22.829566 Si / 1000 Ang^3
#
#
#
# Elastic Constant Matrix: (Units=GPa)
#
#
# Indices 1 2 3 4 5 6 
#
# 1 130.2852 47.2925 49.8021 4.1706 6.4676 -10.8868
# 2 47.2925 150.3516 39.7698 -4.9223 6.8891 -41.0235
# 3 49.8021 39.7698 85.4300 4.5984 11.8167 -20.0283
# 4 4.1706 -4.9223 4.5984 27.0741 -8.2713 1.0185
# 5 6.4676 6.8891 11.8167 -8.2713 46.2142 -10.5612
# 6 -10.8868 -41.0235 -20.0283 1.0185 -10.5612 42.2784
#
#
#
# Elastic Compliance Matrix: (Units=1/GPa)
#
#
# Indices 1 2 3 4 5 6 
#
# 1 0.010522 -0.002567 -0.005372 -0.001234 -0.000490 -0.002418
# 2 -0.002567 0.010346 -0.001605 0.002753 0.001776 0.008995
# 3 -0.005372 -0.001605 0.017258 -0.003484 -0.003001 0.004569
# 4 -0.001234 0.002753 -0.003484 0.040701 0.008351 0.001809
# 5 -0.000490 0.001776 -0.003001 0.008351 0.025133 0.006252
# 6 -0.002418 0.008995 0.004569 0.001809 0.006252 0.035441
#
#
# Mechanical properties :
#
#
# Convention : Reuss Voigt Hill
#
# Bulk Modulus (GPa) = 52.52381 71.08840 61.80610
# Shear Modulus (GPa) = 30.33329 38.39352 34.36341
#
# Velocity S-wave (km/s) = 3.64907 4.10536 3.88392
# Velocity P-wave (km/s) = 6.38836 7.32655 6.87348
#
# Compressibility (1/GPa) = 0.01903899
#
# Stress axis : x y z
#
# Youngs Moduli (GPa) = 95.03579 96.65587 57.94327
#
# Poissons Ratio (x) = 0.24808 0.31128
# Poissons Ratio (y) = 0.24392 0.09301
# Poissons Ratio (z) = 0.51054 0.15515
#
# Static dielectric constant tensor:
#      x y z
#    x 1.914960 -0.037000 -0.036600 
#    y -0.037000 1.853860 -0.003020 
#    z -0.036600 -0.003020 1.914490 
# 
# From -- ./inp_files/585709.got.cif
#   From: 2010.05.17/outbox.cif.g08.bks.cpg/sg2_293_cif.got.tgz:585709.got - 2010.06.03 11:33:40.
