data_PCOD9024734
_publ_section_title
;
Structure prediction by ZEFSAII (Michael W. Deem and Ramdas Pophale) SiO2 
 PCOD9024734
Probable space group: P -1
;
_chemical_formula_sum "Si O2"
_cell_formula_units_Z 14
_cell_length_a 12.640043
_cell_length_b 18.504867
_cell_length_c 18.523250
_cell_angle_alpha 163.407868
_cell_angle_beta 150.903933
_cell_angle_gamma 26.757721
_cell_volume 551.488599
_symmetry_space_group_name_H-M "P -1"
_symmetry_group_IT_number 2
_symmetry_cell_setting 'triclinic'
loop_
_space_group_symop_operation_xyz
x,y,z
-x,-y,-z
loop_
_atom_site_type_symbol
_atom_site_label
_atom_site_fract_x
_atom_site_fract_y
_atom_site_fract_z
Si Si1 0.965446 0.836391 0.752341
Si Si2 0.190913 0.100721 0.673738
Si Si3 0.465770 0.036461 0.137175
Si Si4 0.192755 0.527484 0.962470
Si Si5 0.238751 0.870615 0.710234
Si Si6 0.579405 0.653534 0.386485
Si Si7 0.037924 0.568120 0.393598
O O1 0.701865 0.842633 0.606299
O O2 0.195797 0.560994 0.643791
O O3 0.993619 0.813147 0.658957
O O4 0.000000 0.000000 0.000000
O O5 0.134893 0.333817 0.801719
O O6 0.356162 0.168654 0.896034
O O7 0.376791 0.825184 0.484452
O O8 0.000000 0.000000 0.500000
O O9 0.218980 0.266094 0.240118
O O10 0.626387 0.177537 0.330637
O O11 0.400872 0.890737 0.892163
O O12 0.183166 0.447588 0.795982
O O13 0.450133 0.524862 0.131600
O O14 0.991871 0.839451 0.151505
O O15 0.168319 0.626380 0.458121
#
# Coordination Sequence:
#
# PCOD9024734 Si02
#       7
#     2   2   2   2   2   2   2
#     4  11  26  46  75 104 138 189 250 298 352 419
#     4  12  25  43  72 106 146 190 234 291 356 430
#     4  10  22  40  66 101 140 190 236 285 353 426
#     4  11  25  44  68 107 149 184 234 289 366 424
#     4  10  23  40  67 104 146 185 232 290 354 434
#     4  11  25  46  69 106 142 186 240 301 349 426
#     4  11  23  45  71 100 141 190 236 298 354 422
#
# _framework density 25.385838
#
# number of rings (size 3 to 8) (size 9 to 14) (size 15 to 20)
#    0.000    1.143    1.429    3.857    4.000    6.286 
#    0.000    5.000    0.000    0.000    0.000    0.000 
#    0.000    0.000    0.000    0.000    0.000    0.000 
#
# Total GULP energy -78081.660752 kJ/mol
# GULP energy per Si atom -5577.261482 kJ/mol
# Density = 2.532806 g / cm^3
# Si number density = 25.385838 Si / 1000 Ang^3
#
#
#
# Elastic Constant Matrix: (Units=GPa)
#
#
# Indices 1 2 3 4 5 6 
#
# 1 95.0337 42.0180 23.5996 -17.1784 -12.2545 -8.5031
# 2 42.0180 122.5376 46.8885 -25.1583 -4.9877 17.2513
# 3 23.5996 46.8885 79.3633 -26.8527 -6.1226 3.0237
# 4 -17.1784 -25.1583 -26.8527 55.7898 -0.1936 -13.4289
# 5 -12.2545 -4.9877 -6.1226 -0.1936 34.0093 -13.9889
# 6 -8.5031 17.2513 3.0237 -13.4289 -13.9889 29.7579
#
#
#
# Elastic Compliance Matrix: (Units=1/GPa)
#
#
# Indices 1 2 3 4 5 6 
#
# 1 0.018423 -0.007682 0.002106 0.008020 0.014051 0.019728
# 2 -0.007682 0.014900 -0.007593 -0.003014 -0.008262 -0.015305
# 3 0.002106 -0.007593 0.019827 0.009413 0.007742 0.010876
# 4 0.008020 -0.003014 0.009413 0.029048 0.013596 0.022582
# 5 0.014051 -0.008262 0.007742 0.013596 0.050268 0.037784
# 6 0.019728 -0.015305 0.010876 0.022582 0.037784 0.074962
#
#
# Mechanical properties :
#
#
# Convention : Reuss Voigt Hill
#
# Bulk Modulus (GPa) = 37.29495 57.99409 47.64452
# Shear Modulus (GPa) = 20.60132 36.20663 28.40397
#
# Velocity S-wave (km/s) = 2.85182 3.78067 3.34861
# Velocity P-wave (km/s) = 5.05638 6.47709 5.81032
#
# Compressibility (1/GPa) = 0.02681328
#
# Stress axis : x y z
#
# Youngs Moduli (GPa) = 54.28096 67.11455 50.43506
#
# Poissons Ratio (x) = 0.51557 -0.10622
# Poissons Ratio (y) = 0.41698 0.38293
# Poissons Ratio (z) = -0.11432 0.50957
#
# Static dielectric constant tensor:
#      x y z
#    x 2.148910 0.037450 0.093610 
#    y 0.037450 2.025610 -0.029040 
#    z 0.093610 -0.029040 2.156690 
# 
# From -- ./inp_files/570411.got.cif
#   From: 2010.05.17/outbox.cif.g08.bks.cpg/sg2_286_cif.got.tgz:570411.got - 2010.06.03 11:33:40.
