data_PCOD9024811
_publ_section_title
;
Structure prediction by ZEFSAII (Michael W. Deem and Ramdas Pophale) SiO2 
 PCOD9024811
Probable space group: P -1
;
_chemical_formula_sum "Si O2"
_cell_formula_units_Z 13
_cell_length_a 8.019592
_cell_length_b 5.503505
_cell_length_c 19.392006
_cell_angle_alpha 89.301333
_cell_angle_beta 50.501844
_cell_angle_gamma 118.400905
_cell_volume 514.725065
_symmetry_space_group_name_H-M "P -1"
_symmetry_group_IT_number 2
_symmetry_cell_setting 'triclinic'
loop_
_space_group_symop_operation_xyz
x,y,z
-x,-y,-z
loop_
_atom_site_type_symbol
_atom_site_label
_atom_site_fract_x
_atom_site_fract_y
_atom_site_fract_z
Si Si1 0.500000 0.500000 0.500000
Si Si2 0.264514 0.067292 0.095349
Si Si3 0.102852 0.669852 0.565912
Si Si4 0.218691 0.546075 0.839716
Si Si5 0.884910 0.039002 0.300869
Si Si6 0.391912 0.983918 0.364519
Si Si7 0.204795 0.405444 0.993771
O O1 0.334322 0.626200 0.514510
O O2 0.734286 0.700896 0.375711
O O3 0.572052 0.230235 0.041240
O O4 0.144576 0.156728 0.186107
O O5 0.281104 0.227356 0.019326
O O6 0.016208 0.704551 0.151018
O O7 0.037625 0.747003 0.654260
O O8 0.247636 0.970551 0.474424
O O9 0.833784 0.359285 0.605227
O O10 0.230025 0.389654 0.905685
O O11 0.507044 0.763002 0.721979
O O12 0.097376 0.710194 0.903764
O O13 0.668044 0.033894 0.311367
#
# Coordination Sequence:
#
# PCOD9024811 Si02
#       7
#     1   2   2   2   2   2   2
#     4  10  22  40  66  92 122 170 214 254 314 380
#     4  11  24  42  68  95 129 172 212 265 327 377
#     4  10  24  45  64  95 137 164 213 267 314 389
#     4  11  23  42  69  94 129 168 219 267 316 387
#     4  11  24  41  65  96 132 167 210 269 317 386
#     4  10  22  44  65  95 130 172 207 264 325 370
#     4  10  24  45  61  98 128 169 218 269 321 372
#
# _framework density 25.256201999999998
#
# number of rings (size 3 to 8) (size 9 to 14) (size 15 to 20)
#    0.000    1.538    1.538    2.769    6.462    1.231 
#   11.077    4.615    0.000    0.000    0.000    0.000 
#    0.000    0.000    0.000    0.000    0.000    0.000 
#
# Total GULP energy -72522.012769 kJ/mol
# GULP energy per Si atom -5578.616367 kJ/mol
# Density = 2.519872 g / cm^3
# Si number density = 25.256202 Si / 1000 Ang^3
#
#
#
# Elastic Constant Matrix: (Units=GPa)
#
#
# Indices 1 2 3 4 5 6 
#
# 1 66.2880 17.2892 36.5745 14.2398 8.7841 10.7377
# 2 17.2892 58.3197 26.9343 -5.1185 2.9147 19.7150
# 3 36.5745 26.9343 176.2282 5.6474 20.6453 5.8498
# 4 14.2398 -5.1185 5.6474 32.2580 2.8368 0.1366
# 5 8.7841 2.9147 20.6453 2.8368 31.8192 -4.2731
# 6 10.7377 19.7150 5.8498 0.1366 -4.2731 39.5784
#
#
#
# Elastic Compliance Matrix: (Units=1/GPa)
#
#
# Indices 1 2 3 4 5 6 
#
# 1 0.020686 -0.004314 -0.002871 -0.009027 -0.003097 -0.003342
# 2 -0.004314 0.023690 -0.002419 0.006252 -0.001369 -0.010442
# 3 -0.002871 -0.002419 0.007028 -0.000045 -0.003466 0.000571
# 4 -0.009027 0.006252 -0.000045 0.036111 -0.001397 -0.000934
# 5 -0.003097 -0.001369 -0.003466 -0.001397 0.035571 0.005880
# 6 -0.003342 -0.010442 0.000571 -0.000934 0.005880 0.031928
#
#
# Mechanical properties :
#
#
# Convention : Reuss Voigt Hill
#
# Bulk Modulus (GPa) = 31.05914 51.38130 41.22022
# Shear Modulus (GPa) = 27.03379 35.40030 31.21705
#
# Velocity S-wave (km/s) = 3.27522 3.74792 3.51951
# Velocity P-wave (km/s) = 5.16014 6.25439 5.73343
#
# Compressibility (1/GPa) = 0.03219664
#
# Stress axis : x y z
#
# Youngs Moduli (GPa) = 48.34255 42.21202 142.28028
#
# Poissons Ratio (x) = 0.18212 0.40845
# Poissons Ratio (y) = 0.20857 0.34412
# Poissons Ratio (z) = 0.13878 0.10209
#
# Static dielectric constant tensor:
#      x y z
#    x 2.021890 0.198050 0.091460 
#    y 0.198050 2.700760 -0.157690 
#    z 0.091460 -0.157690 1.638280 
# 
# From -- ./inp_files/31557.got.cif
#   From: 2010.05.17/outbox.cif.g08.bks.cpg/sg2_16_cif.got.tgz:31557.got - 2010.06.03 11:33:40.
