data_PCOD9024387
_publ_section_title
;
Structure prediction by ZEFSAII (Michael W. Deem and Ramdas Pophale) SiO2 
 PCOD9024387
Probable space group: P -1
;
_chemical_formula_sum "Si O2"
_cell_formula_units_Z 14
_cell_length_a 13.096603
_cell_length_b 10.715572
_cell_length_c 6.665002
_cell_angle_alpha 107.872838
_cell_angle_beta 101.606332
_cell_angle_gamma 40.723382
_cell_volume 580.036650
_symmetry_space_group_name_H-M "P -1"
_symmetry_group_IT_number 2
_symmetry_cell_setting 'triclinic'
loop_
_space_group_symop_operation_xyz
x,y,z
-x,-y,-z
loop_
_atom_site_type_symbol
_atom_site_label
_atom_site_fract_x
_atom_site_fract_y
_atom_site_fract_z
Si Si1 0.153659 0.626310 0.014223
Si Si2 0.679477 0.289768 0.009091
Si Si3 0.627268 0.147314 0.590889
Si Si4 0.204170 0.045407 0.839752
Si Si5 0.622492 0.936144 0.771756
Si Si6 0.646042 0.622814 0.664399
Si Si7 0.841866 0.577470 0.421211
O O1 0.157594 0.486190 0.826188
O O2 0.201952 0.700644 0.927886
O O3 0.291014 0.496163 0.168215
O O4 0.980721 0.800040 0.123843
O O5 0.720309 0.165258 0.766430
O O6 0.500000 0.500000 0.000000
O O7 0.705998 0.167001 0.143834
O O8 0.479177 0.335668 0.496448
O O9 0.744369 0.985374 0.384458
O O10 0.544090 0.134270 0.727529
O O11 0.262987 0.109259 0.038874
O O12 0.569436 0.841969 0.782890
O O13 0.709073 0.805528 0.538347
O O14 0.798707 0.507647 0.533327
O O15 0.000000 0.500000 0.500000
#
# Coordination Sequence:
#
# PCOD9024387 Si02
#       7
#     2   2   2   2   2   2   2
#     4  12  24  41  68  98 128 167 215 261 319 377
#     4  11  26  47  67  90 126 170 221 265 314 376
#     4  11  24  44  65  93 132 171 212 264 315 378
#     4  11  25  42  68  95 128 166 214 269 316 378
#     4   9  23  40  64  97 129 170 211 256 318 376
#     4  10  24  38  64  97 129 172 207 256 317 382
#     4  10  22  40  64  94 135 166 207 258 317 377
#
# _framework density 24.136409
#
# number of rings (size 3 to 8) (size 9 to 14) (size 15 to 20)
#    0.857    0.571    1.429    2.571    4.000    6.857 
#    0.000    0.000    0.000    0.000    0.000    0.000 
#    0.000    0.000    0.000    0.000    0.000    0.000 
#
# Total GULP energy -78083.281567 kJ/mol
# GULP energy per Si atom -5577.377255 kJ/mol
# Density = 2.408147 g / cm^3
# Si number density = 24.136409 Si / 1000 Ang^3
#
#
#
# Elastic Constant Matrix: (Units=GPa)
#
#
# Indices 1 2 3 4 5 6 
#
# 1 86.0154 4.5212 15.4803 1.4165 0.0761 -8.3221
# 2 4.5212 48.7095 0.3079 -5.2110 -3.3913 7.8877
# 3 15.4803 0.3079 64.1975 -1.8627 10.7548 13.3927
# 4 1.4165 -5.2110 -1.8627 27.3978 -8.8250 -10.6859
# 5 0.0761 -3.3913 10.7548 -8.8250 29.5697 -4.9143
# 6 -8.3221 7.8877 13.3927 -10.6859 -4.9143 34.2904
#
#
#
# Elastic Compliance Matrix: (Units=1/GPa)
#
#
# Indices 1 2 3 4 5 6 
#
# 1 0.013274 -0.001813 -0.005153 0.002448 0.003512 0.006917
# 2 -0.001813 0.021946 0.000950 0.003383 0.002445 -0.004455
# 3 -0.005153 0.000950 0.021576 -0.007504 -0.012290 -0.013995
# 4 0.002448 0.003383 -0.007504 0.052446 0.022471 0.022311
# 5 0.003512 0.002445 -0.012290 0.022471 0.048430 0.019033
# 6 0.006917 -0.004455 -0.013995 0.022311 0.019033 0.047013
#
#
# Mechanical properties :
#
#
# Convention : Reuss Voigt Hill
#
# Bulk Modulus (GPa) = 22.33963 26.61569 24.47766
# Shear Modulus (GPa) = 21.58550 30.15912 25.87231
#
# Velocity S-wave (km/s) = 2.99375 3.53870 3.27757
# Velocity P-wave (km/s) = 4.60714 5.26761 4.94840
#
# Compressibility (1/GPa) = 0.04476351
#
# Stress axis : x y z
#
# Youngs Moduli (GPa) = 75.33363 45.56710 46.34829
#
# Poissons Ratio (x) = 0.08263 0.23881
# Poissons Ratio (y) = 0.13660 -0.04402
# Poissons Ratio (z) = 0.38816 -0.04328
#
# Static dielectric constant tensor:
#      x y z
#    x 1.938780 0.042140 -0.026240 
#    y 0.042140 1.993970 0.057220 
#    z -0.026240 0.057220 1.927360 
# 
# From -- ./inp_files/95361.got.cif
#   From: 2010.05.17/outbox.cif.g08.bks.cpg/sg2_48_cif.got.tgz:95361.got - 2010.06.03 11:33:40.
