data_PCOD9024106
_publ_section_title
;
Structure prediction by ZEFSAII (Michael W. Deem and Ramdas Pophale) SiO2 
 PCOD9024106
Probable space group: P -1
;
_chemical_formula_sum "Si O2"
_cell_formula_units_Z 16
_cell_length_a 14.568145
_cell_length_b 14.015835
_cell_length_c 8.336664
_cell_angle_alpha 68.929139
_cell_angle_beta 82.464576
_cell_angle_gamma 30.077631
_cell_volume 734.756388
_symmetry_space_group_name_H-M "P -1"
_symmetry_group_IT_number 2
_symmetry_cell_setting 'triclinic'
loop_
_space_group_symop_operation_xyz
x,y,z
-x,-y,-z
loop_
_atom_site_type_symbol
_atom_site_label
_atom_site_fract_x
_atom_site_fract_y
_atom_site_fract_z
Si Si1 0.544574 0.784785 0.771379
Si Si2 0.674900 0.211616 0.581083
Si Si3 0.214214 0.099838 0.374315
Si Si4 0.637419 0.174804 0.934688
Si Si5 0.518748 0.023978 0.802276
Si Si6 0.073091 0.691058 0.171225
Si Si7 0.694444 0.336105 0.774982
Si Si8 0.917918 0.476057 0.452539
O O1 0.762884 0.534278 0.824418
O O2 0.389776 0.925599 0.574432
O O3 0.474730 0.784912 0.938119
O O4 0.540119 0.906430 0.751529
O O5 0.766635 0.214548 0.662487
O O6 0.519024 0.406226 0.371923
O O7 0.818178 0.986873 0.610970
O O8 0.549443 0.277817 0.714150
O O9 0.030119 0.340092 0.345132
O O10 0.300531 0.078251 0.217662
O O11 0.856497 0.916141 0.012426
O O12 0.666449 0.263407 0.935617
O O13 0.314898 0.281286 0.658726
O O14 0.500000 0.000000 0.000000
O O15 0.164317 0.714048 0.164596
O O16 0.040846 0.660584 0.360921
O O17 0.000000 0.500000 0.500000
#
# Coordination Sequence:
#
# PCOD9024106 Si02
#       8
#     2   2   2   2   2   2   2   2
#     4  12  23  39  67  95 123 168 209 255 316 376
#     4   9  20  41  64  90 126 170 201 257 319 363
#     4  12  22  42  69  90 127 167 210 252 316 377
#     4  10  22  40  63  92 130 158 214 260 308 359
#     4  12  26  43  65  96 129 161 208 262 312 375
#     4  12  22  39  66  96 125 165 214 256 309 374
#     4   9  20  40  65  88 132 170 199 263 317 362
#     4  12  24  41  67  93 126 167 206 259 316 370
#
# _framework density 21.775925999999998
#
# number of rings (size 3 to 8) (size 9 to 14) (size 15 to 20)
#    0.750    0.250    5.000    2.250    0.000    2.000 
#    0.000    0.625    0.000    0.000    0.000    0.000 
#    0.000    0.000    0.000    0.000    0.000    0.000 
#
# Total GULP energy -89374.196107 kJ/mol
# GULP energy per Si atom -5585.887257 kJ/mol
# Density = 2.172636 g / cm^3
# Si number density = 21.775926 Si / 1000 Ang^3
#
#
#
# Elastic Constant Matrix: (Units=GPa)
#
#
# Indices 1 2 3 4 5 6 
#
# 1 71.7457 35.6754 5.6209 -1.0127 -17.0185 25.2394
# 2 35.6754 131.0950 6.0544 4.1635 -7.1621 11.4321
# 3 5.6209 6.0544 55.7183 -10.0328 -13.2816 -4.1283
# 4 -1.0127 4.1635 -10.0328 17.4551 5.8997 -1.0824
# 5 -17.0185 -7.1621 -13.2816 5.8997 26.5484 1.8540
# 6 25.2394 11.4321 -4.1283 -1.0824 1.8540 35.8444
#
#
#
# Elastic Compliance Matrix: (Units=1/GPa)
#
#
# Indices 1 2 3 4 5 6 
#
# 1 0.027145 -0.004584 -0.000085 -0.004796 0.018498 -0.018763
# 2 -0.004584 0.008980 -0.001129 -0.002895 -0.000449 0.000169
# 3 -0.000085 -0.001129 0.022114 0.010381 0.008198 0.002856
# 4 -0.004796 -0.002895 0.010381 0.069122 -0.014605 0.008339
# 5 0.018498 -0.000449 0.008198 -0.014605 0.057824 -0.015370
# 6 -0.018763 0.000169 0.002856 0.008339 -0.015370 0.042432
#
#
# Mechanical properties :
#
#
# Convention : Reuss Voigt Hill
#
# Bulk Modulus (GPa) = 21.43939 39.25116 30.34528
# Shear Modulus (GPa) = 19.62630 30.05013 24.83822
#
# Velocity S-wave (km/s) = 3.00540 3.71883 3.38098
# Velocity P-wave (km/s) = 4.68082 6.04183 5.40434
#
# Compressibility (1/GPa) = 0.04664312
#
# Stress axis : x y z
#
# Youngs Moduli (GPa) = 36.83933 111.35514 45.22099
#
# Poissons Ratio (x) = 0.51045 0.00383
# Poissons Ratio (y) = 0.16887 0.05106
# Poissons Ratio (z) = 0.00312 0.12573
#
# Static dielectric constant tensor:
#      x y z
#    x 1.818320 0.027040 0.037280 
#    y 0.027040 1.783240 0.006000 
#    z 0.037280 0.006000 1.852210 
# 
# From -- ./inp_files/314795.got.cif
#   From: 2010.05.17/outbox.cif.g08.bks.cpg/sg2_158_cif.got.tgz:314795.got - 2010.06.03 11:33:40.
