data_PCOD9024080
_publ_section_title
;
Structure prediction by ZEFSAII (Michael W. Deem and Ramdas Pophale) SiO2 
 PCOD9024080
Probable space group: P -1
;
_chemical_formula_sum "Si O2"
_cell_formula_units_Z 16
_cell_length_a 17.699660
_cell_length_b 6.433158
_cell_length_c 8.465940
_cell_angle_alpha 113.823131
_cell_angle_beta 111.288584
_cell_angle_gamma 101.779275
_cell_volume 748.856935
_symmetry_space_group_name_H-M "P -1"
_symmetry_group_IT_number 2
_symmetry_cell_setting 'triclinic'
loop_
_space_group_symop_operation_xyz
x,y,z
-x,-y,-z
loop_
_atom_site_type_symbol
_atom_site_label
_atom_site_fract_x
_atom_site_fract_y
_atom_site_fract_z
Si Si1 0.424789 0.077361 0.528960
Si Si2 0.156103 0.295341 0.855037
Si Si3 0.206446 0.954666 0.603092
Si Si4 0.483175 0.604959 0.852991
Si Si5 0.923635 0.076169 0.031144
Si Si6 0.767364 0.147417 0.771201
Si Si7 0.001320 0.613174 0.366134
Si Si8 0.629628 0.103079 0.201120
O O1 0.462884 0.375983 0.651650
O O2 0.500000 0.000000 0.500000
O O3 0.338109 0.971293 0.319177
O O4 0.400103 0.972481 0.660025
O O5 0.076313 0.295595 0.685644
O O6 0.222356 0.220918 0.774594
O O7 0.109465 0.071655 0.875656
O O8 0.197148 0.561018 0.059727
O O9 0.228935 0.921782 0.430507
O O10 0.100632 0.807785 0.477085
O O11 0.266886 0.846443 0.714354
O O12 0.399490 0.679951 0.805986
O O13 0.500000 0.500000 0.000000
O O14 0.569721 0.862465 0.977409
O O15 0.974292 0.375072 0.160231
O O16 0.830561 0.031320 0.862815
O O17 0.000000 0.000000 0.000000
O O18 0.000000 0.500000 0.500000
#
# Coordination Sequence:
#
# PCOD9024080 Si02
#       8
#     2   2   2   2   2   2   2   2
#     4  10  22  40  63  91 126 165 202 259 319 377
#     4  11  24  43  62  93 131 164 211 262 312 375
#     4  11  22  42  68  88 127 171 207 265 312 373
#     4   9  19  41  62  89 124 154 206 256 310 376
#     4  11  23  41  65  90 128 170 202 267 317 367
#     4  10  25  43  60  99 126 160 222 254 315 385
#     4  11  23  40  60  95 124 161 219 250 309 383
#     4   9  21  41  62  95 119 160 214 253 315 377
#
# _framework density 21.365897
#
# number of rings (size 3 to 8) (size 9 to 14) (size 15 to 20)
#    0.000    1.750    1.250    1.875    3.500    5.500 
#   11.250    0.000    0.000    0.000    0.000    0.000 
#    0.000    0.000    0.000    0.000    0.000    0.000 
#
# Total GULP energy -89191.598448 kJ/mol
# GULP energy per Si atom -5574.474903 kJ/mol
# Density = 2.131727 g / cm^3
# Si number density = 21.365897 Si / 1000 Ang^3
#
#
#
# Elastic Constant Matrix: (Units=GPa)
#
#
# Indices 1 2 3 4 5 6 
#
# 1 99.4010 40.0663 62.8663 7.5911 17.3599 -41.2469
# 2 40.0663 110.5449 55.4805 2.1915 6.8427 -46.0261
# 3 62.8663 55.4805 87.2805 3.7256 13.1468 -29.5660
# 4 7.5911 2.1915 3.7256 39.5527 -11.6354 2.8160
# 5 17.3599 6.8427 13.1468 -11.6354 28.7188 -11.2523
# 6 -41.2469 -46.0261 -29.5660 2.8160 -11.2523 43.3152
#
#
#
# Elastic Compliance Matrix: (Units=1/GPa)
#
#
# Indices 1 2 3 4 5 6 
#
# 1 0.028844 0.008558 -0.016899 -0.007730 -0.005420 0.024121
# 2 0.008558 0.022134 -0.012488 -0.002286 0.003863 0.024297
# 3 -0.016899 -0.012488 0.028347 0.000955 -0.003726 -0.011042
# 4 -0.007730 -0.002286 0.000955 0.031657 0.014717 -0.007373
# 5 -0.005420 0.003863 -0.003726 0.014717 0.047939 0.007897
# 6 0.024121 0.024297 -0.011042 -0.007373 0.007897 0.066867
#
#
# Mechanical properties :
#
#
# Convention : Reuss Voigt Hill
#
# Bulk Modulus (GPa) = 26.54715 68.22807 47.38761
# Shear Modulus (GPa) = 17.85702 31.57156 24.71429
#
# Velocity S-wave (km/s) = 2.89411 3.84821 3.40474
# Velocity P-wave (km/s) = 4.86002 7.19357 6.13870
#
# Compressibility (1/GPa) = 0.03766883
#
# Stress axis : x y z
#
# Youngs Moduli (GPa) = 34.66895 45.17901 35.27697
#
# Poissons Ratio (x) = -0.38666 0.59614
# Poissons Ratio (y) = -0.29671 0.44053
# Poissons Ratio (z) = 0.58587 0.56419
#
# Static dielectric constant tensor:
#      x y z
#    x 1.706830 0.023860 0.117510 
#    y 0.023860 1.771130 -0.013290 
#    z 0.117510 -0.013290 1.783330 
# 
# From -- ./inp_files/107670.got.cif
#   From: 2010.05.17/outbox.cif.g08.bks.cpg/sg2_54_cif.got.tgz:107670.got - 2010.06.03 11:33:40.
