data_PCOD9024161
_publ_section_title
;
Structure prediction by ZEFSAII (Michael W. Deem and Ramdas Pophale) SiO2 
 PCOD9024161
Probable space group: P -1
;
_chemical_formula_sum "Si O2"
_cell_formula_units_Z 14
_cell_length_a 29.229246
_cell_length_b 6.698594
_cell_length_c 17.077251
_cell_angle_alpha 137.641374
_cell_angle_beta 163.081438
_cell_angle_gamma 43.876227
_cell_volume 653.959270
_symmetry_space_group_name_H-M "P -1"
_symmetry_group_IT_number 2
_symmetry_cell_setting 'triclinic'
loop_
_space_group_symop_operation_xyz
x,y,z
-x,-y,-z
loop_
_atom_site_type_symbol
_atom_site_label
_atom_site_fract_x
_atom_site_fract_y
_atom_site_fract_z
Si Si1 0.079296 0.308535 0.641966
Si Si2 0.804908 0.524320 0.881261
Si Si3 0.817067 0.472751 0.708363
Si Si4 0.365734 0.103470 0.748193
Si Si5 0.370055 0.273354 0.205033
Si Si6 0.117577 0.633662 0.505096
Si Si7 0.384998 0.067938 0.589712
O O1 0.000000 0.500000 0.500000
O O2 0.956679 0.329503 0.519191
O O3 0.123964 0.974283 0.588800
O O4 0.240186 0.412051 0.972202
O O5 0.782171 0.603205 0.776192
O O6 0.722300 0.764791 0.876012
O O7 0.723745 0.215503 0.673577
O O8 0.988121 0.493187 0.196617
O O9 0.716217 0.651006 0.528914
O O10 0.766405 0.136862 0.531059
O O11 0.000000 0.500000 0.000000
O O12 0.276445 0.425206 0.707579
O O13 0.429225 0.096336 0.761113
O O14 0.500000 0.000000 0.000000
O O15 0.500000 0.500000 0.500000
O O16 0.464115 0.997868 0.237967
#
# Coordination Sequence:
#
# PCOD9024161 Si02
#       7
#     2   2   2   2   2   2   2
#     4  10  23  40  65  91 122 169 218 268 317 391
#     4   9  20  41  63  93 128 167 211 277 323 378
#     4  11  23  40  66  96 124 177 224 259 327 397
#     4  11  26  42  62  95 137 175 212 272 328 384
#     4   9  20  40  64  92 128 165 213 271 327 383
#     4  10  22  41  61  90 128 164 211 264 323 382
#     4  10  22  40  63  95 131 167 220 268 318 398
#
# _framework density 21.408059999999999
#
# number of rings (size 3 to 8) (size 9 to 14) (size 15 to 20)
#    0.000    2.000    0.000    1.714    4.000    9.143 
#    0.000    0.000    0.000    0.000    0.000    0.000 
#    0.000    0.000    0.000    0.000    0.000    0.000 
#
# Total GULP energy -78219.666475 kJ/mol
# GULP energy per Si atom -5587.119034 kJ/mol
# Density = 2.135933 g / cm^3
# Si number density = 21.408060 Si / 1000 Ang^3
#
#
#
# Elastic Constant Matrix: (Units=GPa)
#
#
# Indices 1 2 3 4 5 6 
#
# 1 86.0331 55.7840 44.0835 -10.9160 -14.9945 2.3843
# 2 55.7840 114.6068 51.7298 -23.8839 -10.8933 -6.5682
# 3 44.0835 51.7298 106.7875 -15.5438 -15.7853 -4.7935
# 4 -10.9160 -23.8839 -15.5438 32.1019 2.5819 -0.9781
# 5 -14.9945 -10.8933 -15.7853 2.5819 34.1572 -8.2624
# 6 2.3843 -6.5682 -4.7935 -0.9781 -8.2624 32.4864
#
#
#
# Elastic Compliance Matrix: (Units=1/GPa)
#
#
# Indices 1 2 3 4 5 6 
#
# 1 0.019132 -0.007622 -0.004011 -0.001477 0.003579 -0.002671
# 2 -0.007622 0.015686 -0.003098 0.007647 0.000527 0.003638
# 3 -0.004011 -0.003098 0.013632 0.002693 0.004021 0.002783
# 4 -0.001477 0.007647 0.002693 0.037665 0.001022 0.003446
# 5 0.003579 0.000527 0.004021 0.001022 0.035067 0.009387
# 6 -0.002671 0.003638 0.002783 0.003446 0.009387 0.034615
#
#
# Mechanical properties :
#
#
# Convention : Reuss Voigt Hill
#
# Bulk Modulus (GPa) = 52.66660 67.84688 60.25674
# Shear Modulus (GPa) = 26.09754 30.13778 28.11766
#
# Velocity S-wave (km/s) = 3.49528 3.75611 3.62804
# Velocity P-wave (km/s) = 6.39875 7.11141 6.76447
#
# Compressibility (1/GPa) = 0.01898737
#
# Stress axis : x y z
#
# Youngs Moduli (GPa) = 52.26972 63.75112 73.35558
#
# Poissons Ratio (x) = 0.48593 0.29425
# Poissons Ratio (y) = 0.39841 0.22723
# Poissons Ratio (z) = 0.20967 0.19748
#
# Static dielectric constant tensor:
#      x y z
#    x 1.785670 -0.038310 0.011710 
#    y -0.038310 1.748870 0.045320 
#    z 0.011710 0.045320 1.783500 
# 
# From -- ./inp_files/70078.got.cif
#   From: 2010.05.17/outbox.cif.g08.bks.cpg/sg2_36_cif.got.tgz:70078.got - 2010.06.03 11:33:40.
