data_PCOD9024800
_publ_section_title
;
Structure prediction by ZEFSAII (Michael W. Deem and Ramdas Pophale) SiO2 
 PCOD9024800
Probable space group: P -1
;
_chemical_formula_sum "Si O2"
_cell_formula_units_Z 16
_cell_length_a 11.108760
_cell_length_b 14.650476
_cell_length_c 11.828755
_cell_angle_alpha 123.536690
_cell_angle_beta 38.493366
_cell_angle_gamma 94.210281
_cell_volume 721.056830
_symmetry_space_group_name_H-M "P -1"
_symmetry_group_IT_number 2
_symmetry_cell_setting 'triclinic'
loop_
_space_group_symop_operation_xyz
x,y,z
-x,-y,-z
loop_
_atom_site_type_symbol
_atom_site_label
_atom_site_fract_x
_atom_site_fract_y
_atom_site_fract_z
Si Si1 0.452057 0.053464 0.944917
Si Si2 0.410831 0.426750 0.078512
Si Si3 0.375110 0.666287 0.726375
Si Si4 0.849410 0.916026 0.383954
Si Si5 0.607259 0.777381 0.202178
Si Si6 0.291468 0.823582 0.669540
Si Si7 0.347679 0.786007 0.051206
Si Si8 0.970434 0.282430 0.304961
O O1 0.673799 0.918778 0.604725
O O2 0.507259 0.161917 0.980056
O O3 0.166786 0.149685 0.162452
O O4 0.500000 0.000000 0.000000
O O5 0.640799 0.298148 0.908355
O O6 0.161873 0.560724 0.431389
O O7 0.500000 0.500000 0.000000
O O8 0.358505 0.351734 0.975767
O O9 0.500000 0.500000 0.500000
O O10 0.377802 0.754996 0.685324
O O11 0.492374 0.673580 0.760016
O O12 0.062030 0.766890 0.053139
O O13 0.651116 0.061591 0.551911
O O14 0.051012 0.915687 0.306356
O O15 0.519453 0.795589 0.409243
O O16 0.855149 0.752009 0.956356
O O17 0.242380 0.725191 0.578709
O O18 0.000000 0.000000 0.000000
#
# Coordination Sequence:
#
# PCOD9024800 Si02
#       8
#     2   2   2   2   2   2   2   2
#     4  11  24  38  65  99 126 166 210 278 345 380
#     4  12  23  39  70  99 131 173 212 276 349 389
#     4  10  23  41  65  92 129 178 220 262 322 391
#     4   9  21  40  65  89 128 166 216 271 324 379
#     4  11  23  43  66 100 128 174 218 279 329 384
#     4  12  24  44  70  94 129 181 232 263 318 404
#     4  10  22  40  66  90 134 158 218 270 327 390
#     4  11  26  42  65 100 137 162 222 281 330 393
#
# _framework density 22.189651999999999
#
# number of rings (size 3 to 8) (size 9 to 14) (size 15 to 20)
#    0.750    0.500    5.000    1.500    5.250    0.500 
#    0.000    0.000    0.000    2.250    0.000    0.000 
#    0.000    0.000    0.000    0.000    0.000    0.000 
#
# Total GULP energy -89328.840790 kJ/mol
# GULP energy per Si atom -5583.052549 kJ/mol
# Density = 2.213915 g / cm^3
# Si number density = 22.189652 Si / 1000 Ang^3
#
#
#
# Elastic Constant Matrix: (Units=GPa)
#
#
# Indices 1 2 3 4 5 6 
#
# 1 50.8576 10.6180 -2.3013 -7.0832 9.9081 -15.0686
# 2 10.6180 117.9015 27.1483 -15.2477 9.9714 -31.6552
# 3 -2.3013 27.1483 113.9352 -1.2051 23.8990 -6.2202
# 4 -7.0832 -15.2477 -1.2051 30.7276 1.7447 14.4633
# 5 9.9081 9.9714 23.8990 1.7447 30.7506 -4.9787
# 6 -15.0686 -31.6552 -6.2202 14.4633 -4.9787 32.3217
#
#
#
# Elastic Compliance Matrix: (Units=1/GPa)
#
#
# Indices 1 2 3 4 5 6 
#
# 1 0.024757 0.001058 0.002697 0.001648 -0.008726 0.011016
# 2 0.001058 0.012116 -0.002049 0.000831 -0.000869 0.011459
# 3 0.002697 -0.002049 0.011198 0.000691 -0.008993 -0.000289
# 4 0.001648 0.000831 0.000691 0.042340 -0.006696 -0.018262
# 5 -0.008726 -0.000869 -0.008993 -0.006696 0.043475 0.003043
# 6 0.011016 0.011459 -0.000289 -0.018262 0.003043 0.055882
#
#
# Mechanical properties :
#
#
# Convention : Reuss Voigt Hill
#
# Bulk Modulus (GPa) = 19.42368 39.29158 29.35763
# Shear Modulus (GPa) = 24.56806 35.24194 29.90500
#
# Velocity S-wave (km/s) = 3.33105 3.98957 3.67509
# Velocity P-wave (km/s) = 4.85459 6.24242 5.59173
#
# Compressibility (1/GPa) = 0.05148354
#
# Stress axis : x y z
#
# Youngs Moduli (GPa) = 40.39213 82.53704 89.30518
#
# Poissons Ratio (x) = -0.08733 -0.24087
# Poissons Ratio (y) = -0.04274 0.18297
# Poissons Ratio (z) = -0.10895 0.16910
#
# Static dielectric constant tensor:
#      x y z
#    x 1.276880 -0.490560 0.364560 
#    y -0.490560 1.430110 0.235730 
#    z 0.364560 0.235730 1.736910 
# 
# From -- ./inp_files/434188.got.cif
#   From: 2010.05.17/outbox.cif.g08.bks.cpg/sg2_218_cif.got.tgz:434188.got - 2010.06.03 11:33:40.
