data_PCOD9024708
_publ_section_title
;
Structure prediction by ZEFSAII (Michael W. Deem and Ramdas Pophale) SiO2 
 PCOD9024708
Probable space group: P -1
;
_chemical_formula_sum "Si O2"
_cell_formula_units_Z 16
_cell_length_a 9.632530
_cell_length_b 14.771397
_cell_length_c 8.110975
_cell_angle_alpha 49.919940
_cell_angle_beta 85.423788
_cell_angle_gamma 55.826040
_cell_volume 654.146031
_symmetry_space_group_name_H-M "P -1"
_symmetry_group_IT_number 2
_symmetry_cell_setting 'triclinic'
loop_
_space_group_symop_operation_xyz
x,y,z
-x,-y,-z
loop_
_atom_site_type_symbol
_atom_site_label
_atom_site_fract_x
_atom_site_fract_y
_atom_site_fract_z
Si Si1 0.427989 0.804428 0.696865
Si Si2 0.142682 0.780325 0.632145
Si Si3 0.304476 0.499236 0.161108
Si Si4 0.907431 0.623365 0.148508
Si Si5 0.126968 0.268691 0.623688
Si Si6 0.754790 0.863564 0.588912
Si Si7 0.481520 0.616648 0.199209
Si Si8 0.186695 0.726533 0.325748
O O1 0.239085 0.831362 0.663307
O O2 0.564639 0.684734 0.678525
O O3 0.398467 0.959668 0.529616
O O4 0.514797 0.707116 0.972358
O O5 0.169969 0.795604 0.422904
O O6 0.934534 0.851704 0.594316
O O7 0.255508 0.596653 0.883463
O O8 0.111734 0.573371 0.179286
O O9 0.416180 0.535559 0.204907
O O10 0.975543 0.448951 0.352613
O O11 0.808610 0.711490 0.230042
O O12 0.805672 0.728981 0.869362
O O13 0.252037 0.167538 0.568675
O O14 0.015626 0.214083 0.755174
O O15 0.296130 0.750441 0.166220
O O16 0.665808 0.467725 0.449512
#
# Coordination Sequence:
#
# PCOD9024708 Si02
#       8
#     2   2   2   2   2   2   2   2
#     4  11  19  34  51  84 119 147 170 221 286 335
#     4   9  17  32  52  77 109 150 181 217 262 330
#     4  10  17  33  57  79 106 146 187 220 266 322
#     4  10  21  40  63  79 104 144 195 237 266 315
#     4  10  21  39  62  80 104 143 198 233 265 319
#     4  10  22  36  56  83 116 145 181 224 285 331
#     4  10  18  30  53  83 114 140 180 222 272 327
#     4  10  17  31  53  85 105 137 189 229 260 319
#
# _framework density 24.459368999999999
#
# number of rings (size 3 to 8) (size 9 to 14) (size 15 to 20)
#    0.000    2.000    3.750    1.500    0.000    0.000 
#    2.250    1.875    0.000    1.500    0.000    0.000 
#    0.000    0.000    0.000    0.000    0.000    0.000 
#
# Total GULP energy -89292.546425 kJ/mol
# GULP energy per Si atom -5580.784152 kJ/mol
# Density = 2.440370 g / cm^3
# Si number density = 24.459369 Si / 1000 Ang^3
#
#
#
# Elastic Constant Matrix: (Units=GPa)
#
#
# Indices 1 2 3 4 5 6 
#
# 1 73.0166 6.1986 1.6978 -1.1031 -28.8162 -0.3151
# 2 6.1986 123.6293 37.3940 14.7327 -12.3526 1.0556
# 3 1.6978 37.3940 26.8475 11.3574 -15.6145 -0.9228
# 4 -1.1031 14.7327 11.3574 28.4336 4.7037 -8.6893
# 5 -28.8162 -12.3526 -15.6145 4.7037 24.9658 3.6052
# 6 -0.3151 1.0556 -0.9228 -8.6893 3.6052 15.3476
#
#
#
# Elastic Compliance Matrix: (Units=1/GPa)
#
#
# Indices 1 2 3 4 5 6 
#
# 1 -0.016090 0.010828 -0.081713 0.052791 -0.080446 0.042797
# 2 0.010828 0.009600 0.011955 -0.020121 0.031178 -0.018435
# 3 -0.081713 0.011955 -0.148138 0.118811 -0.218928 0.107286
# 4 0.052791 -0.020121 0.118811 -0.035890 0.138285 -0.043191
# 5 -0.080446 0.031178 -0.218928 0.138285 -0.216553 0.112201
# 6 0.042797 -0.018435 0.107286 -0.043191 0.112201 0.022945
#
#
# Mechanical properties :
#
#
# Convention : Reuss Voigt Hill
#
# Bulk Modulus (GPa) = -3.66989 34.89713 15.61362
# Shear Modulus (GPa) = -14.00183 25.62961 5.81389
#
# Velocity S-wave (km/s) = -2.39519 3.24055 1.54341
# Velocity P-wave (km/s) = 3.02538 5.31977 3.09411
#
# Compressibility (1/GPa) = -0.27248744
#
# Stress axis : x y z
#
# Youngs Moduli (GPa) = -62.15142 104.16595 -6.75044
#
# Poissons Ratio (x) = -1.12791 -0.55160
# Poissons Ratio (y) = 0.67297 0.08070
# Poissons Ratio (z) = -5.07857 -1.24533
#
# Static dielectric constant tensor:
#      x y z
#    x 2.014260 -0.070450 0.050280 
#    y -0.070450 1.986830 0.007820 
#    z 0.050280 0.007820 1.951420 
# 
# From -- ./inp_files/171428.got.cif
#   From: 2010.05.17/outbox.cif.g08.bks.cpg/sg2_86_cif.got.tgz:171428.got - 2010.06.03 11:33:40.
