data_PCOD9024515
_publ_section_title
;
Structure prediction by ZEFSAII (Michael W. Deem and Ramdas Pophale) SiO2 
 PCOD9024515
Probable space group: P -1
;
_chemical_formula_sum "Si O2"
_cell_formula_units_Z 14
_cell_length_a 24.144619
_cell_length_b 24.328094
_cell_length_c 10.869266
_cell_angle_alpha 31.832713
_cell_angle_beta 32.143374
_cell_angle_gamma 11.528792
_cell_volume 666.827769
_symmetry_space_group_name_H-M "P -1"
_symmetry_group_IT_number 2
_symmetry_cell_setting 'triclinic'
loop_
_space_group_symop_operation_xyz
x,y,z
-x,-y,-z
loop_
_atom_site_type_symbol
_atom_site_label
_atom_site_fract_x
_atom_site_fract_y
_atom_site_fract_z
Si Si1 0.026257 0.590409 0.722374
Si Si2 0.589704 0.108870 0.430341
Si Si3 0.735002 0.640239 0.670350
Si Si4 0.757210 0.860573 0.178840
Si Si5 0.495311 0.608396 0.625798
Si Si6 0.951832 0.808583 0.679009
Si Si7 0.730490 0.197846 0.061433
O O1 0.337239 0.325034 0.592248
O O2 0.932538 0.759660 0.682760
O O3 0.804101 0.814175 0.604897
O O4 0.000000 0.500000 0.000000
O O5 0.435919 0.258996 0.304185
O O6 0.776707 0.038874 0.228854
O O7 0.781832 0.713687 0.391201
O O8 0.021276 0.323342 0.778927
O O9 0.546192 0.830763 0.784873
O O10 0.833849 0.851791 0.930213
O O11 0.498323 0.609580 0.766909
O O12 0.723359 0.466113 0.400525
O O13 0.205591 0.933648 0.521304
O O14 0.590405 0.399780 0.835260
O O15 0.000000 0.000000 0.000000
#
# Coordination Sequence:
#
# PCOD9024515 Si02
#       7
#     2   2   2   2   2   2   2
#     4  12  24  37  57  94 133 158 189 250 325 379
#     4  12  24  40  63  91 128 161 206 252 309 371
#     4  10  22  42  61  90 115 168 212 251 288 364
#     4  10  22  40  65  84 122 162 215 246 297 358
#     4  11  22  36  60  89 121 155 205 245 309 362
#     4  12  21  39  60  92 122 161 198 254 309 372
#     4  11  22  40  62  91 127 164 204 254 305 381
#
# _framework density 20.994926
#
# number of rings (size 3 to 8) (size 9 to 14) (size 15 to 20)
#    0.000    0.857    4.286    3.000    2.000    3.429 
#    0.000    0.000    0.000    5.143    0.000    0.000 
#    0.000    0.000    0.000    0.000    0.000    0.000 
#
# Total GULP energy -78108.858589 kJ/mol
# GULP energy per Si atom -5579.204185 kJ/mol
# Density = 2.094714 g / cm^3
# Si number density = 20.994926 Si / 1000 Ang^3
#
#
#
# Elastic Constant Matrix: (Units=GPa)
#
#
# Indices 1 2 3 4 5 6 
#
# 1 47.9860 0.3336 16.5780 1.2319 -9.6353 -11.7137
# 2 0.3336 97.6715 15.9229 1.7180 -6.1331 -5.7002
# 3 16.5780 15.9229 91.6198 13.4440 6.1423 11.4792
# 4 1.2319 1.7180 13.4440 36.0404 3.2973 3.5705
# 5 -9.6353 -6.1331 6.1423 3.2973 21.3606 7.2759
# 6 -11.7137 -5.7002 11.4792 3.5705 7.2759 22.2045
#
#
#
# Elastic Compliance Matrix: (Units=1/GPa)
#
#
# Indices 1 2 3 4 5 6 
#
# 1 0.030600 0.003132 -0.008997 -0.000654 0.011254 0.018015
# 2 0.003132 0.011330 -0.003399 -0.000242 0.003957 0.005060
# 3 -0.008997 -0.003399 0.015437 -0.003703 -0.005034 -0.011354
# 4 -0.000654 -0.000242 -0.003703 0.029669 -0.003115 -0.002242
# 5 0.011254 0.003957 -0.005034 -0.003115 0.058005 -0.008951
# 6 0.018015 0.005060 -0.011354 -0.002242 -0.008951 0.065002
#
#
# Mechanical properties :
#
#
# Convention : Reuss Voigt Hill
#
# Bulk Modulus (GPa) = 25.74822 33.66071 29.70447
# Shear Modulus (GPa) = 20.70235 29.55061 25.12648
#
# Velocity S-wave (km/s) = 3.14357 3.75575 3.46322
# Velocity P-wave (km/s) = 5.04646 5.90552 5.49281
#
# Compressibility (1/GPa) = 0.03883763
#
# Stress axis : x y z
#
# Youngs Moduli (GPa) = 32.67975 88.26139 64.77978
#
# Poissons Ratio (x) = -0.27641 0.58282
# Poissons Ratio (y) = -0.10235 0.22022
# Poissons Ratio (z) = 0.29402 0.30004
#
# Static dielectric constant tensor:
#      x y z
#    x 1.805910 0.016890 -0.039370 
#    y 0.016890 1.798490 -0.033450 
#    z -0.039370 -0.033450 1.765320 
# 
# From -- ./inp_files/441851.got.cif
#   From: 2010.05.17/outbox.cif.g08.bks.cpg/sg2_221_cif.got.tgz:441851.got - 2010.06.03 11:33:40.
