data_PCOD9024120
_publ_section_title
;
Structure prediction by ZEFSAII (Michael W. Deem and Ramdas Pophale) SiO2 
 PCOD9024120
Probable space group: P -1
;
_chemical_formula_sum "Si O2"
_cell_formula_units_Z 16
_cell_length_a 8.585254
_cell_length_b 15.741164
_cell_length_c 21.653406
_cell_angle_alpha 160.590261
_cell_angle_beta 49.378527
_cell_angle_gamma 129.379782
_cell_volume 735.710366
_symmetry_space_group_name_H-M "P -1"
_symmetry_group_IT_number 2
_symmetry_cell_setting 'triclinic'
loop_
_space_group_symop_operation_xyz
x,y,z
-x,-y,-z
loop_
_atom_site_type_symbol
_atom_site_label
_atom_site_fract_x
_atom_site_fract_y
_atom_site_fract_z
Si Si1 0.881779 0.221834 0.710676
Si Si2 0.439405 0.201069 0.807968
Si Si3 0.131085 0.999400 0.306310
Si Si4 0.419332 0.337348 0.157284
Si Si5 0.589771 0.040236 0.216007
Si Si6 0.875082 0.236273 0.990214
Si Si7 0.980132 0.759552 0.721630
Si Si8 0.684257 0.110301 0.483352
O O1 0.658322 0.120096 0.675107
O O2 0.875163 0.200502 0.772211
O O3 0.972889 0.506013 0.864022
O O4 0.000000 0.000000 0.500000
O O5 0.392504 0.096061 0.815671
O O6 0.294406 0.090332 0.715865
O O7 0.500000 0.500000 0.000000
O O8 0.361858 0.149033 0.351162
O O9 0.128527 0.854816 0.142524
O O10 0.922677 0.146122 0.469726
O O11 0.639607 0.305022 0.110626
O O12 0.222819 0.263737 0.200054
O O13 0.390904 0.626702 0.342564
O O14 0.412626 0.159976 0.976530
O O15 0.806170 0.209998 0.273950
O O16 0.945311 0.003708 0.854165
O O17 0.000000 0.500000 0.500000
O O18 0.500000 0.000000 0.500000
#
# Coordination Sequence:
#
# PCOD9024120 Si02
#       8
#     2   2   2   2   2   2   2   2
#     4  11  22  37  61  96 130 163 206 259 317 378
#     4  11  21  36  59  90 126 166 208 256 315 376
#     4  10  22  40  63  93 128 170 212 259 320 383
#     4  11  24  43  65  94 127 167 217 268 322 383
#     4  10  23  42  63  88 123 165 212 265 318 377
#     4  11  23  43  66  92 130 172 213 265 321 380
#     4  12  25  45  68  93 125 170 218 268 323 384
#     4  12  23  40  65  98 132 169 213 266 323 385
#
# _framework density 21.747689000000001
#
# number of rings (size 3 to 8) (size 9 to 14) (size 15 to 20)
#    0.000    1.000    0.000    7.875    0.000    4.000 
#    0.000    8.125    0.000    0.000    0.000    0.000 
#    0.000    0.000    0.000    0.000    0.000    0.000 
#
# Total GULP energy -89265.945487 kJ/mol
# GULP energy per Si atom -5579.121593 kJ/mol
# Density = 2.169819 g / cm^3
# Si number density = 21.747689 Si / 1000 Ang^3
#
#
#
# Elastic Constant Matrix: (Units=GPa)
#
#
# Indices 1 2 3 4 5 6 
#
# 1 132.9759 57.8165 34.1100 -2.2024 -14.2431 35.0379
# 2 57.8165 136.7733 38.2637 -9.9905 -8.1999 23.4693
# 3 34.1100 38.2637 78.9750 2.9273 -10.9070 4.0347
# 4 -2.2024 -9.9905 2.9273 33.9458 1.7192 -9.1611
# 5 -14.2431 -8.1999 -10.9070 1.7192 38.9344 -13.2644
# 6 35.0379 23.4693 4.0347 -9.1611 -13.2644 41.9396
#
#
#
# Elastic Compliance Matrix: (Units=1/GPa)
#
#
# Indices 1 2 3 4 5 6 
#
# 1 0.011723 -0.002767 -0.003214 -0.002037 0.000045 -0.008367
# 2 -0.002767 0.010140 -0.003804 0.002433 -0.000997 -0.002781
# 3 -0.003214 -0.003804 0.016313 -0.001825 0.004083 0.004137
# 4 -0.002037 0.002433 -0.001825 0.032257 0.000457 0.007706
# 5 0.000045 -0.000997 0.004083 0.000457 0.029915 0.009689
# 6 -0.008367 -0.002781 0.004137 0.007706 0.009689 0.036740
#
#
# Mechanical properties :
#
#
# Convention : Reuss Voigt Hill
#
# Bulk Modulus (GPa) = 53.73928 67.67829 60.70878
# Shear Modulus (GPa) = 30.70120 37.53288 34.11704
#
# Velocity S-wave (km/s) = 3.76134 4.15882 3.96506
# Velocity P-wave (km/s) = 6.60511 7.36535 6.99557
#
# Compressibility (1/GPa) = 0.01860836
#
# Stress axis : x y z
#
# Youngs Moduli (GPa) = 85.30020 98.61696 61.29932
#
# Poissons Ratio (x) = 0.27287 0.19699
# Poissons Ratio (y) = 0.23602 0.23317
# Poissons Ratio (z) = 0.27412 0.37511
#
# Static dielectric constant tensor:
#      x y z
#    x 1.852460 -0.003330 -0.023390 
#    y -0.003330 1.798190 -0.005870 
#    z -0.023390 -0.005870 1.754720 
# 
# From -- ./inp_files/245477.got.cif
#   From: 2010.05.17/outbox.cif.g08.bks.cpg/sg2_123_cif.got.tgz:245477.got - 2010.06.03 11:33:40.
