data_PCOD9024546
_publ_section_title
;
Structure prediction by ZEFSAII (Michael W. Deem and Ramdas Pophale) SiO2 
 PCOD9024546
Probable space group: P -1
;
_chemical_formula_sum "Si O2"
_cell_formula_units_Z 16
_cell_length_a 11.183794
_cell_length_b 12.585859
_cell_length_c 7.678164
_cell_angle_alpha 101.413557
_cell_angle_beta 59.934501
_cell_angle_gamma 135.010272
_cell_volume 639.295870
_symmetry_space_group_name_H-M "P -1"
_symmetry_group_IT_number 2
_symmetry_cell_setting 'triclinic'
loop_
_space_group_symop_operation_xyz
x,y,z
-x,-y,-z
loop_
_atom_site_type_symbol
_atom_site_label
_atom_site_fract_x
_atom_site_fract_y
_atom_site_fract_z
Si Si1 0.786591 0.503254 0.546508
Si Si2 0.197861 0.955070 0.384530
Si Si3 0.621015 0.823882 0.171332
Si Si4 0.039080 0.451056 0.190880
Si Si5 0.541631 0.271364 0.120861
Si Si6 0.269403 0.893696 0.638708
Si Si7 0.985651 0.024186 0.771188
Si Si8 0.678779 0.660279 0.510834
O O1 0.556075 0.334411 0.647026
O O2 0.923813 0.495626 0.340910
O O3 0.800197 0.632967 0.507888
O O4 0.850780 0.531460 0.709950
O O5 0.430166 0.120655 0.271018
O O6 0.053700 0.960404 0.585567
O O7 0.196566 0.851152 0.475891
O O8 0.137167 0.948366 0.229561
O O9 0.721477 0.980692 0.249238
O O10 0.500612 0.783861 0.067226
O O11 0.825823 0.884436 0.974943
O O12 0.875061 0.268338 0.205434
O O13 0.225547 0.579476 0.971010
O O14 0.415594 0.308509 0.272233
O O15 0.500000 0.000000 0.500000
O O16 0.194107 0.204778 0.683690
O O17 0.500000 0.500000 0.500000
#
# Coordination Sequence:
#
# PCOD9024546 Si02
#       8
#     2   2   2   2   2   2   2   2
#     4  10  22  43  63  91 128 169 204 258 317 371
#     4   9  20  41  65  86 124 164 200 259 311 368
#     4  10  22  40  65  91 126 159 211 260 308 369
#     4  10  22  41  66  90 126 167 212 254 311 376
#     4   9  22  44  65  92 125 168 211 255 314 380
#     4  12  24  39  62  94 129 163 208 260 310 365
#     4   9  20  41  62  90 120 161 208 251 316 370
#     4  11  24  39  65  94 130 162 209 260 315 370
#
# _framework density 25.027533999999999
#
# number of rings (size 3 to 8) (size 9 to 14) (size 15 to 20)
#    0.000    2.000    1.250    1.500    5.250    3.500 
#    2.250    2.500    0.000    0.000    0.000    0.000 
#    0.000    0.000    0.000    0.000    0.000    0.000 
#
# Total GULP energy -89218.914623 kJ/mol
# GULP energy per Si atom -5576.182164 kJ/mol
# Density = 2.497057 g / cm^3
# Si number density = 25.027534 Si / 1000 Ang^3
#
#
#
# Elastic Constant Matrix: (Units=GPa)
#
#
# Indices 1 2 3 4 5 6 
#
# 1 56.8812 -4.9842 22.9035 -5.7590 2.7361 14.4248
# 2 -4.9842 105.6413 29.2718 -36.4671 -7.5067 7.0557
# 3 22.9035 29.2718 112.1258 -52.8692 -8.7067 -3.2412
# 4 -5.7590 -36.4671 -52.8692 57.0471 19.2848 -0.9245
# 5 2.7361 -7.5067 -8.7067 19.2848 24.7251 -10.0278
# 6 14.4248 7.0557 -3.2412 -0.9245 -10.0278 40.2590
#
#
#
# Elastic Compliance Matrix: (Units=1/GPa)
#
#
# Indices 1 2 3 4 5 6 
#
# 1 0.024229 0.003869 -0.005668 0.003206 -0.011073 -0.012500
# 2 0.003869 0.013463 0.000666 0.012147 -0.007747 -0.005343
# 3 -0.005668 0.000666 0.018614 0.019489 -0.006954 0.002128
# 4 0.003206 0.012147 0.019489 0.056248 -0.037648 -0.009794
# 5 -0.011073 -0.007747 -0.006954 -0.037648 0.075436 0.022691
# 6 -0.012500 -0.005343 0.002128 -0.009794 0.022691 0.035853
#
#
# Mechanical properties :
#
#
# Convention : Reuss Voigt Hill
#
# Bulk Modulus (GPa) = 18.50509 41.00340 29.75424
# Shear Modulus (GPa) = 20.48150 39.57007 30.02578
#
# Velocity S-wave (km/s) = 2.86380 3.98057 3.46744
# Velocity P-wave (km/s) = 4.28312 6.12744 5.28633
#
# Compressibility (1/GPa) = 0.05403919
#
# Stress axis : x y z
#
# Youngs Moduli (GPa) = 41.27246 74.27635 53.72437
#
# Poissons Ratio (x) = -0.28735 0.30454
# Poissons Ratio (y) = -0.15967 -0.03580
# Poissons Ratio (z) = 0.23395 -0.04950
#
# Static dielectric constant tensor:
#      x y z
#    x 2.079560 0.077740 0.024640 
#    y 0.077740 2.097590 0.073190 
#    z 0.024640 0.073190 2.101980 
# 
# From -- ./inp_files/273326.got.cif
#   From: 2010.05.17/outbox.cif.g08.bks.cpg/sg2_137_cif.got.tgz:273326.got - 2010.06.03 11:33:40.
