data_PCOD9024611
_publ_section_title
;
Structure prediction by ZEFSAII (Michael W. Deem and Ramdas Pophale) SiO2 
 PCOD9024611
Probable space group: P -1
;
_chemical_formula_sum "Si O2"
_cell_formula_units_Z 10
_cell_length_a 10.727632
_cell_length_b 6.417474
_cell_length_c 9.680689
_cell_angle_alpha 79.511451
_cell_angle_beta 132.690884
_cell_angle_gamma 73.478911
_cell_volume 397.679284
_symmetry_space_group_name_H-M "P -1"
_symmetry_group_IT_number 2
_symmetry_cell_setting 'triclinic'
loop_
_space_group_symop_operation_xyz
x,y,z
-x,-y,-z
loop_
_atom_site_type_symbol
_atom_site_label
_atom_site_fract_x
_atom_site_fract_y
_atom_site_fract_z
Si Si1 0.529873 0.762580 0.632971
Si Si2 0.919829 0.556172 0.090899
Si Si3 0.529122 0.754984 0.124107
Si Si4 0.733837 0.428099 0.567972
Si Si5 0.147461 0.760056 0.737054
O O1 0.660283 0.514909 0.659731
O O2 0.331311 0.758105 0.509958
O O3 0.500000 0.000000 0.500000
O O4 0.673933 0.718559 0.874897
O O5 0.977140 0.303195 0.245131
O O6 0.027908 0.674281 0.236362
O O7 0.000000 0.500000 0.000000
O O8 0.606885 0.684666 0.348597
O O9 0.712814 0.496177 0.218972
O O10 0.315365 0.781563 0.941345
O O11 0.500000 0.000000 0.000000
O O12 0.000000 0.000000 0.500000
#
# Coordination Sequence:
#
# PCOD9024611 Si02
#       5
#     2   2   2   2   2
#     4  10  22  40  65  94 137 173 222 287 342 411
#     4  10  22  42  67  99 135 177 233 285 348 412
#     4  11  25  43  71 101 141 186 235 289 353 417
#     4  10  22  41  63  96 132 176 228 276 350 411
#     4  11  25  46  70 101 146 185 234 296 348 418
#
# _framework density 25.145890000000001
#
# number of rings (size 3 to 8) (size 9 to 14) (size 15 to 20)
#    0.000    1.600    2.000    1.200    2.800    7.200 
#    0.000    0.000    0.000    0.000    0.000    0.000 
#    0.000    0.000    0.000    0.000    0.000    0.000 
#
# Total GULP energy -55945.529402 kJ/mol
# GULP energy per Si atom -5594.552940 kJ/mol
# Density = 2.508866 g / cm^3
# Si number density = 25.145890 Si / 1000 Ang^3
#
#
#
# Elastic Constant Matrix: (Units=GPa)
#
#
# Indices 1 2 3 4 5 6 
#
# 1 101.3179 54.7949 42.9794 -3.7636 -13.5521 19.0810
# 2 54.7949 129.7537 89.6818 5.3823 28.4760 53.2868
# 3 42.9794 89.6818 189.7750 19.2411 4.7291 29.3170
# 4 -3.7636 5.3823 19.2411 59.7970 14.2164 11.9350
# 5 -13.5521 28.4760 4.7291 14.2164 41.3057 -3.3736
# 6 19.0810 53.2868 29.3170 11.9350 -3.3736 60.2790
#
#
#
# Elastic Compliance Matrix: (Units=1/GPa)
#
#
# Indices 1 2 3 4 5 6 
#
# 1 0.021106 -0.022956 0.003878 -0.006906 0.025871 0.014542
# 2 -0.022956 0.057574 -0.016042 0.020412 -0.055923 -0.042998
# 3 0.003878 -0.016042 0.010810 -0.007190 0.014379 0.009925
# 4 -0.006906 0.020412 -0.007190 0.026844 -0.026318 -0.019150
# 5 0.025871 -0.055923 0.014379 -0.026318 0.082262 0.044069
# 6 0.014542 -0.042998 0.009925 -0.019150 0.044069 0.051428
#
#
# Mechanical properties :
#
#
# Convention : Reuss Voigt Hill
#
# Bulk Modulus (GPa) = 51.95519 88.41764 70.18642
# Shear Modulus (GPa) = 15.30551 47.83570 31.57060
#
# Velocity S-wave (km/s) = 2.46980 4.36630 3.54714
# Velocity P-wave (km/s) = 5.37025 7.78830 6.68944
#
# Compressibility (1/GPa) = 0.01924735
#
# Stress axis : x y z
#
# Youngs Moduli (GPa) = 47.38091 17.36905 92.50980
#
# Poissons Ratio (x) = 0.39873 -0.35871
# Poissons Ratio (y) = 1.08769 1.48405
# Poissons Ratio (z) = -0.18372 0.27864
#
# Static dielectric constant tensor:
#      x y z
#    x 2.052660 0.001700 0.045170 
#    y 0.001700 2.000550 0.028380 
#    z 0.045170 0.028380 1.993190 
# 
# From -- ./inp_files/20001.got.cif
#   From: 2010.05.17/outbox.cif.g08.bks.cpg/sg2_11_cif.got.tgz:20001.got - 2010.06.03 11:33:40.
