data_PCOD9024591
_publ_section_title
;
Structure prediction by ZEFSAII (Michael W. Deem and Ramdas Pophale) SiO2 
 PCOD9024591
Probable space group: P -1
;
_chemical_formula_sum "Si O2"
_cell_formula_units_Z 14
_cell_length_a 9.128812
_cell_length_b 17.009454
_cell_length_c 22.834683
_cell_angle_alpha 157.882538
_cell_angle_beta 150.719151
_cell_angle_gamma 33.746352
_cell_volume 647.604185
_symmetry_space_group_name_H-M "P -1"
_symmetry_group_IT_number 2
_symmetry_cell_setting 'triclinic'
loop_
_space_group_symop_operation_xyz
x,y,z
-x,-y,-z
loop_
_atom_site_type_symbol
_atom_site_label
_atom_site_fract_x
_atom_site_fract_y
_atom_site_fract_z
Si Si1 0.786533 0.713170 0.056192
Si Si2 0.911021 0.247211 0.146160
Si Si3 0.696766 0.614250 0.522059
Si Si4 0.893530 0.472276 0.693982
Si Si5 0.779712 0.822572 0.993848
Si Si6 0.911956 0.797203 0.619809
Si Si7 0.163379 0.099356 0.465978
O O1 0.448229 0.704859 0.955827
O O2 0.741143 0.742883 0.991068
O O3 0.948046 0.916287 0.272536
O O4 0.000000 0.500000 0.000000
O O5 0.028718 0.305510 0.291262
O O6 0.083031 0.371663 0.244260
O O7 0.000000 0.000000 0.000000
O O8 0.414224 0.631420 0.478128
O O9 0.649099 0.728596 0.521784
O O10 0.802245 0.369507 0.377150
O O11 0.877219 0.624851 0.849575
O O12 0.138868 0.270466 0.627322
O O13 0.500000 0.000000 0.000000
O O14 0.051769 0.965200 0.189248
O O15 0.918798 0.777678 0.538835
O O16 0.500000 0.000000 0.500000
#
# Coordination Sequence:
#
# PCOD9024591 Si02
#       7
#     2   2   2   2   2   2   2
#     4  11  26  46  70  97 140 185 224 280 353 411
#     4  12  24  39  64 101 140 178 228 283 340 408
#     4  11  22  37  66 100 131 170 223 278 337 392
#     4  12  24  39  69 101 134 174 231 284 334 397
#     4  11  22  43  68 101 136 176 224 283 342 406
#     4  10  22  40  65  93 135 172 215 275 342 396
#     4  11  25  47  68  94 134 182 227 277 336 412
#
# _framework density 21.618144999999998
#
# number of rings (size 3 to 8) (size 9 to 14) (size 15 to 20)
#    0.000    0.857    2.857    4.714    4.000    0.000 
#    0.000   10.714    0.000    0.000    0.000    0.000 
#    0.000    0.000    0.000    0.000    0.000    0.000 
#
# Total GULP energy -78132.382592 kJ/mol
# GULP energy per Si atom -5580.884471 kJ/mol
# Density = 2.156894 g / cm^3
# Si number density = 21.618145 Si / 1000 Ang^3
#
#
#
# Elastic Constant Matrix: (Units=GPa)
#
#
# Indices 1 2 3 4 5 6 
#
# 1 91.5357 29.3590 26.4186 11.9738 20.3050 -7.3035
# 2 29.3590 84.4805 23.4304 20.7020 1.7917 -13.6362
# 3 26.4186 23.4304 103.8971 20.7636 -16.4183 -15.1935
# 4 11.9738 20.7020 20.7636 27.1389 -7.2993 3.2299
# 5 20.3050 1.7917 -16.4183 -7.2993 45.5138 7.4673
# 6 -7.3035 -13.6362 -15.1935 3.2299 7.4673 39.7813
#
#
#
# Elastic Compliance Matrix: (Units=1/GPa)
#
#
# Indices 1 2 3 4 5 6 
#
# 1 0.015773 -0.002562 -0.003458 -0.005261 -0.009504 0.002908
# 2 -0.002562 0.017287 0.000091 -0.013752 -0.002883 0.007148
# 3 -0.003458 0.000091 0.013448 -0.008181 0.004360 0.004378
# 4 -0.005261 -0.013752 -0.008181 0.061165 0.012388 -0.016096
# 5 -0.009504 -0.002883 0.004360 0.012388 0.031185 -0.007927
# 6 0.002908 0.007148 0.004378 -0.016096 -0.007927 0.032588
#
#
# Mechanical properties :
#
#
# Convention : Reuss Voigt Hill
#
# Bulk Modulus (GPa) = 28.86052 48.70326 38.78189
# Shear Modulus (GPa) = 25.66004 35.86715 30.76360
#
# Velocity S-wave (km/s) = 3.44898 4.07765 3.77642
# Velocity P-wave (km/s) = 5.40738 6.68935 6.08223
#
# Compressibility (1/GPa) = 0.03464941
#
# Stress axis : x y z
#
# Youngs Moduli (GPa) = 63.39891 57.84668 74.36132
#
# Poissons Ratio (x) = 0.14821 0.25715
# Poissons Ratio (y) = 0.16244 -0.00677
# Poissons Ratio (z) = 0.21924 -0.00527
#
# Static dielectric constant tensor:
#      x y z
#    x 1.858920 0.046280 -0.009990 
#    y 0.046280 1.902970 -0.065950 
#    z -0.009990 -0.065950 1.883050 
# 
# From -- ./inp_files/159125.got.cif
#   From: 2010.05.17/outbox.cif.g08.bks.cpg/sg2_80_cif.got.tgz:159125.got - 2010.06.03 11:33:40.
