data_PCOD9024525
_publ_section_title
;
Structure prediction by ZEFSAII (Michael W. Deem and Ramdas Pophale) SiO2 
 PCOD9024525
Probable space group: P -1
;
_chemical_formula_sum "Si O2"
_cell_formula_units_Z 15
_cell_length_a 7.092488
_cell_length_b 13.031418
_cell_length_c 11.920630
_cell_angle_alpha 38.310264
_cell_angle_beta 76.839982
_cell_angle_gamma 66.478816
_cell_volume 619.135439
_symmetry_space_group_name_H-M "P -1"
_symmetry_group_IT_number 2
_symmetry_cell_setting 'triclinic'
loop_
_space_group_symop_operation_xyz
x,y,z
-x,-y,-z
loop_
_atom_site_type_symbol
_atom_site_label
_atom_site_fract_x
_atom_site_fract_y
_atom_site_fract_z
Si Si1 0.622660 0.448038 0.360878
Si Si2 0.820512 0.928004 0.551703
Si Si3 0.461421 0.899684 0.761775
Si Si4 0.582366 0.458875 0.899785
Si Si5 0.500000 0.000000 0.000000
Si Si6 0.056498 0.434294 0.302325
Si Si7 0.743582 0.238891 0.741131
Si Si8 0.800015 0.782210 0.312772
O O1 0.557080 0.396641 0.293753
O O2 0.713918 0.284680 0.573353
O O3 0.416271 0.591514 0.318228
O O4 0.808876 0.521046 0.258601
O O5 0.687426 0.899873 0.698921
O O6 0.894674 0.743179 0.629250
O O7 0.663120 0.066924 0.367479
O O8 0.000000 0.000000 0.500000
O O9 0.339642 0.054385 0.730287
O O10 0.453069 0.721506 0.969294
O O11 0.815059 0.453238 0.861274
O O12 0.500000 0.500000 0.000000
O O13 0.307631 0.932651 0.076577
O O14 0.643866 0.806693 0.209937
O O15 0.134037 0.379674 0.466642
O O16 0.978952 0.214275 0.756376
#
# Coordination Sequence:
#
# PCOD9024525 Si02
#       8
#     2   2   2   2   1   2   2   2
#     4  10  24  43  66  91 137 177 220 266 338 392
#     4  10  22  40  65  88 126 169 219 263 324 386
#     4  10  23  41  60  96 128 168 214 272 323 386
#     4  12  24  40  65  96 139 174 221 278 330 392
#     4  12  22  38  70  94 126 168 218 270 334 382
#     4  10  23  42  65  98 130 179 218 271 327 396
#     4  10  23  44  65  98 128 173 222 276 323 396
#     4  10  23  42  67  95 135 166 221 272 331 395
#
# _framework density 24.227333000000002
#
# number of rings (size 3 to 8) (size 9 to 14) (size 15 to 20)
#    0.000    1.600    1.333    2.000    1.867    6.933 
#    0.000    4.000    0.000    0.000    0.000    0.000 
#    0.000    0.000    0.000    0.000    0.000    0.000 
#
# Total GULP energy -83708.852647 kJ/mol
# GULP energy per Si atom -5580.590176 kJ/mol
# Density = 2.417219 g / cm^3
# Si number density = 24.227333 Si / 1000 Ang^3
#
#
#
# Elastic Constant Matrix: (Units=GPa)
#
#
# Indices 1 2 3 4 5 6 
#
# 1 196.9733 50.0068 59.5489 8.6784 -27.7122 -28.0888
# 2 50.0068 85.6429 22.7197 8.5810 1.7170 -11.8568
# 3 59.5489 22.7197 57.5854 14.4539 -7.9404 -2.0016
# 4 8.6784 8.5810 14.4539 25.7254 4.6383 -4.0345
# 5 -27.7122 1.7170 -7.9404 4.6383 51.8926 2.7150
# 6 -28.0888 -11.8568 -2.0016 -4.0345 2.7150 35.3643
#
#
#
# Elastic Compliance Matrix: (Units=1/GPa)
#
#
# Indices 1 2 3 4 5 6 
#
# 1 0.009790 -0.002784 -0.009144 0.003178 0.003300 0.006434
# 2 -0.002784 0.014578 -0.002718 -0.001572 -0.002377 0.002525
# 3 -0.009144 -0.002718 0.031753 -0.015489 0.001883 -0.008288
# 4 0.003178 -0.001572 -0.015489 0.049117 -0.005385 0.007137
# 5 0.003300 -0.002377 0.001883 -0.005385 0.021900 -0.000364
# 6 0.006434 0.002525 -0.008288 0.007137 -0.000364 0.034607
#
#
# Mechanical properties :
#
#
# Convention : Reuss Voigt Hill
#
# Bulk Modulus (GPa) = 37.27387 67.19472 52.23430
# Shear Modulus (GPa) = 25.00243 36.45819 30.73031
#
# Velocity S-wave (km/s) = 3.21595 3.88343 3.56535
# Velocity P-wave (km/s) = 5.40446 6.92122 6.20933
#
# Compressibility (1/GPa) = 0.02682844
#
# Stress axis : x y z
#
# Youngs Moduli (GPa) = 102.14507 68.59691 31.49319
#
# Poissons Ratio (x) = 0.19100 0.28798
# Poissons Ratio (y) = 0.28441 0.08559
# Poissons Ratio (z) = 0.93403 0.18642
#
# Static dielectric constant tensor:
#      x y z
#    x 1.916180 0.051100 0.024620 
#    y 0.051100 1.995080 0.059840 
#    z 0.024620 0.059840 2.007500 
# 
# From -- ./inp_files/367393.got.cif
#   From: 2010.05.17/outbox.cif.g08.bks.cpg/sg2_184_cif.got.tgz:367393.got - 2010.06.03 11:33:40.
