data_PCOD9024063
_publ_section_title
;
Structure prediction by ZEFSAII (Michael W. Deem and Ramdas Pophale) SiO2 
 PCOD9024063
Probable space group: P -1
;
_chemical_formula_sum "Si O2"
_cell_formula_units_Z 15
_cell_length_a 8.215692
_cell_length_b 29.351282
_cell_length_c 11.397870
_cell_angle_alpha 26.117442
_cell_angle_beta 130.174045
_cell_angle_gamma 145.182842
_cell_volume 642.832242
_symmetry_space_group_name_H-M "P -1"
_symmetry_group_IT_number 2
_symmetry_cell_setting 'triclinic'
loop_
_space_group_symop_operation_xyz
x,y,z
-x,-y,-z
loop_
_atom_site_type_symbol
_atom_site_label
_atom_site_fract_x
_atom_site_fract_y
_atom_site_fract_z
Si Si1 0.141438 0.402233 0.186149
Si Si2 0.682189 0.958745 0.207051
Si Si3 0.773371 0.909042 0.994064
Si Si4 0.738159 0.433362 0.705441
Si Si5 0.644230 0.427668 0.419889
Si Si6 0.851128 0.352061 0.415293
Si Si7 0.506880 0.156543 0.354200
Si Si8 0.500000 0.000000 0.500000
O O1 0.446341 0.443413 0.226294
O O2 0.019797 0.368112 0.341604
O O3 0.862357 0.255898 0.322508
O O4 0.179705 0.534740 0.863498
O O5 0.487442 0.809633 0.383329
O O6 0.668550 0.924278 0.418029
O O7 0.021049 0.077335 0.039913
O O8 0.500000 0.000000 0.000000
O O9 0.640913 0.967990 0.741147
O O10 0.495757 0.733903 0.297928
O O11 0.000000 0.000000 0.000000
O O12 0.602235 0.433566 0.524840
O O13 0.000592 0.448651 0.736069
O O14 0.918864 0.581579 0.522700
O O15 0.523819 0.283947 0.028976
O O16 0.412533 0.053639 0.439410
#
# Coordination Sequence:
#
# PCOD9024063 Si02
#       8
#     2   2   2   2   2   2   2   1
#     4   9  19  37  65  89 124 162 217 276 323 393
#     4  11  23  43  70 100 136 178 223 278 340 413
#     4  12  25  43  70 101 138 184 231 277 342 418
#     4  10  22  40  63  89 136 163 217 282 322 394
#     4  11  22  40  61  94 128 174 219 272 336 386
#     4   9  19  38  62  93 120 164 214 267 333 392
#     4  10  22  43  64  95 134 170 222 280 333 396
#     4  12  24  42  66 100 140 184 226 278 340 410
#
# _framework density 23.334237000000002
#
# number of rings (size 3 to 8) (size 9 to 14) (size 15 to 20)
#    0.000    1.600    1.333    4.800    0.000    4.267 
#    0.000    0.000    0.000    0.000    0.000    0.000 
#    0.000    0.000    0.000    0.000    0.000    0.000 
#
# Total GULP energy -83576.365098 kJ/mol
# GULP energy per Si atom -5571.757673 kJ/mol
# Density = 2.328113 g / cm^3
# Si number density = 23.334237 Si / 1000 Ang^3
#
#
#
# Elastic Constant Matrix: (Units=GPa)
#
#
# Indices 1 2 3 4 5 6 
#
# 1 57.1717 15.1265 31.8186 7.1457 -7.9147 -8.1031
# 2 15.1265 105.5257 22.7667 26.7030 1.1818 -34.1374
# 3 31.8186 22.7667 67.2239 13.4418 -17.5858 -6.7283
# 4 7.1457 26.7030 13.4418 36.1498 -3.8781 6.0819
# 5 -7.9147 1.1818 -17.5858 -3.8781 27.4164 6.2729
# 6 -8.1031 -34.1374 -6.7283 6.0819 6.2729 63.8955
#
#
#
# Elastic Compliance Matrix: (Units=1/GPa)
#
#
# Indices 1 2 3 4 5 6 
#
# 1 0.024015 -0.000183 -0.011137 -0.000879 -0.000770 0.001934
# 2 -0.000183 0.017660 -0.004012 -0.014241 -0.007948 0.011125
# 3 -0.011137 -0.004012 0.025277 -0.002480 0.013269 -0.001961
# 4 -0.000879 -0.014241 -0.002480 0.042246 0.007664 -0.012755
# 5 -0.000770 -0.007948 0.013269 0.007664 0.048112 -0.008399
# 6 0.001934 0.011125 -0.001961 -0.012755 -0.008399 0.023672
#
#
# Mechanical properties :
#
#
# Convention : Reuss Voigt Hill
#
# Bulk Modulus (GPa) = 27.55774 41.03832 34.29803
# Shear Modulus (GPa) = 22.34710 36.17296 29.26003
#
# Velocity S-wave (km/s) = 3.09802 3.94154 3.54496
# Velocity P-wave (km/s) = 4.96313 6.19190 5.61125
#
# Compressibility (1/GPa) = 0.03628744
#
# Stress axis : x y z
#
# Youngs Moduli (GPa) = 41.64022 56.62527 39.56204
#
# Poissons Ratio (x) = 0.01036 0.44060
# Poissons Ratio (y) = 0.00762 0.15873
# Poissons Ratio (z) = 0.46375 0.22719
#
# Static dielectric constant tensor:
#      x y z
#    x 1.877880 -0.056580 -0.011630 
#    y -0.056580 1.959780 -0.024230 
#    z -0.011630 -0.024230 1.936930 
# 
# From -- ./inp_files/407519.got.cif
#   From: 2010.05.17/outbox.cif.g08.bks.cpg/sg2_204_cif.got.tgz:407519.got - 2010.06.03 11:33:40.
