data_PCOD9024036
_publ_section_title
;
Structure prediction by ZEFSAII (Michael W. Deem and Ramdas Pophale) SiO2 
 PCOD9024036
Probable space group: P -1
;
_chemical_formula_sum "Si O2"
_cell_formula_units_Z 16
_cell_length_a 5.522460
_cell_length_b 21.143333
_cell_length_c 16.318452
_cell_angle_alpha 24.972432
_cell_angle_beta 119.604958
_cell_angle_gamma 111.454037
_cell_volume 681.699168
_symmetry_space_group_name_H-M "P -1"
_symmetry_group_IT_number 2
_symmetry_cell_setting 'triclinic'
loop_
_space_group_symop_operation_xyz
x,y,z
-x,-y,-z
loop_
_atom_site_type_symbol
_atom_site_label
_atom_site_fract_x
_atom_site_fract_y
_atom_site_fract_z
Si Si1 0.423925 0.528211 0.548675
Si Si2 0.876462 0.734989 0.150879
Si Si3 0.780113 0.734331 0.957732
Si Si4 0.540272 0.068712 0.677004
Si Si5 0.264786 0.362819 0.380451
Si Si6 0.281806 0.736119 0.650517
Si Si7 0.394965 0.553316 0.036390
Si Si8 0.152314 0.914180 0.704588
O O1 0.500000 0.500000 0.500000
O O2 0.647170 0.628933 0.246013
O O3 0.868880 0.339003 0.659018
O O4 0.642487 0.586056 0.576532
O O5 0.966920 0.711476 0.098207
O O6 0.743086 0.915424 0.927367
O O7 0.695711 0.586648 0.077310
O O8 0.463746 0.820936 0.835289
O O9 0.939664 0.819390 0.820016
O O10 0.501648 0.219043 0.550677
O O11 0.649767 0.111963 0.555109
O O12 0.238133 0.025185 0.658008
O O13 0.984300 0.297160 0.404178
O O14 0.241467 0.505946 0.145927
O O15 0.250967 0.697949 0.785914
O O16 0.553781 0.599660 0.830765
O O17 0.000000 0.000000 0.500000
#
# Coordination Sequence:
#
# PCOD9024036 Si02
#       8
#     2   2   2   2   2   2   2   2
#     4  11  26  45  74 100 126 182 241 304 370 426
#     4  10  25  46  69  98 137 175 238 301 360 427
#     4  11  24  40  74  97 143 189 237 296 353 418
#     4  10  25  43  66 100 143 184 229 288 361 424
#     4  11  24  42  69 100 137 184 237 296 354 426
#     4  10  23  39  65  98 145 186 227 283 348 434
#     4  10  22  40  63 101 140 188 235 279 352 423
#     4  11  25  41  68 106 146 192 238 286 354 431
#
# _framework density 23.470762000000001
#
# number of rings (size 3 to 8) (size 9 to 14) (size 15 to 20)
#    0.000    1.500    1.250    1.500   12.250    1.500 
#    0.000    1.250    0.000    0.000    0.000    0.000 
#    0.000    0.000    0.000    0.000    0.000    0.000 
#
# Total GULP energy -89447.935999 kJ/mol
# GULP energy per Si atom -5590.496000 kJ/mol
# Density = 2.341734 g / cm^3
# Si number density = 23.470762 Si / 1000 Ang^3
#
#
#
# Elastic Constant Matrix: (Units=GPa)
#
#
# Indices 1 2 3 4 5 6 
#
# 1 75.4523 9.5634 41.3394 -6.7111 -5.5204 -2.5845
# 2 9.5634 92.1347 12.4792 -0.2116 12.7786 -10.4743
# 3 41.3394 12.4792 136.8993 1.6848 -6.9516 -10.9216
# 4 -6.7111 -0.2116 1.6848 34.9793 5.5159 2.4297
# 5 -5.5204 12.7786 -6.9516 5.5159 40.3408 -3.1400
# 6 -2.5845 -10.4743 -10.9216 2.4297 -3.1400 39.3816
#
#
#
# Elastic Compliance Matrix: (Units=1/GPa)
#
#
# Indices 1 2 3 4 5 6 
#
# 1 0.016451 -0.001305 -0.004878 0.003223 0.001328 -0.000713
# 2 -0.001305 0.011917 -0.000690 0.000294 -0.003913 0.002562
# 3 -0.004878 -0.000690 0.009121 -0.001779 0.001542 0.002259
# 4 0.003223 0.000294 -0.001779 0.030134 -0.004266 -0.002403
# 5 0.001328 -0.003913 0.001542 -0.004266 0.027207 0.001906
# 6 -0.000713 0.002562 0.002259 -0.002403 0.001906 0.026954
#
#
# Mechanical properties :
#
#
# Convention : Reuss Voigt Hill
#
# Bulk Modulus (GPa) = 42.11701 47.91667 45.01684
# Shear Modulus (GPa) = 34.85678 39.01397 36.93537
#
# Velocity S-wave (km/s) = 3.85790 4.08148 3.97126
# Velocity P-wave (km/s) = 6.15044 6.53231 6.34425
#
# Compressibility (1/GPa) = 0.02374338
#
# Stress axis : x y z
#
# Youngs Moduli (GPa) = 60.78775 83.91144 109.63842
#
# Poissons Ratio (x) = 0.10948 0.53480
# Poissons Ratio (y) = 0.07931 0.07568
# Poissons Ratio (z) = 0.29651 0.05792
#
# Static dielectric constant tensor:
#      x y z
#    x 1.987520 -0.070570 0.080700 
#    y -0.070570 1.909440 -0.015550 
#    z 0.080700 -0.015550 1.914540 
# 
# From -- ./inp_files/551240.got.cif
#   From: 2010.05.17/outbox.cif.g08.bks.cpg/sg2_276_cif.got.tgz:551240.got - 2010.06.03 11:33:40.
