data_PCOD9024997
_publ_section_title
;
Structure prediction by ZEFSAII (Michael W. Deem and Ramdas Pophale) SiO2 
 PCOD9024997
Probable space group: P -1
;
_chemical_formula_sum "Si O2"
_cell_formula_units_Z 16
_cell_length_a 8.269106
_cell_length_b 11.123013
_cell_length_c 9.641788
_cell_angle_alpha 105.441250
_cell_angle_beta 64.757657
_cell_angle_gamma 109.171655
_cell_volume 749.345180
_symmetry_space_group_name_H-M "P -1"
_symmetry_group_IT_number 2
_symmetry_cell_setting 'triclinic'
loop_
_space_group_symop_operation_xyz
x,y,z
-x,-y,-z
loop_
_atom_site_type_symbol
_atom_site_label
_atom_site_fract_x
_atom_site_fract_y
_atom_site_fract_z
Si Si1 0.762415 0.827675 0.988338
Si Si2 0.860439 0.066470 0.213852
Si Si3 0.252647 0.324320 0.630934
Si Si4 0.418117 0.082785 0.160998
Si Si5 0.537978 0.582770 0.153927
Si Si6 0.952760 0.075150 0.671768
Si Si7 0.788569 0.482304 0.529961
Si Si8 0.595076 0.219500 0.400001
O O1 0.676443 0.825226 0.866982
O O2 0.976180 0.824704 0.885022
O O3 0.634552 0.723013 0.100216
O O4 0.770154 0.965326 0.098189
O O5 0.713603 0.119632 0.373149
O O6 0.967021 0.986273 0.245792
O O7 0.320242 0.418280 0.767282
O O8 0.253542 0.402407 0.511579
O O9 0.401401 0.235046 0.539163
O O10 0.052898 0.225375 0.684208
O O11 0.552605 0.172925 0.244935
O O12 0.266298 0.972148 0.259185
O O13 0.500000 0.000000 0.000000
O O14 0.343562 0.551270 0.297372
O O15 0.500000 0.500000 0.000000
O O16 0.000000 0.000000 0.500000
O O17 0.727810 0.358423 0.415721
O O18 0.000000 0.500000 0.500000
#
# Coordination Sequence:
#
# PCOD9024997 Si02
#       8
#     2   2   2   2   2   2   2   2
#     4  10  22  40  66  99 141 171 221 281 343 401
#     4  10  22  41  66 102 137 176 217 282 344 405
#     4  11  25  49  69  98 140 183 233 282 344 415
#     4  11  23  39  63 103 136 171 214 278 346 404
#     4  11  25  44  74  98 134 185 234 284 339 403
#     4  11  23  41  68  96 134 179 216 274 341 415
#     4  11  29  50  69  97 136 189 238 285 341 406
#     4  11  23  42  71  94 138 179 227 274 347 409
#
# _framework density 21.351973999999998
#
# number of rings (size 3 to 8) (size 9 to 14) (size 15 to 20)
#    0.000    1.250    3.750    1.500    7.000    1.500 
#    2.250    0.625    0.000    0.000    0.000    0.000 
#    0.000    0.000    0.000    0.000    0.000    0.000 
#
# Total GULP energy -89163.782600 kJ/mol
# GULP energy per Si atom -5572.736412 kJ/mol
# Density = 2.130338 g / cm^3
# Si number density = 21.351974 Si / 1000 Ang^3
#
#
#
# Elastic Constant Matrix: (Units=GPa)
#
#
# Indices 1 2 3 4 5 6 
#
# 1 74.3712 48.7425 42.5504 3.6421 4.1410 32.7787
# 2 48.7425 83.9630 54.2018 -10.4070 -3.9328 24.5937
# 3 42.5504 54.2018 123.4266 10.1204 0.2506 29.1361
# 4 3.6421 -10.4070 10.1204 39.1189 7.8069 -5.1596
# 5 4.1410 -3.9328 0.2506 7.8069 37.0646 3.8428
# 6 32.7787 24.5937 29.1361 -5.1596 3.8428 30.9922
#
#
#
# Elastic Compliance Matrix: (Units=1/GPa)
#
#
# Indices 1 2 3 4 5 6 
#
# 1 0.035741 -0.014871 0.002296 -0.011860 0.000036 -0.030137
# 2 -0.014871 0.025935 -0.008170 0.010620 0.001778 0.004376
# 3 0.002296 -0.008170 0.014032 -0.007717 0.001507 -0.010609
# 4 -0.011860 0.010620 -0.007717 0.035229 -0.006790 0.018078
# 5 0.000036 0.001778 0.001507 -0.006790 0.029377 -0.007639
# 6 -0.030137 0.004376 -0.010609 0.018078 -0.007639 0.074598
#
#
# Mechanical properties :
#
#
# Convention : Reuss Voigt Hill
#
# Bulk Modulus (GPa) = 29.22482 63.63893 46.43188
# Shear Modulus (GPa) = 18.67014 30.51955 24.59485
#
# Velocity S-wave (km/s) = 2.96023 3.78478 3.39761
# Velocity P-wave (km/s) = 5.03993 6.99777 6.09794
#
# Compressibility (1/GPa) = 0.03421749
#
# Stress axis : x y z
#
# Youngs Moduli (GPa) = 27.97939 38.55816 71.26459
#
# Poissons Ratio (x) = 0.57340 -0.16361
# Poissons Ratio (y) = 0.41608 0.58222
# Poissons Ratio (z) = -0.06424 0.31501
#
# Static dielectric constant tensor:
#      x y z
#    x 2.391580 -0.141590 0.644760 
#    y -0.141590 1.814790 -0.180740 
#    z 0.644760 -0.180740 2.643780 
# 
# From -- ./inp_files/180099.got.cif
#   From: 2010.05.17/outbox.cif.g08.bks.cpg/sg2_91_cif.got.tgz:180099.got - 2010.06.03 11:33:40.
