data_PCOD9024331
_publ_section_title
;
Structure prediction by ZEFSAII (Michael W. Deem and Ramdas Pophale) SiO2 
 PCOD9024331
Probable space group: P -1
;
_chemical_formula_sum "Si O2"
_cell_formula_units_Z 15
_cell_length_a 9.798282
_cell_length_b 14.401579
_cell_length_c 11.143779
_cell_angle_alpha 29.066247
_cell_angle_beta 85.529954
_cell_angle_gamma 98.263839
_cell_volume 684.909037
_symmetry_space_group_name_H-M "P -1"
_symmetry_group_IT_number 2
_symmetry_cell_setting 'triclinic'
loop_
_space_group_symop_operation_xyz
x,y,z
-x,-y,-z
loop_
_atom_site_type_symbol
_atom_site_label
_atom_site_fract_x
_atom_site_fract_y
_atom_site_fract_z
Si Si1 0.756041 0.084458 0.157521
Si Si2 0.774652 0.874700 0.883353
Si Si3 0.862527 0.062788 0.913658
Si Si4 0.115767 0.198315 0.428786
Si Si5 0.500000 0.500000 0.000000
Si Si6 0.990741 0.538803 0.707383
Si Si7 0.492426 0.142168 0.230844
Si Si8 0.761975 0.534619 0.106535
O O1 0.617256 0.138151 0.135053
O O2 0.756470 0.882916 0.458411
O O3 0.773663 0.043071 0.064402
O O4 0.904544 0.294663 0.951538
O O5 0.667532 0.939350 0.735073
O O6 0.736972 0.635419 0.117562
O O7 0.762636 0.917388 0.975825
O O8 0.951421 0.018181 0.677723
O O9 0.940565 0.303761 0.586763
O O10 0.000000 0.000000 0.000000
O O11 0.124283 0.392089 0.291603
O O12 0.136270 0.269630 0.210171
O O13 0.483757 0.636776 0.960671
O O14 0.611323 0.425380 0.161509
O O15 0.131805 0.577912 0.741258
O O16 0.500000 0.000000 0.500000
#
# Coordination Sequence:
#
# PCOD9024331 Si02
#       8
#     2   2   2   2   1   2   2   2
#     4  12  23  42  69  99 130 179 224 266 332 393
#     4  10  22  40  64  92 132 177 212 271 326 381
#     4  11  22  44  67  96 134 173 228 279 319 384
#     4  11  22  39  64 100 132 169 219 279 326 398
#     4  10  24  42  60  92 142 166 206 272 330 400
#     4  11  23  37  68  99 128 174 222 274 328 390
#     4  11  26  42  68  95 137 175 212 274 338 396
#     4  11  21  39  65  97 131 172 222 271 340 394
#
# _framework density 21.900718000000001
#
# number of rings (size 3 to 8) (size 9 to 14) (size 15 to 20)
#    0.000    1.067    4.000    3.600    5.600    0.533 
#    0.000    0.000    0.000    2.400    0.000    0.000 
#    0.000    0.000    0.000    0.000    0.000    0.000 
#
# Total GULP energy -83607.506725 kJ/mol
# GULP energy per Si atom -5573.833782 kJ/mol
# Density = 2.185087 g / cm^3
# Si number density = 21.900718 Si / 1000 Ang^3
#
#
#
# Elastic Constant Matrix: (Units=GPa)
#
#
# Indices 1 2 3 4 5 6 
#
# 1 120.0335 30.1109 6.2588 -6.2308 10.3789 -1.8007
# 2 30.1109 154.8535 8.0920 -7.3546 -0.7816 -15.9207
# 3 6.2588 8.0920 37.8767 1.1301 23.5347 -5.9058
# 4 -6.2308 -7.3546 1.1301 29.4532 -2.7621 -1.9623
# 5 10.3789 -0.7816 23.5347 -2.7621 28.2876 0.7845
# 6 -1.8007 -15.9207 -5.9058 -1.9623 0.7845 46.1672
#
#
#
# Elastic Compliance Matrix: (Units=1/GPa)
#
#
# Indices 1 2 3 4 5 6 
#
# 1 0.009173 -0.001855 0.001933 0.000946 -0.004935 0.000089
# 2 -0.001855 0.007323 -0.003395 0.002064 0.003853 0.002041
# 3 0.001933 -0.003395 0.060457 -0.007154 -0.052000 0.007218
# 4 0.000946 0.002064 -0.007154 0.035879 0.009132 0.001203
# 5 -0.004935 0.003853 -0.052000 0.009132 0.081604 -0.006514
# 6 0.000089 0.002041 0.007218 0.001203 -0.006514 0.023453
#
#
# Mechanical properties :
#
#
# Convention : Reuss Voigt Hill
#
# Bulk Modulus (GPa) = 14.22134 44.63189 29.42661
# Shear Modulus (GPa) = 20.16427 38.66840 29.41634
#
# Velocity S-wave (km/s) = 3.03762 4.20649 3.66890
# Velocity P-wave (km/s) = 4.33710 6.63447 5.60476
#
# Compressibility (1/GPa) = 0.07031686
#
# Stress axis : x y z
#
# Youngs Moduli (GPa) = 109.01762 136.55226 16.54071
#
# Poissons Ratio (x) = 0.25336 -0.03197
# Poissons Ratio (y) = 0.20227 0.05616
# Poissons Ratio (z) = -0.21068 0.46362
#
# Static dielectric constant tensor:
#      x y z
#    x 2.021880 -0.131650 -0.349640 
#    y -0.131650 1.870540 0.154690 
#    z -0.349640 0.154690 2.348800 
# 
# From -- ./inp_files/398182.got.cif
#   From: 2010.05.17/outbox.cif.g08.bks.cpg/sg2_200_cif.got.tgz:398182.got - 2010.06.03 11:33:40.
