data_PCOD9024677
_publ_section_title
;
Structure prediction by ZEFSAII (Michael W. Deem and Ramdas Pophale) SiO2 
 PCOD9024677
Probable space group: P -1
;
_chemical_formula_sum "Si O2"
_cell_formula_units_Z 16
_cell_length_a 5.520290
_cell_length_b 25.855368
_cell_length_c 12.625855
_cell_angle_alpha 33.031183
_cell_angle_beta 130.459080
_cell_angle_gamma 119.112149
_cell_volume 740.186504
_symmetry_space_group_name_H-M "P -1"
_symmetry_group_IT_number 2
_symmetry_cell_setting 'triclinic'
loop_
_space_group_symop_operation_xyz
x,y,z
-x,-y,-z
loop_
_atom_site_type_symbol
_atom_site_label
_atom_site_fract_x
_atom_site_fract_y
_atom_site_fract_z
Si Si1 0.126079 0.895212 0.755142
Si Si2 0.461402 0.284144 0.586978
Si Si3 0.901949 0.751643 0.075617
Si Si4 0.620353 0.515776 0.888112
Si Si5 0.491195 0.674294 0.924951
Si Si6 0.575328 0.094515 0.799962
Si Si7 0.194040 0.170761 0.851275
Si Si8 0.093994 0.213964 0.309977
O O1 0.138295 0.827109 0.771594
O O2 0.450678 0.888481 0.928121
O O3 0.000000 0.000000 0.500000
O O4 0.870504 0.851929 0.831505
O O5 0.474172 0.375353 0.362727
O O6 0.531054 0.186722 0.707236
O O7 0.150336 0.259135 0.603855
O O8 0.720017 0.289261 0.745547
O O9 0.844806 0.776188 0.138487
O O10 0.698276 0.683402 0.073848
O O11 0.500000 0.500000 0.000000
O O12 0.497693 0.434559 0.920516
O O13 0.000000 0.500000 0.000000
O O14 0.668087 0.726948 0.791047
O O15 0.133018 0.725181 0.771019
O O16 0.323634 0.126803 0.580005
O O17 0.950188 0.097609 0.876197
O O18 0.500000 0.000000 0.000000
#
# Coordination Sequence:
#
# PCOD9024677 Si02
#       8
#     2   2   2   2   2   2   2   2
#     4  10  22  40  65  97 133 186 235 284 342 409
#     4  10  24  44  66  97 136 177 229 290 344 417
#     4   9  21  41  66  93 135 177 225 286 346 408
#     4  12  27  45  73 102 137 182 233 285 358 415
#     4  11  23  47  69 101 136 178 230 291 346 410
#     4  11  26  41  63  96 136 185 227 279 350 416
#     4  10  22  43  65  91 142 178 228 284 350 404
#     4  11  25  43  69 102 139 177 235 289 339 410
#
# _framework density 21.616174999999998
#
# number of rings (size 3 to 8) (size 9 to 14) (size 15 to 20)
#    0.000    1.500    1.250    2.250   12.250    3.500 
#    0.000    0.625    0.000    0.000    0.000    0.000 
#    0.000    0.000    0.000    0.000    0.000    0.000 
#
# Total GULP energy -89207.931773 kJ/mol
# GULP energy per Si atom -5575.495736 kJ/mol
# Density = 2.156698 g / cm^3
# Si number density = 21.616175 Si / 1000 Ang^3
#
#
#
# Elastic Constant Matrix: (Units=GPa)
#
#
# Indices 1 2 3 4 5 6 
#
# 1 105.2981 43.6657 42.8345 -12.3336 -20.8255 3.5017
# 2 43.6657 117.6849 58.0780 -17.3353 -11.2377 7.9063
# 3 42.8345 58.0780 132.2822 -20.5099 -30.2505 13.6696
# 4 -12.3336 -17.3353 -20.5099 42.0774 8.8979 2.6514
# 5 -20.8255 -11.2377 -30.2505 8.8979 35.1100 3.3229
# 6 3.5017 7.9063 13.6696 2.6514 3.3229 38.3661
#
#
#
# Elastic Compliance Matrix: (Units=1/GPa)
#
#
# Indices 1 2 3 4 5 6 
#
# 1 0.012526 -0.003428 -0.001225 0.000599 0.005172 -0.000490
# 2 -0.003428 0.012057 -0.004305 0.002417 -0.002440 -0.000593
# 3 -0.001225 -0.004305 0.012654 0.002499 0.008584 -0.004426
# 4 0.000599 0.002417 0.002499 0.027041 -0.003284 -0.003028
# 5 0.005172 -0.002440 0.008584 -0.003284 0.039586 -0.006229
# 6 -0.000490 -0.000593 -0.004426 -0.003028 -0.006229 0.028557
#
#
# Mechanical properties :
#
#
# Convention : Reuss Voigt Hill
#
# Bulk Modulus (GPa) = 51.75817 71.60238 61.68027
# Shear Modulus (GPa) = 31.89226 37.15649 34.52437
#
# Velocity S-wave (km/s) = 3.84525 4.15048 4.00078
# Velocity P-wave (km/s) = 6.61141 7.49433 7.06667
#
# Compressibility (1/GPa) = 0.01932062
#
# Stress axis : x y z
#
# Youngs Moduli (GPa) = 79.83375 82.94006 79.02516
#
# Poissons Ratio (x) = 0.28433 0.09678
# Poissons Ratio (y) = 0.27369 0.34023
# Poissons Ratio (z) = 0.09777 0.35709
#
# Static dielectric constant tensor:
#      x y z
#    x 2.035150 0.028810 0.011210 
#    y 0.028810 1.785140 0.008880 
#    z 0.011210 0.008880 1.808190 
# 
# From -- ./inp_files/371425.got.cif
#   From: 2010.05.17/outbox.cif.g08.bks.cpg/sg2_186_cif.got.tgz:371425.got - 2010.06.03 11:33:40.
