data_PCOD9024082
_publ_section_title
;
Structure prediction by ZEFSAII (Michael W. Deem and Ramdas Pophale) SiO2 
 PCOD9024082
Probable space group: P -1
;
_chemical_formula_sum "Si O2"
_cell_formula_units_Z 14
_cell_length_a 14.521476
_cell_length_b 9.903270
_cell_length_c 6.430638
_cell_angle_alpha 130.377726
_cell_angle_beta 110.407996
_cell_angle_gamma 82.726785
_cell_volume 653.860783
_symmetry_space_group_name_H-M "P -1"
_symmetry_group_IT_number 2
_symmetry_cell_setting 'triclinic'
loop_
_space_group_symop_operation_xyz
x,y,z
-x,-y,-z
loop_
_atom_site_type_symbol
_atom_site_label
_atom_site_fract_x
_atom_site_fract_y
_atom_site_fract_z
Si Si1 0.416033 0.470725 0.582613
Si Si2 0.526052 0.876924 0.588199
Si Si3 0.965735 0.689739 0.214794
Si Si4 0.215584 0.230419 0.098059
Si Si5 0.107271 0.078670 0.256422
Si Si6 0.362455 0.823066 0.771207
Si Si7 0.176555 0.882922 0.476663
O O1 0.500000 0.500000 0.500000
O O2 0.448129 0.325435 0.627335
O O3 0.312266 0.372856 0.314552
O O4 0.392914 0.671521 0.800875
O O5 0.436763 0.852564 0.661823
O O6 0.500000 0.000000 0.500000
O O7 0.617256 0.994616 0.898025
O O8 0.912477 0.754525 0.444026
O O9 0.067227 0.827726 0.426664
O O10 0.886320 0.703468 0.986341
O O11 0.000000 0.500000 0.000000
O O12 0.187790 0.148929 0.219505
O O13 0.224976 0.076534 0.785963
O O14 0.151699 0.918559 0.253930
O O15 0.000000 0.000000 0.000000
O O16 0.254750 0.767487 0.524104
#
# Coordination Sequence:
#
# PCOD9024082 Si02
#       7
#     2   2   2   2   2   2   2
#     4  10  22  42  66  93 132 170 218 271 327 390
#     4  10  22  41  64  91 124 168 216 273 328 385
#     4  11  23  39  63  94 132 170 214 269 332 394
#     4  11  21  41  64  91 131 171 214 271 326 388
#     4  11  21  40  64  94 129 173 220 266 325 395
#     4  10  22  40  63  91 126 169 216 268 327 390
#     4  11  21  38  65  91 129 175 214 262 334 398
#
# _framework density 21.411284999999999
#
# number of rings (size 3 to 8) (size 9 to 14) (size 15 to 20)
#    0.000    1.429    4.286    1.714    2.000    1.143 
#    0.000    7.143    0.000    0.000    0.000    0.000 
#    0.000    0.000    0.000    0.000    0.000    0.000 
#
# Total GULP energy -77936.863668 kJ/mol
# GULP energy per Si atom -5566.918833 kJ/mol
# Density = 2.136255 g / cm^3
# Si number density = 21.411285 Si / 1000 Ang^3
#
#
#
# Elastic Constant Matrix: (Units=GPa)
#
#
# Indices 1 2 3 4 5 6 
#
# 1 87.8261 26.4743 21.9568 -10.6780 32.6669 0.5834
# 2 26.4743 132.6356 22.5019 -12.4965 4.3578 -27.0516
# 3 21.9568 22.5019 48.2467 -3.3135 12.8857 3.0061
# 4 -10.6780 -12.4965 -3.3135 36.8653 -6.6184 8.0577
# 5 32.6669 4.3578 12.8857 -6.6184 36.7668 4.3402
# 6 0.5834 -27.0516 3.0061 8.0577 4.3402 41.8613
#
#
#
# Elastic Compliance Matrix: (Units=1/GPa)
#
#
# Indices 1 2 3 4 5 6 
#
# 1 0.018701 -0.002661 -0.003161 0.001687 -0.014825 -0.000541
# 2 -0.002661 0.010191 -0.004440 0.001260 0.002175 0.006474
# 3 -0.003161 -0.004440 0.025893 -0.000143 -0.005281 -0.004109
# 4 0.001687 0.001260 -0.000143 0.030016 0.004446 -0.005437
# 5 -0.014825 0.002175 -0.005281 0.004446 0.043158 -0.003339
# 6 -0.000541 0.006474 -0.004109 -0.005437 -0.003339 0.029767
#
#
# Mechanical properties :
#
#
# Convention : Reuss Voigt Hill
#
# Bulk Modulus (GPa) = 29.18658 45.61938 37.40298
# Shear Modulus (GPa) = 26.36150 36.28371 31.32260
#
# Velocity S-wave (km/s) = 3.51265 4.12103 3.82894
# Velocity P-wave (km/s) = 5.48749 6.63297 6.08724
#
# Compressibility (1/GPa) = 0.03426232
#
# Stress axis : x y z
#
# Youngs Moduli (GPa) = 53.47177 98.12166 38.62108
#
# Poissons Ratio (x) = 0.26109 0.12207
# Poissons Ratio (y) = 0.14228 0.17148
# Poissons Ratio (z) = 0.16901 0.43565
#
# Static dielectric constant tensor:
#      x y z
#    x 1.802560 -0.094870 -0.002330 
#    y -0.094870 1.871060 -0.008830 
#    z -0.002330 -0.008830 1.782240 
# 
# From -- ./inp_files/37087.got.cif
#   From: 2010.05.17/outbox.cif.g08.bks.cpg/sg2_19_cif.got.tgz:37087.got - 2010.06.03 11:33:40.
