data_PCOD9024574
_publ_section_title
;
Structure prediction by ZEFSAII (Michael W. Deem and Ramdas Pophale) SiO2 
 PCOD9024574
Probable space group: P -1
;
_chemical_formula_sum "Si O2"
_cell_formula_units_Z 14
_cell_length_a 6.868474
_cell_length_b 22.417181
_cell_length_c 5.153495
_cell_angle_alpha 85.578406
_cell_angle_beta 67.222367
_cell_angle_gamma 61.292782
_cell_volume 635.844855
_symmetry_space_group_name_H-M "P -1"
_symmetry_group_IT_number 2
_symmetry_cell_setting 'triclinic'
loop_
_space_group_symop_operation_xyz
x,y,z
-x,-y,-z
loop_
_atom_site_type_symbol
_atom_site_label
_atom_site_fract_x
_atom_site_fract_y
_atom_site_fract_z
Si Si1 0.225516 0.959680 0.203321
Si Si2 0.357821 0.618907 0.946080
Si Si3 0.265578 0.500023 0.507837
Si Si4 0.398341 0.693837 0.408232
Si Si5 0.767434 0.920612 0.054654
Si Si6 0.925095 0.597262 0.268520
Si Si7 0.929899 0.147806 0.604254
O O1 0.224690 0.888277 0.204434
O O2 0.203397 0.010844 0.961745
O O3 0.485198 0.943683 0.187387
O O4 0.000000 0.000000 0.500000
O O5 0.611217 0.549787 0.789647
O O6 0.324871 0.672555 0.721449
O O7 0.361016 0.651421 0.208914
O O8 0.146694 0.599800 0.020928
O O9 0.500000 0.500000 0.500000
O O10 0.163391 0.457646 0.730705
O O11 0.045462 0.571698 0.501623
O O12 0.682494 0.668261 0.319259
O O13 0.243996 0.773199 0.394155
O O14 0.906171 0.887001 0.724696
O O15 0.889671 0.868470 0.243255
#
# Coordination Sequence:
#
# PCOD9024574 Si02
#       7
#     2   2   2   2   2   2   2
#     4   9  21  40  66  98 127 161 210 262 315 369
#     4  11  24  43  62  90 127 163 210 263 313 375
#     4  10  22  41  67  98 124 157 210 266 322 379
#     4  11  26  42  61  91 127 169 216 255 303 381
#     4  10  22  40  65  93 127 164 206 264 317 364
#     4  10  22  40  66  91 124 164 202 258 320 366
#     4  11  23  41  62  91 128 169 212 255 310 374
#
# _framework density 22.017951
#
# number of rings (size 3 to 8) (size 9 to 14) (size 15 to 20)
#    0.000    1.714    0.000    3.429    0.000   16.571 
#    0.000    0.000    0.000    0.000    0.000    0.000 
#    0.000    0.000    0.000    0.000    0.000    0.000 
#
# Total GULP energy -78116.461189 kJ/mol
# GULP energy per Si atom -5579.747228 kJ/mol
# Density = 2.196784 g / cm^3
# Si number density = 22.017951 Si / 1000 Ang^3
#
#
#
# Elastic Constant Matrix: (Units=GPa)
#
#
# Indices 1 2 3 4 5 6 
#
# 1 143.5848 48.3729 46.9659 3.4074 -23.5185 -26.7415
# 2 48.3729 124.1297 38.3040 -13.9231 0.1591 -36.1566
# 3 46.9659 38.3040 83.4179 -9.7031 -4.7252 -13.9921
# 4 3.4074 -13.9231 -9.7031 29.3881 -6.8976 9.6180
# 5 -23.5185 0.1591 -4.7252 -6.8976 45.9052 -5.6344
# 6 -26.7415 -36.1566 -13.9921 9.6180 -5.6344 33.8166
#
#
#
# Elastic Compliance Matrix: (Units=1/GPa)
#
#
# Indices 1 2 3 4 5 6 
#
# 1 0.011494 -0.001163 -0.004805 -0.004812 0.005678 0.008173
# 2 -0.001163 0.012953 -0.003171 0.001701 0.000669 0.011245
# 3 -0.004805 -0.003171 0.016407 0.005029 -0.000236 -0.001871
# 4 -0.004812 0.001701 0.005029 0.041395 0.002892 -0.011197
# 5 0.005678 0.000669 -0.000236 0.002892 0.026162 0.008644
# 6 0.008173 0.011245 -0.001871 -0.011197 0.008644 0.051908
#
#
# Mechanical properties :
#
#
# Convention : Reuss Voigt Hill
#
# Bulk Modulus (GPa) = 44.29341 68.71315 56.50328
# Shear Modulus (GPa) = 26.86386 36.32128 31.59257
#
# Velocity S-wave (km/s) = 3.49677 4.06596 3.79206
# Velocity P-wave (km/s) = 6.03853 7.30193 6.70008
#
# Compressibility (1/GPa) = 0.02257672
#
# Stress axis : x y z
#
# Youngs Moduli (GPa) = 86.99922 77.19951 60.95024
#
# Poissons Ratio (x) = 0.08980 0.29285
# Poissons Ratio (y) = 0.10120 0.19328
# Poissons Ratio (z) = 0.41800 0.24481
#
# Static dielectric constant tensor:
#      x y z
#    x 1.844090 0.021440 0.040060 
#    y 0.021440 1.826020 0.008290 
#    z 0.040060 0.008290 1.848210 
# 
# From -- ./inp_files/12314.got.cif
#   From: 2010.05.17/outbox.cif.g08.bks.cpg/sg2_7_cif.got.tgz:12314.got - 2010.06.03 11:33:40.
