data_PCOD9024632
_publ_section_title
;
Structure prediction by ZEFSAII (Michael W. Deem and Ramdas Pophale) SiO2 
 PCOD9024632
Probable space group: P -1
;
_chemical_formula_sum "Si O2"
_cell_formula_units_Z 14
_cell_length_a 5.117336
_cell_length_b 23.997805
_cell_length_c 4.904542
_cell_angle_alpha 109.183127
_cell_angle_beta 91.237625
_cell_angle_gamma 75.931140
_cell_volume 550.676756
_symmetry_space_group_name_H-M "P -1"
_symmetry_group_IT_number 2
_symmetry_cell_setting 'triclinic'
loop_
_space_group_symop_operation_xyz
x,y,z
-x,-y,-z
loop_
_atom_site_type_symbol
_atom_site_label
_atom_site_fract_x
_atom_site_fract_y
_atom_site_fract_z
Si Si1 0.173522 0.119996 0.269755
Si Si2 0.639695 0.722101 0.090471
Si Si3 0.766055 0.488634 0.171454
Si Si4 0.100087 0.638990 0.191543
Si Si5 0.627440 0.615944 0.538195
Si Si6 0.207134 0.039699 0.638240
Si Si7 0.411915 0.802776 0.709020
O O1 0.141625 0.099821 0.544796
O O2 0.437479 0.145280 0.285629
O O3 0.906955 0.169621 0.248301
O O4 0.198429 0.061473 0.983476
O O5 0.584850 0.660164 0.867179
O O6 0.545588 0.772955 0.941986
O O7 0.958551 0.701676 0.137681
O O8 0.486519 0.750210 0.401387
O O9 0.706413 0.542859 0.478623
O O10 0.500000 0.500000 0.000000
O O11 0.000000 0.500000 0.000000
O O12 0.841919 0.416755 0.114999
O O13 0.866998 0.629431 0.379468
O O14 0.360328 0.632357 0.373033
O O15 0.500000 0.000000 0.500000
O O16 0.000000 0.000000 0.500000
#
# Coordination Sequence:
#
# PCOD9024632 Si02
#       7
#     2   2   2   2   2   2   2
#     4  12  26  49  70 108 150 189 230 281 338 399
#     4  12  26  46  68 100 132 191 246 294 342 418
#     4   8  16  35  60  90 125 165 211 292 372 442
#     4  10  22  40  65  95 130 170 231 294 369 427
#     4  10  22  40  65  95 130 170 231 294 369 427
#     4  12  24  45  80 114 146 183 230 279 338 399
#     4  12  28  45  70  97 146 194 240 281 340 401
#
# _framework density 25.423262999999999
#
# number of rings (size 3 to 8) (size 9 to 14) (size 15 to 20)
#    0.000    1.143    1.429    4.286    2.000    4.000 
#    0.000    0.000    0.000   10.286    0.000    0.000 
#    0.000    0.000    0.000    0.000    0.000    0.000 
#
# Total GULP energy -78552.755423 kJ/mol
# GULP energy per Si atom -5610.911102 kJ/mol
# Density = 2.536540 g / cm^3
# Si number density = 25.423263 Si / 1000 Ang^3
#
#
#
# Elastic Constant Matrix: (Units=GPa)
#
#
# Indices 1 2 3 4 5 6 
#
# 1 134.8890 1.1766 24.6951 2.8846 12.6659 -19.8343
# 2 1.1766 82.0215 -4.2539 -14.3247 -5.9160 -20.5010
# 3 24.6951 -4.2539 107.9246 20.1802 6.2838 -13.4005
# 4 2.8846 -14.3247 20.1802 54.7433 1.4764 -1.3440
# 5 12.6659 -5.9160 6.2838 1.4764 35.5718 8.3304
# 6 -19.8343 -20.5010 -13.4005 -1.3440 8.3304 46.3876
#
#
#
# Elastic Compliance Matrix: (Units=1/GPa)
#
#
# Indices 1 2 3 4 5 6 
#
# 1 0.008617 0.000686 -0.001266 0.000399 -0.003756 0.004308
# 2 0.000686 0.014632 0.000568 0.003746 0.000299 0.006979
# 3 -0.001266 0.000568 0.010745 -0.003619 -0.001918 0.003054
# 4 0.000399 0.003746 -0.003619 0.020596 -0.000060 0.001388
# 5 -0.003756 0.000299 -0.001918 -0.000060 0.031647 -0.007713
# 6 0.004308 0.006979 0.003054 0.001388 -0.007713 0.028791
#
#
# Mechanical properties :
#
#
# Convention : Reuss Voigt Hill
#
# Bulk Modulus (GPa) = 29.43607 40.89674 35.16641
# Shear Modulus (GPa) = 39.56508 47.55501 43.56005
#
# Velocity S-wave (km/s) = 3.94922 4.32966 4.14381
# Velocity P-wave (km/s) = 5.69198 6.41216 6.06277
#
# Compressibility (1/GPa) = 0.03397192
#
# Stress axis : x y z
#
# Youngs Moduli (GPa) = 116.05176 68.34441 93.06430
#
# Poissons Ratio (x) = -0.04691 0.11779
# Poissons Ratio (y) = -0.07965 -0.05289
# Poissons Ratio (z) = 0.14688 -0.03884
#
# Static dielectric constant tensor:
#      x y z
#    x 1.998640 0.031700 0.002430 
#    y 0.031700 2.020100 0.018400 
#    z 0.002430 0.018400 1.950920 
# 
# From -- ./inp_files/14198.got.cif
#   From: 2010.05.17/outbox.cif.g08.bks.cpg/sg2_8_cif.got.tgz:14198.got - 2010.06.03 11:33:40.
