data_PCOD9024860
_publ_section_title
;
Structure prediction by ZEFSAII (Michael W. Deem and Ramdas Pophale) SiO2 
 PCOD9024860
Probable space group: P -1
;
_chemical_formula_sum "Si O2"
_cell_formula_units_Z 14
_cell_length_a 11.929601
_cell_length_b 10.371122
_cell_length_c 7.513840
_cell_angle_alpha 62.471442
_cell_angle_beta 91.012998
_cell_angle_gamma 127.501643
_cell_volume 606.333181
_symmetry_space_group_name_H-M "P -1"
_symmetry_group_IT_number 2
_symmetry_cell_setting 'triclinic'
loop_
_space_group_symop_operation_xyz
x,y,z
-x,-y,-z
loop_
_atom_site_type_symbol
_atom_site_label
_atom_site_fract_x
_atom_site_fract_y
_atom_site_fract_z
Si Si1 0.813825 0.634898 0.413697
Si Si2 0.076582 0.673552 0.531695
Si Si3 0.306550 0.057719 0.109404
Si Si4 0.822442 0.993833 0.226775
Si Si5 0.652740 0.434179 0.870171
Si Si6 0.169679 0.114575 0.354051
Si Si7 0.877654 0.545762 0.096561
O O1 0.821113 0.817716 0.293563
O O2 0.677771 0.451367 0.647435
O O3 0.809107 0.559626 0.266690
O O4 0.960650 0.706876 0.486855
O O5 0.079789 0.581562 0.767301
O O6 0.000000 0.500000 0.500000
O O7 0.239833 0.860670 0.337240
O O8 0.198551 0.088603 0.171089
O O9 0.275774 0.020608 0.922588
O O10 0.479503 0.249469 0.027768
O O11 0.772095 0.953846 0.456933
O O12 0.982520 0.220326 0.082121
O O13 0.716714 0.650841 0.773778
O O14 0.763121 0.438282 0.996806
O O15 0.000000 0.000000 0.500000
#
# Coordination Sequence:
#
# PCOD9024860 Si02
#       7
#     2   2   2   2   2   2   2
#     4  10  22  40  66  94 121 166 215 257 303 389
#     4  10  22  41  65  91 123 165 224 251 300 383
#     4  12  24  42  62  95 133 164 200 273 313 363
#     4  11  22  37  71  91 122 167 210 253 321 363
#     4  11  25  39  63  97 131 159 207 263 324 360
#     4  11  23  39  65  99 124 161 218 253 303 396
#     4  11  22  40  65  92 124 169 210 261 306 370
#
# _framework density 23.089615999999999
#
# number of rings (size 3 to 8) (size 9 to 14) (size 15 to 20)
#    0.000    1.143    4.286    3.429    0.000    4.571 
#    0.000    2.857    0.000    0.000    0.000    0.000 
#    0.000    0.000    0.000    0.000    0.000    0.000 
#
# Total GULP energy -78103.225979 kJ/mol
# GULP energy per Si atom -5578.801856 kJ/mol
# Density = 2.303706 g / cm^3
# Si number density = 23.089616 Si / 1000 Ang^3
#
#
#
# Elastic Constant Matrix: (Units=GPa)
#
#
# Indices 1 2 3 4 5 6 
#
# 1 42.9606 21.8561 37.1814 -22.5291 2.5846 8.6320
# 2 21.8561 76.6792 40.0950 -14.1689 -11.9058 15.2896
# 3 37.1814 40.0950 163.3189 -21.0727 10.8742 21.2994
# 4 -22.5291 -14.1689 -21.0727 55.0873 10.0983 -9.5113
# 5 2.5846 -11.9058 10.8742 10.0983 36.8645 -1.7693
# 6 8.6320 15.2896 21.2994 -9.5113 -1.7693 37.0735
#
#
#
# Elastic Compliance Matrix: (Units=1/GPa)
#
#
# Indices 1 2 3 4 5 6 
#
# 1 0.038536 -0.007087 -0.004795 0.013398 -0.007256 -0.000204
# 2 -0.007087 0.018391 -0.003041 -0.001435 0.007525 -0.004197
# 3 -0.004795 -0.003041 0.008627 0.000761 -0.003522 -0.002559
# 4 0.013398 -0.001435 0.000761 0.025668 -0.008504 0.003215
# 5 -0.007256 0.007525 -0.003522 -0.008504 0.033435 0.000023
# 6 -0.000204 -0.004197 -0.002559 0.003215 0.000023 0.031048
#
#
# Mechanical properties :
#
#
# Convention : Reuss Voigt Hill
#
# Bulk Modulus (GPa) = 28.00332 53.46930 40.73631
# Shear Modulus (GPa) = 25.32227 38.06015 31.69121
#
# Velocity S-wave (km/s) = 3.31523 4.06441 3.70879
# Velocity P-wave (km/s) = 5.17772 6.72559 6.00176
#
# Compressibility (1/GPa) = 0.03571005
#
# Stress axis : x y z
#
# Youngs Moduli (GPa) = 25.94968 54.37346 115.90853
#
# Poissons Ratio (x) = 0.38535 0.55576
# Poissons Ratio (y) = 0.18391 0.35242
# Poissons Ratio (z) = 0.12442 0.16532
#
# Static dielectric constant tensor:
#      x y z
#    x 1.967960 -0.040780 0.051990 
#    y -0.040780 1.922990 0.004070 
#    z 0.051990 0.004070 1.901220 
# 
# From -- ./inp_files/256426.got.cif
#   From: 2010.05.17/outbox.cif.g08.bks.cpg/sg2_129_cif.got.tgz:256426.got - 2010.06.03 11:33:40.
