data_PCOD9024479
_publ_section_title
;
Structure prediction by ZEFSAII (Michael W. Deem and Ramdas Pophale) SiO2 
 PCOD9024479
Probable space group: P -1
;
_chemical_formula_sum "Si O2"
_cell_formula_units_Z 16
_cell_length_a 15.109527
_cell_length_b 11.348581
_cell_length_c 5.435048
_cell_angle_alpha 114.742630
_cell_angle_beta 87.075988
_cell_angle_gamma 62.502676
_cell_volume 715.443553
_symmetry_space_group_name_H-M "P -1"
_symmetry_group_IT_number 2
_symmetry_cell_setting 'triclinic'
loop_
_space_group_symop_operation_xyz
x,y,z
-x,-y,-z
loop_
_atom_site_type_symbol
_atom_site_label
_atom_site_fract_x
_atom_site_fract_y
_atom_site_fract_z
Si Si1 0.382829 0.392290 0.483893
Si Si2 0.560279 0.330022 0.727448
Si Si3 0.190915 0.839053 0.433478
Si Si4 0.175723 0.705305 0.808644
Si Si5 0.006767 0.345314 0.288978
Si Si6 0.876431 0.816830 0.373942
Si Si7 0.516429 0.861122 0.137325
Si Si8 0.659615 0.839969 0.487193
O O1 0.497132 0.355571 0.506963
O O2 0.296903 0.569766 0.642474
O O3 0.340352 0.314354 0.606290
O O4 0.403182 0.289768 0.156128
O O5 0.682946 0.260148 0.647469
O O6 0.541624 0.208079 0.761602
O O7 0.500000 0.500000 0.000000
O O8 0.148751 0.820740 0.685304
O O9 0.153380 0.012967 0.537003
O O10 0.160591 0.776972 0.144666
O O11 0.105259 0.633285 0.721055
O O12 0.059416 0.237782 0.427399
O O13 0.000000 0.500000 0.500000
O O14 0.067295 0.282096 0.965598
O O15 0.771797 0.815142 0.435825
O O16 0.592545 0.902387 0.302054
O O17 0.417884 0.022848 0.194381
#
# Coordination Sequence:
#
# PCOD9024479 Si02
#       8
#     2   2   2   2   2   2   2   2
#     4  11  24  39  71  97 147 195 232 305 353 426
#     4  11  22  41  63 103 145 188 241 281 354 429
#     4  12  27  47  75 109 147 194 240 294 365 437
#     4  12  28  48  73 106 145 188 249 298 363 430
#     4  12  29  52  79 110 139 188 246 308 369 430
#     4  12  27  49  79 105 149 190 240 310 361 430
#     4  10  22  40  64  99 143 185 237 288 355 436
#     4  10  23  41  65 104 139 186 237 291 364 425
#
# _framework density 22.363748000000001
#
# number of rings (size 3 to 8) (size 9 to 14) (size 15 to 20)
#    0.000    0.750    2.500    3.750    7.000    5.000 
#    0.000    0.000    0.000    0.000    0.000    0.000 
#    0.000    0.000    0.000    0.000    0.000    0.000 
#
# Total GULP energy -89372.467032 kJ/mol
# GULP energy per Si atom -5585.779190 kJ/mol
# Density = 2.231285 g / cm^3
# Si number density = 22.363748 Si / 1000 Ang^3
#
#
#
# Elastic Constant Matrix: (Units=GPa)
#
#
# Indices 1 2 3 4 5 6 
#
# 1 98.3769 8.3757 17.2985 -13.2767 23.1651 -7.4736
# 2 8.3757 93.3486 6.8960 -3.9125 7.0001 5.3441
# 3 17.2985 6.8960 95.4092 -9.9820 9.5546 -7.7408
# 4 -13.2767 -3.9125 -9.9820 37.7076 5.0385 6.4630
# 5 23.1651 7.0001 9.5546 5.0385 33.4355 4.8060
# 6 -7.4736 5.3441 -7.7408 6.4630 4.8060 27.7111
#
#
#
# Elastic Compliance Matrix: (Units=1/GPa)
#
#
# Indices 1 2 3 4 5 6 
#
# 1 0.013899 -0.000417 -0.000487 0.005432 -0.010841 0.004306
# 2 -0.000417 0.011130 -0.000598 0.001507 -0.001742 -0.002475
# 3 -0.000487 -0.000598 0.011534 0.002767 -0.003711 0.003204
# 4 0.005432 0.001507 0.002767 0.031171 -0.009027 -0.003757
# 5 -0.010841 -0.001742 -0.003711 -0.009027 0.041457 -0.008709
# 6 0.004306 -0.002475 0.003204 -0.003757 -0.008709 0.041007
#
#
# Mechanical properties :
#
#
# Convention : Reuss Voigt Hill
#
# Bulk Modulus (GPa) = 29.79742 39.14168 34.46955
# Shear Modulus (GPa) = 30.41619 36.74181 33.57900
#
# Velocity S-wave (km/s) = 3.69191 4.05769 3.87911
# Velocity P-wave (km/s) = 5.61485 6.28438 5.95902
#
# Compressibility (1/GPa) = 0.03355996
#
# Stress axis : x y z
#
# Youngs Moduli (GPa) = 71.94738 89.85087 86.70297
#
# Poissons Ratio (x) = 0.03747 0.04218
# Poissons Ratio (y) = 0.03001 0.05181
# Poissons Ratio (z) = 0.03500 0.05369
#
# Static dielectric constant tensor:
#      x y z
#    x 1.799790 0.017310 -0.018890 
#    y 0.017310 1.893360 -0.072160 
#    z -0.018890 -0.072160 1.927770 
# 
# From -- ./inp_files/95636.got.cif
#   From: 2010.05.17/outbox.cif.g08.bks.cpg/sg2_48_cif.got.tgz:95636.got - 2010.06.03 11:33:40.
