data_PCOD9024513
_publ_section_title
;
Structure prediction by ZEFSAII (Michael W. Deem and Ramdas Pophale) SiO2 
 PCOD9024513
Probable space group: P -1
;
_chemical_formula_sum "Si O2"
_cell_formula_units_Z 15
_cell_length_a 11.948979
_cell_length_b 12.208432
_cell_length_c 11.865020
_cell_angle_alpha 142.382962
_cell_angle_beta 52.460983
_cell_angle_gamma 141.557505
_cell_volume 656.560931
_symmetry_space_group_name_H-M "P -1"
_symmetry_group_IT_number 2
_symmetry_cell_setting 'triclinic'
loop_
_space_group_symop_operation_xyz
x,y,z
-x,-y,-z
loop_
_atom_site_type_symbol
_atom_site_label
_atom_site_fract_x
_atom_site_fract_y
_atom_site_fract_z
Si Si1 0.936973 0.768505 0.912491
Si Si2 0.242872 0.436643 0.597504
Si Si3 0.524386 0.129570 0.705426
Si Si4 0.141834 0.815764 0.447628
Si Si5 0.000000 0.500000 0.500000
Si Si6 0.695832 0.107216 0.133626
Si Si7 0.469492 0.375946 0.242540
Si Si8 0.369292 0.316776 0.817021
O O1 0.891794 0.583215 0.696007
O O2 0.104327 0.812483 0.911645
O O3 0.786270 0.698260 0.036962
O O4 0.000000 0.000000 0.000000
O O5 0.302850 0.688903 0.742013
O O6 0.317465 0.367525 0.395671
O O7 0.347703 0.460469 0.664479
O O8 0.027059 0.270400 0.597260
O O9 0.718623 0.227488 0.714782
O O10 0.477197 0.290415 0.824026
O O11 0.500000 0.000000 0.500000
O O12 0.376814 0.951293 0.741031
O O13 0.057770 0.677484 0.503517
O O14 0.263088 0.084286 0.617687
O O15 0.584062 0.874652 0.941861
O O16 0.504428 0.478239 0.179960
#
# Coordination Sequence:
#
# PCOD9024513 Si02
#       8
#     2   2   2   2   1   2   2   2
#     4  12  23  42  67 106 141 180 222 279 354 426
#     4  11  25  50  70  99 136 185 245 283 346 406
#     4  10  22  40  65 107 142 175 219 288 352 412
#     4  11  23  40  73 100 139 186 224 290 349 412
#     4  12  24  38  70 100 138 178 218 278 356 408
#     4  12  24  45  72  99 138 183 233 284 349 416
#     4  11  28  46  72  98 137 190 234 294 337 409
#     4  11  24  44  65 108 144 175 235 279 353 419
#
# _framework density 22.846319000000001
#
# number of rings (size 3 to 8) (size 9 to 14) (size 15 to 20)
#    0.000    0.800    4.000    3.600    3.733    1.067 
#    0.000    4.000    0.000    0.000    0.000    0.000 
#    0.000    0.000    0.000    0.000    0.000    0.000 
#
# Total GULP energy -83738.271841 kJ/mol
# GULP energy per Si atom -5582.551456 kJ/mol
# Density = 2.279432 g / cm^3
# Si number density = 22.846319 Si / 1000 Ang^3
#
#
#
# Elastic Constant Matrix: (Units=GPa)
#
#
# Indices 1 2 3 4 5 6 
#
# 1 107.3035 13.7957 23.0161 -17.2806 -9.9492 23.1402
# 2 13.7957 33.5257 18.4099 -0.6065 -0.1862 7.6754
# 3 23.0161 18.4099 132.8234 -6.8910 -20.9008 2.0829
# 4 -17.2806 -0.6065 -6.8910 44.0403 5.5713 -9.8282
# 5 -9.9492 -0.1862 -20.9008 5.5713 34.7627 0.4083
# 6 23.1402 7.6754 2.0829 -9.8282 0.4083 42.3597
#
#
#
# Elastic Compliance Matrix: (Units=1/GPa)
#
#
# Indices 1 2 3 4 5 6 
#
# 1 0.011726 -0.003025 -0.001014 0.002960 0.002316 -0.005144
# 2 -0.003025 0.034788 -0.004834 -0.002151 -0.003183 -0.004882
# 3 -0.001014 -0.004834 0.009191 0.000564 0.005107 0.001059
# 4 0.002960 -0.002151 0.000564 0.025337 -0.002940 0.004652
# 5 0.002316 -0.003183 0.005107 -0.002940 0.032977 -0.001940
# 6 -0.005144 -0.004882 0.001059 0.004652 -0.001940 0.028348
#
#
# Mechanical properties :
#
#
# Convention : Reuss Voigt Hill
#
# Bulk Modulus (GPa) = 26.34318 42.67733 34.51026
# Shear Modulus (GPa) = 28.94121 38.79460 33.86790
#
# Velocity S-wave (km/s) = 3.56304 4.12523 3.85440
# Velocity P-wave (km/s) = 5.33692 6.43512 5.91158
#
# Compressibility (1/GPa) = 0.03796048
#
# Stress axis : x y z
#
# Youngs Moduli (GPa) = 85.27763 28.74571 108.80531
#
# Poissons Ratio (x) = 0.08694 0.11034
# Poissons Ratio (y) = 0.25793 0.52592
# Poissons Ratio (z) = 0.08648 0.13895
#
# Static dielectric constant tensor:
#      x y z
#    x 1.900820 0.057230 0.033140 
#    y 0.057230 1.858680 0.089650 
#    z 0.033140 0.089650 1.915730 
# 
# From -- ./inp_files/426828.got.cif
#   From: 2010.05.17/outbox.cif.g08.bks.cpg/sg2_214_cif.got.tgz:426828.got - 2010.06.03 11:33:40.
