data_PCOD9024155
_publ_section_title
;
Structure prediction by ZEFSAII (Michael W. Deem and Ramdas Pophale) SiO2 
 PCOD9024155
Probable space group: P -1
;
_chemical_formula_sum "Si O2"
_cell_formula_units_Z 16
_cell_length_a 5.574956
_cell_length_b 15.915239
_cell_length_c 8.707423
_cell_angle_alpha 82.614602
_cell_angle_beta 98.737852
_cell_angle_gamma 127.931718
_cell_volume 601.683581
_symmetry_space_group_name_H-M "P -1"
_symmetry_group_IT_number 2
_symmetry_cell_setting 'triclinic'
loop_
_space_group_symop_operation_xyz
x,y,z
-x,-y,-z
loop_
_atom_site_type_symbol
_atom_site_label
_atom_site_fract_x
_atom_site_fract_y
_atom_site_fract_z
Si Si1 0.415614 0.205584 0.077831
Si Si2 0.669293 0.505033 0.357400
Si Si3 0.691478 0.647499 0.874057
Si Si4 0.133812 0.996731 0.851906
Si Si5 0.800179 0.191647 0.339485
Si Si6 0.232993 0.803635 0.127907
Si Si7 0.305457 0.676725 0.476752
Si Si8 0.961794 0.853994 0.368958
O O1 0.533179 0.322675 0.109729
O O2 0.564188 0.155634 0.187472
O O3 0.512546 0.211761 0.909612
O O4 0.070676 0.131607 0.134194
O O5 0.500000 0.500000 0.500000
O O6 0.488674 0.471584 0.185149
O O7 0.723998 0.416921 0.413403
O O8 0.004901 0.617138 0.355026
O O9 0.881245 0.711554 0.723840
O O10 0.945452 0.708330 0.019683
O O11 0.495494 0.065559 0.875906
O O12 0.045115 0.049401 0.706044
O O13 0.000000 0.000000 0.000000
O O14 0.702462 0.244686 0.433019
O O15 0.837817 0.116450 0.462755
O O16 0.074118 0.811747 0.260235
O O17 0.624780 0.751427 0.405855
#
# Coordination Sequence:
#
# PCOD9024155 Si02
#       8
#     2   2   2   2   2   2   2   2
#     4  10  22  40  63  95 128 169 226 273 317 381
#     4  11  21  39  70 102 127 167 214 264 330 396
#     4  11  21  40  66  98 130 167 220 269 325 385
#     4  10  23  42  63  93 128 178 229 264 319 385
#     4  11  21  39  64  95 131 169 216 273 330 374
#     4  10  23  38  65  87 130 173 217 260 322 380
#     4  11  22  39  66  98 134 164 213 269 330 388
#     4  12  23  41  63  94 133 176 219 269 325 381
#
# _framework density 26.592051999999999
#
# number of rings (size 3 to 8) (size 9 to 14) (size 15 to 20)
#    0.000    1.250    3.750    2.250    0.000    6.000 
#    0.000    5.000    0.000    6.000    0.000    0.000 
#    0.000    0.000    0.000    0.000    0.000    0.000 
#
# Total GULP energy -89085.080349 kJ/mol
# GULP energy per Si atom -5567.817522 kJ/mol
# Density = 2.653153 g / cm^3
# Si number density = 26.592052 Si / 1000 Ang^3
#
#
#
# Elastic Constant Matrix: (Units=GPa)
#
#
# Indices 1 2 3 4 5 6 
#
# 1 87.8229 20.7321 26.7885 -6.6682 -21.1374 11.2957
# 2 20.7321 53.0418 -17.6646 0.4645 -3.6168 7.8862
# 3 26.7885 -17.6646 83.5541 5.2073 0.3700 0.0561
# 4 -6.6682 0.4645 5.2073 36.7799 5.7815 2.1354
# 5 -21.1374 -3.6168 0.3700 5.7815 64.9212 -6.7863
# 6 11.2957 7.8862 0.0561 2.1354 -6.7863 47.3780
#
#
#
# Elastic Compliance Matrix: (Units=1/GPa)
#
#
# Indices 1 2 3 4 5 6 
#
# 1 0.017526 -0.008813 -0.007737 0.003774 0.004693 -0.002200
# 2 -0.008813 0.025333 0.008360 -0.002738 -0.001493 -0.002216
# 3 -0.007737 0.008360 0.016447 -0.003574 -0.001793 0.000338
# 4 0.003774 -0.002738 -0.003574 0.028792 -0.001674 -0.001977
# 5 0.004693 -0.001493 -0.001793 -0.001674 0.017182 0.001668
# 6 -0.002200 -0.002216 0.000338 -0.001977 0.001668 0.022328
#
#
# Mechanical properties :
#
#
# Convention : Reuss Voigt Hill
#
# Bulk Modulus (GPa) = 23.29514 31.57009 27.43262
# Shear Modulus (GPa) = 31.58648 42.78668 37.18658
#
# Velocity S-wave (km/s) = 3.45021 4.01559 3.74359
# Velocity P-wave (km/s) = 4.96499 5.77908 5.38743
#
# Compressibility (1/GPa) = 0.04292741
#
# Stress axis : x y z
#
# Youngs Moduli (GPa) = 57.05801 39.47349 60.80237
#
# Poissons Ratio (x) = 0.34787 0.47041
# Poissons Ratio (y) = 0.50284 -0.50831
# Poissons Ratio (z) = 0.44144 -0.33000
#
# Static dielectric constant tensor:
#      x y z
#    x 2.177230 0.050190 0.208170 
#    y 0.050190 2.524750 0.209840 
#    z 0.208170 0.209840 2.360840 
# 
# From -- ./inp_files/139060.got.cif
#   From: 2010.05.17/outbox.cif.g08.bks.cpg/sg2_70_cif.got.tgz:139060.got - 2010.06.03 11:33:40.
