data_PCOD9024534
_publ_section_title
;
Structure prediction by ZEFSAII (Michael W. Deem and Ramdas Pophale) SiO2 
 PCOD9024534
Probable space group: P -1
;
_chemical_formula_sum "Si O2"
_cell_formula_units_Z 16
_cell_length_a 8.600943
_cell_length_b 15.509923
_cell_length_c 14.983529
_cell_angle_alpha 36.243956
_cell_angle_beta 97.455259
_cell_angle_gamma 123.817252
_cell_volume 746.407783
_symmetry_space_group_name_H-M "P -1"
_symmetry_group_IT_number 2
_symmetry_cell_setting 'triclinic'
loop_
_space_group_symop_operation_xyz
x,y,z
-x,-y,-z
loop_
_atom_site_type_symbol
_atom_site_label
_atom_site_fract_x
_atom_site_fract_y
_atom_site_fract_z
Si Si1 0.642871 0.238648 0.853835
Si Si2 0.693035 0.513540 0.474968
Si Si3 0.226478 0.959277 0.193582
Si Si4 0.456418 0.829512 0.390525
Si Si5 0.293564 0.289251 0.031424
Si Si6 0.589040 0.216476 0.361885
Si Si7 0.246668 0.232417 0.278544
Si Si8 0.970238 0.315019 0.947417
O O1 0.694170 0.394117 0.653541
O O2 0.881016 0.342096 0.832772
O O3 0.500000 0.000000 0.000000
O O4 0.455773 0.164532 0.976126
O O5 0.500000 0.500000 0.500000
O O6 0.614063 0.367832 0.502903
O O7 0.970874 0.773003 0.276313
O O8 0.284064 0.840640 0.336796
O O9 0.220488 0.077611 0.170221
O O10 0.452216 0.807346 0.514646
O O11 0.727368 0.074684 0.174476
O O12 0.204819 0.250703 0.158800
O O13 0.587568 0.529754 0.855217
O O14 0.153565 0.311760 0.944847
O O15 0.428732 0.224964 0.295691
O O16 0.874617 0.462760 0.165229
O O17 0.500000 0.000000 0.500000
O O18 0.000000 0.000000 0.500000
#
# Coordination Sequence:
#
# PCOD9024534 Si02
#       8
#     2   2   2   2   2   2   2   2
#     4  11  24  44  66  94 130 175 217 265 332 386
#     4  12  26  42  66  98 131 175 222 270 326 396
#     4  11  24  39  68  93 134 171 219 275 325 391
#     4  11  23  41  63  92 128 173 212 266 328 378
#     4  10  22  41  62  99 125 173 218 268 333 384
#     4  11  24  39  64  95 123 169 216 265 328 387
#     4  10  22  40  65  89 133 167 216 276 325 385
#     4  10  22  41  66  88 133 167 212 270 317 392
#
# _framework density 21.436004000000001
#
# number of rings (size 3 to 8) (size 9 to 14) (size 15 to 20)
#    0.000    1.250    2.500    3.375    1.750    6.000 
#    0.000    0.000    0.000    0.000    0.000    0.000 
#    0.000    0.000    0.000    0.000    0.000    0.000 
#
# Total GULP energy -89471.017879 kJ/mol
# GULP energy per Si atom -5591.938617 kJ/mol
# Density = 2.138721 g / cm^3
# Si number density = 21.436004 Si / 1000 Ang^3
#
#
#
# Elastic Constant Matrix: (Units=GPa)
#
#
# Indices 1 2 3 4 5 6 
#
# 1 92.7479 58.8587 21.7169 -22.0243 11.0479 3.4234
# 2 58.8587 107.9452 44.7929 -18.5992 6.6562 -1.3131
# 3 21.7169 44.7929 97.9327 -21.4064 -4.7287 -5.4801
# 4 -22.0243 -18.5992 -21.4064 56.0989 -2.0694 7.0177
# 5 11.0479 6.6562 -4.7287 -2.0694 30.8832 -8.0954
# 6 3.4234 -1.3131 -5.4801 7.0177 -8.0954 34.1132
#
#
#
# Elastic Compliance Matrix: (Units=1/GPa)
#
#
# Indices 1 2 3 4 5 6 
#
# 1 0.018397 -0.009217 0.000681 0.004773 -0.005306 -0.004333
# 2 -0.009217 0.016654 -0.005677 -0.000362 -0.001061 0.000477
# 3 0.000681 -0.005677 0.013728 0.003501 0.003871 0.002117
# 4 0.004773 -0.000362 0.003501 0.021453 -0.000847 -0.004545
# 5 -0.005306 -0.001061 0.003871 -0.000847 0.037727 0.010241
# 6 -0.004333 0.000477 0.002117 -0.004545 0.010241 0.033473
#
#
# Mechanical properties :
#
#
# Convention : Reuss Voigt Hill
#
# Bulk Modulus (GPa) = 49.13529 61.04031 55.08780
# Shear Modulus (GPa) = 28.30583 35.76956 32.03770
#
# Velocity S-wave (km/s) = 3.63778 4.08936 3.87017
# Velocity P-wave (km/s) = 6.37309 7.12984 6.76206
#
# Compressibility (1/GPa) = 0.02035197
#
# Stress axis : x y z
#
# Youngs Moduli (GPa) = 54.35674 60.04497 72.84640
#
# Poissons Ratio (x) = 0.55342 -0.04958
# Poissons Ratio (y) = 0.50099 0.41356
# Poissons Ratio (z) = -0.03700 0.34089
#
# Static dielectric constant tensor:
#      x y z
#    x 1.768770 -0.000320 -0.029780 
#    y -0.000320 1.779720 -0.004270 
#    z -0.029780 -0.004270 1.817450 
# 
# From -- ./inp_files/505280.got.cif
#   From: 2010.05.17/outbox.cif.g08.bks.cpg/sg2_253_cif.got.tgz:505280.got - 2010.06.03 11:33:40.
