data_PCOD9024924
_publ_section_title
;
Structure prediction by ZEFSAII (Michael W. Deem and Ramdas Pophale) SiO2 
 PCOD9024924
Probable space group: P -1
;
_chemical_formula_sum "Si O2"
_cell_formula_units_Z 15
_cell_length_a 11.832293
_cell_length_b 10.209410
_cell_length_c 9.846203
_cell_angle_alpha 64.306638
_cell_angle_beta 106.686196
_cell_angle_gamma 145.139175
_cell_volume 607.178689
_symmetry_space_group_name_H-M "P -1"
_symmetry_group_IT_number 2
_symmetry_cell_setting 'triclinic'
loop_
_space_group_symop_operation_xyz
x,y,z
-x,-y,-z
loop_
_atom_site_type_symbol
_atom_site_label
_atom_site_fract_x
_atom_site_fract_y
_atom_site_fract_z
Si Si1 0.436177 0.655840 0.119480
Si Si2 0.925777 0.322542 0.936556
Si Si3 0.705640 0.519373 0.418004
Si Si4 0.500000 0.000000 0.000000
Si Si5 0.931073 0.780330 0.637835
Si Si6 0.833606 0.369880 0.384867
Si Si7 0.645756 0.930839 0.351649
Si Si8 0.838004 0.905649 0.093124
O O1 0.247312 0.386450 0.239317
O O2 0.540249 0.850717 0.201425
O O3 0.601000 0.719036 0.075420
O O4 0.373418 0.739310 0.986715
O O5 0.699346 0.148962 0.917713
O O6 0.037541 0.458428 0.775949
O O7 0.000000 0.500000 0.000000
O O8 0.929084 0.153865 0.041106
O O9 0.836059 0.605146 0.554798
O O10 0.708934 0.385831 0.381507
O O11 0.487681 0.320774 0.500998
O O12 0.802302 0.752711 0.269636
O O13 0.000000 0.000000 0.500000
O O14 0.136430 0.906612 0.684914
O O15 0.000000 0.500000 0.500000
O O16 0.686727 0.099301 0.397143
O O17 0.000000 0.000000 0.000000
#
# Coordination Sequence:
#
# PCOD9024924 Si02
#       8
#     2   2   2   1   2   2   2   2
#     4  10  23  41  69  98 132 179 237 281 348 413
#     4  11  25  47  75 100 136 191 236 282 346 424
#     4  11  24  42  66 101 138 182 228 289 356 415
#     4  10  22  40  66  96 128 172 238 280 322 406
#     4  11  22  40  66  95 131 174 226 291 346 410
#     4  12  23  43  71 102 141 182 231 295 356 410
#     4  11  23  42  67 100 134 179 231 293 349 419
#     4  11  22  44  67  97 139 181 228 283 346 415
#
# _framework density 24.704422999999998
#
# number of rings (size 3 to 8) (size 9 to 14) (size 15 to 20)
#    0.000    1.067    2.667    4.400    1.867    3.200 
#    2.400    0.000    0.000    6.400    0.000    0.000 
#    0.000    0.000    0.000    0.000    0.000    0.000 
#
# Total GULP energy -83521.786808 kJ/mol
# GULP energy per Si atom -5568.119121 kJ/mol
# Density = 2.464819 g / cm^3
# Si number density = 24.704423 Si / 1000 Ang^3
#
#
#
# Elastic Constant Matrix: (Units=GPa)
#
#
# Indices 1 2 3 4 5 6 
#
# 1 167.1506 48.1954 45.8011 -15.9474 -20.5874 13.7270
# 2 48.1954 114.9027 58.8773 -22.8757 -11.4607 8.8871
# 3 45.8011 58.8773 144.9302 -39.7892 -26.7006 7.6062
# 4 -15.9474 -22.8757 -39.7892 58.1160 9.5224 -4.1350
# 5 -20.5874 -11.4607 -26.7006 9.5224 43.5905 -13.4982
# 6 13.7270 8.8871 7.6062 -4.1350 -13.4982 44.7843
#
#
#
# Elastic Compliance Matrix: (Units=1/GPa)
#
#
# Indices 1 2 3 4 5 6 
#
# 1 0.007218 -0.002265 -0.000939 0.000061 0.001908 -0.001023
# 2 -0.002265 0.011908 -0.003821 0.001526 -0.000976 -0.001173
# 3 -0.000939 -0.003821 0.010898 0.005044 0.004434 0.000997
# 4 0.000061 0.001526 0.005044 0.021480 -0.001018 0.000498
# 5 0.001908 -0.000976 0.004434 -0.001018 0.028832 0.007452
# 6 -0.001023 -0.001173 0.000997 0.000498 0.007452 0.024998
#
#
# Mechanical properties :
#
#
# Convention : Reuss Voigt Hill
#
# Bulk Modulus (GPa) = 62.59984 81.41456 72.00720
# Shear Modulus (GPa) = 40.09332 47.57214 43.83273
#
# Velocity S-wave (km/s) = 4.03292 4.39299 4.21680
# Velocity P-wave (km/s) = 6.86152 7.66538 7.27456
#
# Compressibility (1/GPa) = 0.01597448
#
# Stress axis : x y z
#
# Youngs Moduli (GPa) = 138.54713 83.97572 91.75641
#
# Poissons Ratio (x) = 0.19019 0.08616
# Poissons Ratio (y) = 0.31378 0.35062
# Poissons Ratio (z) = 0.13009 0.32089
#
# Static dielectric constant tensor:
#      x y z
#    x 1.670660 -0.015570 -0.310600 
#    y -0.015570 2.005970 -0.012170 
#    z -0.310600 -0.012170 1.591240 
# 
# From -- ./inp_files/427849.got.cif
#   From: 2010.05.17/outbox.cif.g08.bks.cpg/sg2_214_cif.got.tgz:427849.got - 2010.06.03 11:33:40.
