data_PCOD9024512
_publ_section_title
;
Structure prediction by ZEFSAII (Michael W. Deem and Ramdas Pophale) SiO2 
 PCOD9024512
Probable space group: P -1
;
_chemical_formula_sum "Si O2"
_cell_formula_units_Z 12
_cell_length_a 16.770983
_cell_length_b 15.265163
_cell_length_c 6.478998
_cell_angle_alpha 126.558067
_cell_angle_beta 44.332632
_cell_angle_gamma 152.988282
_cell_volume 521.900553
_symmetry_space_group_name_H-M "P -1"
_symmetry_group_IT_number 2
_symmetry_cell_setting 'triclinic'
loop_
_space_group_symop_operation_xyz
x,y,z
-x,-y,-z
loop_
_atom_site_type_symbol
_atom_site_label
_atom_site_fract_x
_atom_site_fract_y
_atom_site_fract_z
Si Si1 0.076624 0.629663 0.844461
Si Si2 0.696909 0.345449 0.847473
Si Si3 0.762667 0.046809 0.749473
Si Si4 0.245268 0.206543 0.612275
Si Si5 0.628282 0.545820 0.645554
Si Si6 0.871457 0.677800 0.755409
O O1 0.240268 0.690896 0.495975
O O2 0.877443 0.488973 0.878617
O O3 0.173154 0.819314 0.004265
O O4 0.000000 0.500000 0.000000
O O5 0.481002 0.146633 0.069371
O O6 0.716533 0.479229 0.889774
O O7 0.832704 0.976029 0.544431
O O8 0.898067 0.186057 0.492680
O O9 0.458378 0.355649 0.549724
O O10 0.273636 0.289309 0.458430
O O11 0.132049 0.205908 0.966496
O O12 0.789828 0.609237 0.573676
O O13 0.500000 0.500000 0.000000
#
# Coordination Sequence:
#
# PCOD9024512 Si02
#       6
#     2   2   2   2   2   2
#     4  11  26  52  72 100 136 178 234 296 344 405
#     4  11  26  50  72 100 142 174 233 295 339 406
#     4  12  25  44  74 104 134 190 225 277 355 409
#     4  10  22  40  65 105 146 181 227 278 336 411
#     4   9  19  40  66  96 144 187 224 277 332 399
#     4  11  24  44  68 105 144 183 226 283 337 412
#
# _framework density 22.992885000000001
#
# number of rings (size 3 to 8) (size 9 to 14) (size 15 to 20)
#    0.000    1.333    1.667    4.000    4.667    1.333 
#   12.000    0.000    0.000    0.000    0.000    0.000 
#    0.000    0.000    0.000    0.000    0.000    0.000 
#
# Total GULP energy -67028.985125 kJ/mol
# GULP energy per Si atom -5585.748760 kJ/mol
# Density = 2.294055 g / cm^3
# Si number density = 22.992885 Si / 1000 Ang^3
#
#
#
# Elastic Constant Matrix: (Units=GPa)
#
#
# Indices 1 2 3 4 5 6 
#
# 1 73.7817 12.3277 22.0885 9.6938 17.5081 0.9101
# 2 12.3277 99.9781 45.9248 -4.5753 -17.7545 -0.3127
# 3 22.0885 45.9248 138.9328 9.5590 -17.5847 -2.7272
# 4 9.6938 -4.5753 9.5590 51.9128 -7.8497 -18.6989
# 5 17.5081 -17.7545 -17.5847 -7.8497 39.8668 -5.9829
# 6 0.9101 -0.3127 -2.7272 -18.6989 -5.9829 17.3895
#
#
#
# Elastic Compliance Matrix: (Units=1/GPa)
#
#
# Indices 1 2 3 4 5 6 
#
# 1 0.024209 -0.006237 -0.004056 -0.018765 -0.023433 -0.030255
# 2 -0.006237 0.014794 -0.002721 0.010603 0.012601 0.015902
# 3 -0.004056 -0.002721 0.009482 0.001605 0.005878 0.005399
# 4 -0.018765 0.010603 0.001605 0.054934 0.035393 0.072672
# 5 -0.023433 0.012601 0.005878 0.035393 0.059698 0.060972
# 6 -0.030255 0.015902 0.005399 0.072672 0.060972 0.159344
#
#
# Mechanical properties :
#
#
# Convention : Reuss Voigt Hill
#
# Bulk Modulus (GPa) = 44.53001 52.59717 48.56359
# Shear Modulus (GPa) = 14.04595 37.32391 25.68493
#
# Velocity S-wave (km/s) = 2.47428 4.03337 3.34590
# Velocity P-wave (km/s) = 5.25088 6.67951 6.00781
#
# Compressibility (1/GPa) = 0.02245677
#
# Stress axis : x y z
#
# Youngs Moduli (GPa) = 41.30685 67.59579 105.46783
#
# Poissons Ratio (x) = 0.42157 0.42780
# Poissons Ratio (y) = 0.25761 0.28698
# Poissons Ratio (z) = 0.16755 0.18393
#
# Static dielectric constant tensor:
#      x y z
#    x 1.900570 0.006740 -0.037010 
#    y 0.006740 1.917350 -0.044790 
#    z -0.037010 -0.044790 1.885850 
# 
# From -- ./inp_files/97316.got.cif
#   From: 2010.05.17/outbox.cif.g08.bks.cpg/sg2_49_cif.got.tgz:97316.got - 2010.06.03 11:33:40.
