data_PCOD9024182
_publ_section_title
;
Structure prediction by ZEFSAII (Michael W. Deem and Ramdas Pophale) SiO2 
 PCOD9024182
Probable space group: P -1
;
_chemical_formula_sum "Si O2"
_cell_formula_units_Z 16
_cell_length_a 5.155043
_cell_length_b 12.186885
_cell_length_c 12.425919
_cell_angle_alpha 117.521766
_cell_angle_beta 67.982982
_cell_angle_gamma 115.456273
_cell_volume 609.756850
_symmetry_space_group_name_H-M "P -1"
_symmetry_group_IT_number 2
_symmetry_cell_setting 'triclinic'
loop_
_space_group_symop_operation_xyz
x,y,z
-x,-y,-z
loop_
_atom_site_type_symbol
_atom_site_label
_atom_site_fract_x
_atom_site_fract_y
_atom_site_fract_z
Si Si1 0.151482 0.263300 0.004835
Si Si2 0.405104 0.144823 0.522764
Si Si3 0.870443 0.638133 0.333598
Si Si4 0.978894 0.644171 0.553389
Si Si5 0.743618 0.422437 0.086650
Si Si6 0.983909 0.853981 0.808905
Si Si7 0.677193 0.982158 0.743356
Si Si8 0.528769 0.193431 0.747622
O O1 0.436798 0.378662 0.052541
O O2 0.118152 0.159268 0.058312
O O3 0.861797 0.306972 0.059769
O O4 0.255788 0.222237 0.857520
O O5 0.220637 0.238549 0.630543
O O6 0.717657 0.243165 0.476902
O O7 0.245894 0.065795 0.407594
O O8 0.452314 0.094613 0.612652
O O9 0.724211 0.512792 0.230097
O O10 0.788894 0.626615 0.466473
O O11 0.220594 0.678869 0.275221
O O12 0.000000 0.500000 0.500000
O O13 0.880138 0.711488 0.701571
O O14 0.000000 0.500000 0.000000
O O15 0.864516 0.946188 0.792337
O O16 0.335987 0.902245 0.779949
O O17 0.664975 0.126531 0.789708
#
# Coordination Sequence:
#
# PCOD9024182 Si02
#       8
#     2   2   2   2   2   2   2   2
#     4  12  27  46  68 101 139 180 226 277 335 405
#     4  10  23  43  65 102 134 168 229 281 337 402
#     4  11  23  40  67  99 131 175 224 274 340 402
#     4  10  22  40  63  96 134 178 219 269 336 405
#     4  12  25  43  69  99 141 175 219 280 338 399
#     4  11  25  46  66 100 138 179 227 275 335 401
#     4  11  25  47  70  98 136 177 229 285 332 393
#     4  11  26  42  71  97 131 181 226 282 338 395
#
# _framework density 26.239968000000001
#
# number of rings (size 3 to 8) (size 9 to 14) (size 15 to 20)
#    0.000    1.000    2.500    3.000    7.000    3.000 
#    0.000    0.000    0.000    0.000    0.000    0.000 
#    0.000    0.000    0.000    0.000    0.000    0.000 
#
# Total GULP energy -89611.586424 kJ/mol
# GULP energy per Si atom -5600.724151 kJ/mol
# Density = 2.618024 g / cm^3
# Si number density = 26.239968 Si / 1000 Ang^3
#
#
#
# Elastic Constant Matrix: (Units=GPa)
#
#
# Indices 1 2 3 4 5 6 
#
# 1 82.8439 -4.7057 24.7563 -0.5881 12.2662 -4.8352
# 2 -4.7057 37.1007 -6.7103 -12.3501 11.1785 -0.4530
# 3 24.7563 -6.7103 110.8361 -12.3016 15.4797 9.1656
# 4 -0.5881 -12.3501 -12.3016 43.1333 -2.0179 2.7114
# 5 12.2662 11.1785 15.4797 -2.0179 40.2000 -3.6187
# 6 -4.8352 -0.4530 9.1656 2.7114 -3.6187 50.7505
#
#
#
# Elastic Compliance Matrix: (Units=1/GPa)
#
#
# Indices 1 2 3 4 5 6 
#
# 1 0.013593 0.002364 -0.002514 -0.000123 -0.003707 0.001512
# 2 0.002364 0.035341 0.004647 0.011027 -0.011941 -0.001739
# 3 -0.002514 0.004647 0.011278 0.004461 -0.004898 -0.002822
# 4 -0.000123 0.011027 0.004461 0.027598 -0.003582 -0.002449
# 5 -0.003707 -0.011941 -0.004898 -0.003582 0.031290 0.002847
# 6 0.001512 -0.001739 -0.002822 -0.002449 0.002847 0.020676
#
#
# Mechanical properties :
#
#
# Convention : Reuss Voigt Hill
#
# Bulk Modulus (GPa) = 14.44972 28.60680 21.52826
# Shear Modulus (GPa) = 32.49889 41.31277 36.90583
#
# Velocity S-wave (km/s) = 3.52309 3.97220 3.75437
# Velocity P-wave (km/s) = 4.69769 5.65363 5.19768
#
# Compressibility (1/GPa) = 0.06920550
#
# Stress axis : x y z
#
# Youngs Moduli (GPa) = 73.56924 28.29537 88.66961
#
# Poissons Ratio (x) = -0.06688 0.22292
# Poissons Ratio (y) = -0.17389 -0.41207
# Poissons Ratio (z) = 0.18495 -0.13150
#
# Static dielectric constant tensor:
#      x y z
#    x 2.209790 -0.012460 0.031770 
#    y -0.012460 2.145360 0.001740 
#    z 0.031770 0.001740 2.045360 
# 
# From -- ./inp_files/66259.got.cif
#   From: 2010.05.17/outbox.cif.g08.bks.cpg/sg2_34_cif.got.tgz:66259.got - 2010.06.03 11:33:40.
