data_PCOD9024138
_publ_section_title
;
Structure prediction by ZEFSAII (Michael W. Deem and Ramdas Pophale) SiO2 
 PCOD9024138
Probable space group: P -1
;
_chemical_formula_sum "Si O2"
_cell_formula_units_Z 14
_cell_length_a 14.662267
_cell_length_b 6.854159
_cell_length_c 12.995874
_cell_angle_alpha 99.601295
_cell_angle_beta 149.619181
_cell_angle_gamma 68.179877
_cell_volume 579.344277
_symmetry_space_group_name_H-M "P -1"
_symmetry_group_IT_number 2
_symmetry_cell_setting 'triclinic'
loop_
_space_group_symop_operation_xyz
x,y,z
-x,-y,-z
loop_
_atom_site_type_symbol
_atom_site_label
_atom_site_fract_x
_atom_site_fract_y
_atom_site_fract_z
Si Si1 0.130799 0.852617 0.824895
Si Si2 0.865401 0.188319 0.469409
Si Si3 0.820682 0.672887 0.435919
Si Si4 0.534174 0.249570 0.023331
Si Si5 0.635250 0.886800 0.478995
Si Si6 0.626883 0.633693 0.651764
Si Si7 0.069330 0.787645 0.975401
O O1 0.304567 0.856934 0.921683
O O2 0.203023 0.783360 0.005516
O O3 0.017475 0.712737 0.653507
O O4 0.949363 0.102257 0.656519
O O5 0.877431 0.413464 0.477533
O O6 0.646349 0.197724 0.238191
O O7 0.000000 0.000000 0.500000
O O8 0.661715 0.791260 0.383043
O O9 0.676476 0.758321 0.200931
O O10 0.500000 0.500000 0.000000
O O11 0.612476 0.738877 0.534309
O O12 0.860979 0.844782 0.721412
O O13 0.475189 0.144764 0.357894
O O14 0.500000 0.500000 0.500000
O O15 0.831463 0.443667 0.886009
O O16 0.000000 0.000000 0.000000
#
# Coordination Sequence:
#
# PCOD9024138 Si02
#       7
#     2   2   2   2   2   2   2
#     4  10  23  41  62  95 128 166 217 262 326 388
#     4   9  20  40  63  89 124 164 208 266 325 384
#     4  10  22  40  63  94 128 163 216 268 323 392
#     4   9  20  40  63  91 122 165 209 264 325 381
#     4  10  24  42  62  96 129 172 221 267 322 387
#     4  11  23  41  65  91 132 172 220 271 314 390
#     4  11  23  42  65  95 132 178 212 264 334 382
#
# _framework density 24.165251000000001
#
# number of rings (size 3 to 8) (size 9 to 14) (size 15 to 20)
#    0.000    2.000    1.429    0.429    4.000    5.714 
#   15.429    0.000    0.000    0.000    0.000    0.000 
#    0.000    0.000    0.000    0.000    0.000    0.000 
#
# Total GULP energy -78010.999362 kJ/mol
# GULP energy per Si atom -5572.214240 kJ/mol
# Density = 2.411025 g / cm^3
# Si number density = 24.165251 Si / 1000 Ang^3
#
#
#
# Elastic Constant Matrix: (Units=GPa)
#
#
# Indices 1 2 3 4 5 6 
#
# 1 89.5561 29.7120 9.7540 -3.7604 -10.1028 -8.5029
# 2 29.7120 93.4311 22.1502 -24.5065 -0.8580 -1.7419
# 3 9.7540 22.1502 128.6902 -11.0478 -12.1406 -7.5812
# 4 -3.7604 -24.5065 -11.0478 41.1617 4.4685 0.4901
# 5 -10.1028 -0.8580 -12.1406 4.4685 21.0661 2.2988
# 6 -8.5029 -1.7419 -7.5812 0.4901 2.2988 30.8106
#
#
#
# Elastic Compliance Matrix: (Units=1/GPa)
#
#
# Indices 1 2 3 4 5 6 
#
# 1 0.013733 -0.004969 0.000438 -0.002361 0.006794 0.003148
# 2 -0.004969 0.014890 -0.001946 0.008397 -0.004592 -0.000799
# 3 0.000438 -0.001946 0.008688 0.000671 0.004801 0.001780
# 4 -0.002361 0.008397 0.000671 0.029993 -0.006767 0.000016
# 5 0.006794 -0.004592 0.004801 -0.006767 0.054873 -0.001190
# 6 0.003148 -0.000799 0.001780 0.000016 -0.001190 0.033806
#
#
# Mechanical properties :
#
#
# Convention : Reuss Voigt Hill
#
# Bulk Modulus (GPa) = 41.05629 48.32332 44.68980
# Shear Modulus (GPa) = 28.23967 35.27843 31.75905
#
# Velocity S-wave (km/s) = 3.42220 3.82499 3.62918
# Velocity P-wave (km/s) = 5.71331 6.28870 6.00790
#
# Compressibility (1/GPa) = 0.02435680
#
# Stress axis : x y z
#
# Youngs Moduli (GPa) = 72.81589 67.15874 115.10571
#
# Poissons Ratio (x) = 0.33375 -0.05042
# Poissons Ratio (y) = 0.36186 0.22396
# Poissons Ratio (z) = -0.03190 0.13067
#
# Static dielectric constant tensor:
#      x y z
#    x 3.206190 -0.075830 0.015330 
#    y -0.075830 1.926710 -0.110600 
#    z 0.015330 -0.110600 2.250690 
# 
# From -- ./inp_files/54648.got.cif
#   From: 2010.05.17/outbox.cif.g08.bks.cpg/sg2_28_cif.got.tgz:54648.got - 2010.06.03 11:33:40.
