data_PCOD9024164
_publ_section_title
;
Structure prediction by ZEFSAII (Michael W. Deem and Ramdas Pophale) SiO2 
 PCOD9024164
Probable space group: P -1
;
_chemical_formula_sum "Si O2"
_cell_formula_units_Z 16
_cell_length_a 9.028479
_cell_length_b 16.568280
_cell_length_c 14.288581
_cell_angle_alpha 162.194078
_cell_angle_beta 86.619141
_cell_angle_gamma 92.095655
_cell_volume 651.115355
_symmetry_space_group_name_H-M "P -1"
_symmetry_group_IT_number 2
_symmetry_cell_setting 'triclinic'
loop_
_space_group_symop_operation_xyz
x,y,z
-x,-y,-z
loop_
_atom_site_type_symbol
_atom_site_label
_atom_site_fract_x
_atom_site_fract_y
_atom_site_fract_z
Si Si1 0.592835 0.222079 0.865129
Si Si2 0.379018 0.802466 0.364026
Si Si3 0.838029 0.862770 0.529830
Si Si4 0.121456 0.207258 0.747972
Si Si5 0.679230 0.502848 0.493423
Si Si6 0.698760 0.088430 0.188082
Si Si7 0.858693 0.320079 0.614081
Si Si8 0.616261 0.664475 0.476305
O O1 0.575347 0.341230 0.893153
O O2 0.509676 0.953071 0.571889
O O3 0.759688 0.135637 0.794892
O O4 0.531696 0.429156 0.171454
O O5 0.277899 0.676584 0.304252
O O6 0.271116 0.044187 0.593398
O O7 0.851972 0.677408 0.230599
O O8 0.728424 0.768769 0.510731
O O9 0.001759 0.877028 0.580998
O O10 0.080806 0.399518 0.048310
O O11 0.000000 0.000000 0.500000
O O12 0.500000 0.500000 0.500000
O O13 0.732292 0.237744 0.254105
O O14 0.707835 0.542560 0.426455
O O15 0.730042 0.772603 0.836307
O O16 0.791881 0.234322 0.424204
O O17 0.519942 0.133645 0.263868
#
# Coordination Sequence:
#
# PCOD9024164 Si02
#       8
#     2   2   2   2   2   2   2   2
#     4  10  23  39  64  99 135 172 223 275 340 394
#     4  10  22  40  63  95 134 176 221 279 326 404
#     4  11  25  38  63 100 132 179 222 273 338 414
#     4  11  23  40  64  92 136 182 231 269 330 407
#     4  10  24  45  73 104 132 173 229 292 349 407
#     4  11  26  45  73 104 132 175 235 287 345 411
#     4  12  25  40  67  91 137 181 228 272 343 402
#     4  11  23  41  71  96 134 169 222 284 346 402
#
# _framework density 24.573219000000002
#
# number of rings (size 3 to 8) (size 9 to 14) (size 15 to 20)
#    0.000    1.250    1.250    4.125   14.000    0.000 
#    0.000    6.250    0.000    0.000    0.000    0.000 
#    0.000    0.000    0.000    0.000    0.000    0.000 
#
# Total GULP energy -89456.214678 kJ/mol
# GULP energy per Si atom -5591.013417 kJ/mol
# Density = 2.451729 g / cm^3
# Si number density = 24.573219 Si / 1000 Ang^3
#
#
#
# Elastic Constant Matrix: (Units=GPa)
#
#
# Indices 1 2 3 4 5 6 
#
# 1 93.1423 23.5651 12.6880 -0.7347 15.5204 -7.7851
# 2 23.5651 126.9304 22.2335 -12.9082 18.0452 -0.3961
# 3 12.6880 22.2335 89.7232 -6.1057 25.1857 5.3617
# 4 -0.7347 -12.9082 -6.1057 34.2697 -2.4912 7.6741
# 5 15.5204 18.0452 25.1857 -2.4912 32.4004 0.7064
# 6 -7.7851 -0.3961 5.3617 7.6741 0.7064 38.4095
#
#
#
# Elastic Compliance Matrix: (Units=1/GPa)
#
#
# Indices 1 2 3 4 5 6 
#
# 1 0.012238 -0.001668 -0.000193 -0.001401 -0.004953 0.002861
# 2 -0.001668 0.009134 -0.000817 0.003169 -0.003394 -0.000700
# 3 -0.000193 -0.000817 0.014632 0.002039 -0.010619 -0.002302
# 4 -0.001401 0.003169 0.002039 0.032267 -0.000045 -0.006982
# 5 -0.004953 -0.003394 -0.010619 -0.000045 0.043386 -0.000345
# 6 0.002861 -0.000700 -0.002302 -0.006982 -0.000345 0.028331
#
#
# Mechanical properties :
#
#
# Convention : Reuss Voigt Hill
#
# Bulk Modulus (GPa) = 32.62870 47.41881 40.02375
# Shear Modulus (GPa) = 32.14195 37.76986 34.95590
#
# Velocity S-wave (km/s) = 3.62056 3.92475 3.77572
# Velocity P-wave (km/s) = 5.54842 6.31483 5.94399
#
# Compressibility (1/GPa) = 0.03064787
#
# Stress axis : x y z
#
# Youngs Moduli (GPa) = 81.71294 109.48503 68.34102
#
# Poissons Ratio (x) = 0.18257 0.01321
# Poissons Ratio (y) = 0.13626 0.05586
# Poissons Ratio (z) = 0.01579 0.08949
#
# Static dielectric constant tensor:
#      x y z
#    x 1.965630 0.029210 -0.025200 
#    y 0.029210 2.011930 0.002660 
#    z -0.025200 0.002660 2.048440 
# 
# From -- ./inp_files/507151.got.cif
#   From: 2010.05.17/outbox.cif.g08.bks.cpg/sg2_254_cif.got.tgz:507151.got - 2010.06.03 11:33:40.
