data_PCOD9024867
_publ_section_title
;
Structure prediction by ZEFSAII (Michael W. Deem and Ramdas Pophale) SiO2 
 PCOD9024867
Probable space group: P -1
;
_chemical_formula_sum "Si O2"
_cell_formula_units_Z 13
_cell_length_a 20.560891
_cell_length_b 8.312483
_cell_length_c 11.612228
_cell_angle_alpha 31.894824
_cell_angle_beta 31.073788
_cell_angle_gamma 44.605423
_cell_volume 540.393581
_symmetry_space_group_name_H-M "P -1"
_symmetry_group_IT_number 2
_symmetry_cell_setting 'triclinic'
loop_
_space_group_symop_operation_xyz
x,y,z
-x,-y,-z
loop_
_atom_site_type_symbol
_atom_site_label
_atom_site_fract_x
_atom_site_fract_y
_atom_site_fract_z
Si Si1 0.000000 0.000000 0.500000
Si Si2 0.447163 0.325984 0.907497
Si Si3 0.902797 0.105670 0.825310
Si Si4 0.900799 0.334228 0.115131
Si Si5 0.362899 0.349927 0.272225
Si Si6 0.745153 0.322144 0.124524
Si Si7 0.282018 0.459695 0.558289
O O1 0.032994 0.814806 0.441390
O O2 0.032132 0.327907 0.186540
O O3 0.358734 0.428665 0.876833
O O4 0.575380 0.528164 0.618114
O O5 0.360146 0.345641 0.141531
O O6 0.500000 0.000000 0.000000
O O7 0.998624 0.917696 0.870821
O O8 0.782426 0.873678 0.120422
O O9 0.844519 0.347120 0.853140
O O10 0.820340 0.317410 0.131430
O O11 0.799653 0.308974 0.388095
O O12 0.278298 0.523466 0.387491
O O13 0.336248 0.000371 0.562490
O O14 0.500000 0.500000 0.000000
#
# Coordination Sequence:
#
# PCOD9024867 Si02
#       7
#     1   2   2   2   2   2   2
#     4  10  22  40  66  94 124 170 218 258 314 376
#     4  11  24  41  65  96 128 168 215 265 325 386
#     4  10  23  42  64  93 127 168 216 265 316 375
#     4  11  23  41  65  93 132 171 211 262 316 381
#     4   9  21  41  65  92 125 166 209 259 320 384
#     4  11  25  42  64  96 132 169 211 267 325 381
#     4   9  20  40  64  89 123 163 207 261 316 370
#
# _framework density 24.056539999999998
#
# number of rings (size 3 to 8) (size 9 to 14) (size 15 to 20)
#    0.000    1.846    0.000    3.231    0.000   16.000 
#    0.000   13.846    0.000    0.000    0.000    0.000 
#    0.000    0.000    0.000    0.000    0.000    0.000 
#
# Total GULP energy -72380.336095 kJ/mol
# GULP energy per Si atom -5567.718161 kJ/mol
# Density = 2.400179 g / cm^3
# Si number density = 24.056540 Si / 1000 Ang^3
#
#
#
# Elastic Constant Matrix: (Units=GPa)
#
#
# Indices 1 2 3 4 5 6 
#
# 1 126.0924 73.0628 32.1509 16.0727 9.6762 0.7529
# 2 73.0628 124.0895 28.4382 23.6739 2.5794 -12.2719
# 3 32.1509 28.4382 79.1622 20.0460 8.2484 -2.7562
# 4 16.0727 23.6739 20.0460 30.8627 15.1117 9.1815
# 5 9.6762 2.5794 8.2484 15.1117 18.1773 3.1559
# 6 0.7529 -12.2719 -2.7562 9.1815 3.1559 42.2672
#
#
#
# Elastic Compliance Matrix: (Units=1/GPa)
#
#
# Indices 1 2 3 4 5 6 
#
# 1 0.013983 -0.009309 -0.003582 0.008937 -0.011182 -0.004292
# 2 -0.009309 0.017693 0.001103 -0.020585 0.017575 0.008534
# 3 -0.003582 0.001103 0.016711 -0.013207 0.004451 0.004010
# 4 0.008937 -0.020585 -0.013207 0.092314 -0.068784 -0.021914
# 5 -0.011182 0.017575 0.004451 -0.068784 0.111516 0.012208
# 6 -0.004292 0.008534 0.004010 -0.021914 0.012208 0.030324
#
#
# Mechanical properties :
#
#
# Convention : Reuss Voigt Hill
#
# Bulk Modulus (GPa) = 40.30555 66.29421 53.29988
# Shear Modulus (GPa) = 15.90400 31.30760 23.60580
#
# Velocity S-wave (km/s) = 2.57399 3.61143 3.13591
# Velocity P-wave (km/s) = 5.06210 6.70876 5.94274
#
# Compressibility (1/GPa) = 0.02481048
#
# Stress axis : x y z
#
# Youngs Moduli (GPa) = 71.51796 56.52064 59.84019
#
# Poissons Ratio (x) = 0.52615 0.21436
# Poissons Ratio (y) = 0.66575 -0.06602
# Poissons Ratio (z) = 0.25619 -0.06235
#
# Static dielectric constant tensor:
#      x y z
#    x 1.762260 0.181790 0.064090 
#    y 0.181790 1.844910 -0.015900 
#    z 0.064090 -0.015900 1.916490 
# 
# From -- ./inp_files/23990.got.cif
#   From: 2010.05.17/outbox.cif.g08.bks.cpg/sg2_12_cif.got.tgz:23990.got - 2010.06.03 11:33:40.
