data_PCOD9024923
_publ_section_title
;
Structure prediction by ZEFSAII (Michael W. Deem and Ramdas Pophale) SiO2 
 PCOD9024923
Probable space group: P -1
;
_chemical_formula_sum "Si O2"
_cell_formula_units_Z 16
_cell_length_a 6.428066
_cell_length_b 7.545538
_cell_length_c 16.612436
_cell_angle_alpha 97.536484
_cell_angle_beta 71.393423
_cell_angle_gamma 67.574361
_cell_volume 675.844079
_symmetry_space_group_name_H-M "P -1"
_symmetry_group_IT_number 2
_symmetry_cell_setting 'triclinic'
loop_
_space_group_symop_operation_xyz
x,y,z
-x,-y,-z
loop_
_atom_site_type_symbol
_atom_site_label
_atom_site_fract_x
_atom_site_fract_y
_atom_site_fract_z
Si Si1 0.131949 0.459171 0.854780
Si Si2 0.583524 0.769990 0.903319
Si Si3 0.774037 0.970502 0.558415
Si Si4 0.115154 0.399313 0.394661
Si Si5 0.747070 0.764286 0.388047
Si Si6 0.041257 0.104960 0.770509
Si Si7 0.582691 0.339965 0.248281
Si Si8 0.476143 0.788206 0.087259
O O1 0.105100 0.264674 0.818724
O O2 0.299315 0.514632 0.777843
O O3 0.282065 0.390778 0.915593
O O4 0.864484 0.649347 0.892550
O O5 0.541608 0.678687 0.821307
O O6 0.507242 0.002022 0.908024
O O7 0.431748 0.751029 0.997389
O O8 0.835807 0.829577 0.620156
O O9 0.716974 0.848346 0.487466
O O10 0.521618 0.168368 0.610467
O O11 0.000000 0.000000 0.500000
O O12 0.368522 0.407304 0.345080
O O13 0.000000 0.500000 0.500000
O O14 0.920426 0.529444 0.359574
O O15 0.886040 0.867833 0.327475
O O16 0.757076 0.170434 0.826149
O O17 0.208123 0.880074 0.766477
#
# Coordination Sequence:
#
# PCOD9024923 Si02
#       8
#     2   2   2   2   2   2   2   2
#     4  12  25  45  73 100 136 189 231 282 352 407
#     4  11  25  45  71 104 138 185 235 282 352 407
#     4  10  22  40  66  96 127 171 220 277 339 407
#     4  10  22  43  67  94 132 171 220 278 336 404
#     4  10  22  42  63  92 133 170 218 279 337 399
#     4  12  25  45  71 102 142 186 231 286 346 411
#     4  12  25  47  71 101 142 182 233 289 343 420
#     4  11  25  45  71 104 140 182 234 290 340 418
#
# _framework density 23.674099999999999
#
# number of rings (size 3 to 8) (size 9 to 14) (size 15 to 20)
#    0.000    1.000    3.750    2.625    0.000    8.000 
#    2.250    0.000    0.000    0.000    0.000    0.000 
#    0.000    0.000    0.000    0.000    0.000    0.000 
#
# Total GULP energy -89508.936146 kJ/mol
# GULP energy per Si atom -5594.308509 kJ/mol
# Density = 2.362022 g / cm^3
# Si number density = 23.674100 Si / 1000 Ang^3
#
#
#
# Elastic Constant Matrix: (Units=GPa)
#
#
# Indices 1 2 3 4 5 6 
#
# 1 46.2516 50.7252 3.8268 -3.7152 -11.0676 -18.0888
# 2 50.7252 169.2613 20.9194 -28.4316 -18.3409 -40.1172
# 3 3.8268 20.9194 78.3712 -1.8569 -5.9054 -16.3185
# 4 -3.7152 -28.4316 -1.8569 33.9567 -1.9404 -2.7810
# 5 -11.0676 -18.3409 -5.9054 -1.9404 40.2620 7.8972
# 6 -18.0888 -40.1172 -16.3185 -2.7810 7.8972 43.7026
#
#
#
# Elastic Compliance Matrix: (Units=1/GPa)
#
#
# Indices 1 2 3 4 5 6 
#
# 1 0.034750 -0.009462 0.002230 -0.003298 0.004324 0.005539
# 2 -0.009462 0.012580 -0.000927 0.010181 0.001999 0.007571
# 3 0.002230 -0.000927 0.014084 0.000732 0.001282 0.005145
# 4 -0.003298 0.010181 0.000732 0.038689 0.003734 0.010042
# 5 0.004324 0.001999 0.001282 0.003734 0.027425 -0.000615
# 6 0.005539 0.007571 0.005145 0.010042 -0.000615 0.034796
#
#
# Mechanical properties :
#
#
# Convention : Reuss Voigt Hill
#
# Bulk Modulus (GPa) = 22.17622 49.42520 35.80071
# Shear Modulus (GPa) = 25.81652 38.14511 31.98082
#
# Velocity S-wave (km/s) = 3.30585 4.01840 3.67942
# Velocity P-wave (km/s) = 4.89481 6.51558 5.76246
#
# Compressibility (1/GPa) = 0.04509335
#
# Stress axis : x y z
#
# Youngs Moduli (GPa) = 28.77713 79.49301 71.00353
#
# Poissons Ratio (x) = 0.75220 -0.15833
# Poissons Ratio (y) = 0.27230 0.06585
# Poissons Ratio (z) = -0.06417 0.07372
#
# Static dielectric constant tensor:
#      x y z
#    x 1.900260 0.009190 0.050870 
#    y 0.009190 2.001960 0.052850 
#    z 0.050870 0.052850 1.911980 
# 
# From -- ./inp_files/505089.got.cif
#   From: 2010.05.17/outbox.cif.g08.bks.cpg/sg2_253_cif.got.tgz:505089.got - 2010.06.03 11:33:40.
