data_PCOD9024317
_publ_section_title
;
Structure prediction by ZEFSAII (Michael W. Deem and Ramdas Pophale) SiO2 
 PCOD9024317
Probable space group: P -1
;
_chemical_formula_sum "Si O2"
_cell_formula_units_Z 16
_cell_length_a 16.764026
_cell_length_b 6.616924
_cell_length_c 10.307905
_cell_angle_alpha 118.570897
_cell_angle_beta 133.000152
_cell_angle_gamma 57.945771
_cell_volume 696.167085
_symmetry_space_group_name_H-M "P -1"
_symmetry_group_IT_number 2
_symmetry_cell_setting 'triclinic'
loop_
_space_group_symop_operation_xyz
x,y,z
-x,-y,-z
loop_
_atom_site_type_symbol
_atom_site_label
_atom_site_fract_x
_atom_site_fract_y
_atom_site_fract_z
Si Si1 0.782943 0.810207 0.526880
Si Si2 0.231780 0.639084 0.275021
Si Si3 0.835777 0.060309 0.235574
Si Si4 0.921198 0.340433 0.644500
Si Si5 0.630489 0.827277 0.587060
Si Si6 0.323448 0.065592 0.808138
Si Si7 0.486711 0.394753 0.094567
Si Si8 0.722550 0.239910 0.907145
O O1 0.896324 0.611872 0.645582
O O2 0.676774 0.760105 0.470404
O O3 0.774498 0.802655 0.361543
O O4 0.764790 0.090634 0.616309
O O5 0.131945 0.628540 0.260339
O O6 0.341595 0.417401 0.374207
O O7 0.225254 0.639330 0.112277
O O8 0.733873 0.952584 0.124822
O O9 0.950480 0.840187 0.268148
O O10 0.856558 0.213627 0.429859
O O11 0.794389 0.221344 0.112183
O O12 0.500000 0.000000 0.500000
O O13 0.713499 0.975921 0.778990
O O14 0.394666 0.783449 0.771228
O O15 0.409397 0.218602 0.943288
O O16 0.410232 0.604898 0.165776
O O17 0.500000 0.500000 0.000000
#
# Coordination Sequence:
#
# PCOD9024317 Si02
#       8
#     2   2   2   2   2   2   2   2
#     4  10  22  40  64  92 127 174 221 270 328 392
#     4  10  23  45  64  95 133 174 221 275 330 391
#     4  11  23  44  70  99 135 172 225 284 328 395
#     4  10  23  46  68  98 132 175 227 278 334 390
#     4  10  25  39  66  93 131 176 225 273 323 402
#     4  11  24  39  66  97 132 171 213 275 329 398
#     4  11  25  40  62  98 137 171 212 267 340 398
#     4  11  25  41  65 100 133 175 221 272 334 398
#
# _framework density 22.982987000000001
#
# number of rings (size 3 to 8) (size 9 to 14) (size 15 to 20)
#    0.000    1.500    2.500    0.750    7.000    2.000 
#    2.250    5.625    0.000    0.000    0.000    0.000 
#    0.000    0.000    0.000    0.000    0.000    0.000 
#
# Total GULP energy -89344.334727 kJ/mol
# GULP energy per Si atom -5584.020920 kJ/mol
# Density = 2.293068 g / cm^3
# Si number density = 22.982987 Si / 1000 Ang^3
#
#
#
# Elastic Constant Matrix: (Units=GPa)
#
#
# Indices 1 2 3 4 5 6 
#
# 1 80.5313 65.4025 18.4966 -20.2218 -28.1752 -5.9229
# 2 65.4025 170.4080 29.2424 -13.6590 -2.4006 5.2018
# 3 18.4966 29.2424 31.9770 -7.4544 -11.0846 5.5326
# 4 -20.2218 -13.6590 -7.4544 31.7748 4.3929 -2.0121
# 5 -28.1752 -2.4006 -11.0846 4.3929 27.4919 -11.1106
# 6 -5.9229 5.2018 5.5326 -2.0121 -11.1106 43.9407
#
#
#
# Elastic Compliance Matrix: (Units=1/GPa)
#
#
# Indices 1 2 3 4 5 6 
#
# 1 0.068482 -0.026336 0.013445 0.026101 0.082339 0.032671
# 2 -0.026336 0.017320 -0.012172 -0.008250 -0.034377 -0.013138
# 3 0.013445 -0.012172 0.047273 0.010294 0.032559 0.006005
# 4 0.026101 -0.008250 0.010294 0.043839 0.028156 0.012326
# 5 0.082339 -0.034377 0.032559 0.028156 0.146335 0.049360
# 6 0.032671 -0.013138 0.006005 0.012326 0.049360 0.041006
#
#
# Mechanical properties :
#
#
# Convention : Reuss Voigt Hill
#
# Bulk Modulus (GPa) = 12.05536 56.57770 34.31653
# Shear Modulus (GPa) = 11.31140 31.95979 21.63559
#
# Velocity S-wave (km/s) = 2.22088 3.73310 3.07151
# Velocity P-wave (km/s) = 3.43994 6.57663 5.24810
#
# Compressibility (1/GPa) = 0.08295064
#
# Stress axis : x y z
#
# Youngs Moduli (GPa) = 14.60227 57.73577 21.15357
#
# Poissons Ratio (x) = 1.52053 -0.28442
# Poissons Ratio (y) = 0.38457 0.25748
# Poissons Ratio (z) = -0.19633 0.70277
#
# Static dielectric constant tensor:
#      x y z
#    x 1.892940 0.002050 -0.033740 
#    y 0.002050 1.859100 0.055650 
#    z -0.033740 0.055650 1.938450 
# 
# From -- ./inp_files/459324.got.cif
#   From: 2010.05.17/outbox.cif.g08.bks.cpg/sg2_230_cif.got.tgz:459324.got - 2010.06.03 11:33:40.
