data_PCOD9024608
_publ_section_title
;
Structure prediction by ZEFSAII (Michael W. Deem and Ramdas Pophale) SiO2 
 PCOD9024608
Probable space group: P -1
;
_chemical_formula_sum "Si O2"
_cell_formula_units_Z 15
_cell_length_a 10.380824
_cell_length_b 5.443855
_cell_length_c 19.399132
_cell_angle_alpha 90.875524
_cell_angle_beta 33.565937
_cell_angle_gamma 98.935721
_cell_volume 585.549785
_symmetry_space_group_name_H-M "P -1"
_symmetry_group_IT_number 2
_symmetry_cell_setting 'triclinic'
loop_
_space_group_symop_operation_xyz
x,y,z
-x,-y,-z
loop_
_atom_site_type_symbol
_atom_site_label
_atom_site_fract_x
_atom_site_fract_y
_atom_site_fract_z
Si Si1 0.000000 0.500000 0.500000
Si Si2 0.344254 0.156410 0.530811
Si Si3 0.198370 0.413527 0.713761
Si Si4 0.417811 0.975716 0.956874
Si Si5 0.675181 0.897518 0.611365
Si Si6 0.342586 0.708949 0.268089
Si Si7 0.260127 0.432526 0.058822
Si Si8 0.759900 0.511032 0.148355
O O1 0.198008 0.326143 0.430571
O O2 0.097446 0.494416 0.372727
O O3 0.159014 0.203977 0.670564
O O4 0.534409 0.413925 0.419706
O O5 0.263257 0.028181 0.494017
O O6 0.500000 0.000000 0.500000
O O7 0.193024 0.348095 0.797241
O O8 0.990461 0.558816 0.795907
O O9 0.615050 0.103231 0.813601
O O10 0.238690 0.158997 0.034890
O O11 0.500000 0.000000 0.000000
O O12 0.319433 0.679979 0.984201
O O13 0.399329 0.770806 0.758392
O O14 0.745350 0.166072 0.622763
O O15 0.584897 0.634362 0.180823
O O16 0.500000 0.500000 0.000000
O O17 0.000000 0.500000 0.000000
#
# Coordination Sequence:
#
# PCOD9024608 Si02
#       8
#     1   2   2   2   2   2   2   2
#     4  10  24  44  66  92 132 172 236 278 350 408
#     4  10  22  42  64  95 133 174 231 282 347 408
#     4  10  22  40  66  95 132 179 223 286 340 412
#     4  10  24  43  66  99 139 181 223 284 349 424
#     4  10  23  42  64  98 126 176 225 281 345 415
#     4  11  23  42  69  94 135 175 231 288 347 421
#     4  10  23  44  66 100 138 175 229 280 354 415
#     4  10  22  40  65  94 133 171 224 279 348 412
#
# _framework density 25.616952000000001
#
# number of rings (size 3 to 8) (size 9 to 14) (size 15 to 20)
#    0.000    1.867    0.000    2.000    7.467    3.733 
#    4.800    0.000    0.000    0.000    0.000    0.000 
#    0.000    0.000    0.000    0.000    0.000    0.000 
#
# Total GULP energy -83527.167200 kJ/mol
# GULP energy per Si atom -5568.477813 kJ/mol
# Density = 2.555865 g / cm^3
# Si number density = 25.616952 Si / 1000 Ang^3
#
#
#
# Elastic Constant Matrix: (Units=GPa)
#
#
# Indices 1 2 3 4 5 6 
#
# 1 70.7364 43.1131 62.1247 9.9739 23.3394 12.0343
# 2 43.1131 131.6341 51.0691 10.7113 11.1494 -13.2391
# 3 62.1247 51.0691 191.8502 13.5215 18.3791 -4.4693
# 4 9.9739 10.7113 13.5215 46.3427 -1.1036 -3.9234
# 5 23.3394 11.1494 18.3791 -1.1036 51.4427 -1.3991
# 6 12.0343 -13.2391 -4.4693 -3.9234 -1.3991 28.9726
#
#
#
# Elastic Compliance Matrix: (Units=1/GPa)
#
#
# Indices 1 2 3 4 5 6 
#
# 1 0.034643 -0.009014 -0.007829 -0.005141 -0.011648 -0.020975
# 2 -0.009014 0.011310 -0.000076 0.000157 0.001914 0.009014
# 3 -0.007829 -0.000076 0.007798 -0.000175 0.000900 0.004440
# 4 -0.005141 0.000157 -0.000175 0.023235 0.003008 0.005472
# 5 -0.011648 0.001914 0.000900 0.003008 0.024254 0.007430
# 6 -0.020975 0.009014 0.004440 0.005472 0.007430 0.049131
#
#
# Mechanical properties :
#
#
# Convention : Reuss Voigt Hill
#
# Bulk Modulus (GPa) = 50.21920 78.53718 64.37819
# Shear Modulus (GPa) = 26.19901 41.21251 33.70576
#
# Velocity S-wave (km/s) = 3.20147 4.01533 3.63128
# Velocity P-wave (km/s) = 5.77168 7.22648 6.53966
#
# Compressibility (1/GPa) = 0.01991270
#
# Stress axis : x y z
#
# Youngs Moduli (GPa) = 28.86572 88.41467 128.24556
#
# Poissons Ratio (x) = 0.79694 1.00406
# Poissons Ratio (y) = 0.26018 0.00979
# Poissons Ratio (z) = 0.22600 0.00675
#
# Static dielectric constant tensor:
#      x y z
#    x 2.080030 0.169550 -0.083020 
#    y 0.169550 2.682910 -0.553530 
#    z -0.083020 -0.553530 2.517190 
# 
# From -- ./inp_files/66783.got.cif
#   From: 2010.05.17/outbox.cif.g08.bks.cpg/sg2_34_cif.got.tgz:66783.got - 2010.06.03 11:33:40.
