data_PCOD9024528
_publ_section_title
;
Structure prediction by ZEFSAII (Michael W. Deem and Ramdas Pophale) SiO2 
 PCOD9024528
Probable space group: P -1
;
_chemical_formula_sum "Si O2"
_cell_formula_units_Z 14
_cell_length_a 20.020000
_cell_length_b 5.105472
_cell_length_c 5.510018
_cell_angle_alpha 86.987220
_cell_angle_beta 92.150027
_cell_angle_gamma 68.578557
_cell_volume 522.582251
_symmetry_space_group_name_H-M "P -1"
_symmetry_group_IT_number 2
_symmetry_cell_setting 'triclinic'
loop_
_space_group_symop_operation_xyz
x,y,z
-x,-y,-z
loop_
_atom_site_type_symbol
_atom_site_label
_atom_site_fract_x
_atom_site_fract_y
_atom_site_fract_z
Si Si1 0.217162 0.185346 0.635019
Si Si2 0.183128 0.830004 0.021243
Si Si3 0.287476 0.585201 0.426541
Si Si4 0.447927 0.822998 0.992955
Si Si5 0.052767 0.733288 0.869328
Si Si6 0.415987 0.047060 0.477512
Si Si7 0.081839 0.268340 0.315699
O O1 0.252727 0.415484 0.605297
O O2 0.135066 0.312233 0.518045
O O3 0.211581 0.057792 0.900648
O O4 0.263308 0.906940 0.496471
O O5 0.127140 0.776423 0.830997
O O6 0.250705 0.588358 0.159151
O O7 0.130717 0.961000 0.234886
O O8 0.369768 0.378798 0.443295
O O9 0.595452 0.098927 0.764869
O O10 0.402690 0.915042 0.735262
O O11 0.500000 0.500000 0.000000
O O12 0.500000 0.000000 0.000000
O O13 0.999104 0.716375 0.648956
O O14 0.072562 0.473153 0.072453
O O15 0.000000 0.000000 0.000000
O O16 0.500000 0.000000 0.500000
#
# Coordination Sequence:
#
# PCOD9024528 Si02
#       7
#     2   2   2   2   2   2   2
#     4  11  25  42  67  95 134 176 228 272 348 418
#     4  10  22  40  65  88 134 175 220 278 343 411
#     4  11  26  44  65  99 134 175 228 283 345 417
#     4  10  22  42  71 103 140 179 226 286 355 418
#     4   9  17  35  63  88 128 168 217 283 333 396
#     4  10  24  47  74 105 144 186 238 299 357 426
#     4   9  19  38  59  93 128 168 222 280 331 405
#
# _framework density 26.790044999999999
#
# number of rings (size 3 to 8) (size 9 to 14) (size 15 to 20)
#    0.000    2.000    1.429    0.429    4.000    5.143 
#    2.571    6.429    0.000    0.000    0.000    0.000 
#    0.000    0.000    0.000    0.000    0.000    0.000 
#
# Total GULP energy -78364.866518 kJ/mol
# GULP energy per Si atom -5597.490466 kJ/mol
# Density = 2.672907 g / cm^3
# Si number density = 26.790045 Si / 1000 Ang^3
#
#
#
# Elastic Constant Matrix: (Units=GPa)
#
#
# Indices 1 2 3 4 5 6 
#
# 1 118.4533 27.3037 15.6855 -12.9095 11.6207 -26.3302
# 2 27.3037 129.2539 27.8990 2.1305 8.0730 -23.6398
# 3 15.6855 27.8990 141.2613 -3.8721 5.5461 -9.9545
# 4 -12.9095 2.1305 -3.8721 49.5137 0.5272 3.4025
# 5 11.6207 8.0730 5.5461 0.5272 34.4347 -11.7781
# 6 -26.3302 -23.6398 -9.9545 3.4025 -11.7781 58.1052
#
#
#
# Elastic Compliance Matrix: (Units=1/GPa)
#
#
# Indices 1 2 3 4 5 6 
#
# 1 0.010010 -0.001314 -0.000473 0.002416 -0.001868 0.003400
# 2 -0.001314 0.008867 -0.001423 -0.001018 -0.000455 0.002736
# 3 -0.000473 -0.001423 0.007474 0.000506 -0.000604 0.000335
# 4 0.002416 -0.001018 0.000506 0.020971 -0.001221 -0.000709
# 5 -0.001868 -0.000455 -0.000604 -0.001221 0.031730 0.005368
# 6 0.003400 0.002736 0.000335 -0.000709 0.005368 0.021051
#
#
# Mechanical properties :
#
#
# Convention : Reuss Voigt Hill
#
# Bulk Modulus (GPa) = 50.16992 58.97164 54.57078
# Shear Modulus (GPa) = 44.18326 49.61607 46.89967
#
# Velocity S-wave (km/s) = 4.06549 4.30819 4.18860
# Velocity P-wave (km/s) = 6.38791 6.84162 6.61865
#
# Compressibility (1/GPa) = 0.01993226
#
# Stress axis : x y z
#
# Youngs Moduli (GPa) = 99.90079 112.77965 133.80169
#
# Poissons Ratio (x) = 0.14816 0.06327
# Poissons Ratio (y) = 0.13124 0.19035
# Poissons Ratio (z) = 0.04724 0.16044
#
# Static dielectric constant tensor:
#      x y z
#    x 2.114860 0.046230 0.017020 
#    y 0.046230 2.113240 0.104740 
#    z 0.017020 0.104740 2.158660 
# 
# From -- ./inp_files/13761.got.cif
#   From: 2010.05.17/outbox.cif.g08.bks.cpg/sg2_7_cif.got.tgz:13761.got - 2010.06.03 11:33:40.
