data_PCOD9024298
_publ_section_title
;
Structure prediction by ZEFSAII (Michael W. Deem and Ramdas Pophale) SiO2 
 PCOD9024298
Probable space group: P -1
;
_chemical_formula_sum "Si O2"
_cell_formula_units_Z 16
_cell_length_a 5.204581
_cell_length_b 13.485441
_cell_length_c 13.371561
_cell_angle_alpha 121.868790
_cell_angle_beta 110.940310
_cell_angle_gamma 67.175034
_cell_volume 720.523528
_symmetry_space_group_name_H-M "P -1"
_symmetry_group_IT_number 2
_symmetry_cell_setting 'triclinic'
loop_
_space_group_symop_operation_xyz
x,y,z
-x,-y,-z
loop_
_atom_site_type_symbol
_atom_site_label
_atom_site_fract_x
_atom_site_fract_y
_atom_site_fract_z
Si Si1 0.559595 0.240801 0.308395
Si Si2 0.972463 0.009527 0.278314
Si Si3 0.272083 0.324095 0.495998
Si Si4 0.229799 0.586026 0.691049
Si Si5 0.708109 0.871022 0.938270
Si Si6 0.586945 0.853543 0.215956
Si Si7 0.225693 0.113433 0.528826
Si Si8 0.661609 0.251771 0.038028
O O1 0.548213 0.273729 0.439954
O O2 0.537738 0.363806 0.311472
O O3 0.325408 0.173928 0.202983
O O4 0.837405 0.132925 0.266538
O O5 0.765611 0.920099 0.203506
O O6 0.286019 0.945181 0.251178
O O7 0.986891 0.052607 0.418628
O O8 0.281888 0.443207 0.621219
O O9 0.238327 0.218089 0.507004
O O10 0.036838 0.364743 0.396018
O O11 0.237953 0.642040 0.832846
O O12 0.563592 0.785493 0.939473
O O13 0.043043 0.851610 0.989543
O O14 0.500000 0.000000 0.000000
O O15 0.769392 0.830130 0.330655
O O16 0.498754 0.743573 0.088355
O O17 0.500000 0.000000 0.500000
#
# Coordination Sequence:
#
# PCOD9024298 Si02
#       8
#     2   2   2   2   2   2   2   2
#     4  11  20  35  60  90 124 158 204 256 312 364
#     4  11  22  38  63  92 125 162 202 255 308 365
#     4  11  21  42  61  89 120 164 208 259 309 359
#     4  10  23  38  62  88 123 162 209 255 307 367
#     4  11  22  34  57  87 125 164 199 242 308 370
#     4  11  23  39  61  90 128 165 203 249 308 367
#     4  10  22  40  64  91 122 160 206 258 305 363
#     4  11  22  40  56  88 123 164 202 250 301 368
#
# _framework density 22.206074999999998
#
# number of rings (size 3 to 8) (size 9 to 14) (size 15 to 20)
#    0.000    1.250    2.500    4.875    0.000    2.000 
#    0.000    0.625    0.000    0.000    0.000    7.875 
#    0.000    0.000    0.000    0.125    0.000    0.000 
#
# Total GULP energy -89167.965765 kJ/mol
# GULP energy per Si atom -5572.997860 kJ/mol
# Density = 2.215553 g / cm^3
# Si number density = 22.206075 Si / 1000 Ang^3
#
#
#
# Elastic Constant Matrix: (Units=GPa)
#
#
# Indices 1 2 3 4 5 6 
#
# 1 78.3312 12.4671 6.9373 3.8227 -1.2922 0.4436
# 2 12.4671 58.1611 32.9931 13.0477 2.9589 6.9437
# 3 6.9373 32.9931 189.3463 14.0724 13.2302 0.1594
# 4 3.8227 13.0477 14.0724 28.1709 -1.3037 2.4517
# 5 -1.2922 2.9589 13.2302 -1.3037 30.9171 -2.4188
# 6 0.4436 6.9437 0.1594 2.4517 -2.4188 18.0870
#
#
#
# Elastic Compliance Matrix: (Units=1/GPa)
#
#
# Indices 1 2 3 4 5 6 
#
# 1 0.013260 -0.002886 -0.000009 -0.000502 0.000889 0.000970
# 2 -0.002886 0.022317 -0.003063 -0.007835 -0.001875 -0.007659
# 3 -0.000009 -0.003063 0.006113 -0.001833 -0.002317 0.001061
# 4 -0.000502 -0.007835 -0.001833 0.040429 0.003059 -0.002035
# 5 0.000889 -0.001875 -0.002317 0.003059 0.034062 0.004859
# 6 0.000970 -0.007659 0.001061 -0.002035 0.004859 0.059121
#
#
# Mechanical properties :
#
#
# Convention : Reuss Voigt Hill
#
# Bulk Modulus (GPa) = 33.58569 47.84817 40.71693
# Shear Modulus (GPa) = 25.36241 33.66440 29.51341
#
# Velocity S-wave (km/s) = 3.38322 3.89781 3.64960
# Velocity P-wave (km/s) = 5.51534 6.46926 6.01125
#
# Compressibility (1/GPa) = 0.02977459
#
# Stress axis : x y z
#
# Youngs Moduli (GPa) = 75.41454 44.80824 163.59475
#
# Poissons Ratio (x) = 0.12931 0.00141
# Poissons Ratio (y) = 0.21764 0.50113
# Poissons Ratio (z) = 0.00065 0.13726
#
# Static dielectric constant tensor:
#      x y z
#    x 1.905290 -0.040300 0.012040 
#    y -0.040300 1.808200 -0.066540 
#    z 0.012040 -0.066540 1.949960 
# 
# From -- ./inp_files/484401.got.cif
#   From: 2010.05.17/outbox.cif.g08.bks.cpg/sg2_243_cif.got.tgz:484401.got - 2010.06.03 11:33:40.
