data_PCOD9024435
_publ_section_title
;
Structure prediction by ZEFSAII (Michael W. Deem and Ramdas Pophale) SiO2 
 PCOD9024435
Probable space group: P -1
;
_chemical_formula_sum "Si O2"
_cell_formula_units_Z 14
_cell_length_a 16.685825
_cell_length_b 7.954091
_cell_length_c 5.131555
_cell_angle_alpha 66.405347
_cell_angle_beta 59.920019
_cell_angle_gamma 63.535292
_cell_volume 513.643170
_symmetry_space_group_name_H-M "P -1"
_symmetry_group_IT_number 2
_symmetry_cell_setting 'triclinic'
loop_
_space_group_symop_operation_xyz
x,y,z
-x,-y,-z
loop_
_atom_site_type_symbol
_atom_site_label
_atom_site_fract_x
_atom_site_fract_y
_atom_site_fract_z
Si Si1 0.745545 0.849369 0.030947
Si Si2 0.902450 0.178164 0.235398
Si Si3 0.457885 0.135032 0.735032
Si Si4 0.160080 0.483092 0.265236
Si Si5 0.307477 0.741356 0.346371
Si Si6 0.903532 0.810396 0.161763
Si Si7 0.370100 0.510439 0.904170
O O1 0.829397 0.673376 0.885281
O O2 0.701715 0.035728 0.807795
O O3 0.652265 0.781243 0.255347
O O4 0.797159 0.909982 0.151994
O O5 0.804611 0.261549 0.510557
O O6 0.910681 0.959777 0.283635
O O7 0.884400 0.309131 0.919984
O O8 0.004486 0.191507 0.164339
O O9 0.457061 0.338252 0.746106
O O10 0.500000 0.000000 0.500000
O O11 0.500000 0.000000 0.000000
O O12 0.099307 0.400723 0.620069
O O13 0.274559 0.442955 0.170450
O O14 0.334281 0.665889 0.637654
O O15 0.380443 0.619591 0.084335
#
# Coordination Sequence:
#
# PCOD9024435 Si02
#       7
#     2   2   2   2   2   2   2
#     4  11  25  41  71  98 135 186 231 288 356 419
#     4  10  23  42  64 101 143 190 238 294 334 402
#     4  11  26  47  74 105 137 176 231 291 356 427
#     4  10  22  40  64  96 135 189 236 283 348 410
#     4  11  22  45  66 102 138 187 226 283 340 417
#     4  11  23  43  64  99 143 187 243 290 343 406
#     4  10  24  42  73  97 141 179 226 281 357 409
#
# _framework density 27.256276
#
# number of rings (size 3 to 8) (size 9 to 14) (size 15 to 20)
#    0.000    1.429    1.429    3.000   10.000    1.143 
#    5.143    4.286    0.000    0.000    0.000    0.000 
#    0.000    0.000    0.000    0.000    0.000    0.000 
#
# Total GULP energy -78177.219651 kJ/mol
# GULP energy per Si atom -5584.087118 kJ/mol
# Density = 2.719424 g / cm^3
# Si number density = 27.256276 Si / 1000 Ang^3
#
#
#
# Elastic Constant Matrix: (Units=GPa)
#
#
# Indices 1 2 3 4 5 6 
#
# 1 114.5154 6.0573 28.5356 6.1859 -1.9883 -2.2947
# 2 6.0573 133.4869 49.9593 6.8654 8.8163 -7.8928
# 3 28.5356 49.9593 61.7368 13.3411 22.1975 15.0119
# 4 6.1859 6.8654 13.3411 63.2227 -2.4040 2.2479
# 5 -1.9883 8.8163 22.1975 -2.4040 46.4166 -2.2723
# 6 -2.2947 -7.8928 15.0119 2.2479 -2.2723 23.1065
#
#
#
# Elastic Compliance Matrix: (Units=1/GPa)
#
#
# Indices 1 2 3 4 5 6 
#
# 1 0.014211 0.007848 -0.021830 0.002087 0.010602 0.019114
# 2 0.007848 0.020221 -0.033135 0.003485 0.014003 0.030251
# 3 -0.021830 -0.033135 0.088409 -0.011862 -0.041149 -0.073817
# 4 0.002087 0.003485 -0.011862 0.017696 0.006409 0.008013
# 5 0.010602 0.014003 -0.041149 0.006409 0.041110 0.035989
# 6 0.019114 0.030251 -0.073817 0.008013 0.035989 0.106226
#
#
# Mechanical properties :
#
#
# Convention : Reuss Voigt Hill
#
# Bulk Modulus (GPa) = 34.95554 53.20483 44.08019
# Shear Modulus (GPa) = 12.76669 41.56162 27.16416
#
# Velocity S-wave (km/s) = 2.16659 3.90916 3.16035
# Velocity P-wave (km/s) = 4.37166 6.31965 5.43367
#
# Compressibility (1/GPa) = 0.02860777
#
# Stress axis : x y z
#
# Youngs Moduli (GPa) = 70.36566 49.45369 11.31106
#
# Poissons Ratio (x) = -0.38812 0.24693
# Poissons Ratio (y) = -0.55224 0.37479
# Poissons Ratio (z) = 1.53611 1.63862
#
# Static dielectric constant tensor:
#      x y z
#    x 1.961080 -0.045280 0.118400 
#    y -0.045280 2.091530 0.122140 
#    z 0.118400 0.122140 2.104950 
# 
# From -- ./inp_files/106162.got.cif
#   From: 2010.05.17/outbox.cif.g08.bks.cpg/sg2_54_cif.got.tgz:106162.got - 2010.06.03 11:33:40.
