data_PCOD9024670
_publ_section_title
;
Structure prediction by ZEFSAII (Michael W. Deem and Ramdas Pophale) SiO2 
 PCOD9024670
Probable space group: P -1
;
_chemical_formula_sum "Si O2"
_cell_formula_units_Z 12
_cell_length_a 7.663234
_cell_length_b 18.300673
_cell_length_c 5.266732
_cell_angle_alpha 82.623172
_cell_angle_beta 61.578808
_cell_angle_gamma 49.512351
_cell_volume 475.690956
_symmetry_space_group_name_H-M "P -1"
_symmetry_group_IT_number 2
_symmetry_cell_setting 'triclinic'
loop_
_space_group_symop_operation_xyz
x,y,z
-x,-y,-z
loop_
_atom_site_type_symbol
_atom_site_label
_atom_site_fract_x
_atom_site_fract_y
_atom_site_fract_z
Si Si1 0.161934 0.780988 0.928617
Si Si2 0.781834 0.105714 0.484689
Si Si3 0.591923 0.434833 0.716629
Si Si4 0.636178 0.887004 0.517725
Si Si5 0.881885 0.727883 0.803599
Si Si6 0.563437 0.685528 0.292874
O O1 0.085180 0.882162 0.842736
O O2 0.478410 0.701166 0.646162
O O3 0.057562 0.741326 0.836186
O O4 0.952282 0.819280 0.280579
O O5 0.523743 0.126663 0.554462
O O6 0.670543 0.199775 0.694082
O O7 0.000000 0.000000 0.500000
O O8 0.500000 0.500000 0.500000
O O9 0.467440 0.383852 0.796583
O O10 0.915217 0.350739 0.519945
O O11 0.500000 0.500000 0.000000
O O12 0.644415 0.838100 0.796615
O O13 0.500000 0.000000 0.500000
O O14 0.813175 0.672725 0.043057
#
# Coordination Sequence:
#
# PCOD9024670 Si02
#       6
#     2   2   2   2   2   2
#     4   9  21  43  62  92 146 183 233 290 358 431
#     4  10  22  40  65  96 145 186 235 287 360 440
#     4  11  28  49  79 111 149 193 253 318 387 441
#     4  12  26  37  69 106 144 193 245 296 369 443
#     4  11  24  45  71 103 139 188 244 307 370 447
#     4   9  23  44  73  99 140 189 239 302 371 440
#
# _framework density 25.226461
#
# number of rings (size 3 to 8) (size 9 to 14) (size 15 to 20)
#    1.000    0.667    1.667    1.000    7.000    7.333 
#    0.000    0.000    0.000    0.000    0.000    0.000 
#    0.000    0.000    0.000    0.000    0.000    0.000 
#
# Total GULP energy -66832.120115 kJ/mol
# GULP energy per Si atom -5569.343343 kJ/mol
# Density = 2.516904 g / cm^3
# Si number density = 25.226461 Si / 1000 Ang^3
#
#
#
# Elastic Constant Matrix: (Units=GPa)
#
#
# Indices 1 2 3 4 5 6 
#
# 1 113.7094 40.9978 30.4337 -14.4661 -28.9824 34.7737
# 2 40.9978 139.3507 45.2455 -17.9417 -0.2469 33.2126
# 3 30.4337 45.2455 113.0964 -25.3882 -25.1448 14.0607
# 4 -14.4661 -17.9417 -25.3882 40.5971 12.4218 -5.1871
# 5 -28.9824 -0.2469 -25.1448 12.4218 30.7926 -6.4769
# 6 34.7737 33.2126 14.0607 -5.1871 -6.4769 47.3723
#
#
#
# Elastic Compliance Matrix: (Units=1/GPa)
#
#
# Indices 1 2 3 4 5 6 
#
# 1 0.015468 -0.003100 0.001025 -0.000461 0.013952 -0.007628
# 2 -0.003100 0.011027 -0.004142 0.003147 -0.008544 -0.005049
# 3 0.001025 -0.004142 0.013357 0.003726 0.010337 0.000009
# 4 -0.000461 0.003147 0.003726 0.031170 -0.010140 -0.000947
# 5 0.013952 -0.008544 0.010337 -0.010140 0.057964 -0.000505
# 6 -0.007628 -0.005049 0.000009 -0.000947 -0.000505 0.030073
#
#
# Mechanical properties :
#
#
# Convention : Reuss Voigt Hill
#
# Bulk Modulus (GPa) = 36.47518 66.61230 51.54374
# Shear Modulus (GPa) = 27.68029 40.38437 34.03233
#
# Velocity S-wave (km/s) = 3.31610 4.00543 3.67696
# Velocity P-wave (km/s) = 5.39931 6.91768 6.20511
#
# Compressibility (1/GPa) = 0.02741590
#
# Stress axis : x y z
#
# Youngs Moduli (GPa) = 64.64954 90.68921 74.86681
#
# Poissons Ratio (x) = 0.28115 -0.07671
# Poissons Ratio (y) = 0.20042 0.31013
# Poissons Ratio (z) = -0.06624 0.37568
#
# Static dielectric constant tensor:
#      x y z
#    x 1.972660 -0.043940 0.025030 
#    y -0.043940 2.057310 -0.032060 
#    z 0.025030 -0.032060 2.226130 
# 
# From -- ./inp_files/47316.got.cif
#   From: 2010.05.17/outbox.cif.g08.bks.cpg/sg2_24_cif.got.tgz:47316.got - 2010.06.03 11:33:40.
