data_PCOD9024293
_publ_section_title
;
Structure prediction by ZEFSAII (Michael W. Deem and Ramdas Pophale) SiO2 
 PCOD9024293
Probable space group: P -1
;
_chemical_formula_sum "Si O2"
_cell_formula_units_Z 16
_cell_length_a 8.311956
_cell_length_b 13.949958
_cell_length_c 8.097069
_cell_angle_alpha 119.951656
_cell_angle_beta 69.693105
_cell_angle_gamma 132.675719
_cell_volume 598.016043
_symmetry_space_group_name_H-M "P -1"
_symmetry_group_IT_number 2
_symmetry_cell_setting 'triclinic'
loop_
_space_group_symop_operation_xyz
x,y,z
-x,-y,-z
loop_
_atom_site_type_symbol
_atom_site_label
_atom_site_fract_x
_atom_site_fract_y
_atom_site_fract_z
Si Si1 0.658143 0.388988 0.874200
Si Si2 0.817033 0.820927 0.220433
Si Si3 0.851147 0.150716 0.106966
Si Si4 0.453280 0.841161 0.012563
Si Si5 0.113507 0.911741 0.516164
Si Si6 0.338853 0.458937 0.723125
Si Si7 0.913697 0.321593 0.538972
Si Si8 0.342345 0.267257 0.334001
O O1 0.418183 0.327694 0.849084
O O2 0.798649 0.390734 0.680369
O O3 0.629389 0.279310 0.926629
O O4 0.754418 0.531996 0.063529
O O5 0.984079 0.859905 0.343736
O O6 0.753532 0.923283 0.371751
O O7 0.955039 0.848218 0.030850
O O8 0.733744 0.158053 0.995911
O O9 0.916480 0.277033 0.314087
O O10 0.659438 0.999050 0.127397
O O11 0.546939 0.805517 0.795047
O O12 0.917430 0.848734 0.666221
O O13 0.206015 0.828331 0.448461
O O14 0.392469 0.356092 0.558281
O O15 0.557804 0.615039 0.741563
O O16 0.153489 0.419819 0.621446
#
# Coordination Sequence:
#
# PCOD9024293 Si02
#       8
#     2   2   2   2   2   2   2   2
#     4  11  24  41  65  90 127 167 212 256 311 366
#     4  11  24  38  64  97 129 162 207 254 315 381
#     4  11  24  38  64  97 129 162 207 254 315 381
#     4  10  22  40  64  90 134 162 200 256 322 371
#     4  10  22  40  64  90 134 162 200 256 322 371
#     4   9  21  40  66  86 124 164 218 258 306 358
#     4  11  24  41  65  90 127 167 212 256 311 366
#     4   9  18  38  65  90 114 166 200 258 307 359
#
# _framework density 26.755134999999999
#
# number of rings (size 3 to 8) (size 9 to 14) (size 15 to 20)
#    0.000    1.750    1.250    1.875   10.500    4.000 
#    0.000    5.000    5.500    0.000    0.000    0.000 
#    0.000    0.000    0.000    0.000    0.000    0.000 
#
# Total GULP energy -89481.161918 kJ/mol
# GULP energy per Si atom -5592.572620 kJ/mol
# Density = 2.669424 g / cm^3
# Si number density = 26.755135 Si / 1000 Ang^3
#
#
#
# Elastic Constant Matrix: (Units=GPa)
#
#
# Indices 1 2 3 4 5 6 
#
# 1 85.2745 0.6507 45.9402 3.0648 -16.1461 5.1774
# 2 0.6507 39.0556 16.4734 12.3440 -1.6949 2.5043
# 3 45.9402 16.4734 197.0510 10.1305 -23.7042 22.8246
# 4 3.0648 12.3440 10.1305 36.4338 -2.1037 4.3796
# 5 -16.1461 -1.6949 -23.7042 -2.1037 55.7359 -1.9062
# 6 5.1774 2.5043 22.8246 4.3796 -1.9062 36.6518
#
#
#
# Elastic Compliance Matrix: (Units=1/GPa)
#
#
# Indices 1 2 3 4 5 6 
#
# 1 0.013869 0.001347 -0.002984 -0.000637 0.002767 0.000027
# 2 0.001347 0.029555 -0.002347 -0.009524 -0.000055 0.000387
# 3 -0.002984 -0.002347 0.006583 -0.000276 0.001738 -0.003394
# 4 -0.000637 -0.009524 -0.000276 0.031167 0.000490 -0.002786
# 5 0.002767 -0.000055 0.001738 0.000490 0.019481 -0.000514
# 6 0.000027 0.000387 -0.003394 -0.002786 -0.000514 0.029674
#
#
# Mechanical properties :
#
#
# Convention : Reuss Voigt Hill
#
# Bulk Modulus (GPa) = 23.78664 49.72330 36.75497
# Shear Modulus (GPa) = 32.82804 42.98542 37.90673
#
# Velocity S-wave (km/s) = 3.50663 4.01262 3.76813
# Velocity P-wave (km/s) = 5.03041 6.33191 5.71831
#
# Compressibility (1/GPa) = 0.04204040
#
# Stress axis : x y z
#
# Youngs Moduli (GPa) = 72.10322 33.83546 151.90718
#
# Poissons Ratio (x) = -0.04558 0.45322
# Poissons Ratio (y) = -0.09713 0.35647
# Poissons Ratio (z) = 0.21512 0.07940
#
# Static dielectric constant tensor:
#      x y z
#    x 2.100100 -0.084160 0.045690 
#    y -0.084160 2.170360 -0.042960 
#    z 0.045690 -0.042960 2.079150 
# 
# From -- ./inp_files/218574.got.cif
#   From: 2010.05.17/outbox.cif.g08.bks.cpg/sg2_110_cif.got.tgz:218574.got - 2010.06.03 11:33:40.
