data_PCOD9024339
_publ_section_title
;
Structure prediction by ZEFSAII (Michael W. Deem and Ramdas Pophale) SiO2 
 PCOD9024339
Probable space group: P -1
;
_chemical_formula_sum "Si O2"
_cell_formula_units_Z 16
_cell_length_a 20.165965
_cell_length_b 8.123761
_cell_length_c 8.811957
_cell_angle_alpha 146.465167
_cell_angle_beta 49.823481
_cell_angle_gamma 129.814348
_cell_volume 591.092611
_symmetry_space_group_name_H-M "P -1"
_symmetry_group_IT_number 2
_symmetry_cell_setting 'triclinic'
loop_
_space_group_symop_operation_xyz
x,y,z
-x,-y,-z
loop_
_atom_site_type_symbol
_atom_site_label
_atom_site_fract_x
_atom_site_fract_y
_atom_site_fract_z
Si Si1 0.552877 0.803517 0.066992
Si Si2 0.898967 0.500055 0.609516
Si Si3 0.179806 0.134280 0.224915
Si Si4 0.060696 0.264490 0.716547
Si Si5 0.623496 0.301320 0.902177
Si Si6 0.162145 0.180217 0.788413
Si Si7 0.285652 0.040912 0.258987
Si Si8 0.665519 0.995222 0.315530
O O1 0.477759 0.880006 0.128357
O O2 0.596621 0.034885 0.314937
O O3 0.500000 0.500000 0.000000
O O4 0.636750 0.762479 0.811979
O O5 0.888678 0.773454 0.725209
O O6 0.000000 0.500000 0.500000
O O7 0.855350 0.150146 0.357346
O O8 0.845493 0.560750 0.883968
O O9 0.154614 0.378042 0.573887
O O10 0.203098 0.922355 0.169551
O O11 0.251241 0.065872 0.947750
O O12 0.083617 0.161593 0.767931
O O13 0.000000 0.000000 0.500000
O O14 0.000000 0.500000 0.000000
O O15 0.665546 0.181729 0.893703
O O16 0.675253 0.246754 0.626802
O O17 0.627698 0.660265 0.190016
O O18 0.249017 0.215062 0.582890
#
# Coordination Sequence:
#
# PCOD9024339 Si02
#       8
#     2   2   2   2   2   2   2   2
#     4   9  20  41  66  95 127 166 211 259 310 370
#     4  12  24  43  67  94 125 166 213 262 313 373
#     4  10  23  41  63  91 124 162 207 258 314 371
#     4  11  23  41  62  89 124 162 203 254 311 372
#     4  11  21  41  64  92 126 163 206 255 307 371
#     4  11  24  42  64  94 127 165 210 257 312 375
#     4  10  22  41  64  94 129 168 209 258 317 374
#     4  10  22  40  64  93 125 162 205 257 310 366
#
# _framework density 27.068517
#
# number of rings (size 3 to 8) (size 9 to 14) (size 15 to 20)
#    0.000    1.500    0.000    4.875    0.000    2.000 
#    0.000   30.625    0.000    0.000    0.000    0.000 
#    0.000    0.000    0.000    0.000    0.000    0.000 
#
# Total GULP energy -89241.367050 kJ/mol
# GULP energy per Si atom -5577.585441 kJ/mol
# Density = 2.700691 g / cm^3
# Si number density = 27.068517 Si / 1000 Ang^3
#
#
#
# Elastic Constant Matrix: (Units=GPa)
#
#
# Indices 1 2 3 4 5 6 
#
# 1 183.8518 42.8656 16.4265 15.9190 -9.7331 -41.6211
# 2 42.8656 93.3523 45.3000 -10.1864 1.8348 -12.2670
# 3 16.4265 45.3000 134.4594 6.5978 -0.8195 12.4269
# 4 15.9190 -10.1864 6.5978 45.6813 7.4449 -2.2356
# 5 -9.7331 1.8348 -0.8195 7.4449 50.1711 -6.3986
# 6 -41.6211 -12.2670 12.4269 -2.2356 -6.3986 35.7036
#
#
#
# Elastic Compliance Matrix: (Units=1/GPa)
#
#
# Indices 1 2 3 4 5 6 
#
# 1 0.009034 -0.002847 -0.000889 -0.003756 0.003712 0.010293
# 2 -0.002847 0.016043 -0.005750 0.005863 -0.001557 0.004282
# 3 -0.000889 -0.005750 0.010244 -0.002743 -0.000254 -0.006794
# 4 -0.003756 0.005863 -0.002743 0.025666 -0.004883 -0.000677
# 5 0.003712 -0.001557 -0.000254 -0.004883 0.022397 0.007589
# 6 0.010293 0.004282 -0.006794 -0.000677 0.007589 0.045161
#
#
# Mechanical properties :
#
#
# Convention : Reuss Voigt Hill
#
# Bulk Modulus (GPa) = 61.16631 68.98309 65.07470
# Shear Modulus (GPa) = 32.68666 46.78262 39.73464
#
# Velocity S-wave (km/s) = 3.47876 4.16180 3.83551
# Velocity P-wave (km/s) = 6.22748 6.97381 6.61119
#
# Compressibility (1/GPa) = 0.01634887
#
# Stress axis : x y z
#
# Youngs Moduli (GPa) = 110.68860 62.33261 97.61829
#
# Poissons Ratio (x) = 0.17749 0.08675
# Poissons Ratio (y) = 0.31518 0.56131
# Poissons Ratio (z) = 0.09837 0.35842
#
# Static dielectric constant tensor:
#      x y z
#    x 2.202240 0.104240 -0.043790 
#    y 0.104240 2.274860 -0.015680 
#    z -0.043790 -0.015680 2.033940 
# 
# From -- ./inp_files/343914.got.cif
#   From: 2010.05.17/outbox.cif.g08.bks.cpg/sg2_172_cif.got.tgz:343914.got - 2010.06.03 11:33:40.
