data_PCOD9024409
_publ_section_title
;
Structure prediction by ZEFSAII (Michael W. Deem and Ramdas Pophale) SiO2 
 PCOD9024409
Probable space group: P -1
;
_chemical_formula_sum "Si O2"
_cell_formula_units_Z 16
_cell_length_a 14.924637
_cell_length_b 10.119210
_cell_length_c 12.800720
_cell_angle_alpha 60.752644
_cell_angle_beta 27.872202
_cell_angle_gamma 72.639185
_cell_volume 745.134170
_symmetry_space_group_name_H-M "P -1"
_symmetry_group_IT_number 2
_symmetry_cell_setting 'triclinic'
loop_
_space_group_symop_operation_xyz
x,y,z
-x,-y,-z
loop_
_atom_site_type_symbol
_atom_site_label
_atom_site_fract_x
_atom_site_fract_y
_atom_site_fract_z
Si Si1 0.961014 0.229078 0.641630
Si Si2 0.838330 0.020413 0.407730
Si Si3 0.540811 0.136476 0.992768
Si Si4 0.846690 0.402303 0.884460
Si Si5 0.396005 0.422356 0.029022
Si Si6 0.335510 0.585070 0.638438
Si Si7 0.052870 0.635219 0.746816
Si Si8 0.326835 0.867434 0.667768
O O1 0.921371 0.348775 0.721263
O O2 0.164923 0.317857 0.334259
O O3 0.762521 0.168989 0.798666
O O4 0.011740 0.082622 0.701129
O O5 0.925696 0.181313 0.325217
O O6 0.796625 0.064696 0.315400
O O7 0.623667 0.923306 0.720879
O O8 0.506924 0.299416 0.923488
O O9 0.500000 0.000000 0.000000
O O10 0.638197 0.443178 0.063849
O O11 0.007443 0.558033 0.710235
O O12 0.810331 0.255274 0.058914
O O13 0.500000 0.500000 0.000000
O O14 0.500000 0.500000 0.500000
O O15 0.250481 0.611697 0.603658
O O16 0.415558 0.755239 0.548003
O O17 0.141855 0.472395 0.945147
O O18 0.500000 0.000000 0.500000
#
# Coordination Sequence:
#
# PCOD9024409 Si02
#       8
#     2   2   2   2   2   2   2   2
#     4  11  25  43  68  96 132 175 219 273 332 385
#     4  10  24  43  65  96 137 169 218 279 320 395
#     4  11  26  44  69 100 129 175 226 268 333 390
#     4  11  23  42  67  96 132 173 216 271 331 390
#     4  11  25  45  68  96 135 168 223 281 321 387
#     4   9  19  39  59  88 125 173 215 260 315 385
#     4   9  21  38  59  90 130 163 215 268 315 383
#     4  10  22  40  64  95 134 169 214 268 324 396
#
# _framework density 21.472640999999999
#
# number of rings (size 3 to 8) (size 9 to 14) (size 15 to 20)
#    0.000    1.750    1.250    1.875    5.250    5.500 
#    6.750    0.000    0.000    0.000    0.000    0.000 
#    0.000    0.000    0.000    0.000    0.000    0.000 
#
# Total GULP energy -89440.516694 kJ/mol
# GULP energy per Si atom -5590.032293 kJ/mol
# Density = 2.142377 g / cm^3
# Si number density = 21.472641 Si / 1000 Ang^3
#
#
#
# Elastic Constant Matrix: (Units=GPa)
#
#
# Indices 1 2 3 4 5 6 
#
# 1 152.7206 93.7545 50.6555 9.7600 -19.3407 4.1394
# 2 93.7545 149.1780 28.2278 5.3910 -30.9425 -8.5188
# 3 50.6555 28.2278 54.4651 -5.0991 -10.6255 -3.6786
# 4 9.7600 5.3910 -5.0991 31.0313 -6.2299 -9.3501
# 5 -19.3407 -30.9425 -10.6255 -6.2299 36.0699 -10.9583
# 6 4.1394 -8.5188 -3.6786 -9.3501 -10.9583 50.7114
#
#
#
# Elastic Compliance Matrix: (Units=1/GPa)
#
#
# Indices 1 2 3 4 5 6 
#
# 1 0.016694 -0.009466 -0.013312 -0.009316 -0.006863 -0.007119
# 2 -0.009466 0.014428 0.004661 0.005772 0.011846 0.007158
# 3 -0.013312 0.004661 0.032528 0.013869 0.011666 0.009307
# 4 -0.009316 0.005772 0.013869 0.043945 0.015973 0.014290
# 5 -0.006863 0.011846 0.011666 0.015973 0.045302 0.016131
# 6 -0.007119 0.007158 0.009307 0.014290 0.016131 0.028299
#
#
# Mechanical properties :
#
#
# Convention : Reuss Voigt Hill
#
# Bulk Modulus (GPa) = 36.47447 77.95994 57.21720
# Shear Modulus (GPa) = 22.06849 35.81092 28.93970
#
# Velocity S-wave (km/s) = 3.20933 4.08824 3.67515
# Velocity P-wave (km/s) = 5.54585 7.65966 6.68681
#
# Compressibility (1/GPa) = 0.02741644
#
# Stress axis : x y z
#
# Youngs Moduli (GPa) = 59.90315 69.31078 30.74244
#
# Poissons Ratio (x) = 0.65609 0.40924
# Poissons Ratio (y) = 0.56704 -0.14329
# Poissons Ratio (z) = 0.79742 -0.32307
#
# Static dielectric constant tensor:
#      x y z
#    x 1.799320 -0.039070 0.043340 
#    y -0.039070 1.800030 -0.028810 
#    z 0.043340 -0.028810 1.797720 
# 
# From -- ./inp_files/447059.got.cif
#   From: 2010.05.17/outbox.cif.g08.bks.cpg/sg2_224_cif.got.tgz:447059.got - 2010.06.03 11:33:40.
