data_PCOD9024592
_publ_section_title
;
Structure prediction by ZEFSAII (Michael W. Deem and Ramdas Pophale) SiO2 
 PCOD9024592
Probable space group: P -1
;
_chemical_formula_sum "Si O2"
_cell_formula_units_Z 16
_cell_length_a 26.149429
_cell_length_b 20.862303
_cell_length_c 8.982797
_cell_angle_alpha 148.520170
_cell_angle_beta 133.817027
_cell_angle_gamma 21.061395
_cell_volume 767.132016
_symmetry_space_group_name_H-M "P -1"
_symmetry_group_IT_number 2
_symmetry_cell_setting 'triclinic'
loop_
_space_group_symop_operation_xyz
x,y,z
-x,-y,-z
loop_
_atom_site_type_symbol
_atom_site_label
_atom_site_fract_x
_atom_site_fract_y
_atom_site_fract_z
Si Si1 0.156735 0.785715 0.495903
Si Si2 0.387783 0.997474 0.485864
Si Si3 0.717784 0.624144 0.515441
Si Si4 0.762319 0.332408 0.245143
Si Si5 0.703615 0.672869 0.248979
Si Si6 0.397103 0.556207 0.325204
Si Si7 0.350198 0.002867 0.746029
Si Si8 0.322420 0.777434 0.289054
O O1 0.136964 0.828073 0.715275
O O2 0.253198 0.742808 0.521422
O O3 0.269188 0.487605 0.113597
O O4 0.000000 0.000000 0.500000
O O5 0.525035 0.876659 0.596266
O O6 0.316190 0.049418 0.592573
O O7 0.252541 0.278047 0.663966
O O8 0.492324 0.737133 0.079997
O O9 0.796339 0.393634 0.323245
O O10 0.784691 0.531596 0.296346
O O11 0.712109 0.768163 0.862041
O O12 0.556374 0.670000 0.530120
O O13 0.786837 0.158400 0.880432
O O14 0.500000 0.000000 0.500000
O O15 0.500000 0.500000 0.500000
O O16 0.341077 0.696986 0.332992
O O17 0.270089 0.002144 0.642247
O O18 0.500000 0.500000 0.000000
#
# Coordination Sequence:
#
# PCOD9024592 Si02
#       8
#     2   2   2   2   2   2   2   2
#     4  12  25  40  59  91 126 162 202 253 311 364
#     4  10  18  31  53  88 120 147 201 255 296 347
#     4  10  17  31  53  82 118 149 203 251 299 344
#     4  10  18  34  53  75 116 158 195 242 299 356
#     4  10  18  34  58  86 117 149 204 257 291 348
#     4  12  22  35  59  91 125 160 205 251 308 361
#     4  10  18  28  54  90 116 150 194 252 306 353
#     4  10  18  33  52  86 125 151 201 251 307 356
#
# _framework density 20.856907
#
# number of rings (size 3 to 8) (size 9 to 14) (size 15 to 20)
#    0.000    1.500    6.250    5.250    1.750    0.000 
#    0.000    2.500    0.000    0.750    0.000    2.625 
#    0.000    0.000    0.000    0.000    0.000    0.000 
#
# Total GULP energy -89160.496088 kJ/mol
# GULP energy per Si atom -5572.531006 kJ/mol
# Density = 2.080944 g / cm^3
# Si number density = 20.856907 Si / 1000 Ang^3
#
#
#
# Elastic Constant Matrix: (Units=GPa)
#
#
# Indices 1 2 3 4 5 6 
#
# 1 138.6620 58.3059 39.1659 -9.5856 25.4093 36.7872
# 2 58.3059 88.4086 35.0707 -28.6898 2.4046 24.6745
# 3 39.1659 35.0707 100.7896 -36.3777 22.3739 -4.3818
# 4 -9.5856 -28.6898 -36.3777 26.1658 1.2788 -4.4496
# 5 25.4093 2.4046 22.3739 1.2788 37.4679 -7.7335
# 6 36.7872 24.6745 -4.3818 -4.4496 -7.7335 36.2968
#
#
#
# Elastic Compliance Matrix: (Units=1/GPa)
#
#
# Indices 1 2 3 4 5 6 
#
# 1 0.019921 -0.010293 -0.010583 -0.021487 -0.009755 -0.019182
# 2 -0.010293 0.028198 0.008066 0.037851 -0.001655 -0.003475
# 3 -0.010583 0.008066 0.035626 0.057492 -0.013757 0.013661
# 4 -0.021487 0.037851 0.057492 0.155838 -0.024004 0.016977
# 5 -0.009755 -0.001655 -0.013757 -0.024004 0.045782 0.016163
# 6 -0.019182 -0.003475 0.013661 0.016977 0.016163 0.056529
#
#
# Mechanical properties :
#
#
# Convention : Reuss Voigt Hill
#
# Bulk Modulus (GPa) = 17.20484 65.88279 41.54381
# Shear Modulus (GPa) = 12.92359 33.00727 22.96543
#
# Velocity S-wave (km/s) = 2.49194 3.98245 3.32187
# Velocity P-wave (km/s) = 4.06775 7.26658 5.88854
#
# Compressibility (1/GPa) = 0.05812318
#
# Stress axis : x y z
#
# Youngs Moduli (GPa) = 50.19935 35.46338 28.06944
#
# Poissons Ratio (x) = 0.36504 0.29706
# Poissons Ratio (y) = 0.51672 -0.22640
# Poissons Ratio (z) = 0.53127 -0.28604
#
# Static dielectric constant tensor:
#      x y z
#    x 1.879250 0.014910 0.008520 
#    y 0.014910 1.766340 0.040810 
#    z 0.008520 0.040810 1.758950 
# 
# From -- ./inp_files/357815.got.cif
#   From: 2010.05.17/outbox.cif.g08.bks.cpg/sg2_179_cif.got.tgz:357815.got - 2010.06.03 11:33:40.
