data_PCOD9024885
_publ_section_title
;
Structure prediction by ZEFSAII (Michael W. Deem and Ramdas Pophale) SiO2 
 PCOD9024885
Probable space group: P -1
;
_chemical_formula_sum "Si O2"
_cell_formula_units_Z 15
_cell_length_a 4.912614
_cell_length_b 15.383884
_cell_length_c 23.455145
_cell_angle_alpha 160.887145
_cell_angle_beta 94.182052
_cell_angle_gamma 82.291371
_cell_volume 567.199059
_symmetry_space_group_name_H-M "P -1"
_symmetry_group_IT_number 2
_symmetry_cell_setting 'triclinic'
loop_
_space_group_symop_operation_xyz
x,y,z
-x,-y,-z
loop_
_atom_site_type_symbol
_atom_site_label
_atom_site_fract_x
_atom_site_fract_y
_atom_site_fract_z
Si Si1 0.240655 0.980351 0.263958
Si Si2 0.720314 0.401246 0.184520
Si Si3 0.058309 0.171376 0.732017
Si Si4 0.755851 0.047797 0.212540
Si Si5 0.437034 0.613516 0.425307
Si Si6 0.835212 0.453773 0.792339
Si Si7 0.800977 0.806565 0.763998
Si Si8 0.500000 0.500000 0.000000
O O1 0.476451 0.740097 0.094938
O O2 0.207060 0.797555 0.208691
O O3 0.944320 0.048322 0.271665
O O4 0.362673 0.234356 0.440947
O O5 0.624010 0.445259 0.274950
O O6 0.985879 0.522607 0.246891
O O7 0.472946 0.561146 0.240230
O O8 0.757666 0.086166 0.972485
O O9 0.962465 0.237694 0.707550
O O10 0.218967 0.864468 0.550926
O O11 0.254325 0.363012 0.877120
O O12 0.899915 0.226121 0.280696
O O13 0.426766 0.153219 0.266090
O O14 0.829234 0.745663 0.001842
O O15 0.273881 0.424348 0.340862
#
# Coordination Sequence:
#
# PCOD9024885 Si02
#       8
#     2   2   2   2   2   2   2   1
#     4  11  25  40  66 100 135 176 210 274 332 401
#     4  10  24  45  70  95 128 179 224 277 316 393
#     4  11  25  40  66 100 135 176 210 274 332 401
#     4  10  23  42  70  97 127 170 228 272 328 383
#     4  11  27  43  63  98 136 172 221 265 343 383
#     4  10  23  42  70  97 127 170 228 272 328 383
#     4  10  24  45  70  95 128 179 224 277 316 393
#     4  10  22  40  66  94 134 174 218 264 322 406
#
# _framework density 26.445744000000001
#
# number of rings (size 3 to 8) (size 9 to 14) (size 15 to 20)
#    0.000    1.600    1.333    0.800   11.200    2.133 
#    0.000    4.000    0.000    0.000    0.000    0.000 
#    0.000    0.000    0.000    0.000    0.000    0.000 
#
# Total GULP energy -84006.297465 kJ/mol
# GULP energy per Si atom -5600.419831 kJ/mol
# Density = 2.638555 g / cm^3
# Si number density = 26.445744 Si / 1000 Ang^3
#
#
#
# Elastic Constant Matrix: (Units=GPa)
#
#
# Indices 1 2 3 4 5 6 
#
# 1 85.3603 -19.7979 27.7950 -15.3895 5.9116 -3.3659
# 2 -19.7979 67.3609 51.8777 7.3503 1.0954 5.5745
# 3 27.7950 51.8777 110.5956 0.4582 6.9762 -13.3372
# 4 -15.3895 7.3503 0.4582 42.7205 -6.3501 -5.3023
# 5 5.9116 1.0954 6.9762 -6.3501 28.1879 0.0851
# 6 -3.3659 5.5745 -13.3372 -5.3023 0.0851 36.1329
#
#
#
# Elastic Compliance Matrix: (Units=1/GPa)
#
#
# Indices 1 2 3 4 5 6 
#
# 1 0.020372 0.016205 -0.013287 0.003978 -0.000703 -0.004921
# 2 0.016205 0.039904 -0.024514 -0.002418 0.000615 -0.014052
# 3 -0.013287 -0.024514 0.025486 0.000269 -0.002544 0.011997
# 4 0.003978 -0.002418 0.000269 0.026611 0.005174 0.004736
# 5 -0.000703 0.000615 -0.002544 0.005174 0.037396 -0.000428
# 6 -0.004921 -0.014052 0.011997 0.004736 -0.000428 0.034509
#
#
# Mechanical properties :
#
#
# Convention : Reuss Voigt Hill
#
# Bulk Modulus (GPa) = 23.49066 42.56293 33.02680
# Shear Modulus (GPa) = 20.69021 34.97106 27.83064
#
# Velocity S-wave (km/s) = 2.80011 3.64039 3.24754
# Velocity P-wave (km/s) = 4.39955 5.81371 5.15535
#
# Compressibility (1/GPa) = 0.04257011
#
# Stress axis : x y z
#
# Youngs Moduli (GPa) = 49.08790 25.06004 39.23684
#
# Poissons Ratio (x) = -0.40609 0.52133
# Poissons Ratio (y) = -0.79546 0.96185
# Poissons Ratio (z) = 0.65222 0.61432
#
# Static dielectric constant tensor:
#      x y z
#    x 2.274590 0.044230 -0.272960 
#    y 0.044230 2.165340 0.035040 
#    z -0.272960 0.035040 2.205210 
# 
# From -- ./inp_files/71003.got.cif
#   From: 2010.05.17/outbox.cif.g08.bks.cpg/sg2_36_cif.got.tgz:71003.got - 2010.06.03 11:33:40.
