data_PCOD9024672
_publ_section_title
;
Structure prediction by ZEFSAII (Michael W. Deem and Ramdas Pophale) SiO2 
 PCOD9024672
Probable space group: P -1
;
_chemical_formula_sum "Si O2"
_cell_formula_units_Z 14
_cell_length_a 17.010111
_cell_length_b 13.986409
_cell_length_c 26.081843
_cell_angle_alpha 159.623749
_cell_angle_beta 19.833549
_cell_angle_gamma 149.188844
_cell_volume 719.064499
_symmetry_space_group_name_H-M "P -1"
_symmetry_group_IT_number 2
_symmetry_cell_setting 'triclinic'
loop_
_space_group_symop_operation_xyz
x,y,z
-x,-y,-z
loop_
_atom_site_type_symbol
_atom_site_label
_atom_site_fract_x
_atom_site_fract_y
_atom_site_fract_z
Si Si1 0.786555 0.872424 0.543962
Si Si2 0.921794 0.914145 0.373618
Si Si3 0.023214 0.782011 0.922000
Si Si4 0.052509 0.600748 0.962857
Si Si5 0.845775 0.427393 0.605403
Si Si6 0.319485 0.415232 0.896378
Si Si7 0.286070 0.008082 0.970466
O O1 0.846679 0.533361 0.331332
O O2 0.557248 0.956810 0.761880
O O3 0.763573 0.993670 0.560843
O O4 0.000000 0.000000 0.500000
O O5 0.947660 0.151264 0.436862
O O6 0.823236 0.671607 0.282214
O O7 0.177475 0.739173 0.147467
O O8 0.154667 0.902163 0.948960
O O9 0.772083 0.738144 0.076256
O O10 0.000000 0.000000 0.000000
O O11 0.215224 0.826890 0.970293
O O12 0.800902 0.697057 0.136173
O O13 0.000000 0.500000 0.000000
O O14 0.594963 0.392393 0.718104
O O15 0.000000 0.500000 0.500000
O O16 0.801414 0.675848 0.799187
#
# Coordination Sequence:
#
# PCOD9024672 Si02
#       7
#     2   2   2   2   2   2   2
#     4  11  23  42  64  95 132 167 205 259 329 384
#     4   9  22  41  65  88 131 166 208 255 330 369
#     4  10  22  40  65  97 129 159 211 262 316 382
#     4   9  19  43  65  86 127 170 206 263 320 367
#     4  12  25  42  65  95 127 169 222 262 312 382
#     4   8  21  43  62  89 130 161 210 263 316 373
#     4  11  23  39  65  96 124 164 216 262 313 381
#
# _framework density 19.469740999999999
#
# number of rings (size 3 to 8) (size 9 to 14) (size 15 to 20)
#    0.857    1.143    1.429    3.000    4.000    1.143 
#    2.571    6.429    0.000    0.000    0.000    0.000 
#    0.000    0.000    0.000    0.000    0.000    0.000 
#
# Total GULP energy -78014.157830 kJ/mol
# GULP energy per Si atom -5572.439845 kJ/mol
# Density = 1.942543 g / cm^3
# Si number density = 19.469741 Si / 1000 Ang^3
#
#
#
# Elastic Constant Matrix: (Units=GPa)
#
#
# Indices 1 2 3 4 5 6 
#
# 1 77.2208 53.2807 26.3711 -6.0396 -3.8956 -24.9846
# 2 53.2807 130.6259 36.5680 -22.4845 -25.1334 -20.2708
# 3 26.3711 36.5680 38.2672 -17.7648 -4.8085 0.3285
# 4 -6.0396 -22.4845 -17.7648 38.1758 1.9355 1.7849
# 5 -3.8956 -25.1334 -4.8085 1.9355 14.6942 10.9381
# 6 -24.9846 -20.2708 0.3285 1.7849 10.9381 47.6698
#
#
#
# Elastic Compliance Matrix: (Units=1/GPa)
#
#
# Indices 1 2 3 4 5 6 
#
# 1 0.032184 -0.012938 -0.019056 -0.010637 -0.032907 0.019447
# 2 -0.012938 0.020796 -0.003174 0.007252 0.034729 -0.006156
# 3 -0.019056 -0.003174 0.053852 0.020094 0.016607 -0.016271
# 4 -0.010637 0.007252 0.020094 0.037638 0.017135 -0.007971
# 5 -0.032907 0.034729 0.016607 0.017135 0.149924 -0.037636
# 6 0.019447 -0.006156 -0.016271 -0.007971 -0.037636 0.037599
#
#
# Mechanical properties :
#
#
# Convention : Reuss Voigt Hill
#
# Bulk Modulus (GPa) = 27.39895 53.17260 40.28578
# Shear Modulus (GPa) = 12.06294 28.76757 20.41526
#
# Velocity S-wave (km/s) = 2.49182 3.84807 3.24167
# Velocity P-wave (km/s) = 4.73097 6.86390 5.89471
#
# Compressibility (1/GPa) = 0.03649775
#
# Stress axis : x y z
#
# Youngs Moduli (GPa) = 31.07112 48.08611 18.56956
#
# Poissons Ratio (x) = 0.62212 0.35386
# Poissons Ratio (y) = 0.40199 0.05893
# Poissons Ratio (z) = 0.59208 0.15261
#
# Static dielectric constant tensor:
#      x y z
#    x 1.915870 -0.064150 0.000930 
#    y -0.064150 1.724620 0.038670 
#    z 0.000930 0.038670 1.717550 
# 
# From -- ./inp_files/620400.got.cif
#   From: 2010.05.17/outbox.cif.g08.bks.cpg/sg2_311_cif.got.tgz:620400.got - 2010.06.03 11:33:40.
