data_PCOD9024541
_publ_section_title
;
Structure prediction by ZEFSAII (Michael W. Deem and Ramdas Pophale) SiO2 
 PCOD9024541
Probable space group: P -1
;
_chemical_formula_sum "Si O2"
_cell_formula_units_Z 16
_cell_length_a 14.793709
_cell_length_b 11.095205
_cell_length_c 14.254553
_cell_angle_alpha 126.989667
_cell_angle_beta 37.589929
_cell_angle_gamma 150.653773
_cell_volume 667.729911
_symmetry_space_group_name_H-M "P -1"
_symmetry_group_IT_number 2
_symmetry_cell_setting 'triclinic'
loop_
_space_group_symop_operation_xyz
x,y,z
-x,-y,-z
loop_
_atom_site_type_symbol
_atom_site_label
_atom_site_fract_x
_atom_site_fract_y
_atom_site_fract_z
Si Si1 0.152835 0.093160 0.539416
Si Si2 0.127693 0.401824 0.398472
Si Si3 0.856932 0.258506 0.375995
Si Si4 0.869340 0.157410 0.015442
Si Si5 0.347672 0.168075 0.772016
Si Si6 0.143903 0.589863 0.110393
Si Si7 0.687128 0.942987 0.867884
Si Si8 0.650851 0.621904 0.300357
O O1 0.362863 0.326738 0.403812
O O2 0.300740 0.229664 0.580949
O O3 0.901532 0.991380 0.699636
O O4 0.065221 0.846570 0.491491
O O5 0.197865 0.634620 0.470373
O O6 0.396758 0.551537 0.265279
O O7 0.024371 0.302105 0.332163
O O8 0.021066 0.454190 0.247178
O O9 0.650087 0.977879 0.367583
O O10 0.930805 0.372326 0.106553
O O11 0.799407 0.006125 0.095949
O O12 0.675747 0.968241 0.001862
O O13 0.140519 0.333150 0.833897
O O14 0.269168 0.229575 0.791244
O O15 0.213481 0.819851 0.147695
O O16 0.399984 0.697793 0.949632
#
# Coordination Sequence:
#
# PCOD9024541 Si02
#       8
#     2   2   2   2   2   2   2   2
#     4  10  23  42  65  94 130 169 207 266 312 378
#     4  11  23  41  66  94 127 170 210 259 319 373
#     4  10  23  43  61  95 130 164 213 264 311 373
#     4  10  22  41  63  93 124 169 207 261 316 369
#     4  11  22  40  66  93 128 165 214 258 312 380
#     4  10  22  40  65  90 126 168 211 262 308 382
#     4  10  22  41  62  95 128 164 212 258 317 369
#     4  10  22  42  63  96 131 165 211 258 320 372
#
# _framework density 23.961784999999999
#
# number of rings (size 3 to 8) (size 9 to 14) (size 15 to 20)
#    0.000    1.750    1.250    1.875    3.500    2.500 
#    0.000    4.375    0.000    0.000    0.000    0.000 
#    0.000    0.000    0.000    0.000    0.000    0.000 
#
# Total GULP energy -89209.735532 kJ/mol
# GULP energy per Si atom -5575.608471 kJ/mol
# Density = 2.390725 g / cm^3
# Si number density = 23.961785 Si / 1000 Ang^3
#
#
#
# Elastic Constant Matrix: (Units=GPa)
#
#
# Indices 1 2 3 4 5 6 
#
# 1 86.9667 168.7376 99.9459 -44.3130 -60.0369 -38.2187
# 2 168.7376 -692.9310 -583.1915 267.5488 427.7043 345.0147
# 3 99.9459 -583.1915 -420.7762 208.1511 317.4012 252.2646
# 4 -44.3130 267.5488 208.1511 -80.2855 -148.5266 -112.2430
# 5 -60.0369 427.7043 317.4012 -148.5266 -194.0755 -175.0851
# 6 -38.2187 345.0147 252.2646 -112.2430 -175.0851 -92.6887
#
#
#
# Elastic Compliance Matrix: (Units=1/GPa)
#
#
# Indices 1 2 3 4 5 6 
#
# 1 0.011333 -0.004063 0.002367 -0.003462 -0.003304 -0.002921
# 2 -0.004063 0.012068 -0.010403 0.011430 0.002720 -0.000697
# 3 0.002367 -0.010403 0.025883 0.005133 0.010490 0.004717
# 4 -0.003462 0.011430 0.005133 0.062564 -0.004048 -0.010172
# 5 -0.003304 0.002720 0.010490 -0.004048 0.026165 -0.004488
# 6 -0.002921 -0.000697 0.004717 -0.010172 -0.004488 0.021453
#
#
# Mechanical properties :
#
#
# Convention : Reuss Voigt Hill
#
# Bulk Modulus (GPa) = 39.86223 -183.97294 -72.05535
# Shear Modulus (GPa) = 26.03814 -120.89210 -47.42698
#
# Velocity S-wave (km/s) = 3.30002 -7.11067 -4.45373
# Velocity P-wave (km/s) = 5.58498 12.01498 7.52222
#
# Compressibility (1/GPa) = 0.02508640
#
# Stress axis : x y z
#
# Youngs Moduli (GPa) = 88.23648 82.86716 38.63493
#
# Poissons Ratio (x) = 0.33673 -0.09146
# Poissons Ratio (y) = 0.35855 0.40190
# Poissons Ratio (z) = -0.20888 0.86203
#
# Static dielectric constant tensor:
#      x y z
#    x 1.955950 0.014520 -0.055350 
#    y 0.014520 1.958270 0.059190 
#    z -0.055350 0.059190 1.951330 
# 
# From -- ./inp_files/532599.got.cif
#   From: 2010.05.17/outbox.cif.g08.bks.cpg/sg2_267_cif.got.tgz:532599.got - 2010.06.03 11:33:40.
