data_PCOD9024332
_publ_section_title
;
Structure prediction by ZEFSAII (Michael W. Deem and Ramdas Pophale) SiO2 
 PCOD9024332
Probable space group: P -1
;
_chemical_formula_sum "Si O2"
_cell_formula_units_Z 12
_cell_length_a 17.499213
_cell_length_b 7.869659
_cell_length_c 15.120992
_cell_angle_alpha 119.730406
_cell_angle_beta 19.810982
_cell_angle_gamma 128.135112
_cell_volume 526.100099
_symmetry_space_group_name_H-M "P -1"
_symmetry_group_IT_number 2
_symmetry_cell_setting 'triclinic'
loop_
_space_group_symop_operation_xyz
x,y,z
-x,-y,-z
loop_
_atom_site_type_symbol
_atom_site_label
_atom_site_fract_x
_atom_site_fract_y
_atom_site_fract_z
Si Si1 0.803956 0.551016 0.280741
Si Si2 0.058538 0.560319 0.173357
Si Si3 0.536071 0.991851 0.853600
Si Si4 0.903841 0.683288 0.660550
Si Si5 0.396200 0.599728 0.237834
Si Si6 0.236730 0.251722 0.796373
O O1 0.522554 0.320120 0.539530
O O2 0.739489 0.698425 0.322245
O O3 0.947961 0.656396 0.242618
O O4 0.000000 0.500000 0.000000
O O5 0.806773 0.415759 0.472716
O O6 0.307166 0.753424 0.004953
O O7 0.152176 0.408620 0.981570
O O8 0.524540 0.182733 0.855098
O O9 0.844231 0.073443 0.532497
O O10 0.500000 0.000000 0.000000
O O11 0.764246 0.635181 0.704486
O O12 0.000000 0.500000 0.500000
O O13 0.672551 0.620848 0.966323
O O14 0.000000 0.000000 0.000000
#
# Coordination Sequence:
#
# PCOD9024332 Si02
#       6
#     2   2   2   2   2   2
#     4   9  22  43  66  97 130 163 218 274 335 398
#     4  11  24  41  67 102 130 173 230 266 328 405
#     4  11  23  41  63  93 137 181 222 274 320 387
#     4   9  20  42  62  87 131 180 219 271 324 376
#     4  10  22  40  64  92 132 181 226 271 324 384
#     4  10  23  45  72  94 133 172 210 283 346 390
#
# _framework density 22.809349000000001
#
# number of rings (size 3 to 8) (size 9 to 14) (size 15 to 20)
#    0.000    2.000    1.667    0.000    0.000   12.667 
#    6.000    0.000    0.000    0.000    0.000    0.000 
#    0.000    0.000    0.000    0.000    0.000    0.000 
#
# Total GULP energy -66942.719924 kJ/mol
# GULP energy per Si atom -5578.559994 kJ/mol
# Density = 2.275743 g / cm^3
# Si number density = 22.809349 Si / 1000 Ang^3
#
#
#
# Elastic Constant Matrix: (Units=GPa)
#
#
# Indices 1 2 3 4 5 6 
#
# 1 110.4273 49.1746 48.5568 -20.0756 -2.1089 23.4872
# 2 49.1746 86.0978 52.8534 -17.3460 -2.4211 18.9297
# 3 48.5568 52.8534 204.8817 -12.7122 -20.8360 16.0646
# 4 -20.0756 -17.3460 -12.7122 36.9993 9.5790 -7.0307
# 5 -2.1089 -2.4211 -20.8360 9.5790 41.0918 -10.3962
# 6 23.4872 18.9297 16.0646 -7.0307 -10.3962 24.0834
#
#
#
# Elastic Compliance Matrix: (Units=1/GPa)
#
#
# Indices 1 2 3 4 5 6 
#
# 1 0.014595 -0.004289 -0.001684 0.004425 -0.003959 -0.010156
# 2 -0.004289 0.018870 -0.003281 0.004779 -0.004124 -0.008846
# 3 -0.001684 -0.003281 0.006324 -0.000942 0.003455 0.001220
# 4 0.004425 0.004779 -0.000942 0.033189 -0.008013 -0.001213
# 5 -0.003959 -0.004124 0.003455 -0.008013 0.031580 0.016091
# 6 -0.010156 -0.008846 0.001220 -0.001213 0.016091 0.064159
#
#
# Mechanical properties :
#
#
# Convention : Reuss Voigt Hill
#
# Bulk Modulus (GPa) = 46.99024 78.06403 62.52713
# Shear Modulus (GPa) = 25.73093 37.15637 31.44365
#
# Velocity S-wave (km/s) = 3.36234 4.04046 3.71690
# Velocity P-wave (km/s) = 5.97661 7.48772 6.77443
#
# Compressibility (1/GPa) = 0.02128102
#
# Stress axis : x y z
#
# Youngs Moduli (GPa) = 68.51503 52.99422 158.13635
#
# Poissons Ratio (x) = 0.22729 0.26636
# Poissons Ratio (y) = 0.29386 0.51880
# Poissons Ratio (z) = 0.11540 0.17386
#
# Static dielectric constant tensor:
#      x y z
#    x 1.960740 -0.050450 -0.041060 
#    y -0.050450 1.865450 0.026230 
#    z -0.041060 0.026230 1.948040 
# 
# From -- ./inp_files/537490.got.cif
#   From: 2010.05.17/outbox.cif.g08.bks.cpg/sg2_269_cif.got.tgz:537490.got - 2010.06.03 11:33:40.
