data_PCOD9024359
_publ_section_title
;
Structure prediction by ZEFSAII (Michael W. Deem and Ramdas Pophale) SiO2 
 PCOD9024359
Probable space group: P -1
;
_chemical_formula_sum "Si O2"
_cell_formula_units_Z 16
_cell_length_a 6.534610
_cell_length_b 10.844523
_cell_length_c 12.027925
_cell_angle_alpha 61.154032
_cell_angle_beta 104.835601
_cell_angle_gamma 97.810628
_cell_volume 721.630119
_symmetry_space_group_name_H-M "P -1"
_symmetry_group_IT_number 2
_symmetry_cell_setting 'triclinic'
loop_
_space_group_symop_operation_xyz
x,y,z
-x,-y,-z
loop_
_atom_site_type_symbol
_atom_site_label
_atom_site_fract_x
_atom_site_fract_y
_atom_site_fract_z
Si Si1 0.423046 0.110693 0.272066
Si Si2 0.805156 0.391201 0.020234
Si Si3 0.661274 0.972255 0.936980
Si Si4 0.471109 0.325694 0.458041
Si Si5 0.842162 0.436771 0.599997
Si Si6 0.234166 0.033648 0.485742
Si Si7 0.033074 0.766807 0.100293
Si Si8 0.458396 0.597924 0.812190
O O1 0.242804 0.036943 0.351883
O O2 0.380379 0.274975 0.187097
O O3 0.460475 0.046274 0.187001
O O4 0.624495 0.087154 0.388778
O O5 0.877853 0.275409 0.991159
O O6 0.584384 0.456367 0.916257
O O7 0.742112 0.370886 0.150276
O O8 0.000000 0.500000 0.000000
O O9 0.819840 0.104595 0.893196
O O10 0.500000 0.000000 0.000000
O O11 0.800261 0.832343 0.032723
O O12 0.669571 0.327936 0.568601
O O13 0.298436 0.435455 0.429541
O O14 0.343601 0.179044 0.482215
O O15 0.567119 0.385509 0.329644
O O16 0.952429 0.360037 0.753554
O O17 0.000000 0.500000 0.500000
O O18 0.000000 0.000000 0.500000
#
# Coordination Sequence:
#
# PCOD9024359 Si02
#       8
#     2   2   2   2   2   2   2   2
#     4  10  22  42  63 101 128 175 222 275 341 403
#     4  11  23  39  65  95 129 172 220 278 331 410
#     4  11  25  44  70  93 140 177 222 289 347 412
#     4  10  23  43  65 100 137 184 228 286 342 409
#     4  11  25  43  68  98 142 185 237 285 341 416
#     4  10  23  41  71  96 135 176 228 286 339 407
#     4  11  25  44  65 104 129 178 239 274 343 424
#     4  10  22  40  64  93 134 168 216 276 342 393
#
# _framework density 22.172025000000001
#
# number of rings (size 3 to 8) (size 9 to 14) (size 15 to 20)
#    0.000    1.500    1.250    2.250    1.750   13.000 
#    0.000    0.000    0.000    0.000    0.000    0.000 
#    0.000    0.000    0.000    0.000    0.000    0.000 
#
# Total GULP energy -89341.744408 kJ/mol
# GULP energy per Si atom -5583.859025 kJ/mol
# Density = 2.212156 g / cm^3
# Si number density = 22.172025 Si / 1000 Ang^3
#
#
#
# Elastic Constant Matrix: (Units=GPa)
#
#
# Indices 1 2 3 4 5 6 
#
# 1 126.7702 31.6137 57.0529 0.2256 -30.4227 -30.5302
# 2 31.6137 89.2756 30.0671 11.8977 0.7966 -24.8787
# 3 57.0529 30.0671 87.3907 6.6910 -29.8900 -20.1220
# 4 0.2256 11.8977 6.6910 35.4603 -9.5925 -7.0844
# 5 -30.4227 0.7966 -29.8900 -9.5925 26.0837 10.7598
# 6 -30.5302 -24.8787 -20.1220 -7.0844 10.7598 41.0458
#
#
#
# Elastic Compliance Matrix: (Units=1/GPa)
#
#
# Indices 1 2 3 4 5 6 
#
# 1 0.014733 -0.004172 -0.002529 0.006741 0.015076 0.004401
# 2 -0.004172 0.019654 -0.009190 -0.009318 -0.023026 0.008733
# 3 -0.002529 -0.009190 0.025470 0.005910 0.029369 -0.001644
# 4 0.006741 -0.009318 0.005910 0.038121 0.028357 0.001409
# 5 0.015076 -0.023026 0.029369 0.028357 0.105265 -0.011045
# 6 0.004401 0.008733 -0.001644 0.001409 -0.011045 0.035262
#
#
# Mechanical properties :
#
#
# Convention : Reuss Voigt Hill
#
# Bulk Modulus (GPa) = 35.61891 60.10044 47.85967
# Shear Modulus (GPa) = 17.87972 32.83148 25.35560
#
# Velocity S-wave (km/s) = 2.84282 3.85224 3.38536
# Velocity P-wave (km/s) = 5.18412 6.85213 6.07564
#
# Compressibility (1/GPa) = 0.02807497
#
# Stress axis : x y z
#
# Youngs Moduli (GPa) = 67.87528 50.87903 39.26193
#
# Poissons Ratio (x) = 0.21225 0.09931
# Poissons Ratio (y) = 0.28315 0.36083
# Poissons Ratio (z) = 0.17168 0.46759
#
# Static dielectric constant tensor:
#      x y z
#    x 1.981590 -0.100070 -0.018110 
#    y -0.100070 1.933500 -0.014900 
#    z -0.018110 -0.014900 1.853940 
# 
# From -- ./inp_files/69858.got.cif
#   From: 2010.05.17/outbox.cif.g08.bks.cpg/sg2_35_cif.got.tgz:69858.got - 2010.06.03 11:33:40.
