data_PCOD9024949
_publ_section_title
;
Structure prediction by ZEFSAII (Michael W. Deem and Ramdas Pophale) SiO2 
 PCOD9024949
Probable space group: P -1
;
_chemical_formula_sum "Si O2"
_cell_formula_units_Z 16
_cell_length_a 8.050225
_cell_length_b 10.727690
_cell_length_c 17.756538
_cell_angle_alpha 136.317729
_cell_angle_beta 48.284727
_cell_angle_gamma 100.052117
_cell_volume 635.484976
_symmetry_space_group_name_H-M "P -1"
_symmetry_group_IT_number 2
_symmetry_cell_setting 'triclinic'
loop_
_space_group_symop_operation_xyz
x,y,z
-x,-y,-z
loop_
_atom_site_type_symbol
_atom_site_label
_atom_site_fract_x
_atom_site_fract_y
_atom_site_fract_z
Si Si1 0.138763 0.762873 0.991605
Si Si2 0.038388 0.179826 0.530143
Si Si3 0.762784 0.856420 0.279633
Si Si4 0.604208 0.708872 0.608502
Si Si5 0.943929 0.220512 0.263083
Si Si6 0.612781 0.252265 0.590539
Si Si7 0.762064 0.878609 0.021082
Si Si8 0.229402 0.524872 0.117158
O O1 0.937739 0.756208 0.107400
O O2 0.994668 0.852679 0.993639
O O3 0.400629 0.516896 0.784044
O O4 0.144412 0.958941 0.113732
O O5 0.903046 0.200363 0.499525
O O6 0.857096 0.381823 0.731645
O O7 0.295144 0.183449 0.432798
O O8 0.000000 0.000000 0.500000
O O9 0.506211 0.843374 0.357665
O O10 0.973885 0.698825 0.214986
O O11 0.649855 0.112922 0.443870
O O12 0.835143 0.445862 0.439646
O O13 0.341244 0.737162 0.661166
O O14 0.495651 0.863170 0.782719
O O15 0.108220 0.217037 0.140276
O O16 0.701838 0.718328 0.009048
O O17 0.500000 0.500000 0.000000
#
# Coordination Sequence:
#
# PCOD9024949 Si02
#       8
#     2   2   2   2   2   2   2   2
#     4  11  23  39  68  92 131 173 228 268 325 398
#     4  12  24  41  69 101 137 175 222 281 339 394
#     4  11  25  42  64  99 137 179 214 271 345 404
#     4  10  22  40  66  97 132 167 226 277 332 382
#     4  10  23  43  68 100 129 178 233 276 325 397
#     4  11  25  42  63  98 139 176 220 270 344 400
#     4  11  23  41  69 100 130 174 226 280 328 392
#     4  12  24  41  68 103 138 171 222 279 336 405
#
# _framework density 25.177622
#
# number of rings (size 3 to 8) (size 9 to 14) (size 15 to 20)
#    0.000    1.000    3.750    3.375    5.250    4.000 
#    0.000    0.625    0.000    3.750    0.000    0.000 
#    0.000    0.000    0.000    0.000    0.000    0.000 
#
# Total GULP energy -89385.429292 kJ/mol
# GULP energy per Si atom -5586.589331 kJ/mol
# Density = 2.512032 g / cm^3
# Si number density = 25.177622 Si / 1000 Ang^3
#
#
#
# Elastic Constant Matrix: (Units=GPa)
#
#
# Indices 1 2 3 4 5 6 
#
# 1 51.7434 19.6632 22.8292 2.1907 4.6857 15.2684
# 2 19.6632 112.1071 52.5560 7.0994 2.4647 30.3053
# 3 22.8292 52.5560 154.9715 32.2857 20.4301 25.2484
# 4 2.1907 7.0994 32.2857 58.9088 18.4701 5.7032
# 5 4.6857 2.4647 20.4301 18.4701 23.5281 -2.5311
# 6 15.2684 30.3053 25.2484 5.7032 -2.5311 23.6447
#
#
#
# Elastic Compliance Matrix: (Units=1/GPa)
#
#
# Indices 1 2 3 4 5 6 
#
# 1 0.025643 0.000908 -0.000478 0.004277 -0.010225 -0.019338
# 2 0.000908 0.014521 -0.002162 0.002214 -0.003477 -0.017796
# 3 -0.000478 -0.002162 0.009964 -0.002046 -0.007572 -0.007878
# 4 0.004277 0.002214 -0.002046 0.025172 -0.020322 -0.011662
# 5 -0.010225 -0.003477 -0.007572 -0.020322 0.070834 0.031629
# 6 -0.019338 -0.017796 -0.007878 -0.011662 0.031629 0.092200
#
#
# Mechanical properties :
#
#
# Convention : Reuss Voigt Hill
#
# Bulk Modulus (GPa) = 21.42935 56.54652 38.98794
# Shear Modulus (GPa) = 19.42863 36.13456 27.78159
#
# Velocity S-wave (km/s) = 2.78090 3.79249 3.32539
# Velocity P-wave (km/s) = 4.34061 6.45640 5.50118
#
# Compressibility (1/GPa) = 0.04666496
#
# Stress axis : x y z
#
# Youngs Moduli (GPa) = 38.99667 68.86510 100.35853
#
# Poissons Ratio (x) = -0.06252 0.04796
# Poissons Ratio (y) = -0.03541 0.21696
# Poissons Ratio (z) = 0.01863 0.14888
#
# Static dielectric constant tensor:
#      x y z
#    x 2.013290 0.003910 -0.030710 
#    y 0.003910 2.078750 0.088730 
#    z -0.030710 0.088730 2.006310 
# 
# From -- ./inp_files/283148.got.cif
#   From: 2010.05.17/outbox.cif.g08.bks.cpg/sg2_142_cif.got.tgz:283148.got - 2010.06.03 11:33:40.
