data_PCOD9024744
_publ_section_title
;
Structure prediction by ZEFSAII (Michael W. Deem and Ramdas Pophale) SiO2 
 PCOD9024744
Probable space group: P -1
;
_chemical_formula_sum "Si O2"
_cell_formula_units_Z 14
_cell_length_a 15.097184
_cell_length_b 18.824855
_cell_length_c 11.945820
_cell_angle_alpha 26.690636
_cell_angle_beta 150.731118
_cell_angle_gamma 149.913297
_cell_volume 686.182462
_symmetry_space_group_name_H-M "P -1"
_symmetry_group_IT_number 2
_symmetry_cell_setting 'triclinic'
loop_
_space_group_symop_operation_xyz
x,y,z
-x,-y,-z
loop_
_atom_site_type_symbol
_atom_site_label
_atom_site_fract_x
_atom_site_fract_y
_atom_site_fract_z
Si Si1 0.947786 0.372954 0.513566
Si Si2 0.434160 0.540022 0.548521
Si Si3 0.459805 0.649164 0.882114
Si Si4 0.048123 0.956152 0.739585
Si Si5 0.756783 0.743282 0.895849
Si Si6 0.806940 0.670421 0.621817
Si Si7 0.153603 0.674612 0.148029
O O1 0.713728 0.291921 0.358927
O O2 0.000000 0.500000 0.500000
O O3 0.058532 0.249092 0.835717
O O4 0.042341 0.494239 0.342103
O O5 0.653552 0.620065 0.627363
O O6 0.287416 0.466550 0.386150
O O7 0.362672 0.674328 0.343161
O O8 0.423153 0.385718 0.836006
O O9 0.349381 0.452029 0.992269
O O10 0.596694 0.762512 0.775150
O O11 0.173119 0.143272 0.662210
O O12 0.153739 0.823642 0.023259
O O13 0.000000 0.000000 0.500000
O O14 0.853204 0.866058 0.725632
O O15 0.015577 0.679816 0.884859
#
# Coordination Sequence:
#
# PCOD9024744 Si02
#       7
#     2   2   2   2   2   2   2
#     4  10  17  31  53  87 108 134 181 237 268 307
#     4  11  21  36  59  83 106 150 191 220 270 328
#     4  10  18  31  56  85 106 137 188 231 263 321
#     4  10  20  37  56  80 118 143 175 228 281 321
#     4  10  19  32  55  86 108 139 183 231 274 314
#     4  10  23  39  53  80 119 148 178 226 275 332
#     4  11  19  35  60  84 107 142 190 229 270 317
#
# _framework density 20.402736000000001
#
# number of rings (size 3 to 8) (size 9 to 14) (size 15 to 20)
#    0.000    1.714    5.714    1.286    0.000    0.571 
#    0.000    3.571    0.000    0.857    0.000    0.000 
#    0.000    0.000    0.000    0.000    0.000    0.000 
#
# Total GULP energy -78065.710359 kJ/mol
# GULP energy per Si atom -5576.122169 kJ/mol
# Density = 2.035630 g / cm^3
# Si number density = 20.402736 Si / 1000 Ang^3
#
#
#
# Elastic Constant Matrix: (Units=GPa)
#
#
# Indices 1 2 3 4 5 6 
#
# 1 85.2944 20.5016 24.5874 -10.1282 -0.0134 32.5439
# 2 20.5016 28.0560 7.6005 -12.7619 -0.0505 11.4470
# 3 24.5874 7.6005 70.5618 8.5676 -3.9918 11.2605
# 4 -10.1282 -12.7619 8.5676 23.3749 8.1809 -9.8635
# 5 -0.0134 -0.0505 -3.9918 8.1809 28.9267 -0.6235
# 6 32.5439 11.4470 11.2605 -9.8635 -0.6235 24.7144
#
#
#
# Elastic Compliance Matrix: (Units=1/GPa)
#
#
# Indices 1 2 3 4 5 6 
#
# 1 0.025489 -0.007933 -0.002318 -0.005801 0.000648 -0.031131
# 2 -0.007933 0.060491 -0.009208 0.037664 -0.011791 0.001358
# 3 -0.002318 -0.009208 0.020611 -0.020862 0.008508 -0.010185
# 4 -0.005801 0.037664 -0.020862 0.093851 -0.028573 0.036434
# 5 0.000648 -0.011791 0.008508 -0.028573 0.043598 -0.009571
# 6 -0.031131 0.001358 -0.010185 0.036434 -0.009571 0.099767
#
#
# Mechanical properties :
#
#
# Convention : Reuss Voigt Hill
#
# Bulk Modulus (GPa) = 14.77717 32.14350 23.46033
# Shear Modulus (GPa) = 12.33703 24.15138 18.24420
#
# Velocity S-wave (km/s) = 2.46168 3.44427 2.99357
# Velocity P-wave (km/s) = 3.91641 5.62193 4.84481
#
# Compressibility (1/GPa) = 0.06767197
#
# Stress axis : x y z
#
# Youngs Moduli (GPa) = 39.23332 16.53126 48.51735
#
# Poissons Ratio (x) = 0.13115 0.11246
# Poissons Ratio (y) = 0.31124 0.44677
# Poissons Ratio (z) = 0.09094 0.15223
#
# Static dielectric constant tensor:
#      x y z
#    x 1.757840 -0.016540 0.000260 
#    y -0.016540 1.745420 0.012480 
#    z 0.000260 0.012480 1.759600 
# 
# From -- ./inp_files/423085.got.cif
#   From: 2010.05.17/outbox.cif.g08.bks.cpg/sg2_212_cif.got.tgz:423085.got - 2010.06.03 11:33:40.
