data_PCOD9024069
_publ_section_title
;
Structure prediction by ZEFSAII (Michael W. Deem and Ramdas Pophale) SiO2 
 PCOD9024069
Probable space group: P -1
;
_chemical_formula_sum "Si O2"
_cell_formula_units_Z 14
_cell_length_a 11.731386
_cell_length_b 21.985342
_cell_length_c 5.053041
_cell_angle_alpha 84.806107
_cell_angle_beta 107.406735
_cell_angle_gamma 146.828337
_cell_volume 647.742054
_symmetry_space_group_name_H-M "P -1"
_symmetry_group_IT_number 2
_symmetry_cell_setting 'triclinic'
loop_
_space_group_symop_operation_xyz
x,y,z
-x,-y,-z
loop_
_atom_site_type_symbol
_atom_site_label
_atom_site_fract_x
_atom_site_fract_y
_atom_site_fract_z
Si Si1 0.638196 0.882094 0.270158
Si Si2 0.317980 0.965590 0.518857
Si Si3 0.082938 0.098839 0.224600
Si Si4 0.965496 0.173958 0.138093
Si Si5 0.501237 0.326652 0.172843
Si Si6 0.729436 0.375011 0.825317
Si Si7 0.409347 0.424890 0.216951
O O1 0.786701 0.899741 0.543920
O O2 0.394323 0.742429 0.124124
O O3 0.608064 0.935221 0.364698
O O4 0.811208 0.966746 0.106312
O O5 0.212045 0.886451 0.734748
O O6 0.500000 0.000000 0.500000
O O7 0.141360 0.895988 0.182517
O O8 0.246789 0.186142 0.056389
O O9 0.091110 0.168561 0.349660
O O10 0.138556 0.301435 0.124018
O O11 0.653458 0.355617 0.479606
O O12 0.487924 0.389532 0.243741
O O13 0.609242 0.370233 0.942644
O O14 0.000000 0.500000 0.000000
O O15 0.500000 0.500000 0.500000
O O16 0.500000 0.500000 0.000000
#
# Coordination Sequence:
#
# PCOD9024069 Si02
#       7
#     2   2   2   2   2   2   2
#     4   9  20  38  64  96 122 161 212 256 328 377
#     4  11  23  41  60  89 132 170 209 252 311 387
#     4   8  18  35  65  92 116 145 203 273 322 350
#     4  10  22  40  63  90 125 160 207 275 318 361
#     4  10  22  40  63  90 125 160 207 275 318 361
#     4  11  23  41  60  89 132 170 209 252 311 387
#     4  11  22  40  65  95 124 163 218 265 324 382
#
# _framework density 21.613544000000001
#
# number of rings (size 3 to 8) (size 9 to 14) (size 15 to 20)
#    0.000    2.000    0.000    2.571    0.000   18.286 
#    7.714    0.000    0.000    0.000    0.000    0.000 
#    0.000    0.000    0.000    0.000    0.000    0.000 
#
# Total GULP energy -78050.570159 kJ/mol
# GULP energy per Si atom -5575.040726 kJ/mol
# Density = 2.156435 g / cm^3
# Si number density = 21.613544 Si / 1000 Ang^3
#
#
#
# Elastic Constant Matrix: (Units=GPa)
#
#
# Indices 1 2 3 4 5 6 
#
# 1 89.8345 55.7535 20.0047 19.3975 -19.1751 8.1521
# 2 55.7535 195.4369 50.6300 13.2913 -7.8703 7.4678
# 3 20.0047 50.6300 91.2824 3.4948 -19.1245 2.1698
# 4 19.3975 13.2913 3.4948 35.1549 -2.0952 -6.0136
# 5 -19.1751 -7.8703 -19.1245 -2.0952 34.2208 -0.1567
# 6 8.1521 7.4678 2.1698 -6.0136 -0.1567 40.5008
#
#
#
# Elastic Compliance Matrix: (Units=1/GPa)
#
#
# Indices 1 2 3 4 5 6 
#
# 1 0.017575 -0.004114 0.000680 -0.008377 0.008751 -0.004025
# 2 -0.004114 0.007150 -0.003610 -0.000295 -0.002698 -0.000351
# 3 0.000680 -0.003610 0.014407 -0.000027 0.007599 -0.000218
# 4 -0.008377 -0.000295 -0.000027 0.034189 -0.002652 0.006808
# 5 0.008751 -0.002698 0.007599 -0.002652 0.037581 -0.001919
# 6 -0.004025 -0.000351 -0.000218 0.006808 -0.001919 0.026581
#
#
# Mechanical properties :
#
#
# Convention : Reuss Voigt Hill
#
# Bulk Modulus (GPa) = 39.92943 69.92556 54.92750
# Shear Modulus (GPa) = 31.26586 38.65299 34.95943
#
# Velocity S-wave (km/s) = 3.80753 4.23350 4.02615
# Velocity P-wave (km/s) = 6.15175 7.50464 6.86162
#
# Compressibility (1/GPa) = 0.02504418
#
# Stress axis : x y z
#
# Youngs Moduli (GPa) = 56.89788 139.85115 69.41255
#
# Poissons Ratio (x) = 0.57536 -0.04720
# Poissons Ratio (y) = 0.23408 0.25058
# Poissons Ratio (z) = -0.03869 0.50486
#
# Static dielectric constant tensor:
#      x y z
#    x 1.844210 -0.008030 0.042530 
#    y -0.008030 1.845820 0.003490 
#    z 0.042530 0.003490 1.849330 
# 
# From -- ./inp_files/82680.got.cif
#   From: 2010.05.17/outbox.cif.g08.bks.cpg/sg2_42_cif.got.tgz:82680.got - 2010.06.03 11:33:40.
