data_PCOD9024361
_publ_section_title
;
Structure prediction by ZEFSAII (Michael W. Deem and Ramdas Pophale) SiO2 
 PCOD9024361
Probable space group: P -1
;
_chemical_formula_sum "Si O2"
_cell_formula_units_Z 15
_cell_length_a 7.961125
_cell_length_b 12.354345
_cell_length_c 12.190020
_cell_angle_alpha 139.710699
_cell_angle_beta 74.204902
_cell_angle_gamma 86.083520
_cell_volume 668.654310
_symmetry_space_group_name_H-M "P -1"
_symmetry_group_IT_number 2
_symmetry_cell_setting 'triclinic'
loop_
_space_group_symop_operation_xyz
x,y,z
-x,-y,-z
loop_
_atom_site_type_symbol
_atom_site_label
_atom_site_fract_x
_atom_site_fract_y
_atom_site_fract_z
Si Si1 0.038302 0.537295 0.862020
Si Si2 0.500000 0.500000 0.500000
Si Si3 0.966897 0.606643 0.472753
Si Si4 0.594707 0.472873 0.717503
Si Si5 0.688164 0.151919 0.608927
Si Si6 0.450055 0.115164 0.210400
Si Si7 0.412009 0.197078 0.883882
Si Si8 0.977924 0.236976 0.775812
O O1 0.066600 0.349960 0.774250
O O2 0.087056 0.500902 0.697639
O O3 0.807738 0.672448 0.010823
O O4 0.122739 0.645412 0.007048
O O5 0.509367 0.491547 0.626811
O O6 0.490647 0.295097 0.337895
O O7 0.782606 0.805539 0.667858
O O8 0.000000 0.500000 0.500000
O O9 0.169595 0.604712 0.401788
O O10 0.572047 0.315726 0.671514
O O11 0.532361 0.664904 0.944370
O O12 0.544637 0.123411 0.696714
O O13 0.819522 0.217094 0.712266
O O14 0.846967 0.962438 0.381085
O O15 0.566434 0.974126 0.176895
O O16 0.500000 0.000000 0.000000
#
# Coordination Sequence:
#
# PCOD9024361 Si02
#       8
#     2   1   2   2   2   2   2   2
#     4  10  22  42  62  98 133 179 226 279 338 412
#     4  12  26  48  70 102 136 180 234 296 340 420
#     4  11  21  45  70  91 134 187 223 282 354 398
#     4  11  24  46  67 101 142 183 231 286 349 413
#     4  11  23  42  66 100 138 184 223 284 345 405
#     4  12  25  47  72 100 139 180 235 287 350 411
#     4  11  23  42  69  98 139 183 222 285 353 401
#     4  10  22  40  64  93 138 173 231 274 334 416
#
# _framework density 22.433115999999998
#
# number of rings (size 3 to 8) (size 9 to 14) (size 15 to 20)
#    0.000    1.067    5.333    2.000    3.733    1.600 
#    2.400    0.667    0.000    0.000    0.000    0.000 
#    0.000    0.000    0.000    0.000    0.000    0.000 
#
# Total GULP energy -83681.677123 kJ/mol
# GULP energy per Si atom -5578.778475 kJ/mol
# Density = 2.238206 g / cm^3
# Si number density = 22.433116 Si / 1000 Ang^3
#
#
#
# Elastic Constant Matrix: (Units=GPa)
#
#
# Indices 1 2 3 4 5 6 
#
# 1 44.3968 5.4340 19.3185 -0.0729 8.4435 3.1459
# 2 5.4340 143.7281 31.5706 2.2537 19.7623 -9.2538
# 3 19.3185 31.5706 105.2373 -14.9918 17.3527 -0.9141
# 4 -0.0729 2.2537 -14.9918 36.0014 -4.0137 10.8852
# 5 8.4435 19.7623 17.3527 -4.0137 40.3125 -5.2375
# 6 3.1459 -9.2538 -0.9141 10.8852 -5.2375 26.6352
#
#
#
# Elastic Compliance Matrix: (Units=1/GPa)
#
#
# Indices 1 2 3 4 5 6 
#
# 1 0.025375 0.000361 -0.004274 -0.001206 -0.004208 -0.003353
# 2 0.000361 0.008123 -0.002402 -0.002822 -0.002878 0.003284
# 3 -0.004274 -0.002402 0.012306 0.005798 -0.003020 -0.002871
# 4 -0.001206 -0.002822 0.005798 0.034908 0.000697 -0.014768
# 5 -0.004208 -0.002878 -0.003020 0.000697 0.029096 0.004830
# 6 -0.003353 0.003284 -0.002871 -0.014768 0.004830 0.045968
#
#
# Mechanical properties :
#
#
# Convention : Reuss Voigt Hill
#
# Bulk Modulus (GPa) = 30.14266 45.11207 37.62736
# Shear Modulus (GPa) = 27.86070 36.39242 32.12656
#
# Velocity S-wave (km/s) = 3.52795 4.03210 3.78842
# Velocity P-wave (km/s) = 5.48280 6.46764 5.99547
#
# Compressibility (1/GPa) = 0.03317558
#
# Stress axis : x y z
#
# Youngs Moduli (GPa) = 39.40826 123.10751 81.25817
#
# Poissons Ratio (x) = -0.04444 0.34726
# Poissons Ratio (y) = -0.01422 0.19519
# Poissons Ratio (z) = 0.16841 0.29571
#
# Static dielectric constant tensor:
#      x y z
#    x 1.876260 0.021730 0.013990 
#    y 0.021730 1.782270 -0.017000 
#    z 0.013990 -0.017000 1.822380 
# 
# From -- ./inp_files/308182.got.cif
#   From: 2010.05.17/outbox.cif.g08.bks.cpg/sg2_155_cif.got.tgz:308182.got - 2010.06.03 11:33:40.
