data_PCOD9024853
_publ_section_title
;
Structure prediction by ZEFSAII (Michael W. Deem and Ramdas Pophale) SiO2 
 PCOD9024853
Probable space group: P -1
;
_chemical_formula_sum "Si O2"
_cell_formula_units_Z 13
_cell_length_a 13.814064
_cell_length_b 13.560602
_cell_length_c 5.631561
_cell_angle_alpha 99.858038
_cell_angle_beta 107.336283
_cell_angle_gamma 30.833710
_cell_volume 508.361365
_symmetry_space_group_name_H-M "P -1"
_symmetry_group_IT_number 2
_symmetry_cell_setting 'triclinic'
loop_
_space_group_symop_operation_xyz
x,y,z
-x,-y,-z
loop_
_atom_site_type_symbol
_atom_site_label
_atom_site_fract_x
_atom_site_fract_y
_atom_site_fract_z
Si Si1 0.641580 0.098239 0.019452
Si Si2 0.073533 0.101522 0.466891
Si Si3 0.582903 0.890823 0.263322
Si Si4 0.662065 0.263243 0.783120
Si Si5 0.728061 0.406927 0.690266
Si Si6 0.981826 0.332022 0.113045
Si Si7 0.000000 0.500000 0.500000
O O1 0.451243 0.200095 0.826695
O O2 0.634159 0.218822 0.975715
O O3 0.817087 0.884720 0.937010
O O4 0.720535 0.034647 0.319311
O O5 0.913571 0.207325 0.591156
O O6 0.964902 0.281988 0.321047
O O7 0.148373 0.949455 0.291159
O O8 0.810682 0.723650 0.369449
O O9 0.500000 0.000000 0.500000
O O10 0.500000 0.000000 0.000000
O O11 0.695450 0.353654 0.854676
O O12 0.467375 0.418659 0.538808
O O13 0.803352 0.448805 0.861215
O O14 0.990569 0.439641 0.222494
#
# Coordination Sequence:
#
# PCOD9024853 Si02
#       7
#     2   2   2   2   2   2   1
#     4  10  23  44  67  98 140 179 231 297 357 427
#     4  10  22  40  66  93 134 177 224 286 350 427
#     4  12  28  50  76 110 150 195 251 315 370 452
#     4  10  23  41  65  97 135 179 226 285 357 424
#     4  10  23  41  64  98 135 176 233 284 346 438
#     4  10  23  44  65 100 133 180 237 287 358 430
#     4  12  26  46  76 104 142 200 244 310 380 434
#
# _framework density 25.572361999999998
#
# number of rings (size 3 to 8) (size 9 to 14) (size 15 to 20)
#    0.000    1.538    1.538    1.385    6.462    7.385 
#    2.769    3.077    0.000    0.000    0.000    0.000 
#    0.000    0.000    0.000    0.000    0.000    0.000 
#
# Total GULP energy -72453.172245 kJ/mol
# GULP energy per Si atom -5573.320942 kJ/mol
# Density = 2.551416 g / cm^3
# Si number density = 25.572362 Si / 1000 Ang^3
#
#
#
# Elastic Constant Matrix: (Units=GPa)
#
#
# Indices 1 2 3 4 5 6 
#
# 1 24.4407 7.3356 6.6039 6.4582 -1.0385 -0.5928
# 2 7.3356 101.2833 34.3629 1.2097 9.8809 13.9521
# 3 6.6039 34.3629 99.5982 -15.2829 -5.1198 -1.3551
# 4 6.4582 1.2097 -15.2829 42.9052 5.1090 12.8401
# 5 -1.0385 9.8809 -5.1198 5.1090 30.2896 -7.9275
# 6 -0.5928 13.9521 -1.3551 12.8401 -7.9275 15.7986
#
#
#
# Elastic Compliance Matrix: (Units=1/GPa)
#
#
# Indices 1 2 3 4 5 6 
#
# 1 0.051472 -0.009469 -0.001986 -0.021046 0.017491 0.036005
# 2 -0.009469 0.019588 -0.005726 0.012711 -0.019891 -0.038457
# 3 -0.001986 -0.005726 0.012878 0.002349 0.005380 0.006877
# 4 -0.021046 0.012711 0.002349 0.051417 -0.031281 -0.069298
# 5 0.017491 -0.019891 0.005380 -0.031281 0.066576 0.077515
# 6 0.036005 -0.038457 0.006877 -0.069298 0.077515 0.194417
#
#
# Mechanical properties :
#
#
# Convention : Reuss Voigt Hill
#
# Bulk Modulus (GPa) = 20.17102 35.76968 27.97035
# Shear Modulus (GPa) = 11.17981 29.60000 20.38990
#
# Velocity S-wave (km/s) = 2.09316 3.40590 2.82679
# Velocity P-wave (km/s) = 3.70766 5.42999 4.64928
#
# Compressibility (1/GPa) = 0.04957608
#
# Stress axis : x y z
#
# Youngs Moduli (GPa) = 19.42817 51.05200 77.65173
#
# Poissons Ratio (x) = 0.48340 0.15425
# Poissons Ratio (y) = 0.18396 0.44460
# Poissons Ratio (z) = 0.03859 0.29230
#
# Static dielectric constant tensor:
#      x y z
#    x 2.108340 -0.087060 0.008160 
#    y -0.087060 1.712770 -0.051460 
#    z 0.008160 -0.051460 2.004800 
# 
# From -- ./inp_files/32826.got.cif
#   From: 2010.05.17/outbox.cif.g08.bks.cpg/sg2_17_cif.got.tgz:32826.got - 2010.06.03 11:33:40.
