data_PCOD9024508
_publ_section_title
;
Structure prediction by ZEFSAII (Michael W. Deem and Ramdas Pophale) SiO2 
 PCOD9024508
Probable space group: P -1
;
_chemical_formula_sum "Si O2"
_cell_formula_units_Z 16
_cell_length_a 9.298827
_cell_length_b 10.094839
_cell_length_c 10.134290
_cell_angle_alpha 89.023828
_cell_angle_beta 41.139628
_cell_angle_gamma 100.766583
_cell_volume 596.255226
_symmetry_space_group_name_H-M "P -1"
_symmetry_group_IT_number 2
_symmetry_cell_setting 'triclinic'
loop_
_space_group_symop_operation_xyz
x,y,z
-x,-y,-z
loop_
_atom_site_type_symbol
_atom_site_label
_atom_site_fract_x
_atom_site_fract_y
_atom_site_fract_z
Si Si1 0.412536 0.056311 0.712750
Si Si2 0.334778 0.086925 0.267565
Si Si3 0.209638 0.317320 0.224882
Si Si4 0.628981 0.361298 0.468239
Si Si5 0.812717 0.173893 0.779388
Si Si6 0.134299 0.358776 0.774815
Si Si7 0.029267 0.158299 0.102587
Si Si8 0.683269 0.402149 0.731557
O O1 0.568324 0.195373 0.532161
O O2 0.254441 0.103612 0.931954
O O3 0.574815 0.972768 0.664341
O O4 0.202988 0.963190 0.769713
O O5 0.253099 0.223803 0.317324
O O6 0.162668 0.965108 0.300821
O O7 0.569113 0.130798 0.021328
O O8 0.169850 0.457641 0.300736
O O9 0.037115 0.225137 0.239467
O O10 0.442899 0.364213 0.976132
O O11 0.392856 0.362298 0.564765
O O12 0.839762 0.476065 0.249158
O O13 0.641515 0.419208 0.607567
O O14 0.783838 0.274817 0.681860
O O15 0.980774 0.264834 0.769855
O O16 0.062900 0.275320 0.962554
#
# Coordination Sequence:
#
# PCOD9024508 Si02
#       8
#     2   2   2   2   2   2   2   2
#     4  10  17  31  53  81 106 131 181 235 260 302
#     4  10  18  30  52  85 107 132 182 227 264 308
#     4  10  20  32  53  78 112 143 170 219 274 322
#     4  10  20  35  52  82 109 142 175 223 271 312
#     4  10  18  31  53  81 106 136 179 226 259 311
#     4  10  20  32  52  82 110 138 176 226 267 313
#     4  10  18  31  52  83 106 138 177 223 272 310
#     4  10  19  35  50  76 116 140 171 218 276 320
#
# _framework density 26.834147000000002
#
# number of rings (size 3 to 8) (size 9 to 14) (size 15 to 20)
#    0.000    2.000    5.000    1.500    3.500    0.500 
#    0.000    1.875    0.000    0.750    0.000    5.250 
#    0.000    0.000    0.000    0.000    0.000    0.000 
#
# Total GULP energy -89587.263194 kJ/mol
# GULP energy per Si atom -5599.203950 kJ/mol
# Density = 2.677307 g / cm^3
# Si number density = 26.834147 Si / 1000 Ang^3
#
#
#
# Elastic Constant Matrix: (Units=GPa)
#
#
# Indices 1 2 3 4 5 6 
#
# 1 149.0786 53.6032 37.4137 -27.9430 -0.3208 -3.4571
# 2 53.6032 150.2389 35.9745 -20.3108 -1.9768 4.6375
# 3 37.4137 35.9745 121.4483 -37.0049 -0.4587 7.3820
# 4 -27.9430 -20.3108 -37.0049 46.1883 3.7048 -0.1288
# 5 -0.3208 -1.9768 -0.4587 3.7048 44.6162 -19.4313
# 6 -3.4571 4.6375 7.3820 -0.1288 -19.4313 43.6511
#
#
#
# Elastic Compliance Matrix: (Units=1/GPa)
#
#
# Indices 1 2 3 4 5 6 
#
# 1 0.008446 -0.002372 -0.000972 0.003277 0.000187 0.001178
# 2 -0.002372 0.007973 -0.001248 0.001081 -0.000154 -0.000889
# 3 -0.000972 -0.001248 0.011582 0.008279 -0.001797 -0.002679
# 4 0.003277 0.001081 0.008279 0.031024 -0.003630 -0.002780
# 5 0.000187 -0.000154 -0.001797 -0.003630 0.028323 0.012932
# 6 0.001178 -0.000889 -0.002679 -0.002780 0.012932 0.029298
#
#
# Mechanical properties :
#
#
# Convention : Reuss Voigt Hill
#
# Bulk Modulus (GPa) = 53.14398 74.97208 64.05803
# Shear Modulus (GPa) = 37.84931 46.47607 42.16269
#
# Velocity S-wave (km/s) = 3.75972 4.16622 3.96818
# Velocity P-wave (km/s) = 6.22053 7.15142 6.70216
#
# Compressibility (1/GPa) = 0.01881681
#
# Stress axis : x y z
#
# Youngs Moduli (GPa) = 118.39227 125.42798 86.34353
#
# Poissons Ratio (x) = 0.29749 0.08393
# Poissons Ratio (y) = 0.28080 0.10777
# Poissons Ratio (z) = 0.11508 0.15655
#
# Static dielectric constant tensor:
#      x y z
#    x 2.046800 -0.064260 -0.009280 
#    y -0.064260 2.171600 0.015220 
#    z -0.009280 0.015220 2.149670 
# 
# From -- ./inp_files/387117.got.cif
#   From: 2010.05.17/outbox.cif.g08.bks.cpg/sg2_194_cif.got.tgz:387117.got - 2010.06.03 11:33:40.
