data_PCOD9024132
_publ_section_title
;
Structure prediction by ZEFSAII (Michael W. Deem and Ramdas Pophale) SiO2 
 PCOD9024132
Probable space group: P -1
;
_chemical_formula_sum "Si O2"
_cell_formula_units_Z 14
_cell_length_a 9.611761
_cell_length_b 18.234337
_cell_length_c 12.165251
_cell_angle_alpha 30.221743
_cell_angle_beta 133.319706
_cell_angle_gamma 112.275380
_cell_volume 633.968349
_symmetry_space_group_name_H-M "P -1"
_symmetry_group_IT_number 2
_symmetry_cell_setting 'triclinic'
loop_
_space_group_symop_operation_xyz
x,y,z
-x,-y,-z
loop_
_atom_site_type_symbol
_atom_site_label
_atom_site_fract_x
_atom_site_fract_y
_atom_site_fract_z
Si Si1 0.973988 0.839666 0.194389
Si Si2 0.508232 0.026991 0.341047
Si Si3 0.115058 0.686866 0.696996
Si Si4 0.724879 0.401294 0.668325
Si Si5 0.174582 0.369576 0.026611
Si Si6 0.038844 0.983089 0.414964
Si Si7 0.355774 0.474495 0.785893
O O1 0.955478 0.796356 0.365153
O O2 0.219240 0.677751 0.487709
O O3 0.761328 0.854850 0.996307
O O4 0.000000 0.000000 0.000000
O O5 0.500000 0.000000 0.500000
O O6 0.630448 0.841460 0.580272
O O7 0.691884 0.078486 0.369755
O O8 0.015767 0.828176 0.559095
O O9 0.160359 0.494630 0.954347
O O10 0.375054 0.638060 0.886167
O O11 0.500000 0.500000 0.500000
O O12 0.667759 0.504503 0.386486
O O13 0.923704 0.406383 0.830175
O O14 0.854672 0.184493 0.003490
O O15 0.234011 0.410708 0.883752
O O16 0.000000 0.000000 0.500000
#
# Coordination Sequence:
#
# PCOD9024132 Si02
#       7
#     2   2   2   2   2   2   2
#     4  11  20  35  60  95 127 160 205 259 310 361
#     4  11  22  40  66  95 127 167 210 254 307 373
#     4  11  23  39  62  93 126 161 206 264 314 365
#     4  11  24  42  64  90 123 166 210 252 310 380
#     4  10  22  40  63  94 124 159 207 260 312 363
#     4  11  25  45  64  89 126 167 208 256 316 380
#     4  11  21  37  62  92 125 162 204 255 308 368
#
# _framework density 22.083120000000001
#
# number of rings (size 3 to 8) (size 9 to 14) (size 15 to 20)
#    0.000    1.143    0.000    9.000    0.000    5.714 
#    0.000   10.714    0.000    0.000    0.000    0.000 
#    0.000    0.000    0.000    0.000    0.000    0.000 
#
# Total GULP energy -78098.403800 kJ/mol
# GULP energy per Si atom -5578.457414 kJ/mol
# Density = 2.203286 g / cm^3
# Si number density = 22.083120 Si / 1000 Ang^3
#
#
#
# Elastic Constant Matrix: (Units=GPa)
#
#
# Indices 1 2 3 4 5 6 
#
# 1 57.1736 10.5273 -12.3237 8.8277 14.9517 -8.5133
# 2 10.5273 129.2295 23.2743 -23.4060 6.2300 -21.3107
# 3 -12.3237 23.2743 70.6560 -4.9962 3.6697 -2.8454
# 4 8.8277 -23.4060 -4.9962 54.2466 -0.5580 -3.5317
# 5 14.9517 6.2300 3.6697 -0.5580 21.8378 2.5221
# 6 -8.5133 -21.3107 -2.8454 -3.5317 2.5221 33.1236
#
#
#
# Elastic Compliance Matrix: (Units=1/GPa)
#
#
# Indices 1 2 3 4 5 6 
#
# 1 0.025828 -0.001900 0.006104 -0.004205 -0.019077 0.006944
# 2 -0.001900 0.010548 -0.003087 0.004993 -0.001836 0.006705
# 3 0.006104 -0.003087 0.016562 -0.000773 -0.006263 0.001400
# 4 -0.004205 0.004993 -0.000773 0.021494 0.001645 0.004232
# 5 -0.019077 -0.001836 -0.006263 0.001645 0.061760 -0.011150
# 6 0.006944 0.006705 0.001400 0.004232 -0.011150 0.037709
#
#
# Mechanical properties :
#
#
# Convention : Reuss Voigt Hill
#
# Bulk Modulus (GPa) = 18.12557 33.33499 25.73028
# Shear Modulus (GPa) = 26.30782 37.54700 31.92741
#
# Velocity S-wave (km/s) = 3.45528 4.12789 3.80647
# Velocity P-wave (km/s) = 4.91369 6.15202 5.56739
#
# Compressibility (1/GPa) = 0.05517068
#
# Stress axis : x y z
#
# Youngs Moduli (GPa) = 38.71710 94.80880 60.38042
#
# Poissons Ratio (x) = 0.18014 -0.36856
# Poissons Ratio (y) = 0.07357 0.18641
# Poissons Ratio (z) = -0.23633 0.29271
#
# Static dielectric constant tensor:
#      x y z
#    x 1.818410 0.110690 -0.047710 
#    y 0.110690 2.116430 -0.064420 
#    z -0.047710 -0.064420 1.880500 
# 
# From -- ./inp_files/176770.got.cif
#   From: 2010.05.17/outbox.cif.g08.bks.cpg/sg2_89_cif.got.tgz:176770.got - 2010.06.03 11:33:40.
