data_PCOD9024893
_publ_section_title
;
Structure prediction by ZEFSAII (Michael W. Deem and Ramdas Pophale) SiO2 
 PCOD9024893
Probable space group: P -1
;
_chemical_formula_sum "Si O2"
_cell_formula_units_Z 11
_cell_length_a 7.325696
_cell_length_b 9.407163
_cell_length_c 9.964795
_cell_angle_alpha 117.302154
_cell_angle_beta 115.473260
_cell_angle_gamma 106.940388
_cell_volume 436.897939
_symmetry_space_group_name_H-M "P -1"
_symmetry_group_IT_number 2
_symmetry_cell_setting 'triclinic'
loop_
_space_group_symop_operation_xyz
x,y,z
-x,-y,-z
loop_
_atom_site_type_symbol
_atom_site_label
_atom_site_fract_x
_atom_site_fract_y
_atom_site_fract_z
Si Si1 0.327057 0.876643 0.088787
Si Si2 0.500000 0.000000 0.500000
Si Si3 0.790335 0.537149 0.476610
Si Si4 0.615040 0.581929 0.925469
Si Si5 0.176315 0.562703 0.272848
Si Si6 0.164291 0.994328 0.846277
O O1 0.385416 0.944412 0.288134
O O2 0.589650 0.947890 0.133920
O O3 0.113784 0.635670 0.901910
O O4 0.217415 0.970222 0.006374
O O5 0.241459 0.778301 0.378099
O O6 0.588316 0.440725 0.252586
O O7 0.694949 0.448984 0.557509
O O8 0.000000 0.500000 0.500000
O O9 0.925927 0.775330 0.627588
O O10 0.697768 0.458889 0.826682
O O11 0.500000 0.500000 0.000000
O O12 0.841847 0.820519 0.100419
#
# Coordination Sequence:
#
# PCOD9024893 Si02
#       6
#     2   1   2   2   2   2
#     4  10  22  40  66  95 125 174 224 266 324 397
#     4  12  22  38  64  96 134 170 216 272 328 382
#     4  11  24  45  72  96 129 180 226 263 326 405
#     4  12  26  42  64 100 138 171 220 279 330 384
#     4  11  25  41  65  97 133 174 222 271 329 397
#     4  10  22  43  65  89 131 177 217 267 327 392
#
# _framework density 25.177505
#
# number of rings (size 3 to 8) (size 9 to 14) (size 15 to 20)
#    0.000    1.091    0.000    7.636    0.000    8.000 
#    0.000    0.000    0.000    0.000    0.000    0.000 
#    0.000    0.000    0.000    0.000    0.000    0.000 
#
# Total GULP energy -61431.968156 kJ/mol
# GULP energy per Si atom -5584.724378 kJ/mol
# Density = 2.512020 g / cm^3
# Si number density = 25.177505 Si / 1000 Ang^3
#
#
#
# Elastic Constant Matrix: (Units=GPa)
#
#
# Indices 1 2 3 4 5 6 
#
# 1 61.4479 15.6595 16.8082 -17.1723 0.2474 8.2301
# 2 15.6595 174.0286 93.8029 -4.7986 9.3909 31.3972
# 3 16.8082 93.8029 144.6178 -5.7123 -11.5081 15.9535
# 4 -17.1723 -4.7986 -5.7123 52.1511 23.8860 -9.1811
# 5 0.2474 9.3909 -11.5081 23.8860 15.2680 -2.1666
# 6 8.2301 31.3972 15.9535 -9.1811 -2.1666 40.6963
#
#
#
# Elastic Compliance Matrix: (Units=1/GPa)
#
#
# Indices 1 2 3 4 5 6 
#
# 1 -0.111233 -0.126353 0.143300 -0.411880 0.834063 0.015284
# 2 -0.126353 -0.112288 0.134667 -0.405832 0.809066 0.010909
# 3 0.143300 0.134667 -0.150703 0.465943 -0.930268 -0.018207
# 4 -0.411880 -0.405832 0.465943 -1.321171 2.682691 0.058503
# 5 0.834063 0.809066 -0.930268 2.682691 -5.359123 -0.108284
# 6 0.015284 0.010909 -0.018207 0.058503 -0.108284 0.027636
#
#
# Mechanical properties :
#
#
# Convention : Reuss Voigt Hill
#
# Bulk Modulus (GPa) = -14.08542 70.29283 28.10371
# Shear Modulus (GPa) = -0.67992 38.54467 18.93237
#
# Velocity S-wave (km/s) = -0.52023 3.91694 2.74516
# Velocity P-wave (km/s) = 2.44283 6.95960 4.60807
#
# Compressibility (1/GPa) = -0.07099541
#
# Stress axis : x y z
#
# Youngs Moduli (GPa) = -8.99013 -8.90569 -6.63557
#
# Poissons Ratio (x) = -1.12526 0.95088
# Poissons Ratio (y) = -1.13593 0.89359
# Poissons Ratio (z) = 1.28829 1.19930
#
# Static dielectric constant tensor:
#      x y z
#    x 2.029770 0.004250 -0.002050 
#    y 0.004250 1.905800 -0.004430 
#    z -0.002050 -0.004430 1.929680 
# 
# From -- ./inp_files/152325.got.cif
#   From: 2010.05.17/outbox.cif.g08.bks.cpg/sg2_77_cif.got.tgz:152325.got - 2010.06.03 11:33:40.
