data_PCOD9024276
_publ_section_title
;
Structure prediction by ZEFSAII (Michael W. Deem and Ramdas Pophale) SiO2 
 PCOD9024276
Probable space group: P -1
;
_chemical_formula_sum "Si O2"
_cell_formula_units_Z 14
_cell_length_a 11.181715
_cell_length_b 10.051451
_cell_length_c 12.030484
_cell_angle_alpha 39.794115
_cell_angle_beta 58.251727
_cell_angle_gamma 44.883590
_cell_volume 610.194552
_symmetry_space_group_name_H-M "P -1"
_symmetry_group_IT_number 2
_symmetry_cell_setting 'triclinic'
loop_
_space_group_symop_operation_xyz
x,y,z
-x,-y,-z
loop_
_atom_site_type_symbol
_atom_site_label
_atom_site_fract_x
_atom_site_fract_y
_atom_site_fract_z
Si Si1 0.259399 0.716000 0.382287
Si Si2 0.140586 0.231542 0.152160
Si Si3 0.971497 0.352080 0.706550
Si Si4 0.379732 0.674664 0.604781
Si Si5 0.078191 0.207429 0.431411
Si Si6 0.627867 0.598452 0.010409
Si Si7 0.743818 0.203807 0.009072
O O1 0.321027 0.679283 0.504848
O O2 0.416286 0.469507 0.405794
O O3 0.076445 0.760135 0.444343
O O4 0.222337 0.986293 0.192635
O O5 0.048342 0.193893 0.324188
O O6 0.292400 0.239563 0.126665
O O7 0.000000 0.500000 0.000000
O O8 0.925495 0.545016 0.705352
O O9 0.000000 0.500000 0.500000
O O10 0.830161 0.285184 0.822780
O O11 0.138011 0.083233 0.826533
O O12 0.345954 0.513141 0.807553
O O13 0.261249 0.957072 0.527920
O O14 0.713003 0.374521 0.022529
O O15 0.430947 0.746329 0.981164
#
# Coordination Sequence:
#
# PCOD9024276 Si02
#       7
#     2   2   2   2   2   2   2
#     4  10  23  40  62  99 129 167 232 273 321 420
#     4  11  22  39  68  95 131 180 215 269 349 398
#     4  11  24  44  71  98 130 180 225 277 345 395
#     4  10  22  40  64  89 133 171 217 273 335 396
#     4  11  22  42  64  94 130 171 222 278 334 403
#     4  11  22  44  64  94 136 175 214 288 338 388
#     4  10  25  45  65 103 135 166 235 279 326 416
#
# _framework density 22.943501999999999
#
# number of rings (size 3 to 8) (size 9 to 14) (size 15 to 20)
#    0.000    1.429    1.429    4.286    2.000    5.143 
#    0.000    2.143    0.000    0.000    0.000    0.000 
#    0.000    0.000    0.000    0.000    0.000    0.000 
#
# Total GULP energy -78167.714911 kJ/mol
# GULP energy per Si atom -5583.408208 kJ/mol
# Density = 2.289128 g / cm^3
# Si number density = 22.943502 Si / 1000 Ang^3
#
#
#
# Elastic Constant Matrix: (Units=GPa)
#
#
# Indices 1 2 3 4 5 6 
#
# 1 81.1900 51.5767 40.5690 -30.5327 -24.4184 -18.2600
# 2 51.5767 160.2804 62.1326 -27.4248 -12.8324 -43.7750
# 3 40.5690 62.1326 129.0353 -7.4577 -7.2336 -31.5980
# 4 -30.5327 -27.4248 -7.4577 43.1238 4.4371 9.3786
# 5 -24.4184 -12.8324 -7.2336 4.4371 37.5678 2.9987
# 6 -18.2600 -43.7750 -31.5980 9.3786 2.9987 26.8380
#
#
#
# Elastic Compliance Matrix: (Units=1/GPa)
#
#
# Indices 1 2 3 4 5 6 
#
# 1 0.026232 -0.002654 -0.005165 0.014419 0.013374 0.000905
# 2 -0.002654 0.012378 -0.000931 0.002178 0.000754 0.016441
# 3 -0.005165 -0.000931 0.012171 -0.004365 -0.001695 0.011012
# 4 0.014419 0.002178 -0.004365 0.034418 0.005564 -0.004425
# 5 0.013374 0.000754 -0.001695 0.005564 0.034382 0.002548
# 6 0.000905 0.016441 0.011012 -0.004425 0.002548 0.078919
#
#
# Mechanical properties :
#
#
# Convention : Reuss Voigt Hill
#
# Bulk Modulus (GPa) = 30.04767 75.45137 52.74952
# Shear Modulus (GPa) = 22.01735 35.92108 28.96921
#
# Velocity S-wave (km/s) = 3.10116 3.96110 3.55721
# Velocity P-wave (km/s) = 5.09389 7.34013 6.31764
#
# Compressibility (1/GPa) = 0.03328045
#
# Stress axis : x y z
#
# Youngs Moduli (GPa) = 38.12181 80.79175 82.16060
#
# Poissons Ratio (x) = 0.21442 0.42434
# Poissons Ratio (y) = 0.10117 0.07652
# Poissons Ratio (z) = 0.19689 0.07524
#
# Static dielectric constant tensor:
#      x y z
#    x 1.881060 0.041310 0.019250 
#    y 0.041310 1.927020 0.036340 
#    z 0.019250 0.036340 1.852890 
# 
# From -- ./inp_files/427390.got.cif
#   From: 2010.05.17/outbox.cif.g08.bks.cpg/sg2_214_cif.got.tgz:427390.got - 2010.06.03 11:33:40.
