data_PCOD9024721
_publ_section_title
;
Structure prediction by ZEFSAII (Michael W. Deem and Ramdas Pophale) SiO2 
 PCOD9024721
Probable space group: P -1
;
_chemical_formula_sum "Si O2"
_cell_formula_units_Z 16
_cell_length_a 17.247869
_cell_length_b 5.774833
_cell_length_c 11.306415
_cell_angle_alpha 97.710219
_cell_angle_beta 59.139110
_cell_angle_gamma 133.206318
_cell_volume 660.887414
_symmetry_space_group_name_H-M "P -1"
_symmetry_group_IT_number 2
_symmetry_cell_setting 'triclinic'
loop_
_space_group_symop_operation_xyz
x,y,z
-x,-y,-z
loop_
_atom_site_type_symbol
_atom_site_label
_atom_site_fract_x
_atom_site_fract_y
_atom_site_fract_z
Si Si1 0.407052 0.268066 0.667221
Si Si2 0.098249 0.687151 0.823929
Si Si3 0.428646 0.752262 0.334557
Si Si4 0.820328 0.520742 0.531938
Si Si5 0.521327 0.276297 0.130530
Si Si6 0.219429 0.282499 0.181833
Si Si7 0.252806 0.010288 0.318449
Si Si8 0.024515 0.021238 0.758175
O O1 0.500000 0.500000 0.500000
O O2 0.460266 0.113006 0.653491
O O3 0.438437 0.491819 0.771293
O O4 0.253142 0.001635 0.748158
O O5 0.082902 0.387549 0.772115
O O6 0.060097 0.850629 0.788069
O O7 0.000000 0.500000 0.000000
O O8 0.318503 0.739319 0.448760
O O9 0.329861 0.356195 0.354575
O O10 0.501076 0.979917 0.177633
O O11 0.793854 0.571321 0.686859
O O12 0.923706 0.876260 0.410573
O O13 0.841597 0.293205 0.534937
O O14 0.381239 0.104312 0.183843
O O15 0.636262 0.490953 0.962162
O O16 0.179572 0.965528 0.256233
O O17 0.129879 0.216101 0.144052
#
# Coordination Sequence:
#
# PCOD9024721 Si02
#       8
#     2   2   2   2   2   2   2   2
#     4  11  25  42  72 100 135 185 245 306 361 419
#     4  12  30  52  76 104 147 193 248 304 362 419
#     4   9  21  39  67  98 138 173 236 288 365 419
#     4  10  23  42  68 103 144 179 232 291 360 429
#     4  10  22  40  66 100 139 178 234 296 360 430
#     4  11  24  41  68  99 144 188 234 283 363 437
#     4   9  21  39  65 100 141 179 228 285 362 424
#     4  12  29  47  76 102 145 190 245 296 352 436
#
# _framework density 24.209873999999999
#
# number of rings (size 3 to 8) (size 9 to 14) (size 15 to 20)
#    0.000    1.500    0.000    2.625   14.000    7.500 
#    0.000    0.000    0.000    0.000    0.000    0.000 
#    0.000    0.000    0.000    0.000    0.000    0.000 
#
# Total GULP energy -89195.023830 kJ/mol
# GULP energy per Si atom -5574.688989 kJ/mol
# Density = 2.415477 g / cm^3
# Si number density = 24.209874 Si / 1000 Ang^3
#
#
#
# Elastic Constant Matrix: (Units=GPa)
#
#
# Indices 1 2 3 4 5 6 
#
# 1 180.5173 35.4066 28.6435 -23.5923 4.4982 -0.5622
# 2 35.4066 74.7442 35.4816 0.0143 -0.4177 -6.3259
# 3 28.6435 35.4816 125.8006 -15.6043 0.8469 -8.6220
# 4 -23.5923 0.0143 -15.6043 38.5221 -5.5437 4.6990
# 5 4.4982 -0.4177 0.8469 -5.5437 34.8312 -18.9562
# 6 -0.5622 -6.3259 -8.6220 4.6990 -18.9562 36.5397
#
#
#
# Elastic Compliance Matrix: (Units=1/GPa)
#
#
# Indices 1 2 3 4 5 6 
#
# 1 0.006770 -0.003246 -0.000222 0.004091 -0.001144 -0.001630
# 2 -0.003246 0.017312 -0.004407 -0.003914 0.001983 0.003439
# 3 -0.000222 -0.004407 0.009826 0.003820 0.001285 0.001728
# 4 0.004091 -0.003914 0.003820 0.030711 0.003102 -0.002053
# 5 -0.001144 0.001983 0.001285 0.003102 0.041063 0.021533
# 6 -0.001630 0.003439 0.001728 -0.002053 0.021533 0.039780
#
#
# Mechanical properties :
#
#
# Convention : Reuss Voigt Hill
#
# Bulk Modulus (GPa) = 55.07548 64.45840 59.76694
# Shear Modulus (GPa) = 29.89285 40.74729 35.32007
#
# Velocity S-wave (km/s) = 3.51770 4.10699 3.82371
# Velocity P-wave (km/s) = 6.26877 7.01231 6.65094
#
# Compressibility (1/GPa) = 0.01815690
#
# Stress axis : x y z
#
# Youngs Moduli (GPa) = 147.71454 57.76476 101.76913
#
# Poissons Ratio (x) = 0.18753 0.02262
# Poissons Ratio (y) = 0.47955 0.44846
# Poissons Ratio (z) = 0.03283 0.25455
#
# Static dielectric constant tensor:
#      x y z
#    x 2.086920 -0.125860 -0.016540 
#    y -0.125860 2.110610 0.049930 
#    z -0.016540 0.049930 2.041840 
# 
# From -- ./inp_files/459520.got.cif
#   From: 2010.05.17/outbox.cif.g08.bks.cpg/sg2_230_cif.got.tgz:459520.got - 2010.06.03 11:33:40.
