data_PCOD9024287
_publ_section_title
;
Structure prediction by ZEFSAII (Michael W. Deem and Ramdas Pophale) SiO2 
 PCOD9024287
Probable space group: P -1
;
_chemical_formula_sum "Si O2"
_cell_formula_units_Z 15
_cell_length_a 9.258085
_cell_length_b 11.447150
_cell_length_c 18.025433
_cell_angle_alpha 56.030398
_cell_angle_beta 149.939160
_cell_angle_gamma 131.841341
_cell_volume 712.009279
_symmetry_space_group_name_H-M "P -1"
_symmetry_group_IT_number 2
_symmetry_cell_setting 'triclinic'
loop_
_space_group_symop_operation_xyz
x,y,z
-x,-y,-z
loop_
_atom_site_type_symbol
_atom_site_label
_atom_site_fract_x
_atom_site_fract_y
_atom_site_fract_z
Si Si1 0.262906 0.339156 0.413478
Si Si2 0.711930 0.778210 0.694012
Si Si3 0.650181 0.960442 0.153156
Si Si4 0.191972 0.341224 0.940284
Si Si5 0.063843 0.659381 0.011422
Si Si6 0.500000 0.000000 0.500000
Si Si7 0.409138 0.870753 0.339937
Si Si8 0.443639 0.861973 0.809571
O O1 0.500000 0.500000 0.500000
O O2 0.304896 0.329946 0.345756
O O3 0.328032 0.196127 0.523580
O O4 0.896660 0.291917 0.287764
O O5 0.867549 0.733751 0.849020
O O6 0.415770 0.815884 0.561719
O O7 0.964156 0.960255 0.714474
O O8 0.574330 0.047004 0.156705
O O9 0.443392 0.776797 0.136979
O O10 0.500000 0.000000 0.000000
O O11 0.919532 0.275133 0.780197
O O12 0.500000 0.500000 0.000000
O O13 0.049352 0.364934 0.945860
O O14 0.290502 0.200153 0.046174
O O15 0.000000 0.500000 0.000000
O O16 0.603199 0.075935 0.601766
O O17 0.493329 0.016633 0.271366
#
# Coordination Sequence:
#
# PCOD9024287 Si02
#       8
#     2   2   2   2   2   1   2   2
#     4  10  22  40  64  91 133 172 206 264 328 405
#     4   9  21  39  64  91 124 170 217 260 319 388
#     4   9  20  36  63  91 122 166 214 261 322 385
#     4  12  27  40  65 100 134 171 217 287 343 374
#     4  11  24  40  64  96 132 167 211 272 335 397
#     4  10  22  40  64  90 128 166 220 272 316 382
#     4  11  23  41  66  92 126 173 223 267 324 397
#     4  11  22  41  67  92 127 167 227 273 320 394
#
# _framework density 21.067142
#
# number of rings (size 3 to 8) (size 9 to 14) (size 15 to 20)
#    0.000    1.600    1.333    2.400   11.200    0.000 
#    0.000    1.333    0.000    5.600    0.000    0.000 
#    0.000    0.000    0.000    0.000    0.000    0.000 
#
# Total GULP energy -83556.468147 kJ/mol
# GULP energy per Si atom -5570.431210 kJ/mol
# Density = 2.101919 g / cm^3
# Si number density = 21.067142 Si / 1000 Ang^3
#
#
#
# Elastic Constant Matrix: (Units=GPa)
#
#
# Indices 1 2 3 4 5 6 
#
# 1 87.6469 40.7522 21.9691 19.2212 -28.0285 -9.9600
# 2 40.7522 86.4136 4.9421 21.9140 -14.4122 -5.8242
# 3 21.9691 4.9421 60.6134 9.9274 -27.1138 -1.1182
# 4 19.2212 21.9140 9.9274 51.2774 -7.5336 -1.0796
# 5 -28.0285 -14.4122 -27.1138 -7.5336 35.1028 -1.7947
# 6 -9.9600 -5.8242 -1.1182 -1.0796 -1.7947 30.1242
#
#
#
# Elastic Compliance Matrix: (Units=1/GPa)
#
#
# Indices 1 2 3 4 5 6 
#
# 1 0.019620 -0.006042 -0.000444 -0.002715 0.012564 0.005953
# 2 -0.006042 0.016059 0.003120 -0.004701 0.003234 0.001247
# 3 -0.000444 0.003120 0.026185 -0.003156 0.020605 0.002543
# 4 -0.002715 -0.004701 -0.003156 0.022866 -0.001690 -0.001205
# 5 0.012564 0.003234 0.020605 -0.001690 0.055851 0.008811
# 6 0.005953 0.001247 0.002543 -0.001205 0.008811 0.035982
#
#
# Mechanical properties :
#
#
# Convention : Reuss Voigt Hill
#
# Bulk Modulus (GPa) = 18.13821 41.11121 29.62471
# Shear Modulus (GPa) = 24.79286 34.43491 29.61389
#
# Velocity S-wave (km/s) = 3.43425 4.04732 3.75332
# Velocity P-wave (km/s) = 4.93496 6.43411 5.73374
#
# Compressibility (1/GPa) = 0.05513223
#
# Stress axis : x y z
#
# Youngs Moduli (GPa) = 50.96918 62.27192 38.18915
#
# Poissons Ratio (x) = 0.37624 0.01695
# Poissons Ratio (y) = 0.30795 -0.11915
# Poissons Ratio (z) = 0.02262 -0.19428
#
# Static dielectric constant tensor:
#      x y z
#    x 1.593930 0.056470 -0.082330 
#    y 0.056470 1.765900 0.005810 
#    z -0.082330 0.005810 1.749230 
# 
# From -- ./inp_files/237975.got.cif
#   From: 2010.05.17/outbox.cif.g08.bks.cpg/sg2_119_cif.got.tgz:237975.got - 2010.06.03 11:33:40.
