data_PCOD9024736
_publ_section_title
;
Structure prediction by ZEFSAII (Michael W. Deem and Ramdas Pophale) SiO2 
 PCOD9024736
Probable space group: P -1
;
_chemical_formula_sum "Si O2"
_cell_formula_units_Z 16
_cell_length_a 11.535171
_cell_length_b 13.046754
_cell_length_c 12.335302
_cell_angle_alpha 155.368853
_cell_angle_beta 122.907389
_cell_angle_gamma 56.376802
_cell_volume 639.985423
_symmetry_space_group_name_H-M "P -1"
_symmetry_group_IT_number 2
_symmetry_cell_setting 'triclinic'
loop_
_space_group_symop_operation_xyz
x,y,z
-x,-y,-z
loop_
_atom_site_type_symbol
_atom_site_label
_atom_site_fract_x
_atom_site_fract_y
_atom_site_fract_z
Si Si1 0.468303 0.229350 0.960259
Si Si2 0.910532 0.978479 0.131498
Si Si3 0.979820 0.832994 0.433603
Si Si4 0.754704 0.604690 0.819141
Si Si5 0.526531 0.249823 0.654943
Si Si6 0.688866 0.418815 0.398734
Si Si7 0.131426 0.281172 0.352676
Si Si8 0.746757 0.857899 0.485749
O O1 0.329039 0.269839 0.000857
O O2 0.464490 0.486768 0.140287
O O3 0.596773 0.242967 0.122446
O O4 0.481328 0.976626 0.654043
O O5 0.839820 0.261854 0.353640
O O6 0.808217 0.817363 0.982064
O O7 0.922135 0.884953 0.926628
O O8 0.021727 0.979948 0.283955
O O9 0.836867 0.743430 0.315805
O O10 0.112504 0.606420 0.282670
O O11 0.000000 0.000000 0.500000
O O12 0.649087 0.507042 0.585780
O O13 0.387167 0.273979 0.680333
O O14 0.665382 0.135253 0.682873
O O15 0.730160 0.623061 0.532941
O O16 0.168928 0.169874 0.383729
O O17 0.000000 0.500000 0.500000
#
# Coordination Sequence:
#
# PCOD9024736 Si02
#       8
#     2   2   2   2   2   2   2   2
#     4  12  25  47  75 106 153 191 252 300 368 443
#     4  10  23  42  67 104 140 187 246 296 376 434
#     4  11  25  47  71 105 142 189 245 304 377 443
#     4  10  24  42  69 105 143 189 243 305 369 436
#     4  11  28  48  72 112 142 200 246 302 374 439
#     4  10  22  40  66 101 141 186 243 299 365 434
#     4  11  22  43  67 104 141 187 245 303 367 435
#     4  11  24  48  73 102 152 187 248 306 368 441
#
# _framework density 25.000568000000001
#
# number of rings (size 3 to 8) (size 9 to 14) (size 15 to 20)
#    0.000    1.250    1.250    4.125    7.000    6.000 
#   11.250    0.000    0.000    0.000    0.000    0.000 
#    0.000    0.000    0.000    0.000    0.000    0.000 
#
# Total GULP energy -89313.845649 kJ/mol
# GULP energy per Si atom -5582.115353 kJ/mol
# Density = 2.494367 g / cm^3
# Si number density = 25.000568 Si / 1000 Ang^3
#
#
#
# Elastic Constant Matrix: (Units=GPa)
#
#
# Indices 1 2 3 4 5 6 
#
# 1 161.2268 63.7624 29.4669 5.8840 -14.1534 23.1154
# 2 63.7624 173.4435 37.7265 -3.3697 -4.6345 21.7499
# 3 29.4669 37.7265 99.0316 -13.9450 -14.0686 12.8448
# 4 5.8840 -3.3697 -13.9450 45.5977 7.7546 6.4766
# 5 -14.1534 -4.6345 -14.0686 7.7546 20.4678 -4.8333
# 6 23.1154 21.7499 12.8448 6.4766 -4.8333 45.4038
#
#
#
# Elastic Compliance Matrix: (Units=1/GPa)
#
#
# Indices 1 2 3 4 5 6 
#
# 1 0.008098 -0.002469 -0.000826 -0.002024 0.004789 -0.001908
# 2 -0.002469 0.007320 -0.001974 0.000931 -0.002247 -0.002063
# 3 -0.000826 -0.001974 0.012648 0.003089 0.006030 -0.002011
# 4 -0.002024 0.000931 0.003089 0.025608 -0.009948 -0.005001
# 5 0.004789 -0.002247 0.006030 -0.009948 0.060711 0.004814
# 6 -0.001908 -0.002063 -0.002011 -0.005001 0.004814 0.025778
#
#
# Mechanical properties :
#
#
# Convention : Reuss Voigt Hill
#
# Bulk Modulus (GPa) = 57.05767 77.29041 67.17404
# Shear Modulus (GPa) = 31.93995 42.47693 37.20844
#
# Velocity S-wave (km/s) = 3.57819 4.12641 3.86204
# Velocity P-wave (km/s) = 6.32007 7.32705 6.84211
#
# Compressibility (1/GPa) = 0.01752613
#
# Stress axis : x y z
#
# Youngs Moduli (GPa) = 123.49091 136.62117 79.06349
#
# Poissons Ratio (x) = 0.33738 0.06530
# Poissons Ratio (y) = 0.30495 0.15609
# Poissons Ratio (z) = 0.10200 0.26972
#
# Static dielectric constant tensor:
#      x y z
#    x 1.762030 -0.302280 0.569230 
#    y -0.302280 1.891670 0.126880 
#    z 0.569230 0.126880 1.649960 
# 
# From -- ./inp_files/429279.got.cif
#   From: 2010.05.17/outbox.cif.g08.bks.cpg/sg2_215_cif.got.tgz:429279.got - 2010.06.03 11:33:40.
