data_PCOD9024010
_publ_section_title
;
Structure prediction by ZEFSAII (Michael W. Deem and Ramdas Pophale) SiO2 
 PCOD9024010
Probable space group: P -1
;
_chemical_formula_sum "Si O2"
_cell_formula_units_Z 16
_cell_length_a 10.009691
_cell_length_b 13.291228
_cell_length_c 15.766033
_cell_angle_alpha 58.210960
_cell_angle_beta 134.136927
_cell_angle_gamma 146.639992
_cell_volume 819.757444
_symmetry_space_group_name_H-M "P -1"
_symmetry_group_IT_number 2
_symmetry_cell_setting 'triclinic'
loop_
_space_group_symop_operation_xyz
x,y,z
-x,-y,-z
loop_
_atom_site_type_symbol
_atom_site_label
_atom_site_fract_x
_atom_site_fract_y
_atom_site_fract_z
Si Si1 0.725438 0.535305 0.473670
Si Si2 0.212041 0.632215 0.728998
Si Si3 0.207230 0.600855 0.190283
Si Si4 0.798737 0.016489 0.889992
Si Si5 0.725124 0.788017 0.447742
Si Si6 0.779782 0.138785 0.002583
Si Si7 0.351529 0.452661 0.198919
Si Si8 0.311282 0.411101 0.870295
O O1 0.797446 0.698520 0.474483
O O2 0.473402 0.348319 0.500186
O O3 0.580656 0.491380 0.339186
O O4 0.012126 0.597590 0.585979
O O5 0.286158 0.535257 0.778798
O O6 0.028101 0.535532 0.779031
O O7 0.508252 0.843664 0.788141
O O8 0.516126 0.757991 0.305328
O O9 0.157545 0.697325 0.075289
O O10 0.232866 0.501738 0.182762
O O11 0.730520 0.035868 0.943611
O O12 0.997616 0.206504 0.843428
O O13 0.000000 0.000000 0.000000
O O14 0.000000 0.000000 0.500000
O O15 0.070911 0.243927 0.134864
O O16 0.500000 0.000000 0.000000
O O17 0.523620 0.578182 0.135492
O O18 0.500000 0.500000 0.000000
#
# Coordination Sequence:
#
# PCOD9024010 Si02
#       8
#     2   2   2   2   2   2   2   2
#     4   9  22  38  60  92 123 168 201 257 313 360
#     4  11  22  43  67  91 125 160 219 253 307 384
#     4  10  22  40  62  96 125 164 202 268 311 356
#     4  12  25  41  66  91 121 167 208 258 312 375
#     4   9  19  36  63  88 129 165 203 250 313 376
#     4  12  25  36  63  98 123 161 212 257 313 366
#     4  11  23  43  61  88 137 161 202 263 315 368
#     4  12  23  44  64  91 126 172 207 251 322 369
#
# _framework density 19.517969000000001
#
# number of rings (size 3 to 8) (size 9 to 14) (size 15 to 20)
#    0.000    1.250    3.750    1.875    5.250    0.500 
#    0.000    0.625    0.000    0.000    0.000    0.000 
#    0.000    0.000    0.000    0.000    0.000    0.000 
#
# Total GULP energy -89409.493582 kJ/mol
# GULP energy per Si atom -5588.093349 kJ/mol
# Density = 1.947354 g / cm^3
# Si number density = 19.517969 Si / 1000 Ang^3
#
#
#
# Elastic Constant Matrix: (Units=GPa)
#
#
# Indices 1 2 3 4 5 6 
#
# 1 72.0014 10.2027 -2.0143 -3.8479 -3.7892 5.3572
# 2 10.2027 112.0964 37.7919 30.7126 4.3331 4.5616
# 3 -2.0143 37.7919 113.1202 6.0965 13.7504 -4.7773
# 4 -3.8479 30.7126 6.0965 29.8892 3.1266 4.5061
# 5 -3.7892 4.3331 13.7504 3.1266 30.4800 -2.1199
# 6 5.3572 4.5616 -4.7773 4.5061 -2.1199 25.9840
#
#
#
# Elastic Compliance Matrix: (Units=1/GPa)
#
#
# Indices 1 2 3 4 5 6 
#
# 1 0.014896 -0.002902 0.000676 0.005122 0.001210 -0.003227
# 2 -0.002902 0.014582 -0.004262 -0.014568 0.000974 -0.000139
# 3 0.000676 -0.004262 0.010741 0.002451 -0.004281 0.001809
# 4 0.005122 -0.014568 0.002451 0.050072 -0.004025 -0.007060
# 5 0.001210 0.000974 -0.004281 -0.004025 0.035330 0.002373
# 6 -0.003227 -0.000139 0.001809 -0.007060 0.002373 0.040926
#
#
# Mechanical properties :
#
#
# Convention : Reuss Voigt Hill
#
# Bulk Modulus (GPa) = 36.71025 43.24208 39.97616
# Shear Modulus (GPa) = 26.51056 34.01982 30.26519
#
# Velocity S-wave (km/s) = 3.68946 4.17945 3.94208
# Velocity P-wave (km/s) = 6.08266 6.74489 6.42232
#
# Compressibility (1/GPa) = 0.02724035
#
# Stress axis : x y z
#
# Youngs Moduli (GPa) = 67.13071 68.57972 93.10223
#
# Poissons Ratio (x) = 0.19905 -0.06289
# Poissons Ratio (y) = 0.19484 0.39683
# Poissons Ratio (z) = -0.04535 0.29231
#
# Static dielectric constant tensor:
#      x y z
#    x 1.668860 -0.022570 -0.100390 
#    y -0.022570 1.640800 -0.120990 
#    z -0.100390 -0.120990 1.106100 
# 
# From -- ./inp_files/306161.got.cif
#   From: 2010.05.17/outbox.cif.g08.bks.cpg/sg2_154_cif.got.tgz:306161.got - 2010.06.03 11:33:40.
