data_PCOD9024665
_publ_section_title
;
Structure prediction by ZEFSAII (Michael W. Deem and Ramdas Pophale) SiO2 
 PCOD9024665
Probable space group: P -1
;
_chemical_formula_sum "Si O2"
_cell_formula_units_Z 14
_cell_length_a 5.080129
_cell_length_b 7.826428
_cell_length_c 16.376256
_cell_angle_alpha 126.546591
_cell_angle_beta 82.926128
_cell_angle_gamma 101.622717
_cell_volume 512.352676
_symmetry_space_group_name_H-M "P -1"
_symmetry_group_IT_number 2
_symmetry_cell_setting 'triclinic'
loop_
_space_group_symop_operation_xyz
x,y,z
-x,-y,-z
loop_
_atom_site_type_symbol
_atom_site_label
_atom_site_fract_x
_atom_site_fract_y
_atom_site_fract_z
Si Si1 0.542324 0.260209 0.057294
Si Si2 0.649980 0.715721 0.426711
Si Si3 0.204524 0.849020 0.370010
Si Si4 0.930926 0.780799 0.056141
Si Si5 0.581164 0.918247 0.237168
Si Si6 0.283916 0.199970 0.205097
Si Si7 0.116398 0.645737 0.612083
O O1 0.950415 0.961169 0.880220
O O2 0.300384 0.301115 0.021630
O O3 0.813361 0.320648 0.011945
O O4 0.500000 0.000000 0.000000
O O5 0.377205 0.765980 0.412884
O O6 0.658569 0.480373 0.394217
O O7 0.893201 0.758823 0.364751
O O8 0.748614 0.893003 0.543363
O O9 0.342190 0.799750 0.267054
O O10 0.783949 0.778503 0.148780
O O11 0.488460 0.335647 0.172577
O O12 0.442196 0.041024 0.205823
O O13 0.750647 0.108376 0.338879
O O14 0.112876 0.329778 0.306500
O O15 0.000000 0.500000 0.500000
#
# Coordination Sequence:
#
# PCOD9024665 Si02
#       7
#     2   2   2   2   2   2   2
#     4  10  17  31  53  83 127 153 186 248 314 357
#     4  10  24  44  60  83 118 167 204 246 302 357
#     4  10  24  41  64  83 117 161 212 248 293 361
#     4  10  19  32  55  87 126 151 191 249 315 347
#     4  11  23  37  63  94 125 156 208 253 303 357
#     4  10  21  33  57  89 125 157 199 245 312 358
#     4  11  26  39  61  91 130 162 202 252 307 355
#
# _framework density 27.324932
#
# number of rings (size 3 to 8) (size 9 to 14) (size 15 to 20)
#    0.000    1.714    2.857    2.571   14.000    1.143 
#    0.000    0.000    0.000    0.000    0.000    6.000 
#    0.000    0.000    0.000    0.000    0.000    0.000 
#
# Total GULP energy -78465.395235 kJ/mol
# GULP energy per Si atom -5604.671088 kJ/mol
# Density = 2.726274 g / cm^3
# Si number density = 27.324932 Si / 1000 Ang^3
#
#
#
# Elastic Constant Matrix: (Units=GPa)
#
#
# Indices 1 2 3 4 5 6 
#
# 1 145.2798 11.4307 50.4192 1.2401 -20.1312 -4.3970
# 2 11.4307 61.9144 39.1432 19.7508 -13.6351 -9.9217
# 3 50.4192 39.1432 159.7450 -18.1359 -37.5637 10.4421
# 4 1.2401 19.7508 -18.1359 45.3585 5.6772 -14.0839
# 5 -20.1312 -13.6351 -37.5637 5.6772 53.5416 -14.4408
# 6 -4.3970 -9.9217 10.4421 -14.0839 -14.4408 37.4035
#
#
#
# Elastic Compliance Matrix: (Units=1/GPa)
#
#
# Indices 1 2 3 4 5 6 
#
# 1 0.008128 0.001669 -0.002755 -0.001574 0.002389 0.002497
# 2 0.001669 0.027572 -0.008057 -0.013895 0.005236 0.006549
# 3 -0.002755 -0.008057 0.010779 0.006995 0.003313 -0.001557
# 4 -0.001574 -0.013895 0.006995 0.032992 -0.001051 0.006193
# 5 0.002389 0.005236 0.003313 -0.001051 0.026163 0.010450
# 6 0.002497 0.006549 -0.001557 0.006193 0.010450 0.035568
#
#
# Mechanical properties :
#
#
# Convention : Reuss Voigt Hill
#
# Bulk Modulus (GPa) = 35.46911 63.21394 49.34152
# Shear Modulus (GPa) = 29.60608 44.99046 37.29827
#
# Velocity S-wave (km/s) = 3.29520 4.06211 3.69859
# Velocity P-wave (km/s) = 5.24275 6.72201 6.02793
#
# Compressibility (1/GPa) = 0.02819355
#
# Stress axis : x y z
#
# Youngs Moduli (GPa) = 123.03238 36.26828 92.77564
#
# Poissons Ratio (x) = -0.06054 0.25556
# Poissons Ratio (y) = -0.20538 0.74753
# Poissons Ratio (z) = 0.33890 0.29223
#
# Static dielectric constant tensor:
#      x y z
#    x 2.108120 0.039370 0.023290 
#    y 0.039370 2.178090 -0.009410 
#    z 0.023290 -0.009410 2.195060 
# 
# From -- ./inp_files/546698.got.cif
#   From: 2010.05.17/outbox.cif.g08.bks.cpg/sg2_274_cif.got.tgz:546698.got - 2010.06.03 11:33:40.
