data_PCOD9024377
_publ_section_title
;
Structure prediction by ZEFSAII (Michael W. Deem and Ramdas Pophale) SiO2 
 PCOD9024377
Probable space group: P -1
;
_chemical_formula_sum "Si O2"
_cell_formula_units_Z 14
_cell_length_a 7.247230
_cell_length_b 7.379837
_cell_length_c 16.160535
_cell_angle_alpha 64.504026
_cell_angle_beta 61.099109
_cell_angle_gamma 57.787552
_cell_volume 622.535763
_symmetry_space_group_name_H-M "P -1"
_symmetry_group_IT_number 2
_symmetry_cell_setting 'triclinic'
loop_
_space_group_symop_operation_xyz
x,y,z
-x,-y,-z
loop_
_atom_site_type_symbol
_atom_site_label
_atom_site_fract_x
_atom_site_fract_y
_atom_site_fract_z
Si Si1 0.928124 0.585519 0.317559
Si Si2 0.753578 0.990059 0.547655
Si Si3 0.653047 0.638694 0.525247
Si Si4 0.556892 0.481037 0.742181
Si Si5 0.856252 0.051250 0.230117
Si Si6 0.124490 0.166931 0.272349
Si Si7 0.655847 0.025698 0.889493
O O1 0.196689 0.541753 0.271771
O O2 0.931964 0.409748 0.284198
O O3 0.847135 0.534919 0.433887
O O4 0.795309 0.842729 0.275989
O O5 0.718082 0.810746 0.531544
O O6 0.572345 0.220125 0.506991
O O7 0.728763 0.928384 0.659535
O O8 0.000000 0.000000 0.500000
O O9 0.596771 0.488275 0.633124
O O10 0.352307 0.709937 0.770960
O O11 0.536640 0.264738 0.824499
O O12 0.979635 0.030093 0.298456
O O13 0.079886 0.018461 0.131772
O O14 0.287590 0.151036 0.162500
O O15 0.500000 0.000000 0.000000
#
# Coordination Sequence:
#
# PCOD9024377 Si02
#       7
#     2   2   2   2   2   2   2
#     4  11  22  40  62  97 138 177 216 266 328 397
#     4  11  22  37  63  98 139 185 228 265 326 409
#     4  11  23  37  62  98 143 188 220 265 331 401
#     4  11  21  42  67  90 137 179 213 278 333 391
#     4   9  22  42  65  96 129 174 221 276 339 395
#     4  10  22  40  64  94 131 170 226 272 326 405
#     4   9  23  45  70  94 126 170 227 295 348 396
#
# _framework density 22.488669000000002
#
# number of rings (size 3 to 8) (size 9 to 14) (size 15 to 20)
#    0.857    0.857    1.429    3.857    0.000    1.714 
#    0.000    5.000    0.000    1.714    0.000    0.000 
#    0.000    0.000    0.000    0.000    0.000    0.000 
#
# Total GULP energy -78176.840169 kJ/mol
# GULP energy per Si atom -5584.060012 kJ/mol
# Density = 2.243748 g / cm^3
# Si number density = 22.488669 Si / 1000 Ang^3
#
#
#
# Elastic Constant Matrix: (Units=GPa)
#
#
# Indices 1 2 3 4 5 6 
#
# 1 86.0904 27.6148 26.9912 1.1463 -3.6108 -14.1748
# 2 27.6148 146.3350 69.2588 -4.0363 -12.2019 -13.7321
# 3 26.9912 69.2588 158.6793 17.0136 -33.9630 2.2912
# 4 1.1463 -4.0363 17.0136 33.1481 -2.9452 2.5474
# 5 -3.6108 -12.2019 -33.9630 -2.9452 26.6665 3.7810
# 6 -14.1748 -13.7321 2.2912 2.5474 3.7810 42.6505
#
#
#
# Elastic Compliance Matrix: (Units=1/GPa)
#
#
# Indices 1 2 3 4 5 6 
#
# 1 0.013348 -0.001211 -0.002299 0.000031 -0.002291 0.004371
# 2 -0.001211 0.009507 -0.004740 0.003241 -0.001902 0.002888
# 3 -0.002299 -0.004740 0.012157 -0.005296 0.012953 -0.003775
# 4 0.000031 0.003241 -0.005296 0.033184 -0.001521 -0.000509
# 5 -0.002291 -0.001902 0.012953 -0.001521 0.053603 -0.006731
# 6 0.004371 0.002888 -0.003775 -0.000509 -0.006731 0.026659
#
#
# Mechanical properties :
#
#
# Convention : Reuss Voigt Hill
#
# Bulk Modulus (GPa) = 54.01703 70.98158 62.49930
# Shear Modulus (GPa) = 29.21783 38.30903 33.76343
#
# Velocity S-wave (km/s) = 3.60839 4.13180 3.87893
# Velocity P-wave (km/s) = 6.43680 7.37524 6.92194
#
# Compressibility (1/GPa) = 0.01851268
#
# Stress axis : x y z
#
# Youngs Moduli (GPa) = 74.91764 105.18081 82.25865
#
# Poissons Ratio (x) = 0.12736 0.18909
# Poissons Ratio (y) = 0.09072 0.38992
# Poissons Ratio (z) = 0.17221 0.49857
#
# Static dielectric constant tensor:
#      x y z
#    x 1.894210 0.009170 -0.025380 
#    y 0.009170 1.929670 0.010350 
#    z -0.025380 0.010350 1.823910 
# 
# From -- ./inp_files/491959.got.cif
#   From: 2010.05.17/outbox.cif.g08.bks.cpg/sg2_246_cif.got.tgz:491959.got - 2010.06.03 11:33:40.
