data_PCOD9024757
_publ_section_title
;
Structure prediction by ZEFSAII (Michael W. Deem and Ramdas Pophale) SiO2 
 PCOD9024757
Probable space group: P -1
;
_chemical_formula_sum "Si O2"
_cell_formula_units_Z 14
_cell_length_a 15.722521
_cell_length_b 5.463223
_cell_length_c 13.044631
_cell_angle_alpha 111.863221
_cell_angle_beta 142.944749
_cell_angle_gamma 62.731146
_cell_volume 600.099338
_symmetry_space_group_name_H-M "P -1"
_symmetry_group_IT_number 2
_symmetry_cell_setting 'triclinic'
loop_
_space_group_symop_operation_xyz
x,y,z
-x,-y,-z
loop_
_atom_site_type_symbol
_atom_site_label
_atom_site_fract_x
_atom_site_fract_y
_atom_site_fract_z
Si Si1 0.849525 0.628530 0.438151
Si Si2 0.225210 0.941038 0.181142
Si Si3 0.588810 0.912049 0.965265
Si Si4 0.472466 0.669894 0.219891
Si Si5 0.205227 0.417386 0.399557
Si Si6 0.941635 0.260313 0.859774
Si Si7 0.823853 0.061117 0.328300
O O1 0.871174 0.655358 0.583701
O O2 0.766432 0.390747 0.310921
O O3 0.000000 0.500000 0.500000
O O4 0.777883 0.923213 0.364092
O O5 0.363752 0.850696 0.228145
O O6 0.203113 0.728417 0.211829
O O7 0.225087 0.196867 0.293571
O O8 0.077937 0.997812 0.977579
O O9 0.579216 0.604630 0.888395
O O10 0.534101 0.133663 0.855354
O O11 0.500000 0.000000 0.000000
O O12 0.756326 0.920100 0.151450
O O13 0.635276 0.578304 0.409842
O O14 0.102117 0.693509 0.292719
O O15 0.000000 0.500000 0.000000
O O16 0.000000 0.000000 0.500000
#
# Coordination Sequence:
#
# PCOD9024757 Si02
#       7
#     2   2   2   2   2   2   2
#     4  10  22  40  66 103 134 178 236 286 350 420
#     4  10  24  46  68 106 143 187 243 300 364 426
#     4  12  26  48  71 103 150 190 237 300 360 433
#     4  12  28  44  76 107 144 193 241 294 368 433
#     4  11  24  43  72 101 144 190 239 299 358 436
#     4   9  22  45  68  98 144 184 244 299 361 421
#     4  10  22  44  64  98 133 177 235 286 346 420
#
# _framework density 23.329467999999999
#
# number of rings (size 3 to 8) (size 9 to 14) (size 15 to 20)
#    0.000    1.429    0.000    3.429    8.000    2.857 
#   23.143    0.000    0.000    0.000    0.000    0.000 
#    0.000    0.000    0.000    0.000    0.000    0.000 
#
# Total GULP energy -78174.063816 kJ/mol
# GULP energy per Si atom -5583.861701 kJ/mol
# Density = 2.327637 g / cm^3
# Si number density = 23.329468 Si / 1000 Ang^3
#
#
#
# Elastic Constant Matrix: (Units=GPa)
#
#
# Indices 1 2 3 4 5 6 
#
# 1 122.0319 48.8693 49.7794 -2.4081 -6.8252 3.8928
# 2 48.8693 112.1339 44.8076 18.3484 -14.4278 36.7428
# 3 49.7794 44.8076 157.4531 -2.9784 -5.9514 13.9985
# 4 -2.4081 18.3484 -2.9784 42.2996 5.5858 -6.8795
# 5 -6.8252 -14.4278 -5.9514 5.5858 32.5882 -3.2867
# 6 3.8928 36.7428 13.9985 -6.8795 -3.2867 55.2576
#
#
#
# Elastic Compliance Matrix: (Units=1/GPa)
#
#
# Indices 1 2 3 4 5 6 
#
# 1 0.011546 -0.006460 -0.002173 0.004182 -0.001103 0.004488
# 2 -0.006460 0.020181 -0.002444 -0.012525 0.007927 -0.013433
# 3 -0.002173 -0.002444 0.007750 0.001530 -0.000386 -0.000018
# 4 0.004182 -0.012525 0.001530 0.032398 -0.008818 0.011155
# 5 -0.001103 0.007927 -0.000386 -0.008818 0.034991 -0.004112
# 6 0.004488 -0.013433 -0.000018 0.011155 -0.004112 0.027861
#
#
# Mechanical properties :
#
#
# Convention : Reuss Voigt Hill
#
# Bulk Modulus (GPa) = 57.73090 75.39239 66.56164
# Shear Modulus (GPa) = 30.73989 42.57326 36.65658
#
# Velocity S-wave (km/s) = 3.63387 4.27648 3.96821
# Velocity P-wave (km/s) = 6.51201 7.53465 7.04192
#
# Compressibility (1/GPa) = 0.01732175
#
# Stress axis : x y z
#
# Youngs Moduli (GPa) = 86.61101 49.55243 129.03930
#
# Poissons Ratio (x) = 0.32011 0.28046
# Poissons Ratio (y) = 0.55951 0.31532
# Poissons Ratio (z) = 0.18824 0.12109
#
# Static dielectric constant tensor:
#      x y z
#    x 1.799430 0.196020 -0.099240 
#    y 0.196020 1.719390 0.171620 
#    z -0.099240 0.171620 1.754220 
# 
# From -- ./inp_files/442203.got.cif
#   From: 2010.05.17/outbox.cif.g08.bks.cpg/sg2_222_cif.got.tgz:442203.got - 2010.06.03 11:33:40.
