data_PCOD9024886
_publ_section_title
;
Structure prediction by ZEFSAII (Michael W. Deem and Ramdas Pophale) SiO2 
 PCOD9024886
Probable space group: P -1
;
_chemical_formula_sum "Si O2"
_cell_formula_units_Z 12
_cell_length_a 9.364064
_cell_length_b 4.966588
_cell_length_c 9.805492
_cell_angle_alpha 83.277340
_cell_angle_beta 89.406852
_cell_angle_gamma 92.883692
_cell_volume 452.258818
_symmetry_space_group_name_H-M "P -1"
_symmetry_group_IT_number 2
_symmetry_cell_setting 'triclinic'
loop_
_space_group_symop_operation_xyz
x,y,z
-x,-y,-z
loop_
_atom_site_type_symbol
_atom_site_label
_atom_site_fract_x
_atom_site_fract_y
_atom_site_fract_z
Si Si1 0.637653 0.853576 0.448948
Si Si2 0.632625 0.884256 0.902725
Si Si3 0.869365 0.657931 0.048255
Si Si4 0.506845 0.635954 0.197991
Si Si5 0.927241 0.724050 0.576826
Si Si6 0.150030 0.844471 0.778225
O O1 0.576710 0.646112 0.344982
O O2 0.754807 0.730388 0.558299
O O3 0.500000 0.000000 0.500000
O O4 0.738497 0.057598 0.344479
O O5 0.537637 0.660989 0.835002
O O6 0.630231 0.176248 0.815725
O O7 0.792029 0.795674 0.916785
O O8 0.588892 0.824945 0.067804
O O9 0.778395 0.397853 0.126529
O O10 0.889163 0.896572 0.145796
O O11 0.000000 0.500000 0.000000
O O12 0.000000 0.500000 0.500000
O O13 0.007599 0.708121 0.720305
O O14 0.000000 0.000000 0.500000
#
# Coordination Sequence:
#
# PCOD9024886 Si02
#       6
#     2   2   2   2   2   2
#     4  11  25  45  73 107 142 187 237 287 351 422
#     4  10  22  40  66  96 131 174 220 278 345 400
#     4  12  25  43  72 101 133 185 236 284 349 419
#     4  10  22  40  66  94 134 176 216 278 345 404
#     4  10  23  44  69  98 135 190 233 282 351 411
#     4  11  24  46  70  99 146 180 230 295 345 418
#
# _framework density 26.533480000000001
#
# number of rings (size 3 to 8) (size 9 to 14) (size 15 to 20)
#    0.000    1.333    1.667    3.500    4.667    4.000 
#    0.000   13.333    0.000    0.000    0.000    0.000 
#    0.000    0.000    0.000    0.000    0.000    0.000 
#
# Total GULP energy -67104.390881 kJ/mol
# GULP energy per Si atom -5592.032573 kJ/mol
# Density = 2.647309 g / cm^3
# Si number density = 26.533480 Si / 1000 Ang^3
#
#
#
# Elastic Constant Matrix: (Units=GPa)
#
#
# Indices 1 2 3 4 5 6 
#
# 1 163.6984 20.8795 73.6375 30.2150 21.7577 -28.0420
# 2 20.8795 149.6846 39.5899 27.9079 12.4558 -17.3372
# 3 73.6375 39.5899 110.3577 32.5678 10.4227 5.4522
# 4 30.2150 27.9079 32.5678 54.4354 -1.6495 6.0826
# 5 21.7577 12.4558 10.4227 -1.6495 40.9326 -8.0795
# 6 -28.0420 -17.3372 5.4522 6.0826 -8.0795 30.3524
#
#
#
# Elastic Compliance Matrix: (Units=1/GPa)
#
#
# Indices 1 2 3 4 5 6 
#
# 1 0.014964 0.004245 -0.010179 -0.006562 -0.003262 0.018525
# 2 0.004245 0.009956 -0.005071 -0.005732 -0.002029 0.011129
# 3 -0.010179 -0.005071 0.018947 -0.001363 -0.001026 -0.015704
# 4 -0.006562 -0.005732 -0.001363 0.027398 0.004016 -0.013513
# 5 -0.003262 -0.002029 -0.001026 0.004016 0.027715 0.002584
# 6 0.018525 0.011129 -0.015704 -0.013513 0.002584 0.062635
#
#
# Mechanical properties :
#
#
# Convention : Reuss Voigt Hill
#
# Bulk Modulus (GPa) = 45.74818 76.88384 61.31601
# Shear Modulus (GPa) = 26.19028 44.45298 35.32163
#
# Velocity S-wave (km/s) = 3.14517 4.09755 3.65253
# Velocity P-wave (km/s) = 5.51983 7.17117 6.39899
#
# Compressibility (1/GPa) = 0.02185879
#
# Stress axis : x y z
#
# Youngs Moduli (GPa) = 66.82635 100.43907 52.77783
#
# Poissons Ratio (x) = -0.42639 0.53721
# Poissons Ratio (y) = -0.28370 0.26764
# Poissons Ratio (z) = 0.68021 0.50933
#
# Static dielectric constant tensor:
#      x y z
#    x 2.487890 -0.183660 -0.097650 
#    y -0.183660 2.221840 -0.033650 
#    z -0.097650 -0.033650 2.211560 
# 
# From -- ./inp_files/373165.got.cif
#   From: 2010.05.17/outbox.cif.g08.bks.cpg/sg2_187_cif.got.tgz:373165.got - 2010.06.03 11:33:40.
