data_PCOD9024137
_publ_section_title
;
Structure prediction by ZEFSAII (Michael W. Deem and Ramdas Pophale) SiO2 
 PCOD9024137
Probable space group: P -1
;
_chemical_formula_sum "Si O2"
_cell_formula_units_Z 14
_cell_length_a 13.308247
_cell_length_b 13.302407
_cell_length_c 8.008880
_cell_angle_alpha 98.925407
_cell_angle_beta 61.526887
_cell_angle_gamma 147.742956
_cell_volume 564.641198
_symmetry_space_group_name_H-M "P -1"
_symmetry_group_IT_number 2
_symmetry_cell_setting 'triclinic'
loop_
_space_group_symop_operation_xyz
x,y,z
-x,-y,-z
loop_
_atom_site_type_symbol
_atom_site_label
_atom_site_fract_x
_atom_site_fract_y
_atom_site_fract_z
Si Si1 0.620932 0.330474 0.303665
Si Si2 0.090508 0.986181 0.292612
Si Si3 0.380086 0.916522 0.356120
Si Si4 0.896834 0.315975 0.131919
Si Si5 0.327895 0.274533 0.649381
Si Si6 0.952467 0.652477 0.431260
Si Si7 0.463807 0.587141 0.110334
O O1 0.397607 0.232798 0.472033
O O2 0.766925 0.452292 0.397257
O O3 0.487652 0.116935 0.331062
O O4 0.842669 0.537758 0.053566
O O5 0.948466 0.907371 0.215416
O O6 0.025043 0.819190 0.342038
O O7 0.000000 0.000000 0.500000
O O8 0.379939 0.222918 0.091586
O O9 0.218713 0.764189 0.611381
O O10 0.183586 0.762920 0.322227
O O11 0.648981 0.072484 0.174563
O O12 0.000000 0.500000 0.000000
O O13 0.500000 0.500000 0.500000
O O14 0.414083 0.319245 0.778231
O O15 0.803001 0.571994 0.692546
O O16 0.500000 0.500000 0.000000
#
# Coordination Sequence:
#
# PCOD9024137 Si02
#       7
#     2   2   2   2   2   2   2
#     4  10  22  40  63  94 128 161 211 260 308 373
#     4  12  22  40  59  85 130 173 217 260 308 367
#     4  10  22  42  68  92 124 163 204 261 328 375
#     4   9  21  44  68  94 122 159 206 261 327 386
#     4  11  21  40  60  89 130 170 214 259 302 371
#     4  11  24  41  60  95 127 163 217 259 307 383
#     4  11  23  38  56  85 122 168 218 259 308 361
#
# _framework density 24.794505000000001
#
# number of rings (size 3 to 8) (size 9 to 14) (size 15 to 20)
#    0.000    1.429    4.286    1.286    0.000    7.429 
#    0.000    6.429    0.000    0.000    0.000    0.000 
#    0.000    0.000    0.000    0.000    0.000    0.000 
#
# Total GULP energy -78162.316061 kJ/mol
# GULP energy per Si atom -5583.022576 kJ/mol
# Density = 2.473807 g / cm^3
# Si number density = 24.794505 Si / 1000 Ang^3
#
#
#
# Elastic Constant Matrix: (Units=GPa)
#
#
# Indices 1 2 3 4 5 6 
#
# 1 54.2295 9.0599 16.4843 -7.7550 -3.4564 26.2116
# 2 9.0599 58.7174 16.7134 -8.0846 2.9897 7.1068
# 3 16.4843 16.7134 138.8658 -23.1439 4.4354 -4.8736
# 4 -7.7550 -8.0846 -23.1439 37.2760 6.9360 -2.0051
# 5 -3.4564 2.9897 4.4354 6.9360 28.3943 -1.9497
# 6 26.2116 7.1068 -4.8736 -2.0051 -1.9497 51.4998
#
#
#
# Elastic Compliance Matrix: (Units=1/GPa)
#
#
# Indices 1 2 3 4 5 6 
#
# 1 0.026615 -0.001406 -0.003198 0.002064 0.002457 -0.013481
# 2 -0.001406 0.018497 -0.001505 0.003200 -0.002800 -0.001961
# 3 -0.003198 -0.001505 0.008797 0.005114 -0.002664 0.002766
# 4 0.002064 0.003200 0.005114 0.032777 -0.008896 -0.000069
# 5 0.002457 -0.002800 -0.002664 -0.008896 0.038401 -0.000009
# 6 -0.013481 -0.001961 0.002766 -0.000069 -0.000009 0.026808
#
#
# Mechanical properties :
#
#
# Convention : Reuss Voigt Hill
#
# Bulk Modulus (GPa) = 23.98621 37.36975 30.67798
# Shear Modulus (GPa) = 28.08847 37.40436 32.74641
#
# Velocity S-wave (km/s) = 3.36944 3.88825 3.63810
# Velocity P-wave (km/s) = 4.98322 5.93822 5.48156
#
# Compressibility (1/GPa) = 0.04169061
#
# Stress axis : x y z
#
# Youngs Moduli (GPa) = 37.57282 54.06396 113.68132
#
# Poissons Ratio (x) = 0.07599 0.36353
# Poissons Ratio (y) = 0.05281 0.17114
# Poissons Ratio (z) = 0.12015 0.08139
#
# Static dielectric constant tensor:
#      x y z
#    x 2.096010 0.068370 -0.123720 
#    y 0.068370 1.971920 0.003560 
#    z -0.123720 0.003560 2.071560 
# 
# From -- ./inp_files/201803.got.cif
#   From: 2010.05.17/outbox.cif.g08.bks.cpg/sg2_101_cif.got.tgz:201803.got - 2010.06.03 11:33:40.
