data_PCOD9024769
_publ_section_title
;
Structure prediction by ZEFSAII (Michael W. Deem and Ramdas Pophale) SiO2 
 PCOD9024769
Probable space group: P -1
;
_chemical_formula_sum "Si O2"
_cell_formula_units_Z 14
_cell_length_a 28.794769
_cell_length_b 11.966026
_cell_length_c 14.145639
_cell_angle_alpha 150.267112
_cell_angle_beta 158.548820
_cell_angle_gamma 20.230590
_cell_volume 615.899762
_symmetry_space_group_name_H-M "P -1"
_symmetry_group_IT_number 2
_symmetry_cell_setting 'triclinic'
loop_
_space_group_symop_operation_xyz
x,y,z
-x,-y,-z
loop_
_atom_site_type_symbol
_atom_site_label
_atom_site_fract_x
_atom_site_fract_y
_atom_site_fract_z
Si Si1 0.095915 0.213173 0.545623
Si Si2 0.004555 0.483702 0.779793
Si Si3 0.903498 0.098620 0.990636
Si Si4 0.517452 0.789156 0.797115
Si Si5 0.583873 0.883349 0.676829
Si Si6 0.525999 0.427277 0.267746
Si Si7 0.665375 0.655432 0.288080
O O1 0.040164 0.348150 0.642729
O O2 0.000000 0.500000 0.500000
O O3 0.309698 0.928342 0.726239
O O4 0.024960 0.059579 0.271550
O O5 0.873316 0.465763 0.567119
O O6 0.206895 0.293680 0.059588
O O7 0.893447 0.856240 0.826552
O O8 0.719052 0.474799 0.914614
O O9 0.000000 0.000000 0.000000
O O10 0.467987 0.634990 0.654194
O O11 0.406535 0.042981 0.689815
O O12 0.500000 0.000000 0.000000
O O13 0.562943 0.644797 0.488207
O O14 0.500000 0.000000 0.500000
O O15 0.462936 0.180509 0.741622
O O16 0.359011 0.533083 0.966363
#
# Coordination Sequence:
#
# PCOD9024769 Si02
#       7
#     2   2   2   2   2   2   2
#     4  12  21  37  66 104 145 182 224 278 354 442
#     4  12  25  43  69 103 138 184 243 298 352 425
#     4  12  23  37  64 101 148 195 229 276 355 436
#     4  10  22  40  66 105 148 185 219 284 361 442
#     4  12  28  50  71  97 137 191 253 307 347 409
#     4  11  23  44  69 101 145 185 228 288 362 426
#     4  11  24  45  69 103 143 179 234 289 363 432
#
# _framework density 22.730972000000001
#
# number of rings (size 3 to 8) (size 9 to 14) (size 15 to 20)
#    0.000    0.571    4.286    6.000    0.000    2.286 
#    0.000    0.714    0.000    0.000    0.000    0.000 
#    0.000    0.000    0.000    0.000    0.000    0.000 
#
# Total GULP energy -78224.922672 kJ/mol
# GULP energy per Si atom -5587.494477 kJ/mol
# Density = 2.267924 g / cm^3
# Si number density = 22.730972 Si / 1000 Ang^3
#
#
#
# Elastic Constant Matrix: (Units=GPa)
#
#
# Indices 1 2 3 4 5 6 
#
# 1 64.1941 10.0758 15.1657 -15.4572 -15.7228 -11.4455
# 2 10.0758 34.8395 15.6062 -1.9643 1.3398 -23.7098
# 3 15.1657 15.6062 156.0626 -5.9011 -0.0722 -13.1887
# 4 -15.4572 -1.9643 -5.9011 25.7666 -5.3623 0.1292
# 5 -15.7228 1.3398 -0.0722 -5.3623 38.1489 -3.0879
# 6 -11.4455 -23.7098 -13.1887 0.1292 -3.0879 29.4511
#
#
#
# Elastic Compliance Matrix: (Units=1/GPa)
#
#
# Indices 1 2 3 4 5 6 
#
# 1 0.025489 0.002055 -0.000933 0.018082 0.013987 0.012529
# 2 0.002055 0.065017 -0.002019 0.006232 0.003693 0.052597
# 3 -0.000933 -0.002019 0.006820 0.000822 -0.000100 0.001052
# 4 0.018082 0.006232 0.000822 0.053557 0.015883 0.013843
# 5 0.013987 0.003693 -0.000100 0.015883 0.035049 0.011969
# 6 0.012529 0.052597 0.001052 0.013843 0.011969 0.082833
#
#
# Mechanical properties :
#
#
# Convention : Reuss Voigt Hill
#
# Bulk Modulus (GPa) = 10.46777 37.42129 23.94453
# Shear Modulus (GPa) = 16.53417 32.95656 24.74536
#
# Velocity S-wave (km/s) = 2.69993 3.81182 3.30300
# Velocity P-wave (km/s) = 3.78610 5.98930 5.01031
#
# Compressibility (1/GPa) = 0.09553135
#
# Stress axis : x y z
#
# Youngs Moduli (GPa) = 39.23201 15.38059 146.62271
#
# Poissons Ratio (x) = -0.03161 0.13686
# Poissons Ratio (y) = -0.08062 0.29605
# Poissons Ratio (z) = 0.03662 0.03106
#
# Static dielectric constant tensor:
#      x y z
#    x 1.849000 -0.019030 0.101130 
#    y -0.019030 1.816470 -0.000710 
#    z 0.101130 -0.000710 2.034000 
# 
# From -- ./inp_files/544971.got.cif
#   From: 2010.05.17/outbox.cif.g08.bks.cpg/sg2_273_cif.got.tgz:544971.got - 2010.06.03 11:33:40.
