data_PCOD9024119
_publ_section_title
;
Structure prediction by ZEFSAII (Michael W. Deem and Ramdas Pophale) SiO2 
 PCOD9024119
Probable space group: P -1
;
_chemical_formula_sum "Si O2"
_cell_formula_units_Z 10
_cell_length_a 10.971959
_cell_length_b 8.475695
_cell_length_c 10.755429
_cell_angle_alpha 43.396231
_cell_angle_beta 123.886776
_cell_angle_gamma 89.260876
_cell_volume 388.071577
_symmetry_space_group_name_H-M "P -1"
_symmetry_group_IT_number 2
_symmetry_cell_setting 'triclinic'
loop_
_space_group_symop_operation_xyz
x,y,z
-x,-y,-z
loop_
_atom_site_type_symbol
_atom_site_label
_atom_site_fract_x
_atom_site_fract_y
_atom_site_fract_z
Si Si1 0.108466 0.134447 0.734373
Si Si2 0.215062 0.833473 0.352508
Si Si3 0.527113 0.814319 0.248200
Si Si4 0.341583 0.174671 0.191186
Si Si5 0.360189 0.643287 0.961574
O O1 0.000000 0.500000 0.500000
O O2 0.958093 0.090527 0.702029
O O3 0.196768 0.016667 0.711197
O O4 0.319149 0.886749 0.082364
O O5 0.184719 0.134175 0.128783
O O6 0.261473 0.584874 0.416650
O O7 0.445448 0.582597 0.697772
O O8 0.485921 0.992423 0.251604
O O9 0.500000 0.000000 0.000000
O O10 0.500000 0.000000 0.500000
O O11 0.236087 0.545015 0.930176
O O12 0.500000 0.500000 0.000000
#
# Coordination Sequence:
#
# PCOD9024119 Si02
#       5
#     2   2   2   2   2
#     4  11  23  39  64  96 127 170 221 264 315 382
#     4  10  22  40  63  93 128 169 212 269 320 383
#     4  11  21  41  68  93 128 171 222 259 314 396
#     4  10  22  42  64  95 132 170 206 273 336 371
#     4  10  23  41  65  93 129 170 217 266 322 387
#
# _framework density 25.768442
#
# number of rings (size 3 to 8) (size 9 to 14) (size 15 to 20)
#    0.000    1.600    2.000    3.000    0.000    2.400 
#    0.000    0.000    0.000    0.000    0.000    0.000 
#    0.000    0.000    0.000    0.000    0.000    0.000 
#
# Total GULP energy -55816.055621 kJ/mol
# GULP energy per Si atom -5581.605562 kJ/mol
# Density = 2.570979 g / cm^3
# Si number density = 25.768442 Si / 1000 Ang^3
#
#
#
# Elastic Constant Matrix: (Units=GPa)
#
#
# Indices 1 2 3 4 5 6 
#
# 1 165.5976 79.4774 22.7331 -26.8206 -10.6159 10.3581
# 2 79.4774 206.5353 34.7826 -38.3757 -7.5569 -24.8896
# 3 22.7331 34.7826 26.6879 -9.7043 -0.2194 -6.5397
# 4 -26.8206 -38.3757 -9.7043 56.4298 4.2515 0.8490
# 5 -10.6159 -7.5569 -0.2194 4.2515 35.5523 -0.3678
# 6 10.3581 -24.8896 -6.5397 0.8490 -0.3678 61.1784
#
#
#
# Elastic Compliance Matrix: (Units=1/GPa)
#
#
# Indices 1 2 3 4 5 6 
#
# 1 0.008332 -0.002559 -0.003924 0.001459 0.001716 -0.002881
# 2 -0.002559 0.007780 -0.006181 0.002928 0.000531 0.002900
# 3 -0.003924 -0.006181 0.050724 0.002788 -0.002469 0.003518
# 4 0.001459 0.002928 0.002788 0.020979 -0.001424 0.000943
# 5 0.001716 0.000531 -0.002469 -0.001424 0.028906 -0.000145
# 6 -0.002881 0.002900 0.003518 0.000943 -0.000145 0.018376
#
#
# Mechanical properties :
#
#
# Convention : Reuss Voigt Hill
#
# Bulk Modulus (GPa) = 24.09089 74.75634 49.42361
# Shear Modulus (GPa) = 28.69282 48.08727 38.39005
#
# Velocity S-wave (km/s) = 3.34052 4.32456 3.86399
# Velocity P-wave (km/s) = 4.92423 7.34912 6.25530
#
# Compressibility (1/GPa) = 0.04150947
#
# Stress axis : x y z
#
# Youngs Moduli (GPa) = 120.01980 128.52758 19.71470
#
# Poissons Ratio (x) = 0.32887 0.07735
# Poissons Ratio (y) = 0.30710 0.12185
# Poissons Ratio (z) = 0.47092 0.79441
#
# Static dielectric constant tensor:
#      x y z
#    x 2.101730 -0.037020 -0.054230 
#    y -0.037020 2.233910 -0.075660 
#    z -0.054230 -0.075660 2.123150 
# 
# From -- ./inp_files/414024.got.cif
#   From: 2010.05.17/outbox.cif.g08.bks.cpg/sg2_208_cif.got.tgz:414024.got - 2010.06.03 11:33:40.
