data_PCOD9024220
_publ_section_title
;
Structure prediction by ZEFSAII (Michael W. Deem and Ramdas Pophale) SiO2 
 PCOD9024220
Probable space group: P -1
;
_chemical_formula_sum "Si O2"
_cell_formula_units_Z 16
_cell_length_a 11.105787
_cell_length_b 9.220270
_cell_length_c 8.861797
_cell_angle_alpha 59.451278
_cell_angle_beta 112.473738
_cell_angle_gamma 106.519634
_cell_volume 717.491193
_symmetry_space_group_name_H-M "P -1"
_symmetry_group_IT_number 2
_symmetry_cell_setting 'triclinic'
loop_
_space_group_symop_operation_xyz
x,y,z
-x,-y,-z
loop_
_atom_site_type_symbol
_atom_site_label
_atom_site_fract_x
_atom_site_fract_y
_atom_site_fract_z
Si Si1 0.820272 0.820915 0.418112
Si Si2 0.385380 0.351399 0.262085
Si Si3 0.935821 0.061823 0.087332
Si Si4 0.090542 0.362962 0.175292
Si Si5 0.299744 0.967599 0.518271
Si Si6 0.300138 0.866125 0.237389
Si Si7 0.481119 0.206092 0.107469
Si Si8 0.483496 0.326915 0.707235
O O1 0.899631 0.686515 0.616198
O O2 0.670233 0.733187 0.367258
O O3 0.881012 0.905461 0.250847
O O4 0.808419 0.977441 0.446712
O O5 0.241214 0.408788 0.174805
O O6 0.435512 0.350125 0.116974
O O7 0.477255 0.473877 0.349401
O O8 0.372875 0.152300 0.406967
O O9 0.038826 0.188297 0.160070
O O10 0.821288 0.167551 0.915380
O O11 0.000000 0.000000 0.000000
O O12 0.000000 0.500000 0.000000
O O13 0.263569 0.869627 0.396041
O O14 0.397076 0.866012 0.714183
O O15 0.412857 0.753138 0.306669
O O16 0.361783 0.056935 0.129187
O O17 0.510448 0.254125 0.925502
#
# Coordination Sequence:
#
# PCOD9024220 Si02
#       8
#     2   2   2   2   2   2   2   2
#     4  11  24  44  72 100 134 178 233 281 339 406
#     4  10  23  41  65  94 139 177 213 274 345 402
#     4  12  24  45  74  95 132 184 241 279 320 400
#     4  11  26  47  65  94 137 187 229 276 336 396
#     4  10  22  40  64 100 141 172 210 271 348 415
#     4  11  21  38  66 102 133 168 226 279 331 399
#     4  11  20  40  61  99 138 169 214 266 343 413
#     4  12  23  39  69 105 137 170 219 282 352 402
#
# _framework density 22.299928000000001
#
# number of rings (size 3 to 8) (size 9 to 14) (size 15 to 20)
#    0.000    1.000    2.500    6.375    1.750    2.000 
#    4.500    0.625    0.000    0.000    0.000    0.000 
#    0.000    0.000    0.000    0.000    0.000    0.000 
#
# Total GULP energy -89451.513162 kJ/mol
# GULP energy per Si atom -5590.719573 kJ/mol
# Density = 2.224917 g / cm^3
# Si number density = 22.299928 Si / 1000 Ang^3
#
#
#
# Elastic Constant Matrix: (Units=GPa)
#
#
# Indices 1 2 3 4 5 6 
#
# 1 98.6200 39.3533 72.8243 -2.9761 -7.7290 -11.6508
# 2 39.3533 93.5611 29.3411 18.0167 -5.2690 -4.2772
# 3 72.8243 29.3411 169.8745 4.8074 10.2938 -9.5903
# 4 -2.9761 18.0167 4.8074 30.9271 8.0283 0.2294
# 5 -7.7290 -5.2690 10.2938 8.0283 28.8112 7.1341
# 6 -11.6508 -4.2772 -9.5903 0.2294 7.1341 27.0837
#
#
#
# Elastic Compliance Matrix: (Units=1/GPa)
#
#
# Indices 1 2 3 4 5 6 
#
# 1 0.018906 -0.006375 -0.007214 0.005571 0.004076 0.003451
# 2 -0.006375 0.015668 -0.000018 -0.010907 0.004542 -0.001378
# 3 -0.007214 -0.000018 0.009433 -0.000728 -0.005526 0.001696
# 4 0.005571 -0.010907 -0.000728 0.042685 -0.012995 0.003478
# 5 0.004076 0.004542 -0.005526 -0.012995 0.045010 -0.011232
# 6 0.003451 -0.001378 0.001696 0.003478 -0.011232 0.041719
#
#
# Mechanical properties :
#
#
# Convention : Reuss Voigt Hill
#
# Bulk Modulus (GPa) = 59.54248 71.67700 65.60974
# Shear Modulus (GPa) = 24.24443 32.06687 28.15565
#
# Velocity S-wave (km/s) = 3.30085 3.79619 3.55715
# Velocity P-wave (km/s) = 6.42543 7.17124 6.80856
#
# Compressibility (1/GPa) = 0.01679473
#
# Stress axis : x y z
#
# Youngs Moduli (GPa) = 52.89338 63.82237 106.00684
#
# Poissons Ratio (x) = 0.40689 0.76469
# Poissons Ratio (y) = 0.33722 0.00186
# Poissons Ratio (z) = 0.38155 0.00112
#
# Static dielectric constant tensor:
#      x y z
#    x 1.839790 -0.000050 -0.027810 
#    y -0.000050 1.832350 0.006980 
#    z -0.027810 0.006980 1.919060 
# 
# From -- ./inp_files/242723.got.cif
#   From: 2010.05.17/outbox.cif.g08.bks.cpg/sg2_122_cif.got.tgz:242723.got - 2010.06.03 11:33:40.
