data_PCOD9024328
_publ_section_title
;
Structure prediction by ZEFSAII (Michael W. Deem and Ramdas Pophale) SiO2 
 PCOD9024328
Probable space group: P -1
;
_chemical_formula_sum "Si O2"
_cell_formula_units_Z 16
_cell_length_a 8.844867
_cell_length_b 11.936814
_cell_length_c 11.661736
_cell_angle_alpha 53.101153
_cell_angle_beta 68.806698
_cell_angle_gamma 60.149235
_cell_volume 850.491569
_symmetry_space_group_name_H-M "P -1"
_symmetry_group_IT_number 2
_symmetry_cell_setting 'triclinic'
loop_
_space_group_symop_operation_xyz
x,y,z
-x,-y,-z
loop_
_atom_site_type_symbol
_atom_site_label
_atom_site_fract_x
_atom_site_fract_y
_atom_site_fract_z
Si Si1 0.431890 0.897072 0.422031
Si Si2 0.371366 0.951614 0.145018
Si Si3 0.446800 0.693707 0.119010
Si Si4 0.675204 0.792369 0.625034
Si Si5 0.603680 0.322828 0.106009
Si Si6 0.006767 0.432372 0.220512
Si Si7 0.680629 0.363644 0.299784
Si Si8 0.172083 0.279301 0.029308
O O1 0.454668 0.907416 0.274687
O O2 0.605991 0.844526 0.484557
O O3 0.349729 0.773191 0.547071
O O4 0.314388 0.062685 0.401402
O O5 0.352329 0.809944 0.173734
O O6 0.202294 0.104988 0.113137
O O7 0.500000 0.000000 0.000000
O O8 0.505569 0.517019 0.245474
O O9 0.343774 0.737690 0.999519
O O10 0.636673 0.707042 0.037684
O O11 0.526833 0.750290 0.758635
O O12 0.852485 0.646854 0.672970
O O13 0.730974 0.317479 0.180378
O O14 0.500000 0.500000 0.000000
O O15 0.097283 0.347545 0.130782
O O16 0.829775 0.401845 0.298594
O O17 0.948993 0.609707 0.102146
#
# Coordination Sequence:
#
# PCOD9024328 Si02
#       8
#     2   2   2   2   2   2   2   2
#     4  10  20  33  49  79 103 130 174 212 249 299
#     4  10  18  32  53  75  97 133 177 212 245 300
#     4   9  16  30  51  73 102 136 171 208 242 298
#     4  10  18  32  52  74 108 131 165 213 254 300
#     4   9  16  30  49  78 102 123 171 213 249 286
#     4  10  17  31  53  78 106 133 162 209 261 304
#     4   9  20  30  48  81 104 131 165 212 260 295
#     4   9  17  28  50  79 100 128 173 208 245 300
#
# _framework density 18.812649
#
# number of rings (size 3 to 8) (size 9 to 14) (size 15 to 20)
#    0.000    2.500    2.500    0.750    1.750    1.000 
#    0.000    0.000    0.000    7.500    6.500    0.000 
#    0.000    0.000    0.000    0.000    0.000    0.000 
#
# Total GULP energy -89122.995199 kJ/mol
# GULP energy per Si atom -5570.187200 kJ/mol
# Density = 1.876983 g / cm^3
# Si number density = 18.812649 Si / 1000 Ang^3
#
#
#
# Elastic Constant Matrix: (Units=GPa)
#
#
# Indices 1 2 3 4 5 6 
#
# 1 29.8067 8.4413 21.3200 -2.3891 19.5205 2.3991
# 2 8.4413 86.7722 36.5665 -9.1667 13.1556 15.0336
# 3 21.3200 36.5665 113.6572 -6.7664 22.9646 10.0813
# 4 -2.3891 -9.1667 -6.7664 29.2731 7.7390 4.7210
# 5 19.5205 13.1556 22.9646 7.7390 37.9595 -3.2974
# 6 2.3991 15.0336 10.0813 4.7210 -3.2974 20.6981
#
#
#
# Elastic Compliance Matrix: (Units=1/GPa)
#
#
# Indices 1 2 3 4 5 6 
#
# 1 0.062465 0.006955 -0.002999 0.020313 -0.038739 -0.021636
# 2 0.006955 0.017927 -0.002375 0.011651 -0.012228 -0.017275
# 3 -0.002999 -0.002375 0.012227 0.004505 -0.006466 -0.005940
# 4 0.020313 0.011651 0.004505 0.053488 -0.030729 -0.030106
# 5 -0.038739 -0.012228 -0.006466 -0.030729 0.063604 0.033663
# 6 -0.021636 -0.017275 -0.005940 -0.030106 0.033663 0.078492
#
#
# Mechanical properties :
#
#
# Convention : Reuss Voigt Hill
#
# Bulk Modulus (GPa) = 10.44072 40.32130 25.38101
# Shear Modulus (GPa) = 15.77451 28.51337 22.14394
#
# Velocity S-wave (km/s) = 2.89884 3.89736 3.43458
# Velocity P-wave (km/s) = 4.09466 6.46004 5.40825
#
# Compressibility (1/GPa) = 0.09577884
#
# Stress axis : x y z
#
# Youngs Moduli (GPa) = 16.00896 55.78301 81.78866
#
# Poissons Ratio (x) = -0.38796 0.24530
# Poissons Ratio (y) = -0.11134 0.19428
# Poissons Ratio (z) = 0.04801 0.13251
#
# Static dielectric constant tensor:
#      x y z
#    x 1.694630 0.018950 0.013400 
#    y 0.018950 1.697010 -0.021640 
#    z 0.013400 -0.021640 1.666230 
# 
# From -- ./inp_files/257583.got.cif
#   From: 2010.05.17/outbox.cif.g08.bks.cpg/sg2_129_cif.got.tgz:257583.got - 2010.06.03 11:33:40.
