data_PCOD9024066
_publ_section_title
;
Structure prediction by ZEFSAII (Michael W. Deem and Ramdas Pophale) SiO2 
 PCOD9024066
Probable space group: P -1
;
_chemical_formula_sum "Si O2"
_cell_formula_units_Z 14
_cell_length_a 15.268331
_cell_length_b 9.545750
_cell_length_c 11.937152
_cell_angle_alpha 132.025256
_cell_angle_beta 27.532036
_cell_angle_gamma 124.326123
_cell_volume 595.168542
_symmetry_space_group_name_H-M "P -1"
_symmetry_group_IT_number 2
_symmetry_cell_setting 'triclinic'
loop_
_space_group_symop_operation_xyz
x,y,z
-x,-y,-z
loop_
_atom_site_type_symbol
_atom_site_label
_atom_site_fract_x
_atom_site_fract_y
_atom_site_fract_z
Si Si1 0.266704 0.670220 0.243395
Si Si2 0.548678 0.961719 0.146366
Si Si3 0.759065 0.720074 0.383329
Si Si4 0.073470 0.345927 0.211912
Si Si5 0.882355 0.408682 0.245224
Si Si6 0.290894 0.985323 0.775290
Si Si7 0.798525 0.019619 0.683196
O O1 0.424107 0.778754 0.190584
O O2 0.252990 0.450371 0.110342
O O3 0.260124 0.773310 0.186323
O O4 0.071063 0.700870 0.551521
O O5 0.424358 0.167475 0.405513
O O6 0.697605 0.964323 0.079026
O O7 0.647715 0.958803 0.911373
O O8 0.748919 0.557218 0.402028
O O9 0.822772 0.891732 0.477230
O O10 0.920740 0.638741 0.071435
O O11 0.948470 0.467788 0.325728
O O12 0.152430 0.148389 0.963076
O O13 0.778104 0.219123 0.273685
O O14 0.500000 0.000000 0.500000
O O15 0.000000 0.000000 0.500000
#
# Coordination Sequence:
#
# PCOD9024066 Si02
#       7
#     2   2   2   2   2   2   2
#     4  10  22  40  63  90 119 158 206 254 303 354
#     4  11  23  41  65  93 123 157 202 258 308 357
#     4  10  22  40  63  90 119 158 206 254 303 354
#     4  11  23  41  63  88 123 164 205 249 300 362
#     4  11  23  41  63  88 123 164 205 249 300 362
#     4  12  25  38  59  90 127 166 198 242 302 368
#     4  11  21  39  65  91 123 159 204 256 306 359
#
# _framework density 23.522749000000001
#
# number of rings (size 3 to 8) (size 9 to 14) (size 15 to 20)
#    0.000    1.143    0.000    8.143    0.000    5.714 
#    0.000    0.000    0.000    0.000    0.000    0.000 
#    0.000    0.000    0.000    0.000    0.000    0.000 
#
# Total GULP energy -78197.649957 kJ/mol
# GULP energy per Si atom -5585.546425 kJ/mol
# Density = 2.346921 g / cm^3
# Si number density = 23.522749 Si / 1000 Ang^3
#
#
#
# Elastic Constant Matrix: (Units=GPa)
#
#
# Indices 1 2 3 4 5 6 
#
# 1 79.0823 11.5932 4.8041 -6.4521 -4.7722 -8.5489
# 2 11.5932 117.8829 19.1465 1.1717 -10.8693 5.8771
# 3 4.8041 19.1465 33.5872 -5.3630 -1.8442 -2.3838
# 4 -6.4521 1.1717 -5.3630 30.5749 -5.4255 3.2114
# 5 -4.7722 -10.8693 -1.8442 -5.4255 25.9107 -4.3609
# 6 -8.5489 5.8771 -2.3838 3.2114 -4.3609 31.1295
#
#
#
# Elastic Compliance Matrix: (Units=1/GPa)
#
#
# Indices 1 2 3 4 5 6 
#
# 1 0.013741 -0.001232 -0.000300 0.003050 0.003327 0.004135
# 2 -0.001232 0.009903 -0.005594 -0.000867 0.002989 -0.002128
# 3 -0.000300 -0.005594 0.034322 0.006165 0.001875 0.003229
# 4 0.003050 -0.000867 0.006165 0.036000 0.007986 -0.001122
# 5 0.003327 0.002989 0.001875 0.007986 0.043230 0.005725
# 6 0.004135 -0.002128 0.003229 -0.001122 0.005725 0.034826
#
#
# Mechanical properties :
#
#
# Convention : Reuss Voigt Hill
#
# Bulk Modulus (GPa) = 22.87670 33.51556 28.19613
# Shear Modulus (GPa) = 24.89480 30.52360 27.70920
#
# Velocity S-wave (km/s) = 3.25673 3.60616 3.43589
# Velocity P-wave (km/s) = 4.88755 5.62301 5.26813
#
# Compressibility (1/GPa) = 0.04371259
#
# Stress axis : x y z
#
# Youngs Moduli (GPa) = 72.77752 100.97758 29.13608
#
# Poissons Ratio (x) = 0.12444 0.00873
# Poissons Ratio (y) = 0.08969 0.16300
# Poissons Ratio (z) = 0.02181 0.56491
#
# Static dielectric constant tensor:
#      x y z
#    x 2.584150 -0.755720 -0.041580 
#    y -0.755720 2.687780 0.063220 
#    z -0.041580 0.063220 1.899130 
# 
# From -- ./inp_files/181495.got.cif
#   From: 2010.05.17/outbox.cif.g08.bks.cpg/sg2_91_cif.got.tgz:181495.got - 2010.06.03 11:33:40.
