data_PCOD9024612
_publ_section_title
;
Structure prediction by ZEFSAII (Michael W. Deem and Ramdas Pophale) SiO2 
 PCOD9024612
Probable space group: P -1
;
_chemical_formula_sum "Si O2"
_cell_formula_units_Z 14
_cell_length_a 12.840035
_cell_length_b 10.017922
_cell_length_c 11.482693
_cell_angle_alpha 77.722081
_cell_angle_beta 31.502333
_cell_angle_gamma 58.501129
_cell_volume 561.069595
_symmetry_space_group_name_H-M "P -1"
_symmetry_group_IT_number 2
_symmetry_cell_setting 'triclinic'
loop_
_space_group_symop_operation_xyz
x,y,z
-x,-y,-z
loop_
_atom_site_type_symbol
_atom_site_label
_atom_site_fract_x
_atom_site_fract_y
_atom_site_fract_z
Si Si1 0.024085 0.137616 0.393690
Si Si2 0.772246 0.804049 0.229365
Si Si3 0.002332 0.354383 0.583187
Si Si4 0.444691 0.023058 0.831633
Si Si5 0.217458 0.698766 0.006946
Si Si6 0.518381 0.637268 0.524231
Si Si7 0.811687 0.099105 0.403467
O O1 0.967485 0.267692 0.525051
O O2 0.834968 0.214008 0.447042
O O3 0.303651 0.046689 0.081102
O O4 0.000000 0.000000 0.500000
O O5 0.770413 0.865356 0.088613
O O6 0.013898 0.741221 0.091803
O O7 0.744864 0.650636 0.287915
O O8 0.500000 0.000000 0.500000
O O9 0.777708 0.424498 0.880871
O O10 0.000000 0.500000 0.500000
O O11 0.294463 0.192549 0.393464
O O12 0.586052 0.105885 0.674606
O O13 0.081271 0.886700 0.172284
O O14 0.469945 0.634971 0.706700
O O15 0.500000 0.500000 0.500000
O O16 0.274434 0.827277 0.658068
#
# Coordination Sequence:
#
# PCOD9024612 Si02
#       7
#     2   2   2   2   2   2   2
#     4  12  23  41  66  91 122 171 218 251 300 369
#     4  11  21  40  71  93 117 167 211 255 318 368
#     4  11  25  42  62  95 131 169 205 259 316 366
#     4  10  22  41  67  90 126 163 214 259 304 372
#     4  11  22  42  67  92 127 164 215 256 305 383
#     4  11  25  40  63 101 129 155 205 267 323 368
#     4  10  22  40  65  95 121 167 214 255 308 373
#
# _framework density 24.952342000000002
#
# number of rings (size 3 to 8) (size 9 to 14) (size 15 to 20)
#    0.000    1.143    7.143    1.714    2.000    4.000 
#    0.000    0.714    0.000    0.000    0.000    0.000 
#    0.000    0.000    0.000    0.000    0.000    0.000 
#
# Total GULP energy -78244.210961 kJ/mol
# GULP energy per Si atom -5588.872211 kJ/mol
# Density = 2.489555 g / cm^3
# Si number density = 24.952342 Si / 1000 Ang^3
#
#
#
# Elastic Constant Matrix: (Units=GPa)
#
#
# Indices 1 2 3 4 5 6 
#
# 1 110.9943 35.2571 23.5159 -11.5274 19.9023 17.2485
# 2 35.2571 124.5634 46.5173 -40.0000 12.0043 17.4113
# 3 23.5159 46.5173 151.6758 -41.5541 39.3450 -4.1175
# 4 -11.5274 -40.0000 -41.5541 31.0658 -11.6914 8.1034
# 5 19.9023 12.0043 39.3450 -11.6914 37.6694 -7.3830
# 6 17.2485 17.4113 -4.1175 8.1034 -7.3830 36.1873
#
#
#
# Elastic Compliance Matrix: (Units=1/GPa)
#
#
# Indices 1 2 3 4 5 6 
#
# 1 0.011998 -0.000495 0.001413 0.004887 -0.007705 -0.007986
# 2 -0.000495 0.020796 0.003439 0.034827 -0.002620 -0.017712
# 3 0.001413 0.003439 0.013856 0.021296 -0.011237 -0.007813
# 4 0.004887 0.034827 0.021296 0.115609 -0.008731 -0.044333
# 5 -0.007705 -0.002620 -0.011237 -0.008731 0.043310 0.014446
# 6 -0.007986 -0.017712 -0.007813 -0.044333 0.014446 0.051948
#
#
# Mechanical properties :
#
#
# Convention : Reuss Voigt Hill
#
# Bulk Modulus (GPa) = 18.06282 66.42379 42.24331
# Shear Modulus (GPa) = 18.70849 39.78074 29.24461
#
# Velocity S-wave (km/s) = 2.74116 3.99716 3.42719
# Velocity P-wave (km/s) = 4.15611 6.92684 5.71202
#
# Compressibility (1/GPa) = 0.05536233
#
# Stress axis : x y z
#
# Youngs Moduli (GPa) = 83.34982 48.08692 72.16919
#
# Poissons Ratio (x) = 0.02382 -0.10194
# Poissons Ratio (y) = 0.04128 -0.24820
# Poissons Ratio (z) = -0.11773 -0.16538
#
# Static dielectric constant tensor:
#      x y z
#    x 2.018960 -0.016490 -0.037840 
#    y -0.016490 2.003070 0.000320 
#    z -0.037840 0.000320 2.017100 
# 
# From -- ./inp_files/444283.got.cif
#   From: 2010.05.17/outbox.cif.g08.bks.cpg/sg2_223_cif.got.tgz:444283.got - 2010.06.03 11:33:40.
