data_PCOD9024732
_publ_section_title
;
Structure prediction by ZEFSAII (Michael W. Deem and Ramdas Pophale) SiO2 
 PCOD9024732
Probable space group: P -1
;
_chemical_formula_sum "Si O2"
_cell_formula_units_Z 15
_cell_length_a 11.334887
_cell_length_b 8.829028
_cell_length_c 8.413377
_cell_angle_alpha 114.862180
_cell_angle_beta 123.812613
_cell_angle_gamma 80.078067
_cell_volume 632.605760
_symmetry_space_group_name_H-M "P -1"
_symmetry_group_IT_number 2
_symmetry_cell_setting 'triclinic'
loop_
_space_group_symop_operation_xyz
x,y,z
-x,-y,-z
loop_
_atom_site_type_symbol
_atom_site_label
_atom_site_fract_x
_atom_site_fract_y
_atom_site_fract_z
Si Si1 0.087965 0.283165 0.427009
Si Si2 0.989664 0.450561 0.735950
Si Si3 0.121212 0.988638 0.954108
Si Si4 0.500000 0.500000 0.500000
Si Si5 0.702837 0.237486 0.500976
Si Si6 0.651973 0.839503 0.266414
Si Si7 0.391975 0.860867 0.273169
Si Si8 0.762884 0.670881 0.961512
O O1 0.077483 0.380941 0.296451
O O2 0.231991 0.194236 0.524717
O O3 0.074219 0.404397 0.619077
O O4 0.950961 0.151334 0.277724
O O5 0.862908 0.309249 0.615455
O O6 0.114739 0.452243 0.959283
O O7 0.154908 0.161336 0.968723
O O8 0.264117 0.933123 0.115871
O O9 0.000000 0.000000 0.000000
O O10 0.590923 0.361352 0.406918
O O11 0.649222 0.593178 0.717941
O O12 0.669281 0.243589 0.668877
O O13 0.669184 0.041767 0.339115
O O14 0.496559 0.780464 0.193024
O O15 0.687712 0.734622 0.092652
O O16 0.500000 0.000000 0.500000
#
# Coordination Sequence:
#
# PCOD9024732 Si02
#       8
#     2   2   2   1   2   2   2   2
#     4  10  23  42  69 107 130 182 234 290 346 414
#     4  10  23  44  71  99 145 174 230 293 358 408
#     4  12  24  39  70 100 135 182 237 283 339 417
#     4  12  30  42  68 106 144 180 232 286 360 412
#     4  11  24  43  70 103 140 184 227 292 348 420
#     4  10  22  46  75  97 141 183 239 285 342 424
#     4  10  22  40  66 101 137 178 230 284 337 409
#     4  11  25  47  70 105 138 188 231 289 352 417
#
# _framework density 23.711449999999999
#
# number of rings (size 3 to 8) (size 9 to 14) (size 15 to 20)
#    0.000    1.333    0.000    5.600    5.600    5.867 
#    0.000    0.667    0.000    0.000    0.000    0.000 
#    0.000    0.000    0.000    0.000    0.000    0.000 
#
# Total GULP energy -83655.912164 kJ/mol
# GULP energy per Si atom -5577.060811 kJ/mol
# Density = 2.365748 g / cm^3
# Si number density = 23.711450 Si / 1000 Ang^3
#
#
#
# Elastic Constant Matrix: (Units=GPa)
#
#
# Indices 1 2 3 4 5 6 
#
# 1 130.0237 64.5783 41.5949 -40.7825 0.7634 -24.5389
# 2 64.5783 -81.6144 -26.8333 110.5997 39.7039 71.0832
# 3 41.5949 -26.8333 75.8881 35.4016 44.0109 24.2301
# 4 -40.7825 110.5997 35.4016 -46.3277 -30.4028 -43.5086
# 5 0.7634 39.7039 44.0109 -30.4028 38.2507 -13.8802
# 6 -24.5389 71.0832 24.2301 -43.5086 -13.8802 17.7197
#
#
#
# Elastic Compliance Matrix: (Units=1/GPa)
#
#
# Indices 1 2 3 4 5 6 
#
# 1 0.006679 0.000964 -0.000835 -0.002219 -0.002161 -0.000617
# 2 0.000964 0.009262 -0.006386 0.009930 0.006462 0.002356
# 3 -0.000835 -0.006386 0.015298 0.001923 -0.008983 0.001227
# 4 -0.002219 0.009930 0.001923 0.015903 -0.003062 -0.008890
# 5 -0.002161 0.006462 -0.008983 -0.003062 0.026012 -0.003774
# 6 -0.000617 0.002356 0.001227 -0.008890 -0.003774 0.019668
#
#
# Mechanical properties :
#
#
# Convention : Reuss Voigt Hill
#
# Bulk Modulus (GPa) = 53.40042 31.44190 42.42116
# Shear Modulus (GPa) = 44.81218 4.92571 24.86894
#
# Velocity S-wave (km/s) = 4.35201 1.44287 3.24206
# Velocity P-wave (km/s) = 6.91543 4.00809 5.65190
#
# Compressibility (1/GPa) = 0.01872645
#
# Stress axis : x y z
#
# Youngs Moduli (GPa) = 149.71295 107.96691 65.36905
#
# Poissons Ratio (x) = -0.10408 0.05457
# Poissons Ratio (y) = -0.14432 0.41742
# Poissons Ratio (z) = 0.12498 0.68943
#
# Static dielectric constant tensor:
#      x y z
#    x -4.351470 -0.290160 2.548960 
#    y -0.290160 2.010810 0.110180 
#    z 2.548960 0.110180 0.735550 
# 
# From -- ./inp_files/240767.got.cif
#   From: 2010.05.17/outbox.cif.g08.bks.cpg/sg2_121_cif.got.tgz:240767.got - 2010.06.03 11:33:40.
