data_PCOD9024794
_publ_section_title
;
Structure prediction by ZEFSAII (Michael W. Deem and Ramdas Pophale) SiO2 
 PCOD9024794
Probable space group: P -1
;
_chemical_formula_sum "Si O2"
_cell_formula_units_Z 16
_cell_length_a 21.438152
_cell_length_b 15.608079
_cell_length_c 19.227150
_cell_angle_alpha 21.781832
_cell_angle_beta 161.832018
_cell_angle_gamma 159.216587
_cell_volume 662.945242
_symmetry_space_group_name_H-M "P -1"
_symmetry_group_IT_number 2
_symmetry_cell_setting 'triclinic'
loop_
_space_group_symop_operation_xyz
x,y,z
-x,-y,-z
loop_
_atom_site_type_symbol
_atom_site_label
_atom_site_fract_x
_atom_site_fract_y
_atom_site_fract_z
Si Si1 0.684036 0.808770 0.628414
Si Si2 0.781277 0.880349 0.407237
Si Si3 0.837503 0.795818 0.167937
Si Si4 0.499745 0.941739 0.950991
Si Si5 0.195515 0.433610 0.197436
Si Si6 0.743525 0.852724 0.811464
Si Si7 0.691969 0.067068 0.916632
Si Si8 0.478994 0.762779 0.723572
O O1 0.728770 0.681570 0.702189
O O2 0.710244 0.718512 0.801988
O O3 0.456933 0.834006 0.360398
O O4 0.899856 0.093043 0.645086
O O5 0.736868 0.090349 0.246934
O O6 0.763086 0.678720 0.600540
O O7 0.000000 0.000000 0.500000
O O8 0.590740 0.794855 0.209989
O O9 0.700661 0.494430 0.235743
O O10 0.782844 0.881214 0.119074
O O11 0.715118 0.918521 0.896122
O O12 0.667734 0.255792 0.897534
O O13 0.530813 0.910406 0.927345
O O14 0.926563 0.316598 0.996012
O O15 0.650443 0.066815 0.549379
O O16 0.567747 0.670876 0.819415
O O17 0.000000 0.000000 0.000000
#
# Coordination Sequence:
#
# PCOD9024794 Si02
#       8
#     2   2   2   2   2   2   2   2
#     4  11  23  40  63  94 129 168 211 264 322 385
#     4  11  23  40  65  95 125 165 225 274 314 388
#     4  10  22  41  63  95 122 166 212 264 321 382
#     4  11  24  43  67  95 128 180 220 261 330 389
#     4  11  24  43  67  93 131 178 218 265 330 388
#     4  11  22  41  65  94 128 166 211 263 321 393
#     4  11  22  40  66  93 130 167 219 265 316 387
#     4  10  22  40  66  90 125 164 212 261 323 386
#
# _framework density 24.134723000000001
#
# number of rings (size 3 to 8) (size 9 to 14) (size 15 to 20)
#    0.000    1.250    5.000    0.750    0.000    1.500 
#    4.500    5.000    0.000    0.000    0.000    0.000 
#    0.000    0.000    0.000    0.000    0.000    0.000 
#
# Total GULP energy -89249.295691 kJ/mol
# GULP energy per Si atom -5578.080981 kJ/mol
# Density = 2.407979 g / cm^3
# Si number density = 24.134723 Si / 1000 Ang^3
#
#
#
# Elastic Constant Matrix: (Units=GPa)
#
#
# Indices 1 2 3 4 5 6 
#
# 1 151.1162 7.1574 17.2167 1.1073 -2.3911 19.3422
# 2 7.1574 73.2129 36.8310 14.7367 -3.9000 13.6829
# 3 17.2167 36.8310 132.1518 25.7800 -5.1693 9.2279
# 4 1.1073 14.7367 25.7800 28.5916 9.9596 -0.1137
# 5 -2.3911 -3.9000 -5.1693 9.9596 44.8694 2.8560
# 6 19.3422 13.6829 9.2279 -0.1137 2.8560 32.5907
#
#
#
# Elastic Compliance Matrix: (Units=1/GPa)
#
#
# Indices 1 2 3 4 5 6 
#
# 1 0.007248 0.000545 -0.000736 -0.000145 0.000660 -0.004380
# 2 0.000545 0.018300 -0.002932 -0.008078 0.003553 -0.007516
# 3 -0.000736 -0.002932 0.010450 -0.008932 0.002993 -0.001585
# 4 -0.000145 -0.008078 -0.008932 0.052019 -0.013756 0.007393
# 5 0.000660 0.003553 0.002993 -0.013756 0.026353 -0.005088
# 6 -0.004380 -0.007516 -0.001585 0.007393 -0.005088 0.037359
#
#
# Mechanical properties :
#
#
# Convention : Reuss Voigt Hill
#
# Bulk Modulus (GPa) = 33.61139 53.21013 43.41076
# Shear Modulus (GPa) = 29.78093 40.89541 35.33817
#
# Velocity S-wave (km/s) = 3.51657 4.12085 3.83064
# Velocity P-wave (km/s) = 5.51771 6.68856 6.13115
#
# Compressibility (1/GPa) = 0.02975182
#
# Stress axis : x y z
#
# Youngs Moduli (GPa) = 137.97666 54.64410 95.69168
#
# Poissons Ratio (x) = -0.02976 0.07044
# Poissons Ratio (y) = -0.07515 0.28054
# Poissons Ratio (z) = 0.10156 0.16020
#
# Static dielectric constant tensor:
#      x y z
#    x 2.063990 -0.019310 -0.056690 
#    y -0.019310 1.963010 -0.042780 
#    z -0.056690 -0.042780 1.982230 
# 
# From -- ./inp_files/578264.got.cif
#   From: 2010.05.17/outbox.cif.g08.bks.cpg/sg2_290_cif.got.tgz:578264.got - 2010.06.03 11:33:40.
