data_PCOD9024837
_publ_section_title
;
Structure prediction by ZEFSAII (Michael W. Deem and Ramdas Pophale) SiO2 
 PCOD9024837
Probable space group: P -1
;
_chemical_formula_sum "Si O2"
_cell_formula_units_Z 11
_cell_length_a 7.251280
_cell_length_b 11.920671
_cell_length_c 14.953219
_cell_angle_alpha 151.662887
_cell_angle_beta 53.440411
_cell_angle_gamma 116.410602
_cell_volume 481.978392
_symmetry_space_group_name_H-M "P -1"
_symmetry_group_IT_number 2
_symmetry_cell_setting 'triclinic'
loop_
_space_group_symop_operation_xyz
x,y,z
-x,-y,-z
loop_
_atom_site_type_symbol
_atom_site_label
_atom_site_fract_x
_atom_site_fract_y
_atom_site_fract_z
Si Si1 0.451162 0.120774 0.292527
Si Si2 0.000000 0.000000 0.000000
Si Si3 0.763725 0.764094 0.377729
Si Si4 0.281206 0.679733 0.234992
Si Si5 0.789327 0.729740 0.720993
Si Si6 0.505670 0.595689 0.869587
O O1 0.729184 0.095979 0.183536
O O2 0.351261 0.256973 0.506440
O O3 0.311949 0.221849 0.314669
O O4 0.409271 0.847720 0.123088
O O5 0.112998 0.061838 0.108694
O O6 0.671249 0.581920 0.211742
O O7 0.041573 0.694545 0.261618
O O8 0.690898 0.044971 0.567578
O O9 0.269652 0.551532 0.244640
O O10 0.500000 0.500000 0.000000
O O11 0.587779 0.671639 0.803398
O O12 0.000000 0.500000 0.500000
#
# Coordination Sequence:
#
# PCOD9024837 Si02
#       6
#     2   1   2   2   2   2
#     4  11  24  43  66 104 135 176 224 267 337 399
#     4  10  22  40  66  92 136 174 214 270 320 392
#     4  11  25  45  70  96 136 174 219 280 332 391
#     4  11  24  47  68  98 131 173 229 275 331 395
#     4  11  24  41  64  99 136 175 224 267 331 405
#     4  11  23  42  67  98 130 176 221 271 330 393
#
# _framework density 22.822599
#
# number of rings (size 3 to 8) (size 9 to 14) (size 15 to 20)
#    0.000    1.091    1.818    4.909    0.000   10.909 
#    6.545    0.000    0.000    0.000    0.000    0.000 
#    0.000    0.000    0.000    0.000    0.000    0.000 
#
# Total GULP energy -61268.030177 kJ/mol
# GULP energy per Si atom -5569.820925 kJ/mol
# Density = 2.277065 g / cm^3
# Si number density = 22.822599 Si / 1000 Ang^3
#
#
#
# Elastic Constant Matrix: (Units=GPa)
#
#
# Indices 1 2 3 4 5 6 
#
# 1 111.7286 28.5211 47.3819 19.7037 -15.1955 7.7073
# 2 28.5211 48.1866 19.4381 1.6797 -18.6372 -20.4327
# 3 47.3819 19.4381 85.8235 -3.1197 -12.3469 13.2052
# 4 19.7037 1.6797 -3.1197 42.9788 3.2094 -7.9708
# 5 -15.1955 -18.6372 -12.3469 3.2094 39.8976 -0.9275
# 6 7.7073 -20.4327 13.2052 -7.9708 -0.9275 44.6613
#
#
#
# Elastic Compliance Matrix: (Units=1/GPa)
#
#
# Indices 1 2 3 4 5 6 
#
# 1 0.015916 -0.009608 -0.005810 -0.008657 0.000310 -0.006963
# 2 -0.009608 0.046193 -0.006666 0.005766 0.015999 0.026124
# 3 -0.005810 -0.006666 0.017460 0.002975 -0.000318 -0.006685
# 4 -0.008657 0.005766 0.002975 0.028916 -0.001815 0.008375
# 5 0.000310 0.015999 -0.000318 -0.001815 0.032883 0.007719
# 6 -0.006963 0.026124 -0.006685 0.008375 0.007719 0.039176
#
#
# Mechanical properties :
#
#
# Convention : Reuss Voigt Hill
#
# Bulk Modulus (GPa) = 28.24699 48.49120 38.36910
# Shear Modulus (GPa) = 21.14074 35.53404 28.33739
#
# Velocity S-wave (km/s) = 3.04683 3.95012 3.52751
# Velocity P-wave (km/s) = 4.97807 6.48828 5.78269
#
# Compressibility (1/GPa) = 0.03540200
#
# Stress axis : x y z
#
# Youngs Moduli (GPa) = 62.83051 21.64844 57.27367
#
# Poissons Ratio (x) = 0.20799 0.33273
# Poissons Ratio (y) = 0.60365 0.38179
# Poissons Ratio (z) = 0.36502 0.14431
#
# Static dielectric constant tensor:
#      x y z
#    x 1.800820 -0.011770 0.027100 
#    y -0.011770 1.906180 0.016790 
#    z 0.027100 0.016790 1.885870 
# 
# From -- ./inp_files/21244.got.cif
#   From: 2010.05.17/outbox.cif.g08.bks.cpg/sg2_11_cif.got.tgz:21244.got - 2010.06.03 11:33:40.
