data_PCOD9024605
_publ_section_title
;
Structure prediction by ZEFSAII (Michael W. Deem and Ramdas Pophale) SiO2 
 PCOD9024605
Probable space group: P -1
;
_chemical_formula_sum "Si O2"
_cell_formula_units_Z 14
_cell_length_a 9.867706
_cell_length_b 7.245933
_cell_length_c 11.832126
_cell_angle_alpha 135.533858
_cell_angle_beta 98.561381
_cell_angle_gamma 99.920987
_cell_volume 536.549213
_symmetry_space_group_name_H-M "P -1"
_symmetry_group_IT_number 2
_symmetry_cell_setting 'triclinic'
loop_
_space_group_symop_operation_xyz
x,y,z
-x,-y,-z
loop_
_atom_site_type_symbol
_atom_site_label
_atom_site_fract_x
_atom_site_fract_y
_atom_site_fract_z
Si Si1 0.959337 0.694431 0.488881
Si Si2 0.628338 0.383943 0.362985
Si Si3 0.038028 0.607662 0.843105
Si Si4 0.380378 0.774327 0.031973
Si Si5 0.387377 0.457003 0.106578
Si Si6 0.564122 0.277726 0.550152
Si Si7 0.922711 0.915800 0.131355
O O1 0.782310 0.519243 0.376184
O O2 0.023059 0.684761 0.367765
O O3 0.000000 0.500000 0.500000
O O4 0.000959 0.982524 0.693648
O O5 0.569901 0.637965 0.470902
O O6 0.498193 0.101167 0.171341
O O7 0.544478 0.428056 0.102361
O O8 0.030005 0.832016 0.845024
O O9 0.211316 0.701798 0.943811
O O10 0.954208 0.658827 0.964503
O O11 0.387960 0.714402 0.140521
O O12 0.346056 0.482645 0.241503
O O13 0.500000 0.000000 0.500000
O O14 0.655165 0.297959 0.456491
O O15 0.254699 0.182417 0.917428
#
# Coordination Sequence:
#
# PCOD9024605 Si02
#       7
#     2   2   2   2   2   2   2
#     4  10  22  40  65  97 132 174 229 277 332 411
#     4  11  24  41  72  97 133 179 222 278 347 400
#     4  10  22  40  65  94 130 175 232 274 341 406
#     4  11  23  43  66  99 132 178 228 279 345 400
#     4  11  24  42  65  97 141 173 225 287 333 402
#     4  11  24  42  66 103 134 171 224 282 338 403
#     4  10  23  40  65  94 132 179 224 279 336 405
#
# _framework density 26.092669999999998
#
# number of rings (size 3 to 8) (size 9 to 14) (size 15 to 20)
#    0.000    1.429    1.429    3.429   10.000    2.286 
#    0.000    0.714    0.000    0.000    0.000    0.000 
#    0.000    0.000    0.000    0.000    0.000    0.000 
#
# Total GULP energy -78288.734888 kJ/mol
# GULP energy per Si atom -5592.052492 kJ/mol
# Density = 2.603328 g / cm^3
# Si number density = 26.092670 Si / 1000 Ang^3
#
#
#
# Elastic Constant Matrix: (Units=GPa)
#
#
# Indices 1 2 3 4 5 6 
#
# 1 97.3192 -3.4270 40.2851 -12.8349 3.6776 -4.4537
# 2 -3.4270 105.1326 22.3463 -26.9507 -4.8855 -19.4978
# 3 40.2851 22.3463 145.7461 -39.3291 -15.4207 -2.4421
# 4 -12.8349 -26.9507 -39.3291 40.2703 6.2241 4.0498
# 5 3.6776 -4.8855 -15.4207 6.2241 35.4249 -3.3020
# 6 -4.4537 -19.4978 -2.4421 4.0498 -3.3020 24.8200
#
#
#
# Elastic Compliance Matrix: (Units=1/GPa)
#
#
# Indices 1 2 3 4 5 6 
#
# 1 0.012238 0.002053 -0.003350 0.002117 -0.002557 0.002793
# 2 0.002053 0.013666 -0.000072 0.008579 0.001050 0.009837
# 3 -0.003350 -0.000072 0.010477 0.008664 0.003321 -0.000599
# 4 0.002117 0.008579 0.008664 0.039927 -0.002172 0.001168
# 5 -0.002557 0.001050 0.003321 -0.002172 0.030947 0.005164
# 6 0.002793 0.009837 -0.000599 0.001168 0.005164 0.048957
#
#
# Mechanical properties :
#
#
# Convention : Reuss Voigt Hill
#
# Bulk Modulus (GPa) = 29.72310 51.84518 40.78414
# Shear Modulus (GPa) = 29.38307 39.36927 34.37617
#
# Velocity S-wave (km/s) = 3.35939 3.88857 3.63363
# Velocity P-wave (km/s) = 5.14426 6.33041 5.76791
#
# Compressibility (1/GPa) = 0.03364387
#
# Stress axis : x y z
#
# Youngs Moduli (GPa) = 81.71173 73.17272 95.44364
#
# Poissons Ratio (x) = -0.15022 0.31973
# Poissons Ratio (y) = -0.16775 0.00687
# Poissons Ratio (z) = 0.27373 0.00527
#
# Static dielectric constant tensor:
#      x y z
#    x 2.023440 -0.029100 -0.083330 
#    y -0.029100 2.049200 0.033650 
#    z -0.083330 0.033650 2.200360 
# 
# From -- ./inp_files/418625.got.cif
#   From: 2010.05.17/outbox.cif.g08.bks.cpg/sg2_210_cif.got.tgz:418625.got - 2010.06.03 11:33:40.
