data_PCOD9024978
_publ_section_title
;
Structure prediction by ZEFSAII (Michael W. Deem and Ramdas Pophale) SiO2 
 PCOD9024978
Probable space group: P -1
;
_chemical_formula_sum "Si O2"
_cell_formula_units_Z 16
_cell_length_a 14.242892
_cell_length_b 5.926104
_cell_length_c 12.845771
_cell_angle_alpha 112.085796
_cell_angle_beta 140.325557
_cell_angle_gamma 77.872069
_cell_volume 635.626767
_symmetry_space_group_name_H-M "P -1"
_symmetry_group_IT_number 2
_symmetry_cell_setting 'triclinic'
loop_
_space_group_symop_operation_xyz
x,y,z
-x,-y,-z
loop_
_atom_site_type_symbol
_atom_site_label
_atom_site_fract_x
_atom_site_fract_y
_atom_site_fract_z
Si Si1 0.605551 0.616126 0.704556
Si Si2 0.726129 0.129287 0.216512
Si Si3 0.601932 0.078105 0.310146
Si Si4 0.135461 0.287561 0.823267
Si Si5 0.583904 0.373427 0.957413
Si Si6 0.878022 0.070815 0.682608
Si Si7 0.081669 0.456471 0.455294
Si Si8 0.669625 0.080715 0.700716
O O1 0.500000 0.500000 0.500000
O O2 0.502667 0.717962 0.721587
O O3 0.681288 0.381864 0.769637
O O4 0.688031 0.876387 0.771241
O O5 0.615990 0.004448 0.188204
O O6 0.680969 0.198087 0.075259
O O7 0.766007 0.377568 0.359536
O O8 0.853879 0.959116 0.278240
O O9 0.754647 0.161179 0.515696
O O10 0.522902 0.812301 0.238884
O O11 0.299347 0.431854 0.970362
O O12 0.045840 0.212070 0.839981
O O13 0.022684 0.445556 0.700969
O O14 0.500000 0.500000 0.000000
O O15 0.797776 0.049854 0.720735
O O16 0.891191 0.807826 0.599820
O O17 0.000000 0.500000 0.500000
O O18 0.500000 0.000000 0.500000
#
# Coordination Sequence:
#
# PCOD9024978 Si02
#       8
#     2   2   2   2   2   2   2   2
#     4  10  22  43  63 104 135 169 229 294 344 397
#     4  12  24  41  61  98 134 179 221 272 324 415
#     4  12  24  40  70  97 132 182 219 275 347 398
#     4  12  24  42  60  93 136 175 222 271 332 409
#     4  12  26  43  61  95 141 183 221 265 326 419
#     4  12  24  39  67  99 126 179 217 282 349 392
#     4  12  22  36  63  92 132 169 224 268 328 402
#     4  10  22  40  66  98 138 162 225 296 344 396
#
# _framework density 25.172007000000001
#
# number of rings (size 3 to 8) (size 9 to 14) (size 15 to 20)
#    0.000    0.500    7.500    2.250    5.250    1.000 
#    0.000    0.000    0.000    1.500    0.000    0.000 
#    0.000    0.000    0.000    0.000    0.000    0.000 
#
# Total GULP energy -89269.107207 kJ/mol
# GULP energy per Si atom -5579.319200 kJ/mol
# Density = 2.511471 g / cm^3
# Si number density = 25.172007 Si / 1000 Ang^3
#
#
#
# Elastic Constant Matrix: (Units=GPa)
#
#
# Indices 1 2 3 4 5 6 
#
# 1 185.2483 58.0918 23.5021 9.1457 25.4496 -9.3366
# 2 58.0918 127.7312 8.9962 12.9895 13.2825 2.7868
# 3 23.5021 8.9962 62.9265 11.4329 16.9363 11.1809
# 4 9.1457 12.9895 11.4329 34.5325 12.0286 -5.0011
# 5 25.4496 13.2825 16.9363 12.0286 36.4334 4.1003
# 6 -9.3366 2.7868 11.1809 -5.0011 4.1003 32.5208
#
#
#
# Elastic Compliance Matrix: (Units=1/GPa)
#
#
# Indices 1 2 3 4 5 6 
#
# 1 0.007286 -0.003018 -0.002255 0.001920 -0.004016 0.003927
# 2 -0.003018 0.009573 0.000913 -0.003307 -0.000439 -0.002454
# 3 -0.002255 0.000913 0.020556 -0.005793 -0.005502 -0.007990
# 4 0.001920 -0.003307 -0.005793 0.036756 -0.010684 0.009826
# 5 -0.004016 -0.000439 -0.005502 -0.010684 0.037122 -0.005547
# 6 0.003927 -0.002454 -0.007990 0.009826 -0.005547 0.037045
#
#
# Mechanical properties :
#
#
# Convention : Reuss Voigt Hill
#
# Bulk Modulus (GPa) = 34.84955 61.89848 48.37401
# Shear Modulus (GPa) = 30.00818 39.71842 34.86330
#
# Velocity S-wave (km/s) = 3.45646 3.97656 3.72560
# Velocity P-wave (km/s) = 5.45932 6.76222 6.14540
#
# Compressibility (1/GPa) = 0.02869478
#
# Stress axis : x y z
#
# Youngs Moduli (GPa) = 137.25705 104.46547 48.64718
#
# Poissons Ratio (x) = 0.31527 0.10971
# Poissons Ratio (y) = 0.41423 -0.04444
# Poissons Ratio (z) = 0.30955 -0.09542
#
# Static dielectric constant tensor:
#      x y z
#    x 2.766730 0.756900 0.602340 
#    y 0.756900 2.622550 0.521660 
#    z 0.602340 0.521660 2.451690 
# 
# From -- ./inp_files/526028.got.cif
#   From: 2010.05.17/outbox.cif.g08.bks.cpg/sg2_264_cif.got.tgz:526028.got - 2010.06.03 11:33:40.
