data_PCOD9024364
_publ_section_title
;
Structure prediction by ZEFSAII (Michael W. Deem and Ramdas Pophale) SiO2 
 PCOD9024364
Probable space group: P -1
;
_chemical_formula_sum "Si O2"
_cell_formula_units_Z 16
_cell_length_a 11.946260
_cell_length_b 12.056186
_cell_length_c 13.335430
_cell_angle_alpha 97.963573
_cell_angle_beta 98.892887
_cell_angle_gamma 22.852027
_cell_volume 736.885875
_symmetry_space_group_name_H-M "P -1"
_symmetry_group_IT_number 2
_symmetry_cell_setting 'triclinic'
loop_
_space_group_symop_operation_xyz
x,y,z
-x,-y,-z
loop_
_atom_site_type_symbol
_atom_site_label
_atom_site_fract_x
_atom_site_fract_y
_atom_site_fract_z
Si Si1 0.934028 0.738631 0.357368
Si Si2 0.609752 0.551356 0.111318
Si Si3 0.820657 0.319280 0.771380
Si Si4 0.239084 0.350866 0.677061
Si Si5 0.460248 0.251123 0.500446
Si Si6 0.189837 0.097132 0.215802
Si Si7 0.738007 0.226525 0.567269
Si Si8 0.689591 0.215128 0.108365
O O1 0.013695 0.731284 0.267075
O O2 0.936905 0.602686 0.329515
O O3 0.167515 0.563111 0.450693
O O4 0.632491 0.045906 0.404249
O O5 0.680694 0.357756 0.119447
O O6 0.923047 0.328460 0.128369
O O7 0.371883 0.815564 0.191073
O O8 0.451213 0.703230 0.001928
O O9 0.794515 0.243052 0.678167
O O10 0.505667 0.640413 0.805363
O O11 0.993052 0.118459 0.866982
O O12 0.378324 0.237231 0.572448
O O13 0.019076 0.656904 0.697347
O O14 0.515002 0.097182 0.759780
O O15 0.641604 0.186701 0.566804
O O16 0.500000 0.500000 0.500000
O O17 0.000000 0.000000 0.500000
#
# Coordination Sequence:
#
# PCOD9024364 Si02
#       8
#     2   2   2   2   2   2   2   2
#     4  12  24  43  61  88 132 168 220 260 300 352
#     4  10  22  43  65  95 130 153 195 267 321 382
#     4  12  24  39  64  93 128 173 202 253 306 387
#     4  11  24  40  65  94 120 171 220 263 299 360
#     4  12  23  40  63  89 125 177 213 262 304 353
#     4  10  22  40  64  94 124 157 198 267 324 360
#     4  12  23  41  57  90 135 169 203 250 314 368
#     4  11  24  40  67  96 124 163 205 247 321 391
#
# _framework density 21.712994999999999
#
# number of rings (size 3 to 8) (size 9 to 14) (size 15 to 20)
#    0.000    0.750    2.500    5.250    5.250    2.000 
#    0.000    0.000    0.000   15.000    0.000    0.000 
#    0.000    0.000    0.000    0.000    0.000    0.000 
#
# Total GULP energy -89250.638738 kJ/mol
# GULP energy per Si atom -5578.164921 kJ/mol
# Density = 2.166358 g / cm^3
# Si number density = 21.712995 Si / 1000 Ang^3
#
#
#
# Elastic Constant Matrix: (Units=GPa)
#
#
# Indices 1 2 3 4 5 6 
#
# 1 66.7992 7.0933 31.2826 -5.2660 -4.6726 -9.1599
# 2 7.0933 106.5120 9.7197 -5.9414 7.8483 -19.5678
# 3 31.2826 9.7197 57.2320 -1.3513 0.0742 -2.3007
# 4 -5.2660 -5.9414 -1.3513 37.9268 -2.4678 -0.7734
# 5 -4.6726 7.8483 0.0742 -2.4678 17.2107 -4.1490
# 6 -9.1599 -19.5678 -2.3007 -0.7734 -4.1490 25.0492
#
#
#
# Elastic Compliance Matrix: (Units=1/GPa)
#
#
# Indices 1 2 3 4 5 6 
#
# 1 0.022735 0.000893 -0.012125 0.003617 0.008611 0.009436
# 2 0.000893 0.011402 -0.002029 0.001846 -0.002592 0.008675
# 3 -0.012125 -0.002029 0.024235 -0.001473 -0.003758 -0.004461
# 4 0.003617 0.001846 -0.001473 0.027528 0.005138 0.004331
# 5 0.008611 -0.002592 -0.003758 0.005138 0.065205 0.011737
# 6 0.009436 0.008675 -0.004461 0.004331 0.011737 0.051816
#
#
# Mechanical properties :
#
#
# Convention : Reuss Voigt Hill
#
# Bulk Modulus (GPa) = 31.39616 36.30384 33.85000
# Shear Modulus (GPa) = 20.82807 28.20054 24.51430
#
# Velocity S-wave (km/s) = 3.10053 3.60778 3.36373
# Velocity P-wave (km/s) = 5.22577 5.84045 5.54164
#
# Compressibility (1/GPa) = 0.03185103
#
# Stress axis : x y z
#
# Youngs Moduli (GPa) = 43.98519 87.70423 41.26181
#
# Poissons Ratio (x) = -0.07833 0.50030
# Poissons Ratio (y) = -0.03929 0.08372
# Poissons Ratio (z) = 0.53332 0.17795
#
# Static dielectric constant tensor:
#      x y z
#    x 1.718470 0.040110 -0.001830 
#    y 0.040110 1.755110 0.016400 
#    z -0.001830 0.016400 1.789470 
# 
# From -- ./inp_files/433917.got.cif
#   From: 2010.05.17/outbox.cif.g08.bks.cpg/sg2_217_cif.got.tgz:433917.got - 2010.06.03 11:33:40.
