data_PCOD9024038
_publ_section_title
;
Structure prediction by ZEFSAII (Michael W. Deem and Ramdas Pophale) SiO2 
 PCOD9024038
Probable space group: P -1
;
_chemical_formula_sum "Si O2"
_cell_formula_units_Z 16
_cell_length_a 8.759474
_cell_length_b 15.620207
_cell_length_c 9.612718
_cell_angle_alpha 37.063757
_cell_angle_beta 61.179451
_cell_angle_gamma 55.491869
_cell_volume 652.036812
_symmetry_space_group_name_H-M "P -1"
_symmetry_group_IT_number 2
_symmetry_cell_setting 'triclinic'
loop_
_space_group_symop_operation_xyz
x,y,z
-x,-y,-z
loop_
_atom_site_type_symbol
_atom_site_label
_atom_site_fract_x
_atom_site_fract_y
_atom_site_fract_z
Si Si1 0.408197 0.176548 0.754499
Si Si2 0.999278 0.656174 0.368543
Si Si3 0.324772 0.705872 0.710023
Si Si4 0.325093 0.446784 0.662828
Si Si5 0.786144 0.551118 0.981333
Si Si6 0.230019 0.836678 0.890650
Si Si7 0.055560 0.102526 0.453663
Si Si8 0.405512 0.153581 0.258257
O O1 0.542012 0.233573 0.520505
O O2 0.357327 0.298645 0.745746
O O3 0.209291 0.222257 0.701787
O O4 0.500000 0.000000 0.000000
O O5 0.131112 0.582810 0.536943
O O6 0.000000 0.500000 0.500000
O O7 0.120135 0.734257 0.127194
O O8 0.326238 0.534463 0.945721
O O9 0.303825 0.775881 0.782053
O O10 0.129010 0.755102 0.645675
O O11 0.500000 0.500000 0.500000
O O12 0.311345 0.413905 0.871747
O O13 0.713680 0.722669 0.736330
O O14 0.000000 0.500000 0.000000
O O15 0.408300 0.830799 0.908126
O O16 0.100523 0.008851 0.697228
O O17 0.235911 0.131368 0.277097
O O18 0.000000 0.000000 0.500000
O O19 0.500000 0.000000 0.500000
#
# Coordination Sequence:
#
# PCOD9024038 Si02
#       8
#     2   2   2   2   2   2   2   2
#     4  11  25  46  71 103 145 188 237 292 363 431
#     4  10  24  43  67 100 140 187 236 288 363 423
#     4  11  23  41  67 104 134 180 243 282 348 427
#     4  11  24  47  69  94 143 187 234 291 359 431
#     4  12  25  41  71  99 133 184 236 290 353 420
#     4  10  22  40  68  97 139 177 227 296 350 410
#     4   9  19  38  65  98 138 172 219 289 353 418
#     4  10  22  40  63 102 137 170 223 292 364 413
#
# _framework density 24.538492000000002
#
# number of rings (size 3 to 8) (size 9 to 14) (size 15 to 20)
#    0.000    1.500    2.500    1.500    5.250    4.500 
#    0.000    0.625    0.000    0.000    0.000    0.000 
#    0.000    0.000    0.000    0.000    0.000    0.000 
#
# Total GULP energy -89157.324423 kJ/mol
# GULP energy per Si atom -5572.332776 kJ/mol
# Density = 2.448264 g / cm^3
# Si number density = 24.538492 Si / 1000 Ang^3
#
#
#
# Elastic Constant Matrix: (Units=GPa)
#
#
# Indices 1 2 3 4 5 6 
#
# 1 132.0385 11.8971 17.8291 -4.6764 -25.9007 -44.0235
# 2 11.8971 40.2601 5.2460 -5.9625 -3.2178 -14.0148
# 3 17.8291 5.2460 87.2722 -3.5734 -34.3359 -15.8408
# 4 -4.6764 -5.9625 -3.5734 45.6157 -10.5364 3.1687
# 5 -25.9007 -3.2178 -34.3359 -10.5364 56.3180 -1.5407
# 6 -44.0235 -14.0148 -15.8408 3.1687 -1.5407 52.1922
#
#
#
# Elastic Compliance Matrix: (Units=1/GPa)
#
#
# Indices 1 2 3 4 5 6 
#
# 1 0.012972 0.001171 0.003086 0.002903 0.008793 0.012276
# 2 0.001171 0.028362 0.001456 0.004267 0.004089 0.008907
# 3 0.003086 0.001456 0.017719 0.004390 0.013359 0.008500
# 4 0.002903 0.004267 0.004390 0.024950 0.009024 0.003678
# 5 0.008793 0.004089 0.013359 0.009024 0.032222 0.012973
# 6 0.012276 0.008907 0.008500 0.003678 0.012973 0.034646
#
#
# Mechanical properties :
#
#
# Convention : Reuss Voigt Hill
#
# Bulk Modulus (GPa) = 14.18865 36.61283 25.40074
# Shear Modulus (GPa) = 30.68635 45.79840 38.24238
#
# Velocity S-wave (km/s) = 3.54013 4.32486 3.95202
# Velocity P-wave (km/s) = 4.74392 6.31603 5.58556
#
# Compressibility (1/GPa) = 0.07047887
#
# Stress axis : x y z
#
# Youngs Moduli (GPa) = 77.08827 35.25840 56.43667
#
# Poissons Ratio (x) = -0.04128 -0.17418
# Poissons Ratio (y) = -0.09025 -0.08217
# Poissons Ratio (z) = -0.23791 -0.05133
#
# Static dielectric constant tensor:
#      x y z
#    x 2.023970 -0.094400 0.057860 
#    y -0.094400 2.128590 -0.223990 
#    z 0.057860 -0.223990 2.235220 
# 
# From -- ./inp_files/402623.got.cif
#   From: 2010.05.17/outbox.cif.g08.bks.cpg/sg2_202_cif.got.tgz:402623.got - 2010.06.03 11:33:40.
