data_PCOD9024869
_publ_section_title
;
Structure prediction by ZEFSAII (Michael W. Deem and Ramdas Pophale) SiO2 
 PCOD9024869
Probable space group: P -1
;
_chemical_formula_sum "Si O2"
_cell_formula_units_Z 15
_cell_length_a 11.755825
_cell_length_b 9.545804
_cell_length_c 14.480256
_cell_angle_alpha 130.329142
_cell_angle_beta 61.883257
_cell_angle_gamma 78.278807
_cell_volume 715.492643
_symmetry_space_group_name_H-M "P -1"
_symmetry_group_IT_number 2
_symmetry_cell_setting 'triclinic'
loop_
_space_group_symop_operation_xyz
x,y,z
-x,-y,-z
loop_
_atom_site_type_symbol
_atom_site_label
_atom_site_fract_x
_atom_site_fract_y
_atom_site_fract_z
Si Si1 0.880429 0.534502 0.854739
Si Si2 0.739656 0.617642 0.603117
Si Si3 0.820752 0.818266 0.816088
Si Si4 0.383341 0.295182 0.714272
Si Si5 0.483934 0.459329 0.255664
Si Si6 0.000000 0.500000 0.000000
Si Si7 0.517632 0.176112 0.823666
Si Si8 0.188828 0.917953 0.411279
O O1 0.841176 0.727838 0.874542
O O2 0.892966 0.593566 0.978946
O O3 0.692435 0.598032 0.948992
O O4 0.086409 0.213091 0.616721
O O5 0.750870 0.720837 0.738897
O O6 0.622064 0.555947 0.635549
O O7 0.965205 0.349686 0.372382
O O8 0.626118 0.874459 0.686186
O O9 0.660568 0.150266 0.013459
O O10 0.431382 0.433290 0.701890
O O11 0.157210 0.481448 0.888128
O O12 0.466780 0.233068 0.759161
O O13 0.500000 0.000000 0.500000
O O14 0.318926 0.679471 0.336607
O O15 0.678987 0.164714 0.762572
O O16 0.000000 0.000000 0.500000
#
# Coordination Sequence:
#
# PCOD9024869 Si02
#       8
#     2   2   2   2   2   1   2   2
#     4  11  22  43  68  93 126 178 219 272 329 393
#     4  11  23  41  67  96 138 183 208 261 341 402
#     4  11  24  40  68  97 139 175 216 265 331 398
#     4  10  23  44  68  91 128 172 224 283 330 376
#     4  11  24  41  65 102 131 168 226 277 321 393
#     4  10  22  42  72  86 120 172 228 260 332 382
#     4  10  22  40  66  94 125 180 217 259 338 397
#     4  11  24  39  62 100 135 172 219 271 324 398
#
# _framework density 20.964576999999998
#
# number of rings (size 3 to 8) (size 9 to 14) (size 15 to 20)
#    0.000    1.333    2.667    2.800    3.733    4.800 
#    0.000    1.333    2.933    0.000    0.000    0.000 
#    0.000    0.000    0.000    0.000    0.000    0.000 
#
# Total GULP energy -83526.420565 kJ/mol
# GULP energy per Si atom -5568.428038 kJ/mol
# Density = 2.091686 g / cm^3
# Si number density = 20.964577 Si / 1000 Ang^3
#
#
#
# Elastic Constant Matrix: (Units=GPa)
#
#
# Indices 1 2 3 4 5 6 
#
# 1 93.8008 31.1381 18.9154 -10.2986 -27.6197 41.1228
# 2 31.1381 96.4659 21.3009 4.1666 -16.6292 33.0116
# 3 18.9154 21.3009 99.0610 11.4228 -28.2926 19.7049
# 4 -10.2986 4.1666 11.4228 36.1734 1.0191 -11.8301
# 5 -27.6197 -16.6292 -28.2926 1.0191 33.3269 -8.7140
# 6 41.1228 33.0116 19.7049 -11.8301 -8.7140 46.8367
#
#
#
# Elastic Compliance Matrix: (Units=1/GPa)
#
#
# Indices 1 2 3 4 5 6 
#
# 1 0.023946 0.002059 0.005256 -0.002734 0.019744 -0.021705
# 2 0.002059 0.015641 0.001987 -0.006604 0.007767 -0.013891
# 3 0.005256 0.001987 0.016832 -0.008485 0.016725 -0.012128
# 4 -0.002734 -0.006604 -0.008485 0.036497 -0.009136 0.018144
# 5 0.019744 0.007767 0.016725 -0.009136 0.059194 -0.021141
# 6 -0.021705 -0.013891 -0.012128 0.018144 -0.021141 0.055950
#
#
# Mechanical properties :
#
#
# Convention : Reuss Voigt Hill
#
# Bulk Modulus (GPa) = 13.32929 48.00406 30.66668
# Shear Modulus (GPa) = 23.31392 37.79895 30.55643
#
# Velocity S-wave (km/s) = 3.33838 4.25077 3.82190
# Velocity P-wave (km/s) = 4.60777 6.85853 5.84256
#
# Compressibility (1/GPa) = 0.07502273
#
# Stress axis : x y z
#
# Youngs Moduli (GPa) = 41.76002 63.93548 59.41225
#
# Poissons Ratio (x) = -0.13164 -0.31230
# Poissons Ratio (y) = -0.08598 -0.11803
# Poissons Ratio (z) = -0.21951 -0.12701
#
# Static dielectric constant tensor:
#      x y z
#    x 1.801460 0.037750 -0.004920 
#    y 0.037750 1.741280 -0.029150 
#    z -0.004920 -0.029150 1.781730 
# 
# From -- ./inp_files/514676.got.cif
#   From: 2010.05.17/outbox.cif.g08.bks.cpg/sg2_258_cif.got.tgz:514676.got - 2010.06.03 11:33:40.
