data_PCOD9024358
_publ_section_title
;
Structure prediction by ZEFSAII (Michael W. Deem and Ramdas Pophale) SiO2 
 PCOD9024358
Probable space group: P -1
;
_chemical_formula_sum "Si O2"
_cell_formula_units_Z 14
_cell_length_a 12.929169
_cell_length_b 9.444916
_cell_length_c 8.495157
_cell_angle_alpha 60.645240
_cell_angle_beta 105.226118
_cell_angle_gamma 58.434914
_cell_volume 550.801538
_symmetry_space_group_name_H-M "P -1"
_symmetry_group_IT_number 2
_symmetry_cell_setting 'triclinic'
loop_
_space_group_symop_operation_xyz
x,y,z
-x,-y,-z
loop_
_atom_site_type_symbol
_atom_site_label
_atom_site_fract_x
_atom_site_fract_y
_atom_site_fract_z
Si Si1 0.102764 0.015338 0.131193
Si Si2 0.445216 0.046161 0.632058
Si Si3 0.721267 0.900031 0.005746
Si Si4 0.925412 0.254286 0.261444
Si Si5 0.624701 0.417373 0.958201
Si Si6 0.392698 0.445338 0.477620
Si Si7 0.819101 0.865648 0.383550
O O1 0.145024 0.141812 0.006833
O O2 0.275118 0.707524 0.380559
O O3 0.009031 0.164134 0.173127
O O4 0.000000 0.000000 0.000000
O O5 0.617019 0.875948 0.896051
O O6 0.326827 0.340103 0.474608
O O7 0.500000 0.000000 0.500000
O O8 0.327607 0.027925 0.617274
O O9 0.557649 0.214267 0.773650
O O10 0.799201 0.773614 0.275191
O O11 0.728366 0.447790 0.054328
O O12 0.000000 0.000000 0.500000
O O13 0.001562 0.312567 0.363333
O O14 0.759721 0.111303 0.161390
O O15 0.500000 0.500000 0.000000
O O16 0.570201 0.536394 0.696229
#
# Coordination Sequence:
#
# PCOD9024358 Si02
#       7
#     2   2   2   2   2   2   2
#     4  12  20  40  65  93 134 162 214 276 318 377
#     4  10  22  40  64  93 133 171 216 263 322 388
#     4  10  23  37  66  91 131 167 221 258 327 377
#     4  10  23  37  63  96 126 169 213 262 335 374
#     4  11  22  39  65  97 126 164 222 269 315 378
#     4  10  23  39  65 101 121 168 225 257 328 370
#     4  11  21  41  62  93 131 172 207 261 328 390
#
# _framework density 25.417504999999998
#
# number of rings (size 3 to 8) (size 9 to 14) (size 15 to 20)
#    0.857    0.571    2.857    3.429    4.000    0.000 
#    0.000    0.714    3.143    6.000    0.000    0.000 
#    0.000    0.000    0.000    0.000    0.000    0.000 
#
# Total GULP energy -78118.238958 kJ/mol
# GULP energy per Si atom -5579.874211 kJ/mol
# Density = 2.535965 g / cm^3
# Si number density = 25.417505 Si / 1000 Ang^3
#
#
#
# Elastic Constant Matrix: (Units=GPa)
#
#
# Indices 1 2 3 4 5 6 
#
# 1 152.3581 32.1502 46.4334 8.6610 24.3561 -6.2907
# 2 32.1502 72.0094 17.1803 11.7795 8.8166 5.5098
# 3 46.4334 17.1803 99.8926 23.7141 44.6801 -7.9143
# 4 8.6610 11.7795 23.7141 27.9127 11.8539 -5.9118
# 5 24.3561 8.8166 44.6801 11.8539 58.5323 5.4013
# 6 -6.2907 5.5098 -7.9143 -5.9118 5.4013 55.8153
#
#
#
# Elastic Compliance Matrix: (Units=1/GPa)
#
#
# Indices 1 2 3 4 5 6 
#
# 1 0.008342 -0.003269 -0.003311 0.002276 -0.001017 0.001133
# 2 -0.003269 0.016636 -0.000294 -0.006645 0.000685 -0.002823
# 3 -0.003311 -0.000294 0.019287 -0.009810 -0.011542 0.002468
# 4 0.002276 -0.006645 -0.009810 0.048457 -0.002725 0.004918
# 5 -0.001017 0.000685 -0.011542 -0.002725 0.027204 -0.004740
# 6 0.001133 -0.002823 0.002468 0.004918 -0.004740 0.019652
#
#
# Mechanical properties :
#
#
# Convention : Reuss Voigt Hill
#
# Bulk Modulus (GPa) = 32.76933 57.30978 45.03956
# Shear Modulus (GPa) = 30.58085 43.68513 37.13299
#
# Velocity S-wave (km/s) = 3.47240 4.15022 3.82635
# Velocity P-wave (km/s) = 5.38490 6.74997 6.10570
#
# Compressibility (1/GPa) = 0.03051634
#
# Stress axis : x y z
#
# Youngs Moduli (GPa) = 119.86869 60.11085 51.84718
#
# Poissons Ratio (x) = 0.19651 0.17169
# Poissons Ratio (y) = 0.39187 0.01525
# Poissons Ratio (z) = 0.39693 0.01768
#
# Static dielectric constant tensor:
#      x y z
#    x 2.077630 0.054890 0.017130 
#    y 0.054890 2.043680 -0.011800 
#    z 0.017130 -0.011800 2.017120 
# 
# From -- ./inp_files/247233.got.cif
#   From: 2010.05.17/outbox.cif.g08.bks.cpg/sg2_124_cif.got.tgz:247233.got - 2010.06.03 11:33:40.
