data_PCOD9024788
_publ_section_title
;
Structure prediction by ZEFSAII (Michael W. Deem and Ramdas Pophale) SiO2 
 PCOD9024788
Probable space group: P -1
;
_chemical_formula_sum "Si O2"
_cell_formula_units_Z 16
_cell_length_a 9.289389
_cell_length_b 9.899700
_cell_length_c 11.090188
_cell_angle_alpha 101.639331
_cell_angle_beta 99.426080
_cell_angle_gamma 43.856258
_cell_volume 691.841889
_symmetry_space_group_name_H-M "P -1"
_symmetry_group_IT_number 2
_symmetry_cell_setting 'triclinic'
loop_
_space_group_symop_operation_xyz
x,y,z
-x,-y,-z
loop_
_atom_site_type_symbol
_atom_site_label
_atom_site_fract_x
_atom_site_fract_y
_atom_site_fract_z
Si Si1 0.727035 0.125118 0.177494
Si Si2 0.972387 0.707486 0.108907
Si Si3 0.335903 0.266468 0.067204
Si Si4 0.492471 0.693430 0.275134
Si Si5 0.400825 0.498720 0.367762
Si Si6 0.230834 0.387739 0.477042
Si Si7 0.128284 0.690511 0.865749
Si Si8 0.713927 0.883424 0.740619
O O1 0.560857 0.180944 0.065849
O O2 0.581145 0.287107 0.290224
O O3 0.856867 0.161058 0.144210
O O4 0.867364 0.903411 0.199833
O O5 0.175496 0.488270 0.138188
O O6 0.793181 0.715376 0.055522
O O7 0.046653 0.723020 0.994692
O O8 0.367203 0.131239 0.150396
O O9 0.356660 0.656276 0.300338
O O10 0.636054 0.651604 0.397554
O O11 0.646872 0.527212 0.165941
O O12 0.367598 0.908473 0.251538
O O13 0.500000 0.500000 0.500000
O O14 0.228885 0.513910 0.402719
O O15 0.334064 0.187223 0.388010
O O16 0.000000 0.500000 0.500000
O O17 0.961863 0.726902 0.764519
#
# Coordination Sequence:
#
# PCOD9024788 Si02
#       8
#     2   2   2   2   2   2   2   2
#     4  11  21  40  67  91 127 174 211 263 322 379
#     4  10  23  41  63  94 129 169 219 264 318 371
#     4  10  23  41  62  93 131 165 220 265 314 374
#     4  10  22  40  66  88 132 172 207 260 327 372
#     4   9  21  41  64  93 130 164 209 261 314 385
#     4  11  20  41  67  94 127 163 214 270 314 379
#     4  10  23  40  60  94 130 166 213 268 309 382
#     4  11  22  41  62  93 128 168 216 260 319 383
#
# _framework density 23.126671999999999
#
# number of rings (size 3 to 8) (size 9 to 14) (size 15 to 20)
#    0.000    1.750    2.500    1.125    0.000    7.500 
#    0.000    0.625    0.000    0.000    0.000    0.000 
#    0.000    0.000    0.000    0.000    0.000    0.000 
#
# Total GULP energy -89491.605225 kJ/mol
# GULP energy per Si atom -5593.225327 kJ/mol
# Density = 2.307404 g / cm^3
# Si number density = 23.126672 Si / 1000 Ang^3
#
#
#
# Elastic Constant Matrix: (Units=GPa)
#
#
# Indices 1 2 3 4 5 6 
#
# 1 128.6703 10.1861 9.1745 -4.0780 -13.4421 16.5747
# 2 10.1861 122.2886 8.6941 8.9403 -1.1143 23.4191
# 3 9.1745 8.6941 53.9035 7.9760 4.9425 4.2883
# 4 -4.0780 8.9403 7.9760 27.0243 10.0630 5.4342
# 5 -13.4421 -1.1143 4.9425 10.0630 17.1228 -0.8028
# 6 16.5747 23.4191 4.2883 5.4342 -0.8028 36.3559
#
#
#
# Elastic Compliance Matrix: (Units=1/GPa)
#
#
# Indices 1 2 3 4 5 6 
#
# 1 0.009200 0.000204 -0.001969 -0.000196 0.007736 -0.003893
# 2 0.000204 0.009524 -0.000951 -0.002547 0.002285 -0.005684
# 3 -0.001969 -0.000951 0.020123 -0.003937 -0.005121 -0.000388
# 4 -0.000196 -0.002547 -0.003937 0.051220 -0.029572 -0.006115
# 5 0.007736 0.002285 -0.005121 -0.029572 0.083569 0.001871
# 6 -0.003893 -0.005684 -0.000388 -0.006115 0.001871 0.033943
#
#
# Mechanical properties :
#
#
# Convention : Reuss Voigt Hill
#
# Bulk Modulus (GPa) = 29.92805 40.10799 35.01802
# Shear Modulus (GPa) = 22.30657 34.55444 28.43051
#
# Velocity S-wave (km/s) = 3.10907 3.86960 3.51000
# Velocity P-wave (km/s) = 5.08502 6.11109 5.62152
#
# Compressibility (1/GPa) = 0.03341347
#
# Stress axis : x y z
#
# Youngs Moduli (GPa) = 108.70077 105.00191 49.69388
#
# Poissons Ratio (x) = -0.02143 0.09786
# Poissons Ratio (y) = -0.02219 0.04727
# Poissons Ratio (z) = 0.21407 0.09988
#
# Static dielectric constant tensor:
#      x y z
#    x 1.884360 0.007840 0.032830 
#    y 0.007840 1.859600 0.014140 
#    z 0.032830 0.014140 1.877860 
# 
# From -- ./inp_files/226594.got.cif
#   From: 2010.05.17/outbox.cif.g08.bks.cpg/sg2_114_cif.got.tgz:226594.got - 2010.06.03 11:33:40.
