data_PCOD9024804
_publ_section_title
;
Structure prediction by ZEFSAII (Michael W. Deem and Ramdas Pophale) SiO2 
 PCOD9024804
Probable space group: P -1
;
_chemical_formula_sum "Si O2"
_cell_formula_units_Z 12
_cell_length_a 12.020019
_cell_length_b 9.706052
_cell_length_c 11.813892
_cell_angle_alpha 119.041940
_cell_angle_beta 24.410782
_cell_angle_gamma 109.529335
_cell_volume 475.327584
_symmetry_space_group_name_H-M "P -1"
_symmetry_group_IT_number 2
_symmetry_cell_setting 'triclinic'
loop_
_space_group_symop_operation_xyz
x,y,z
-x,-y,-z
loop_
_atom_site_type_symbol
_atom_site_label
_atom_site_fract_x
_atom_site_fract_y
_atom_site_fract_z
Si Si1 0.077864 0.857829 0.186132
Si Si2 0.506253 0.070763 0.860165
Si Si3 0.309983 0.440400 0.241413
Si Si4 0.703472 0.037529 0.419158
Si Si5 0.769741 0.520403 0.123169
Si Si6 0.827068 0.339302 0.324583
O O1 0.819552 0.950447 0.544031
O O2 0.198317 0.665490 0.020622
O O3 0.930775 0.882793 0.206659
O O4 0.296891 0.961808 0.024279
O O5 0.415848 0.242606 0.077519
O O6 0.525868 0.116610 0.727277
O O7 0.295217 0.535414 0.409748
O O8 0.000000 0.500000 0.500000
O O9 0.500000 0.500000 0.000000
O O10 0.862372 0.158303 0.267055
O O11 0.500000 0.000000 0.500000
O O12 0.891282 0.623226 0.960808
O O13 0.444457 0.615787 0.490651
O O14 0.000000 0.500000 0.000000
#
# Coordination Sequence:
#
# PCOD9024804 Si02
#       6
#     2   2   2   2   2   2
#     4  10  23  43  63  91 135 175 214 266 347 380
#     4  10  22  40  66  91 130 172 211 273 337 375
#     4  12  22  43  67 101 141 168 220 288 334 390
#     4  10  23  39  68  98 128 167 230 273 334 392
#     4  12  27  46  66  97 144 179 220 277 336 404
#     4  12  26  42  71 105 126 181 232 269 338 400
#
# _framework density 25.245747999999999
#
# number of rings (size 3 to 8) (size 9 to 14) (size 15 to 20)
#    1.000    0.000    1.667    5.500    4.667    0.667 
#    0.000    5.000    0.000    0.000    0.000    0.000 
#    0.000    0.000    0.000    0.000    0.000    0.000 
#
# Total GULP energy -67261.834070 kJ/mol
# GULP energy per Si atom -5605.152839 kJ/mol
# Density = 2.518829 g / cm^3
# Si number density = 25.245748 Si / 1000 Ang^3
#
#
#
# Elastic Constant Matrix: (Units=GPa)
#
#
# Indices 1 2 3 4 5 6 
#
# 1 74.4522 12.6681 2.4114 0.0077 -5.9903 1.1357
# 2 12.6681 190.0938 54.6019 -2.9878 -4.8750 22.7064
# 3 2.4114 54.6019 118.2587 -3.9597 -24.8036 11.5897
# 4 0.0077 -2.9878 -3.9597 58.1347 6.1650 -4.5544
# 5 -5.9903 -4.8750 -24.8036 6.1650 42.1404 4.2084
# 6 1.1357 22.7064 11.5897 -4.5544 4.2084 34.4308
#
#
#
# Elastic Compliance Matrix: (Units=1/GPa)
#
#
# Indices 1 2 3 4 5 6 
#
# 1 0.013776 -0.001025 0.000704 -0.000280 0.002329 -0.000337
# 2 -0.001025 0.006505 -0.002820 -0.000033 -0.000726 -0.003222
# 3 0.000704 -0.002820 0.011454 -0.000319 0.006852 -0.002899
# 4 -0.000280 -0.000033 -0.000319 0.017732 -0.003111 0.002864
# 5 0.002329 -0.000726 0.006852 -0.003111 0.029051 -0.005867
# 6 -0.000337 -0.003222 -0.002899 0.002864 -0.005867 0.033252
#
#
# Mechanical properties :
#
#
# Convention : Reuss Voigt Hill
#
# Bulk Modulus (GPa) = 39.28712 58.01859 48.65286
# Shear Modulus (GPa) = 39.51478 47.81607 43.66543
#
# Velocity S-wave (km/s) = 3.96056 4.35676 4.16338
# Velocity P-wave (km/s) = 6.04238 6.95269 6.51346
#
# Compressibility (1/GPa) = 0.02545363
#
# Stress axis : x y z
#
# Youngs Moduli (GPa) = 72.59243 153.73699 87.30365
#
# Poissons Ratio (x) = 0.15754 -0.06150
# Poissons Ratio (y) = 0.07439 0.24620
# Poissons Ratio (z) = -0.05113 0.43355
#
# Static dielectric constant tensor:
#      x y z
#    x 2.069470 -0.034670 0.017820 
#    y -0.034670 1.925310 0.010740 
#    z 0.017820 0.010740 1.990230 
# 
# From -- ./inp_files/417726.got.cif
#   From: 2010.05.17/outbox.cif.g08.bks.cpg/sg2_209_cif.got.tgz:417726.got - 2010.06.03 11:33:40.
