data_PCOD9024194
_publ_section_title
;
Structure prediction by ZEFSAII (Michael W. Deem and Ramdas Pophale) SiO2 
 PCOD9024194
Probable space group: P -1
;
_chemical_formula_sum "Si O2"
_cell_formula_units_Z 16
_cell_length_a 13.854563
_cell_length_b 24.226868
_cell_length_c 8.678787
_cell_angle_alpha 136.260971
_cell_angle_beta 38.124618
_cell_angle_gamma 156.852998
_cell_volume 706.949669
_symmetry_space_group_name_H-M "P -1"
_symmetry_group_IT_number 2
_symmetry_cell_setting 'triclinic'
loop_
_space_group_symop_operation_xyz
x,y,z
-x,-y,-z
loop_
_atom_site_type_symbol
_atom_site_label
_atom_site_fract_x
_atom_site_fract_y
_atom_site_fract_z
Si Si1 0.281690 0.362154 0.604386
Si Si2 0.863752 0.065473 0.368207
Si Si3 0.683858 0.539886 0.715320
Si Si4 0.054120 0.547978 0.350035
Si Si5 0.423326 0.195966 0.654152
Si Si6 0.565249 0.001775 0.098412
Si Si7 0.196951 0.714603 0.907951
Si Si8 0.927165 0.808079 0.961468
O O1 0.500000 0.500000 0.500000
O O2 0.474216 0.413335 0.603069
O O3 0.103764 0.218812 0.456479
O O4 0.061037 0.334335 0.890306
O O5 0.578399 0.992437 0.605481
O O6 0.915746 0.084401 0.160279
O O7 0.816340 0.962062 0.304479
O O8 0.901157 0.565747 0.546299
O O9 0.835589 0.683948 0.759186
O O10 0.500000 0.500000 0.000000
O O11 0.930554 0.422838 0.156090
O O12 0.000000 0.500000 0.500000
O O13 0.381212 0.696002 0.231737
O O14 0.615358 0.226586 0.357885
O O15 0.318280 0.232977 0.780890
O O16 0.405022 0.851740 0.028766
O O17 0.880272 0.124991 0.998118
O O18 0.500000 0.000000 0.000000
#
# Coordination Sequence:
#
# PCOD9024194 Si02
#       8
#     2   2   2   2   2   2   2   2
#     4  11  24  45  71 100 139 179 224 282 338 402
#     4  11  24  45  70  96 143 178 222 284 340 400
#     4  12  24  40  71  99 131 182 231 272 332 408
#     4  10  22  40  63  97 136 168 218 283 329 386
#     4  11  22  43  69 102 137 177 225 283 335 402
#     4  11  24  43  68  98 134 178 225 285 334 400
#     4  10  22  43  67  96 138 176 219 286 337 392
#     4  12  26  42  70 101 135 182 229 273 343 411
#
# _framework density 22.632446999999999
#
# number of rings (size 3 to 8) (size 9 to 14) (size 15 to 20)
#    0.000    1.000    2.500    5.250    5.250    1.500 
#    0.000    0.625    0.000    0.000    0.000    0.000 
#    0.000    0.000    0.000    0.000    0.000    0.000 
#
# Total GULP energy -89394.374053 kJ/mol
# GULP energy per Si atom -5587.148378 kJ/mol
# Density = 2.258093 g / cm^3
# Si number density = 22.632447 Si / 1000 Ang^3
#
#
#
# Elastic Constant Matrix: (Units=GPa)
#
#
# Indices 1 2 3 4 5 6 
#
# 1 104.9583 45.9177 38.8789 -1.6166 -25.8345 17.3232
# 2 45.9177 127.6766 26.8071 14.4881 -29.6942 0.3186
# 3 38.8789 26.8071 81.6937 -0.6116 -25.0105 -4.1938
# 4 -1.6166 14.4881 -0.6116 36.0136 -7.7940 -7.8063
# 5 -25.8345 -29.6942 -25.0105 -7.7940 34.1831 -3.3512
# 6 17.3232 0.3186 -4.1938 -7.8063 -3.3512 33.7365
#
#
#
# Elastic Compliance Matrix: (Units=1/GPa)
#
#
# Indices 1 2 3 4 5 6 
#
# 1 0.015378 -0.003575 -0.005253 0.001254 0.004193 -0.007809
# 2 -0.003575 0.010885 0.000162 -0.002770 0.006412 0.001749
# 3 -0.005253 0.000162 0.018555 0.004000 0.011350 0.007055
# 4 0.001254 -0.002770 0.004000 0.032969 0.009817 0.008483
# 5 0.004193 0.006412 0.011350 0.009817 0.049159 0.006352
# 6 -0.007809 0.001749 0.007055 0.008483 0.006352 0.037106
#
#
# Mechanical properties :
#
#
# Convention : Reuss Voigt Hill
#
# Bulk Modulus (GPa) = 36.38373 59.72622 48.05497
# Shear Modulus (GPa) = 26.24039 34.30164 30.27101
#
# Velocity S-wave (km/s) = 3.40871 3.89729 3.66116
# Velocity P-wave (km/s) = 5.62168 6.83365 6.25708
#
# Compressibility (1/GPa) = 0.02748481
#
# Stress axis : x y z
#
# Youngs Moduli (GPa) = 65.02892 91.86654 53.89492
#
# Poissons Ratio (x) = 0.32843 0.28311
# Poissons Ratio (y) = 0.23249 -0.00871
# Poissons Ratio (z) = 0.34159 -0.01485
#
# Static dielectric constant tensor:
#      x y z
#    x 1.849660 -0.033190 0.020260 
#    y -0.033190 1.975010 0.008710 
#    z 0.020260 0.008710 1.863220 
# 
# From -- ./inp_files/283204.got.cif
#   From: 2010.05.17/outbox.cif.g08.bks.cpg/sg2_142_cif.got.tgz:283204.got - 2010.06.03 11:33:40.
