data_PCOD9024509
_publ_section_title
;
Structure prediction by ZEFSAII (Michael W. Deem and Ramdas Pophale) SiO2 
 PCOD9024509
Probable space group: P -1
;
_chemical_formula_sum "Si O2"
_cell_formula_units_Z 12
_cell_length_a 9.800900
_cell_length_b 18.331485
_cell_length_c 19.686514
_cell_angle_alpha 165.576282
_cell_angle_beta 147.956412
_cell_angle_gamma 32.260455
_cell_volume 459.203650
_symmetry_space_group_name_H-M "P -1"
_symmetry_group_IT_number 2
_symmetry_cell_setting 'triclinic'
loop_
_space_group_symop_operation_xyz
x,y,z
-x,-y,-z
loop_
_atom_site_type_symbol
_atom_site_label
_atom_site_fract_x
_atom_site_fract_y
_atom_site_fract_z
Si Si1 0.486167 0.169781 0.448045
Si Si2 0.442097 0.210819 0.303751
Si Si3 0.762646 0.544501 0.991124
Si Si4 0.949702 0.175686 0.207379
Si Si5 0.921662 0.349065 0.543906
Si Si6 0.224797 0.721215 0.099603
O O1 0.501077 0.214525 0.412696
O O2 0.528697 0.451137 0.763677
O O3 0.217387 0.064744 0.260417
O O4 0.705146 0.883321 0.297583
O O5 0.214176 0.488373 0.434403
O O6 0.694516 0.228895 0.381490
O O7 0.319383 0.918944 0.969768
O O8 0.821304 0.338185 0.894454
O O9 0.000000 0.500000 0.000000
O O10 0.000000 0.500000 0.500000
O O11 0.000000 0.000000 0.000000
O O12 0.014268 0.600384 0.855121
O O13 0.165586 0.079646 0.393133
O O14 0.500000 0.500000 0.000000
#
# Coordination Sequence:
#
# PCOD9024509 Si02
#       6
#     2   2   2   2   2   2
#     4  11  23  42  71 107 147 181 246 319 376 443
#     4  10  24  46  77 119 150 192 252 321 404 444
#     4  12  25  45  74 104 143 199 255 310 364 439
#     4  10  22  40  65 104 145 186 228 301 383 445
#     4  11  26  47  79 108 155 203 251 318 376 474
#     4  12  28  51  72 108 155 211 262 302 374 462
#
# _framework density 26.132197000000001
#
# number of rings (size 3 to 8) (size 9 to 14) (size 15 to 20)
#    0.000    1.000    0.000    6.000    2.333    9.333 
#    0.000    0.000    0.000    0.000    0.000    0.000 
#    0.000    0.000    0.000    0.000    0.000    0.000 
#
# Total GULP energy -67193.995960 kJ/mol
# GULP energy per Si atom -5599.499663 kJ/mol
# Density = 2.607272 g / cm^3
# Si number density = 26.132197 Si / 1000 Ang^3
#
#
#
# Elastic Constant Matrix: (Units=GPa)
#
#
# Indices 1 2 3 4 5 6 
#
# 1 124.1073 6.2723 11.5631 -12.3162 3.7374 33.6171
# 2 6.2723 64.2536 5.9290 11.8089 1.1606 16.8222
# 3 11.5631 5.9290 151.4934 -5.8334 2.0761 10.4765
# 4 -12.3162 11.8089 -5.8334 63.5951 -3.6804 3.8475
# 5 3.7374 1.1606 2.0761 -3.6804 34.6271 -10.1210
# 6 33.6171 16.8222 10.4765 3.8475 -10.1210 56.3517
#
#
#
# Elastic Compliance Matrix: (Units=1/GPa)
#
#
# Indices 1 2 3 4 5 6 
#
# 1 0.010207 0.000481 -0.000203 0.002117 -0.002885 -0.006857
# 2 0.000481 0.017663 -0.000411 -0.003028 -0.002621 -0.005747
# 3 -0.000203 -0.000411 0.006749 0.000690 -0.000638 -0.001173
# 4 0.002117 -0.003028 0.000690 0.016916 0.001213 -0.001424
# 5 -0.002885 -0.002621 -0.000638 0.001213 0.031860 0.008262
# 6 -0.006857 -0.005747 -0.001173 -0.001424 0.008262 0.025351
#
#
# Mechanical properties :
#
#
# Convention : Reuss Voigt Hill
#
# Bulk Modulus (GPa) = 29.11021 43.04257 36.07639
# Shear Modulus (GPa) = 41.50644 51.98742 46.74693
#
# Velocity S-wave (km/s) = 3.98970 4.46511 4.23408
# Velocity P-wave (km/s) = 5.69100 6.56428 6.14318
#
# Compressibility (1/GPa) = 0.03435221
#
# Stress axis : x y z
#
# Youngs Moduli (GPa) = 97.97676 56.61582 148.17139
#
# Poissons Ratio (x) = -0.02722 0.03002
# Poissons Ratio (y) = -0.04710 0.06093
# Poissons Ratio (z) = 0.01985 0.02328
#
# Static dielectric constant tensor:
#      x y z
#    x 2.289140 -0.222670 -0.144070 
#    y -0.222670 2.350680 0.089460 
#    z -0.144070 0.089460 2.042940 
# 
# From -- ./inp_files/202787.got.cif
#   From: 2010.05.17/outbox.cif.g08.bks.cpg/sg2_102_cif.got.tgz:202787.got - 2010.06.03 11:33:40.
