data_PCOD9024044
_publ_section_title
;
Structure prediction by ZEFSAII (Michael W. Deem and Ramdas Pophale) SiO2 
 PCOD9024044
Probable space group: P -1
;
_chemical_formula_sum "Si O2"
_cell_formula_units_Z 15
_cell_length_a 15.809857
_cell_length_b 29.805965
_cell_length_c 29.118018
_cell_angle_alpha 170.134053
_cell_angle_beta 18.018919
_cell_angle_gamma 161.878560
_cell_volume 703.234596
_symmetry_space_group_name_H-M "P -1"
_symmetry_group_IT_number 2
_symmetry_cell_setting 'triclinic'
loop_
_space_group_symop_operation_xyz
x,y,z
-x,-y,-z
loop_
_atom_site_type_symbol
_atom_site_label
_atom_site_fract_x
_atom_site_fract_y
_atom_site_fract_z
Si Si1 0.460171 0.465715 0.419237
Si Si2 0.130934 0.665543 0.374103
Si Si3 0.171201 0.133605 0.653055
Si Si4 0.782871 0.823160 0.220156
Si Si5 0.500000 0.000000 0.000000
Si Si6 0.724225 0.195440 0.378243
Si Si7 0.649392 0.661596 0.818362
Si Si8 0.173028 0.453432 0.780714
O O1 0.516112 0.207946 0.157208
O O2 0.626221 0.505690 0.326400
O O3 0.117774 0.393537 0.520409
O O4 0.535207 0.745579 0.691385
O O5 0.442941 0.723416 0.292375
O O6 0.122743 0.921356 0.604659
O O7 0.095534 0.408766 0.099701
O O8 0.131451 0.116849 0.711479
O O9 0.500659 0.168348 0.507077
O O10 0.986449 0.861032 0.450480
O O11 0.061335 0.381696 0.940699
O O12 0.675734 0.427383 0.603430
O O13 0.057133 0.264432 0.287724
O O14 0.650877 0.921849 0.110570
O O15 0.373512 0.566558 0.834013
#
# Coordination Sequence:
#
# PCOD9024044 Si02
#       8
#     2   2   2   2   1   2   2   2
#     4  11  24  39  62  90 121 178 207 267 305 371
#     4  10  22  40  63  83 121 171 214 265 305 362
#     4  12  26  41  65  98 132 171 201 274 317 389
#     4  10  23  40  60  92 121 163 218 255 317 373
#     4  10  24  36  58  84 120 166 212 248 314 362
#     4  10  23  45  73  93 128 169 210 252 335 367
#     4  10  23  46  70  99 125 166 212 265 302 408
#     4  12  27  40  64 100 134 161 218 259 323 372
#
# _framework density 21.330007999999999
#
# number of rings (size 3 to 8) (size 9 to 14) (size 15 to 20)
#    0.000    1.333    0.000    4.000   13.067    3.200 
#    0.000    0.000    0.000    0.000    0.000    0.000 
#    0.000    0.000    0.000    0.000    0.000    0.000 
#
# Total GULP energy -83688.242237 kJ/mol
# GULP energy per Si atom -5579.216149 kJ/mol
# Density = 2.128146 g / cm^3
# Si number density = 21.330008 Si / 1000 Ang^3
#
#
#
# Elastic Constant Matrix: (Units=GPa)
#
#
# Indices 1 2 3 4 5 6 
#
# 1 37.3059 -12.8065 -3.2598 -4.2114 5.6806 15.6095
# 2 -12.8065 106.1116 3.8790 -5.9167 15.4780 4.6659
# 3 -3.2598 3.8790 147.9465 1.9330 2.2919 -7.9489
# 4 -4.2114 -5.9167 1.9330 58.5300 15.6521 1.5185
# 5 5.6806 15.4780 2.2919 15.6521 21.5114 3.2350
# 6 15.6095 4.6659 -7.9489 1.5185 3.2350 34.0938
#
#
#
# Elastic Compliance Matrix: (Units=1/GPa)
#
#
# Indices 1 2 3 4 5 6 
#
# 1 0.043322 0.010185 -0.000134 0.011036 -0.023853 -0.019488
# 2 0.010185 0.013689 -0.000251 0.006699 -0.016587 -0.005320
# 3 -0.000134 -0.000251 0.006870 -0.000123 -0.000693 0.001769
# 4 0.011036 0.006699 -0.000123 0.025525 -0.025585 -0.004707
# 5 -0.023853 -0.016587 -0.000693 -0.025585 0.082456 0.006345
# 6 -0.019488 -0.005320 0.001769 -0.004707 0.006345 0.039001
#
#
# Mechanical properties :
#
#
# Convention : Reuss Voigt Hill
#
# Bulk Modulus (GPa) = 11.97874 29.66549 20.82212
# Shear Modulus (GPa) = 22.82158 43.06380 32.94269
#
# Velocity S-wave (km/s) = 3.27452 4.49813 3.93419
# Velocity P-wave (km/s) = 4.46372 6.39653 5.51545
#
# Compressibility (1/GPa) = 0.08348125
#
# Stress axis : x y z
#
# Youngs Moduli (GPa) = 23.08295 73.05006 145.55641
#
# Poissons Ratio (x) = -0.74401 0.01954
# Poissons Ratio (y) = -0.23510 0.03652
# Poissons Ratio (z) = 0.00310 0.01833
#
# Static dielectric constant tensor:
#      x y z
#    x 1.726270 0.043490 -0.000780 
#    y 0.043490 1.839490 -0.037220 
#    z -0.000780 -0.037220 1.739790 
# 
# From -- ./inp_files/619998.got.cif
#   From: 2010.05.17/outbox.cif.g08.bks.cpg/sg2_310_cif.got.tgz:619998.got - 2010.06.03 11:33:40.
