data_PCOD9024061
_publ_section_title
;
Structure prediction by ZEFSAII (Michael W. Deem and Ramdas Pophale) SiO2 
 PCOD9024061
Probable space group: P -1
;
_chemical_formula_sum "Si O2"
_cell_formula_units_Z 14
_cell_length_a 12.388126
_cell_length_b 11.345380
_cell_length_c 14.445393
_cell_angle_alpha 150.261316
_cell_angle_beta 42.083372
_cell_angle_gamma 129.623016
_cell_volume 674.836978
_symmetry_space_group_name_H-M "P -1"
_symmetry_group_IT_number 2
_symmetry_cell_setting 'triclinic'
loop_
_space_group_symop_operation_xyz
x,y,z
-x,-y,-z
loop_
_atom_site_type_symbol
_atom_site_label
_atom_site_fract_x
_atom_site_fract_y
_atom_site_fract_z
Si Si1 0.403357 0.961509 0.763672
Si Si2 0.116517 0.828837 0.200367
Si Si3 0.322821 0.909198 0.575077
Si Si4 0.756562 0.870788 0.508659
Si Si5 0.759481 0.326434 0.177609
Si Si6 0.114699 0.385547 0.034784
Si Si7 0.320221 0.486033 0.147508
O O1 0.331887 0.855457 0.642312
O O2 0.596170 0.989129 0.649285
O O3 0.368855 0.799521 0.763128
O O4 0.319133 0.218853 0.006209
O O5 0.925217 0.889001 0.358853
O O6 0.201778 0.011742 0.339137
O O7 0.197178 0.814432 0.039745
O O8 0.129530 0.571438 0.067522
O O9 0.289079 0.683812 0.379449
O O10 0.500000 0.000000 0.500000
O O11 0.204279 0.134753 0.789375
O O12 0.717939 0.594674 0.357416
O O13 0.926667 0.343212 0.138905
O O14 0.196234 0.499418 0.150460
O O15 0.500000 0.500000 0.000000
#
# Coordination Sequence:
#
# PCOD9024061 Si02
#       7
#     2   2   2   2   2   2   2
#     4  11  25  41  63  92 131 157 207 255 307 370
#     4  10  23  38  67  93 121 165 209 251 307 357
#     4  11  24  38  65  93 116 160 206 255 312 353
#     4  10  22  40  63  93 124 164 209 251 298 371
#     4  11  25  41  60  94 127 170 197 251 315 361
#     4  10  22  40  63  89 128 157 209 255 295 374
#     4  11  22  39  63  95 117 158 208 258 307 355
#
# _framework density 20.745750999999998
#
# number of rings (size 3 to 8) (size 9 to 14) (size 15 to 20)
#    0.000    1.429    2.857    3.000    4.000    6.286 
#    0.000    1.429    0.000    0.000    0.000    0.000 
#    0.000    0.000    0.000    0.000    0.000    0.000 
#
# Total GULP energy -78297.964057 kJ/mol
# GULP energy per Si atom -5592.711718 kJ/mol
# Density = 2.069853 g / cm^3
# Si number density = 20.745751 Si / 1000 Ang^3
#
#
#
# Elastic Constant Matrix: (Units=GPa)
#
#
# Indices 1 2 3 4 5 6 
#
# 1 109.7236 2.2821 58.2585 -6.7859 16.9867 2.2864
# 2 2.2821 36.1620 21.4405 -6.8317 15.4031 -13.5180
# 3 58.2585 21.4405 127.7512 2.1244 25.3852 -2.5675
# 4 -6.7859 -6.8317 2.1244 21.4953 5.8736 3.5914
# 5 16.9867 15.4031 25.3852 5.8736 51.9560 0.2622
# 6 2.2864 -13.5180 -2.5675 3.5914 0.2622 20.6380
#
#
#
# Elastic Compliance Matrix: (Units=1/GPa)
#
#
# Indices 1 2 3 4 5 6 
#
# 1 0.013604 0.006541 -0.006615 0.008037 -0.004067 0.000607
# 2 0.006541 0.054539 -0.008567 0.019618 -0.016494 0.030728
# 3 -0.006615 -0.008567 0.012477 -0.005439 -0.000767 -0.002370
# 4 0.008037 0.019618 -0.005439 0.059043 -0.012467 0.001167
# 5 -0.004067 -0.016494 -0.000767 -0.012467 0.027294 -0.008626
# 6 0.000607 0.030728 -0.002370 0.001167 -0.008626 0.068126
#
#
# Mechanical properties :
#
#
# Convention : Reuss Voigt Hill
#
# Bulk Modulus (GPa) = 15.78841 48.62213 32.20527
# Shear Modulus (GPa) = 18.28300 31.59493 24.93896
#
# Velocity S-wave (km/s) = 2.97187 3.90674 3.47093
# Velocity P-wave (km/s) = 4.40488 6.62104 5.62322
#
# Compressibility (1/GPa) = 0.06333760
#
# Stress axis : x y z
#
# Youngs Moduli (GPa) = 73.50774 18.33561 80.14483
#
# Poissons Ratio (x) = -0.11993 0.53016
# Poissons Ratio (y) = -0.48082 0.68663
# Poissons Ratio (z) = 0.48626 0.15709
#
# Static dielectric constant tensor:
#      x y z
#    x 1.752350 -0.014160 -0.018070 
#    y -0.014160 1.726150 0.025260 
#    z -0.018070 0.025260 1.766200 
# 
# From -- ./inp_files/294140.got.cif
#   From: 2010.05.17/outbox.cif.g08.bks.cpg/sg2_148_cif.got.tgz:294140.got - 2010.06.03 11:33:40.
