data_PCOD9024312
_publ_section_title
;
Structure prediction by ZEFSAII (Michael W. Deem and Ramdas Pophale) SiO2 
 PCOD9024312
Probable space group: P -1
;
_chemical_formula_sum "Si O2"
_cell_formula_units_Z 16
_cell_length_a 8.298479
_cell_length_b 12.243369
_cell_length_c 23.975369
_cell_angle_alpha 154.234477
_cell_angle_beta 136.866882
_cell_angle_gamma 57.320080
_cell_volume 665.205140
_symmetry_space_group_name_H-M "P -1"
_symmetry_group_IT_number 2
_symmetry_cell_setting 'triclinic'
loop_
_space_group_symop_operation_xyz
x,y,z
-x,-y,-z
loop_
_atom_site_type_symbol
_atom_site_label
_atom_site_fract_x
_atom_site_fract_y
_atom_site_fract_z
Si Si1 0.393973 0.188297 0.594587
Si Si2 0.701660 0.441722 0.900694
Si Si3 0.225515 0.018318 0.860962
Si Si4 0.420679 0.120396 0.786954
Si Si5 0.955793 0.643195 0.239162
Si Si6 0.970184 0.159941 0.969960
Si Si7 0.946401 0.554630 0.417798
Si Si8 0.184092 0.751848 0.872664
O O1 0.555656 0.353204 0.763996
O O2 0.296877 0.361327 0.606954
O O3 0.500000 0.000000 0.500000
O O4 0.133356 0.949136 0.442856
O O5 0.545387 0.204412 0.794987
O O6 0.720892 0.744789 0.062174
O O7 0.000000 0.500000 0.000000
O O8 0.064174 0.094297 0.903559
O O9 0.085202 0.698329 0.665992
O O10 0.513188 0.073942 0.978057
O O11 0.259931 0.316941 0.836014
O O12 0.672607 0.115902 0.879413
O O13 0.204018 0.822750 0.608631
O O14 0.859028 0.455724 0.182821
O O15 0.096337 0.479937 0.164947
O O16 0.047395 0.963171 0.938318
O O17 0.929452 0.425289 0.292448
#
# Coordination Sequence:
#
# PCOD9024312 Si02
#       8
#     2   2   2   2   2   2   2   2
#     4  11  24  40  66  95 132 166 218 271 322 386
#     4  12  23  41  67  98 127 173 220 265 324 387
#     4  11  22  39  67  92 123 171 221 264 314 392
#     4  11  23  41  64  92 133 167 218 268 324 388
#     4  11  23  41  64  94 131 169 215 270 326 381
#     4  11  23  39  63  97 128 171 213 270 327 380
#     4  10  22  40  64  92 123 171 216 259 325 384
#     4  11  22  39  67  93 123 170 223 266 315 391
#
# _framework density 24.05273
#
# number of rings (size 3 to 8) (size 9 to 14) (size 15 to 20)
#    0.000    1.000    3.750    3.750    1.750    4.000 
#    2.250    0.000    0.000    1.500    0.000    0.000 
#    0.000    0.000    0.000    0.000    0.000    0.000 
#
# Total GULP energy -89300.378384 kJ/mol
# GULP energy per Si atom -5581.273649 kJ/mol
# Density = 2.399798 g / cm^3
# Si number density = 24.052730 Si / 1000 Ang^3
#
#
#
# Elastic Constant Matrix: (Units=GPa)
#
#
# Indices 1 2 3 4 5 6 
#
# 1 57.3830 24.0405 9.1778 5.3505 -0.2959 -9.5051
# 2 24.0405 144.0022 66.4101 22.4555 9.9990 -31.9487
# 3 9.1778 66.4101 124.3083 22.5742 13.0684 -12.2623
# 4 5.3505 22.4555 22.5742 46.3392 -0.9760 -0.8165
# 5 -0.2959 9.9990 13.0684 -0.9760 32.4247 12.3479
# 6 -9.5051 -31.9487 -12.2623 -0.8165 12.3479 42.2324
#
#
#
# Elastic Compliance Matrix: (Units=1/GPa)
#
#
# Indices 1 2 3 4 5 6 
#
# 1 0.018970 -0.002674 0.000478 -0.001088 -0.000144 0.002407
# 2 -0.002674 0.012305 -0.004242 -0.003547 -0.005667 0.009063
# 3 0.000478 -0.004242 0.011480 -0.003652 -0.003922 0.001308
# 4 -0.001088 -0.003547 -0.003652 0.025225 0.005230 -0.005030
# 5 -0.000144 -0.005667 -0.003922 0.005230 0.040922 -0.017322
# 6 0.002407 0.009063 0.001308 -0.005030 -0.017322 0.036424
#
#
# Mechanical properties :
#
#
# Convention : Reuss Voigt Hill
#
# Bulk Modulus (GPa) = 33.46860 58.32781 45.89821
# Shear Modulus (GPa) = 29.73357 39.27026 34.50191
#
# Velocity S-wave (km/s) = 3.51975 4.04502 3.79149
# Velocity P-wave (km/s) = 5.51934 6.79109 6.18797
#
# Compressibility (1/GPa) = 0.02987875
#
# Stress axis : x y z
#
# Youngs Moduli (GPa) = 52.71532 81.27103 87.10779
#
# Poissons Ratio (x) = 0.21729 -0.04164
# Poissons Ratio (y) = 0.14094 0.36953
# Poissons Ratio (z) = -0.02520 0.34477
#
# Static dielectric constant tensor:
#      x y z
#    x 1.998530 0.009950 0.034980 
#    y 0.009950 1.952760 0.016570 
#    z 0.034980 0.016570 1.969110 
# 
# From -- ./inp_files/622644.got.cif
#   From: 2010.05.17/outbox.cif.g08.bks.cpg/sg2_312_cif.got.tgz:622644.got - 2010.06.03 11:33:40.
