data_PCOD9024013
_publ_section_title
;
Structure prediction by ZEFSAII (Michael W. Deem and Ramdas Pophale) SiO2 
 PCOD9024013
Probable space group: P -1
;
_chemical_formula_sum "Si O2"
_cell_formula_units_Z 15
_cell_length_a 11.553111
_cell_length_b 10.102210
_cell_length_c 5.516085
_cell_angle_alpha 75.484718
_cell_angle_beta 110.662892
_cell_angle_gamma 115.938402
_cell_volume 538.139939
_symmetry_space_group_name_H-M "P -1"
_symmetry_group_IT_number 2
_symmetry_cell_setting 'triclinic'
loop_
_space_group_symop_operation_xyz
x,y,z
-x,-y,-z
loop_
_atom_site_type_symbol
_atom_site_label
_atom_site_fract_x
_atom_site_fract_y
_atom_site_fract_z
Si Si1 0.000000 0.500000 0.500000
Si Si2 0.409670 0.335996 0.169443
Si Si3 0.742228 0.463922 0.055344
Si Si4 0.982775 0.690759 0.848505
Si Si5 0.844605 0.898333 0.639380
Si Si6 0.347885 0.094216 0.871167
Si Si7 0.792916 0.155835 0.731302
Si Si8 0.420720 0.761843 0.337152
O O1 0.972410 0.367717 0.329583
O O2 0.156624 0.512371 0.658380
O O3 0.372704 0.472811 0.001984
O O4 0.266640 0.215717 0.217472
O O5 0.516534 0.349862 0.452910
O O6 0.434113 0.234042 0.029560
O O7 0.840754 0.572307 0.876405
O O8 0.675989 0.313582 0.923792
O O9 0.970060 0.850042 0.752788
O O10 0.080475 0.701096 0.147541
O O11 0.774526 0.870117 0.341565
O O12 0.850580 0.058732 0.653855
O O13 0.448600 0.098634 0.724272
O O14 0.279676 0.948561 0.045062
O O15 0.669717 0.199681 0.547015
#
# Coordination Sequence:
#
# PCOD9024013 Si02
#       8
#     1   2   2   2   2   2   2   2
#     4  12  24  40  68  98 130 164 210 270 322 382
#     4   9  21  41  67  92 130 174 211 266 320 381
#     4  11  24  44  65  96 130 169 219 264 325 382
#     4  11  24  44  65  96 130 169 219 264 325 382
#     4   9  21  41  67  92 130 174 211 266 320 381
#     4  10  22  40  62  96 128 166 218 264 314 382
#     4  11  23  40  63  96 132 172 215 260 321 379
#     4  11  23  40  63  96 132 172 215 260 321 379
#
# _framework density 27.873788999999999
#
# number of rings (size 3 to 8) (size 9 to 14) (size 15 to 20)
#    0.000    1.600    1.333    2.400    0.000    9.067 
#    0.000    0.000    0.000    0.000    0.000    0.000 
#    0.000    0.000    0.000    0.000    0.000    0.000 
#
# Total GULP energy -83775.331833 kJ/mol
# GULP energy per Si atom -5585.022122 kJ/mol
# Density = 2.781035 g / cm^3
# Si number density = 27.873789 Si / 1000 Ang^3
#
#
#
# Elastic Constant Matrix: (Units=GPa)
#
#
# Indices 1 2 3 4 5 6 
#
# 1 148.1143 31.4942 19.2142 -0.3996 17.3690 -26.7411
# 2 31.4942 98.7385 3.5275 13.0351 -0.4716 -11.0279
# 3 19.2142 3.5275 114.8926 24.6976 23.8290 -20.3229
# 4 -0.3996 13.0351 24.6976 36.8766 5.4796 -2.9976
# 5 17.3690 -0.4716 23.8290 5.4796 47.4123 -11.4518
# 6 -26.7411 -11.0279 -20.3229 -2.9976 -11.4518 57.1216
#
#
#
# Elastic Compliance Matrix: (Units=1/GPa)
#
#
# Indices 1 2 3 4 5 6 
#
# 1 0.008149 -0.002552 -0.000795 0.002069 -0.002196 0.002708
# 2 -0.002552 0.011737 0.001110 -0.005012 0.001433 0.001490
# 3 -0.000795 0.001110 0.011740 -0.007432 -0.004059 0.002815
# 4 0.002069 -0.005012 -0.007432 0.033987 -0.001270 -0.001114
# 5 -0.002196 0.001433 -0.004059 -0.001270 0.024749 0.002699
# 6 0.002708 0.001490 0.002815 -0.001114 0.002699 0.020546
#
#
# Mechanical properties :
#
#
# Convention : Reuss Voigt Hill
#
# Bulk Modulus (GPa) = 36.82823 52.24634 44.53729
# Shear Modulus (GPa) = 40.18205 48.78273 44.48239
#
# Velocity S-wave (km/s) = 3.80092 4.18799 3.99914
# Velocity P-wave (km/s) = 5.70122 6.49387 6.11041
#
# Compressibility (1/GPa) = 0.02715308
#
# Stress axis : x y z
#
# Youngs Moduli (GPa) = 122.70883 85.19978 85.17836
#
# Poissons Ratio (x) = 0.21745 0.06770
# Poissons Ratio (y) = 0.31318 -0.09457
# Poissons Ratio (z) = 0.09753 -0.09459
#
# Static dielectric constant tensor:
#      x y z
#    x 1.943240 -0.239570 0.182100 
#    y -0.239570 1.954860 0.135700 
#    z 0.182100 0.135700 1.902770 
# 
# From -- ./inp_files/70795.got.cif
#   From: 2010.05.17/outbox.cif.g08.bks.cpg/sg2_36_cif.got.tgz:70795.got - 2010.06.03 11:33:40.
