data_PCOD9024229
_publ_section_title
;
Structure prediction by ZEFSAII (Michael W. Deem and Ramdas Pophale) SiO2 
 PCOD9024229
Probable space group: P -1
;
_chemical_formula_sum "Si O2"
_cell_formula_units_Z 15
_cell_length_a 15.834404
_cell_length_b 9.138188
_cell_length_c 16.873889
_cell_angle_alpha 47.552301
_cell_angle_beta 26.274906
_cell_angle_gamma 65.079902
_cell_volume 659.264047
_symmetry_space_group_name_H-M "P -1"
_symmetry_group_IT_number 2
_symmetry_cell_setting 'triclinic'
loop_
_space_group_symop_operation_xyz
x,y,z
-x,-y,-z
loop_
_atom_site_type_symbol
_atom_site_label
_atom_site_fract_x
_atom_site_fract_y
_atom_site_fract_z
Si Si1 0.738484 0.092006 0.722138
Si Si2 0.936619 0.028501 0.724519
Si Si3 0.500000 0.000000 0.500000
Si Si4 0.062591 0.822864 0.044295
Si Si5 0.604552 0.910942 0.721690
Si Si6 0.780857 0.399142 0.328611
Si Si7 0.261630 0.464927 0.851426
Si Si8 0.904050 0.347445 0.758203
O O1 0.861205 0.999272 0.707420
O O2 0.899956 0.379075 0.488373
O O3 0.685766 0.998641 0.711054
O O4 0.500000 0.000000 0.000000
O O5 0.921135 0.232525 0.705022
O O6 0.200776 0.108777 0.476062
O O7 0.767201 0.771800 0.003905
O O8 0.552368 0.274095 0.365415
O O9 0.705150 0.106872 0.221791
O O10 0.084166 0.807819 0.124808
O O11 0.856249 0.561722 0.282571
O O12 0.000000 0.000000 0.000000
O O13 0.606045 0.123648 0.597687
O O14 0.342749 0.685656 0.021476
O O15 0.711975 0.503122 0.277230
O O16 0.011716 0.418313 0.098236
#
# Coordination Sequence:
#
# PCOD9024229 Si02
#       8
#     2   2   1   2   2   2   2   2
#     4  12  26  50  73 101 148 184 238 306 353 417
#     4  11  25  46  72 106 137 191 245 290 353 428
#     4  10  22  40  64 102 138 184 228 284 348 420
#     4  11  23  39  66 101 141 182 236 284 352 427
#     4  11  24  47  73 101 141 187 235 297 359 425
#     4   9  18  39  62  95 137 176 219 290 342 412
#     4   9  19  37  67  97 137 177 226 283 347 413
#     4  12  26  46  73 105 144 190 235 299 360 412
#
# _framework density 22.752644
#
# number of rings (size 3 to 8) (size 9 to 14) (size 15 to 20)
#    0.000    1.333    2.667    2.400    0.000    5.867 
#    2.400    2.667    0.000    0.000    0.000    0.000 
#    0.000    0.000    0.000    0.000    0.000    0.000 
#
# Total GULP energy -83608.626249 kJ/mol
# GULP energy per Si atom -5573.908417 kJ/mol
# Density = 2.270086 g / cm^3
# Si number density = 22.752644 Si / 1000 Ang^3
#
#
#
# Elastic Constant Matrix: (Units=GPa)
#
#
# Indices 1 2 3 4 5 6 
#
# 1 102.0906 8.3955 18.3052 -8.3850 16.1377 -5.2286
# 2 8.3955 23.6859 15.4930 0.6171 -8.0279 -1.9158
# 3 18.3052 15.4930 108.9098 -9.0985 -14.2372 -3.5074
# 4 -8.3850 0.6171 -9.0985 29.9564 3.3063 4.9342
# 5 16.1377 -8.0279 -14.2372 3.3063 33.0233 -5.4911
# 6 -5.2286 -1.9158 -3.5074 4.9342 -5.4911 26.1815
#
#
#
# Elastic Compliance Matrix: (Units=1/GPa)
#
#
# Indices 1 2 3 4 5 6 
#
# 1 0.012404 -0.006302 -0.002056 0.004130 -0.009049 -0.000936
# 2 -0.006302 0.053771 -0.004901 -0.007218 0.015876 0.006709
# 3 -0.002056 -0.004901 0.011043 0.002168 0.004567 0.001259
# 4 0.004130 -0.007218 0.002168 0.037568 -0.007957 -0.008162
# 5 -0.009049 0.015876 0.004567 -0.007957 0.043075 0.010500
# 6 -0.000936 0.006709 0.001259 -0.008162 0.010500 0.042408
#
#
# Mechanical properties :
#
#
# Convention : Reuss Voigt Hill
#
# Bulk Modulus (GPa) = 19.72438 35.45263 27.58850
# Shear Modulus (GPa) = 20.51811 30.66508 25.59160
#
# Velocity S-wave (km/s) = 3.00624 3.67517 3.35740
# Velocity P-wave (km/s) = 4.55388 5.79868 5.21357
#
# Compressibility (1/GPa) = 0.05069868
#
# Stress axis : x y z
#
# Youngs Moduli (GPa) = 80.61995 18.59751 90.55122
#
# Poissons Ratio (x) = 0.11720 0.18621
# Poissons Ratio (y) = 0.50805 0.44383
# Poissons Ratio (z) = 0.16579 0.09115
#
# Static dielectric constant tensor:
#      x y z
#    x 1.860420 -0.021220 -0.013470 
#    y -0.021220 1.838030 0.002290 
#    z -0.013470 0.002290 1.842980 
# 
# From -- ./inp_files/314635.got.cif
#   From: 2010.05.17/outbox.cif.g08.bks.cpg/sg2_158_cif.got.tgz:314635.got - 2010.06.03 11:33:40.
