data_PCOD9024746
_publ_section_title
;
Structure prediction by ZEFSAII (Michael W. Deem and Ramdas Pophale) SiO2 
 PCOD9024746
Probable space group: P -1
;
_chemical_formula_sum "Si O2"
_cell_formula_units_Z 12
_cell_length_a 13.815144
_cell_length_b 6.717837
_cell_length_c 7.501656
_cell_angle_alpha 137.352463
_cell_angle_beta 93.027508
_cell_angle_gamma 87.521627
_cell_volume 471.006509
_symmetry_space_group_name_H-M "P -1"
_symmetry_group_IT_number 2
_symmetry_cell_setting 'triclinic'
loop_
_space_group_symop_operation_xyz
x,y,z
-x,-y,-z
loop_
_atom_site_type_symbol
_atom_site_label
_atom_site_fract_x
_atom_site_fract_y
_atom_site_fract_z
Si Si1 0.561093 0.794386 0.729633
Si Si2 0.236658 0.246660 0.948359
Si Si3 0.924911 0.380922 0.772509
Si Si4 0.720728 0.420731 0.381708
Si Si5 0.604983 0.365765 0.959240
Si Si6 0.880356 0.782416 0.456586
O O1 0.500000 0.500000 0.500000
O O2 0.667315 0.643833 0.661390
O O3 0.500000 0.000000 0.000000
O O4 0.584388 0.017436 0.716927
O O5 0.323043 0.467856 0.055162
O O6 0.172132 0.234125 0.751811
O O7 0.269660 0.913852 0.771523
O O8 0.153691 0.393530 0.160282
O O9 0.002903 0.262376 0.558145
O O10 0.868500 0.130323 0.713526
O O11 0.000000 0.500000 0.000000
O O12 0.653329 0.408177 0.187507
O O13 0.821729 0.557491 0.420720
O O14 0.500000 0.500000 0.000000
#
# Coordination Sequence:
#
# PCOD9024746 Si02
#       6
#     2   2   2   2   2   2
#     4  12  25  47  70  98 137 183 237 296 356 420
#     4  10  22  40  66 102 137 186 233 289 354 419
#     4   9  18  39  67  96 138 180 230 285 351 424
#     4  11  24  44  68 102 143 184 240 298 352 426
#     4  11  25  44  70  99 139 187 238 294 356 422
#     4   9  20  40  65  99 139 184 229 287 354 424
#
# _framework density 25.477357000000001
#
# number of rings (size 3 to 8) (size 9 to 14) (size 15 to 20)
#    0.000    1.667    1.667    2.000    0.000    2.667 
#    6.000    7.500    0.000    0.000    0.000    0.000 
#    0.000    0.000    0.000    0.000    0.000    0.000 
#
# Total GULP energy -66975.813933 kJ/mol
# GULP energy per Si atom -5581.317828 kJ/mol
# Density = 2.541937 g / cm^3
# Si number density = 25.477357 Si / 1000 Ang^3
#
#
#
# Elastic Constant Matrix: (Units=GPa)
#
#
# Indices 1 2 3 4 5 6 
#
# 1 194.2756 78.1307 55.5703 45.3202 -19.6251 -2.3362
# 2 78.1307 168.8376 65.7803 34.2766 -9.7779 2.2432
# 3 55.5703 65.7803 129.3514 53.4082 -16.3448 7.2538
# 4 45.3202 34.2766 53.4082 57.3399 -2.0596 9.6612
# 5 -19.6251 -9.7779 -16.3448 -2.0596 57.8875 20.7301
# 6 -2.3362 2.2432 7.2538 9.6612 20.7301 48.8607
#
#
#
# Elastic Compliance Matrix: (Units=1/GPa)
#
#
# Indices 1 2 3 4 5 6 
#
# 1 0.007318 -0.002434 0.000135 -0.004492 0.001735 0.000594
# 2 -0.002434 0.008286 -0.003182 -0.000106 -0.000385 0.000160
# 3 0.000135 -0.003182 0.014530 -0.011385 0.003676 -0.001313
# 4 -0.004492 -0.000106 -0.011385 0.032248 -0.002187 -0.003968
# 5 0.001735 -0.000385 0.003676 -0.002187 0.022124 -0.009399
# 6 0.000594 0.000160 -0.001313 -0.003968 -0.009399 0.025455
#
#
# Mechanical properties :
#
#
# Convention : Reuss Voigt Hill
#
# Bulk Modulus (GPa) = 52.16048 99.04746 75.60397
# Shear Modulus (GPa) = 39.27275 52.34984 45.81130
#
# Velocity S-wave (km/s) = 3.93042 4.53786 4.24502
# Velocity P-wave (km/s) = 6.41213 8.14968 7.33255
#
# Compressibility (1/GPa) = 0.01917160
#
# Stress axis : x y z
#
# Youngs Moduli (GPa) = 136.64598 120.68246 68.82396
#
# Poissons Ratio (x) = 0.29380 -0.00928
# Poissons Ratio (y) = 0.33266 0.21898
# Poissons Ratio (z) = -0.01843 0.38397
#
# Static dielectric constant tensor:
#      x y z
#    x 2.073900 -0.020950 -0.059730 
#    y -0.020950 2.055560 -0.133090 
#    z -0.059730 -0.133090 2.243250 
# 
# From -- ./inp_files/289347.got.cif
#   From: 2010.05.17/outbox.cif.g08.bks.cpg/sg2_145_cif.got.tgz:289347.got - 2010.06.03 11:33:40.
