data_PCOD9024955
_publ_section_title
;
Structure prediction by ZEFSAII (Michael W. Deem and Ramdas Pophale) SiO2 
 PCOD9024955
Probable space group: P -1
;
_chemical_formula_sum "Si O2"
_cell_formula_units_Z 16
_cell_length_a 14.015259
_cell_length_b 14.951474
_cell_length_c 11.742612
_cell_angle_alpha 138.555437
_cell_angle_beta 150.108789
_cell_angle_gamma 39.223931
_cell_volume 751.330943
_symmetry_space_group_name_H-M "P -1"
_symmetry_group_IT_number 2
_symmetry_cell_setting 'triclinic'
loop_
_space_group_symop_operation_xyz
x,y,z
-x,-y,-z
loop_
_atom_site_type_symbol
_atom_site_label
_atom_site_fract_x
_atom_site_fract_y
_atom_site_fract_z
Si Si1 0.641902 0.587404 0.203722
Si Si2 0.537375 0.091622 0.729236
Si Si3 0.820413 0.051110 0.517368
Si Si4 0.775170 0.216275 0.407990
Si Si5 0.001460 0.407150 0.255578
Si Si6 0.028264 0.560577 0.208805
Si Si7 0.628851 0.836648 0.136549
Si Si8 0.005719 0.086277 0.971327
O O1 0.485791 0.753149 0.194669
O O2 0.778397 0.526440 0.173869
O O3 0.817344 0.572071 0.463640
O O4 0.500000 0.500000 0.000000
O O5 0.373892 0.134528 0.703126
O O6 0.500000 0.000000 0.500000
O O7 0.765075 0.001920 0.925053
O O8 0.791270 0.184643 0.530172
O O9 0.644561 0.985881 0.249221
O O10 0.031051 0.916611 0.572240
O O11 0.842660 0.086927 0.706358
O O12 0.796275 0.369034 0.546048
O O13 0.570080 0.198121 0.133847
O O14 0.052860 0.435293 0.207087
O O15 0.993568 0.251034 0.130502
O O16 0.825329 0.700195 0.167283
O O17 0.000000 0.500000 0.000000
O O18 0.000000 0.000000 0.000000
#
# Coordination Sequence:
#
# PCOD9024955 Si02
#       8
#     2   2   2   2   2   2   2   2
#     4  11  25  43  69  99 138 182 230 281 353 416
#     4  12  23  43  67 103 139 179 230 286 342 415
#     4  10  22  40  66  97 135 172 227 282 345 402
#     4  10  22  42  67  98 131 179 227 284 342 404
#     4  11  25  44  67  98 140 180 227 285 347 413
#     4  11  25  45  69  96 139 183 231 282 343 413
#     4  11  23  42  70  98 136 177 229 287 342 410
#     4  12  24  42  68 100 138 178 228 290 347 413
#
# _framework density 21.295542999999999
#
# number of rings (size 3 to 8) (size 9 to 14) (size 15 to 20)
#    0.000    1.000    3.750    2.625    1.750    1.500 
#    2.250    0.000    0.000    0.000    0.000    0.000 
#    0.000    0.000    0.000    0.000    0.000    0.000 
#
# Total GULP energy -89362.293897 kJ/mol
# GULP energy per Si atom -5585.143369 kJ/mol
# Density = 2.124707 g / cm^3
# Si number density = 21.295543 Si / 1000 Ang^3
#
#
#
# Elastic Constant Matrix: (Units=GPa)
#
#
# Indices 1 2 3 4 5 6 
#
# 1 107.7535 27.5911 54.2664 21.7450 -17.1445 20.6734
# 2 27.5911 86.6458 28.1966 29.5115 3.8506 8.8728
# 3 54.2664 28.1966 143.8066 19.9947 12.2172 11.1519
# 4 21.7450 29.5115 19.9947 26.0522 6.0507 7.3353
# 5 -17.1445 3.8506 12.2172 6.0507 42.4438 0.5245
# 6 20.6734 8.8728 11.1519 7.3353 0.5245 40.6935
#
#
#
# Elastic Compliance Matrix: (Units=1/GPa)
#
#
# Indices 1 2 3 4 5 6 
#
# 1 0.016626 0.000230 -0.005228 -0.010938 0.009824 -0.005219
# 2 0.000230 0.018978 -0.000979 -0.021282 0.001689 -0.000172
# 3 -0.005228 -0.000979 0.009611 -0.000953 -0.004659 0.000468
# 4 -0.010938 -0.021282 -0.000953 0.076262 -0.013046 -0.003121
# 5 0.009824 0.001689 -0.004659 -0.013046 0.030603 -0.002125
# 6 -0.005219 -0.000172 0.000468 -0.003121 -0.002125 0.027725
#
#
# Mechanical properties :
#
#
# Convention : Reuss Voigt Hill
#
# Bulk Modulus (GPa) = 30.06554 62.03490 46.05022
# Shear Modulus (GPa) = 24.64939 37.04801 30.84870
#
# Velocity S-wave (km/s) = 3.40588 4.17550 3.81018
# Velocity P-wave (km/s) = 5.44202 7.24156 6.40530
#
# Compressibility (1/GPa) = 0.03326067
#
# Stress axis : x y z
#
# Youngs Moduli (GPa) = 60.14662 52.69299 104.05076
#
# Poissons Ratio (x) = -0.01213 0.54400
# Poissons Ratio (y) = -0.01385 0.10187
# Poissons Ratio (z) = 0.31446 0.05159
#
# Static dielectric constant tensor:
#      x y z
#    x 1.850160 0.007940 -0.015930 
#    y 0.007940 1.777420 0.017970 
#    z -0.015930 0.017970 1.771080 
# 
# From -- ./inp_files/454405.got.cif
#   From: 2010.05.17/outbox.cif.g08.bks.cpg/sg2_228_cif.got.tgz:454405.got - 2010.06.03 11:33:40.
