data_PCOD9024427
_publ_section_title
;
Structure prediction by ZEFSAII (Michael W. Deem and Ramdas Pophale) SiO2 
 PCOD9024427
Probable space group: P -1
;
_chemical_formula_sum "Si O2"
_cell_formula_units_Z 13
_cell_length_a 5.215561
_cell_length_b 21.233886
_cell_length_c 4.881647
_cell_angle_alpha 106.601934
_cell_angle_beta 83.970322
_cell_angle_gamma 105.811399
_cell_volume 498.269495
_symmetry_space_group_name_H-M "P -1"
_symmetry_group_IT_number 2
_symmetry_cell_setting 'triclinic'
loop_
_space_group_symop_operation_xyz
x,y,z
-x,-y,-z
loop_
_atom_site_type_symbol
_atom_site_label
_atom_site_fract_x
_atom_site_fract_y
_atom_site_fract_z
Si Si1 0.666780 0.680073 0.657435
Si Si2 0.722586 0.771025 0.262966
Si Si3 0.720623 0.442383 0.135320
Si Si4 0.291599 0.109162 0.210988
Si Si5 0.971435 0.580946 0.434144
Si Si6 0.167016 0.876153 0.151593
Si Si7 0.000000 0.000000 0.500000
O O1 0.625854 0.708773 0.402363
O O2 0.503950 0.612708 0.751436
O O3 0.938592 0.656756 0.548118
O O4 0.643304 0.740251 0.936589
O O5 0.637923 0.833972 0.488367
O O6 0.041910 0.804680 0.231221
O O7 0.727350 0.521820 0.262335
O O8 0.976307 0.438714 0.288013
O O9 0.787587 0.422996 0.800430
O O10 0.547768 0.115269 0.000026
O O11 0.055322 0.119719 0.051008
O O12 0.202508 0.036475 0.275796
O O13 0.150000 0.937639 0.427924
#
# Coordination Sequence:
#
# PCOD9024427 Si02
#       7
#     2   2   2   2   2   2   1
#     4  12  23  44  64  99 126 190 224 298 340 443
#     4  11  26  43  65 100 139 186 248 280 367 418
#     4  10  22  40  64  96 131 172 226 291 357 422
#     4  11  25  48  72 107 150 190 240 299 356 425
#     4  10  22  40  64  96 131 172 226 291 357 422
#     4  11  25  48  72 107 150 190 240 299 356 425
#     4  10  24  42  80 116 138 196 236 302 354 430
#
# _framework density 26.090298000000001
#
# number of rings (size 3 to 8) (size 9 to 14) (size 15 to 20)
#    0.000    1.231    1.538    3.231    0.000    9.846 
#    5.538    6.154    0.000    0.000    0.000    0.000 
#    0.000    0.000    0.000    0.000    0.000    0.000 
#
# Total GULP energy -72391.977226 kJ/mol
# GULP energy per Si atom -5568.613633 kJ/mol
# Density = 2.603092 g / cm^3
# Si number density = 26.090298 Si / 1000 Ang^3
#
#
#
# Elastic Constant Matrix: (Units=GPa)
#
#
# Indices 1 2 3 4 5 6 
#
# 1 67.4914 17.0507 41.2648 -7.3353 -7.7900 5.7632
# 2 17.0507 117.0009 24.0915 -25.4459 -15.8029 16.0340
# 3 41.2648 24.0915 136.8348 -16.3769 -23.9330 6.5445
# 4 -7.3353 -25.4459 -16.3769 52.7016 2.8692 -14.3121
# 5 -7.7900 -15.8029 -23.9330 2.8692 27.3516 -7.8089
# 6 5.7632 16.0340 6.5445 -14.3121 -7.8089 21.9822
#
#
#
# Elastic Compliance Matrix: (Units=1/GPa)
#
#
# Indices 1 2 3 4 5 6 
#
# 1 0.018591 -0.001450 -0.005471 -0.000551 -0.001112 -0.002941
# 2 -0.001450 0.010636 -0.000070 0.003760 0.004313 -0.003377
# 3 -0.005471 -0.000070 0.010617 0.002913 0.008290 0.003165
# 4 -0.000551 0.003760 0.002913 0.025439 0.006271 0.015325
# 5 -0.001112 0.004313 0.008290 0.006271 0.050055 0.016542
# 6 -0.002941 -0.003377 0.003165 0.015325 0.016542 0.063637
#
#
# Mechanical properties :
#
#
# Convention : Reuss Voigt Hill
#
# Bulk Modulus (GPa) = 38.66420 54.01568 46.33994
# Shear Modulus (GPa) = 24.80456 36.33509 30.56982
#
# Velocity S-wave (km/s) = 3.08672 3.73589 3.42671
# Velocity P-wave (km/s) = 5.24932 6.27356 5.78415
#
# Compressibility (1/GPa) = 0.02586372
#
# Stress axis : x y z
#
# Youngs Moduli (GPa) = 53.78990 94.02461 94.18570
#
# Poissons Ratio (x) = 0.13630 0.51527
# Poissons Ratio (y) = 0.07797 0.00655
# Poissons Ratio (z) = 0.29428 0.00654
#
# Static dielectric constant tensor:
#      x y z
#    x 2.056800 0.075170 0.008120 
#    y 0.075170 2.122640 0.070250 
#    z 0.008120 0.070250 2.030800 
# 
# From -- ./inp_files/8787.got.cif
#   From: 2010.05.17/outbox.cif.g08.bks.cpg/sg2_5_cif.got.tgz:8787.got - 2010.06.03 11:33:40.
