data_PCOD9024476
_publ_section_title
;
Structure prediction by ZEFSAII (Michael W. Deem and Ramdas Pophale) SiO2 
 PCOD9024476
Probable space group: P -1
;
_chemical_formula_sum "Si O2"
_cell_formula_units_Z 14
_cell_length_a 12.160488
_cell_length_b 7.843335
_cell_length_c 9.448628
_cell_angle_alpha 119.502313
_cell_angle_beta 46.934990
_cell_angle_gamma 121.907640
_cell_volume 546.196385
_symmetry_space_group_name_H-M "P -1"
_symmetry_group_IT_number 2
_symmetry_cell_setting 'triclinic'
loop_
_space_group_symop_operation_xyz
x,y,z
-x,-y,-z
loop_
_atom_site_type_symbol
_atom_site_label
_atom_site_fract_x
_atom_site_fract_y
_atom_site_fract_z
Si Si1 0.408654 0.901686 0.716909
Si Si2 0.860618 0.457885 0.718632
Si Si3 0.362307 0.321576 0.623626
Si Si4 0.289346 0.199395 0.112567
Si Si5 0.037418 0.059866 0.753087
Si Si6 0.399788 0.684244 0.934541
Si Si7 0.904808 0.259734 0.209212
O O1 0.566506 0.869862 0.499494
O O2 0.399787 0.817435 0.850778
O O3 0.270692 0.753533 0.682157
O O4 0.363423 0.108040 0.876124
O O5 0.760437 0.605320 0.814269
O O6 0.000000 0.500000 0.500000
O O7 0.970926 0.520711 0.785839
O O8 0.716155 0.269659 0.824703
O O9 0.500000 0.500000 0.500000
O O10 0.201195 0.228269 0.638585
O O11 0.337261 0.447752 0.835121
O O12 0.425702 0.264749 0.135242
O O13 0.118452 0.040946 0.244378
O O14 0.085168 0.876625 0.717297
O O15 0.967679 0.161956 0.982625
#
# Coordination Sequence:
#
# PCOD9024476 Si02
#       7
#     2   2   2   2   2   2   2
#     4  10  23  41  67  96 132 174 219 261 331 399
#     4  11  24  42  66  98 132 172 222 277 332 383
#     4  10  22  40  64  99 133 169 219 270 326 388
#     4  10  23  43  66  94 133 174 219 266 330 394
#     4   9  18  40  64  91 129 175 217 267 315 397
#     4  11  23  44  65  98 139 169 215 282 329 383
#     4   9  19  38  63  93 126 169 224 259 321 387
#
# _framework density 25.631806000000001
#
# number of rings (size 3 to 8) (size 9 to 14) (size 15 to 20)
#    0.000    2.000    1.429    1.714    2.000    3.429 
#    2.571    3.571    0.000    0.000    0.000    0.000 
#    0.000    0.000    0.000    0.000    0.000    0.000 
#
# Total GULP energy -78064.251562 kJ/mol
# GULP energy per Si atom -5576.017969 kJ/mol
# Density = 2.557347 g / cm^3
# Si number density = 25.631806 Si / 1000 Ang^3
#
#
#
# Elastic Constant Matrix: (Units=GPa)
#
#
# Indices 1 2 3 4 5 6 
#
# 1 152.3665 23.0553 21.8186 -20.8741 -15.7328 36.7825
# 2 23.0553 51.6673 12.1578 -18.6875 -6.0972 20.3979
# 3 21.8186 12.1578 102.0733 -14.5137 -19.6586 0.3253
# 4 -20.8741 -18.6875 -14.5137 38.4209 2.8607 -13.9468
# 5 -15.7328 -6.0972 -19.6586 2.8607 27.6302 -1.3679
# 6 36.7825 20.3979 0.3253 -13.9468 -1.3679 47.6585
#
#
#
# Elastic Compliance Matrix: (Units=1/GPa)
#
#
# Indices 1 2 3 4 5 6 
#
# 1 0.008839 -0.000211 -0.000823 0.001899 0.003904 -0.006058
# 2 -0.000211 0.026813 -0.001123 0.009137 0.003629 -0.008527
# 3 -0.000823 -0.001123 0.012119 0.003884 0.007622 0.002389
# 4 0.001899 0.009137 0.003884 0.034514 0.002524 0.004770
# 5 0.003904 0.003629 0.007622 0.002524 0.044249 -0.002610
# 6 -0.006058 -0.008527 0.002389 0.004770 -0.002610 0.030612
#
#
# Mechanical properties :
#
#
# Convention : Reuss Voigt Hill
#
# Bulk Modulus (GPa) = 23.01201 46.68561 34.84881
# Shear Modulus (GPa) = 28.41784 39.34694 33.88239
#
# Velocity S-wave (km/s) = 3.33332 3.92226 3.63972
# Velocity P-wave (km/s) = 4.87976 6.22621 5.59365
#
# Compressibility (1/GPa) = 0.04345557
#
# Stress axis : x y z
#
# Youngs Moduli (GPa) = 113.14017 37.29601 82.51320
#
# Poissons Ratio (x) = 0.00788 0.06790
# Poissons Ratio (y) = 0.02391 0.09268
# Poissons Ratio (z) = 0.09311 0.04189
#
# Static dielectric constant tensor:
#      x y z
#    x 2.001120 -0.001220 0.004420 
#    y -0.001220 2.174210 0.090330 
#    z 0.004420 0.090330 2.142760 
# 
# From -- ./inp_files/245315.got.cif
#   From: 2010.05.17/outbox.cif.g08.bks.cpg/sg2_123_cif.got.tgz:245315.got - 2010.06.03 11:33:40.
