data_PCOD9024246
_publ_section_title
;
Structure prediction by ZEFSAII (Michael W. Deem and Ramdas Pophale) SiO2 
 PCOD9024246
Probable space group: P -1
;
_chemical_formula_sum "Si O2"
_cell_formula_units_Z 16
_cell_length_a 8.902345
_cell_length_b 14.405899
_cell_length_c 19.916095
_cell_angle_alpha 18.383416
_cell_angle_beta 81.968130
_cell_angle_gamma 80.001992
_cell_volume 790.705180
_symmetry_space_group_name_H-M "P -1"
_symmetry_group_IT_number 2
_symmetry_cell_setting 'triclinic'
loop_
_space_group_symop_operation_xyz
x,y,z
-x,-y,-z
loop_
_atom_site_type_symbol
_atom_site_label
_atom_site_fract_x
_atom_site_fract_y
_atom_site_fract_z
Si Si1 0.143815 0.660147 0.357924
Si Si2 0.177277 0.874297 0.560526
Si Si3 0.038041 0.644973 0.238491
Si Si4 0.769141 0.289182 0.542782
Si Si5 0.318412 0.770046 0.768697
Si Si6 0.964119 0.256159 0.115656
Si Si7 0.624378 0.912380 0.715988
Si Si8 0.018144 0.350446 0.902356
O O1 0.161288 0.560258 0.348068
O O2 0.262735 0.620920 0.439140
O O3 0.000000 0.500000 0.500000
O O4 0.085546 0.009851 0.121749
O O5 0.272134 0.849077 0.640890
O O6 0.157790 0.541901 0.766659
O O7 0.251140 0.040952 0.381444
O O8 0.000000 0.000000 0.500000
O O9 0.082325 0.552152 0.223583
O O10 0.876099 0.522006 0.347366
O O11 0.000000 0.000000 0.000000
O O12 0.631831 0.187957 0.577480
O O13 0.889340 0.985948 0.738149
O O14 0.175213 0.882410 0.748252
O O15 0.465982 0.904073 0.692955
O O16 0.345127 0.409867 0.027437
O O17 0.929599 0.379324 0.958579
O O18 0.000000 0.500000 0.000000
#
# Coordination Sequence:
#
# PCOD9024246 Si02
#       8
#     2   2   2   2   2   2   2   2
#     4   8  16  29  48  75 108 129 168 236 292 318
#     4  12  22  35  57  82 116 153 187 226 273 327
#     4   9  17  29  46  80 105 122 172 240 285 311
#     4  10  17  31  53  77 104 139 180 215 283 328
#     4  11  23  37  50  78 119 155 191 226 262 330
#     4  11  18  32  51  76 109 147 181 220 268 324
#     4  11  22  36  54  78 115 157 189 223 273 336
#     4  10  18  28  50  77 107 135 178 223 279 326
#
# _framework density 20.235102000000001
#
# number of rings (size 3 to 8) (size 9 to 14) (size 15 to 20)
#    0.000    1.750    3.750    2.625    0.000    0.000 
#    0.000    0.000    0.000    0.000    0.000   33.250 
#    0.000    0.000    0.000    0.000    0.000    0.000 
#
# Total GULP energy -89143.840855 kJ/mol
# GULP energy per Si atom -5571.490053 kJ/mol
# Density = 2.018905 g / cm^3
# Si number density = 20.235102 Si / 1000 Ang^3
#
#
#
# Elastic Constant Matrix: (Units=GPa)
#
#
# Indices 1 2 3 4 5 6 
#
# 1 78.8154 36.8216 20.6288 -0.8162 -18.2162 35.8309
# 2 36.8216 154.2176 28.0597 30.1644 -6.9868 52.0914
# 3 20.6288 28.0597 83.9857 -0.3213 -22.2549 21.8358
# 4 -0.8162 30.1644 -0.3213 36.3025 8.6628 1.2408
# 5 -18.2162 -6.9868 -22.2549 8.6628 27.8215 -2.1373
# 6 35.8309 52.0914 21.8358 1.2408 -2.1373 39.4202
#
#
#
# Elastic Compliance Matrix: (Units=1/GPa)
#
#
# Indices 1 2 3 4 5 6 
#
# 1 0.035551 0.011148 0.009674 -0.014928 0.034618 -0.050057
# 2 0.011148 0.021124 0.005914 -0.020859 0.020792 -0.039539
# 3 0.009674 0.005914 0.021312 -0.009765 0.025856 -0.026704
# 4 -0.014928 -0.020859 -0.009765 0.051470 -0.035547 0.042995
# 5 0.034618 0.020792 0.025856 -0.035547 0.090416 -0.067242
# 6 -0.050057 -0.039539 -0.026704 0.042995 -0.067242 0.132908
#
#
# Mechanical properties :
#
#
# Convention : Reuss Voigt Hill
#
# Bulk Modulus (GPa) = 7.60697 54.22654 30.91676
# Shear Modulus (GPa) = 14.57183 36.14277 25.35730
#
# Velocity S-wave (km/s) = 2.68643 4.23086 3.54380
# Velocity P-wave (km/s) = 3.65923 7.12203 5.66186
#
# Compressibility (1/GPa) = 0.13145832
#
# Stress axis : x y z
#
# Youngs Moduli (GPa) = 28.12865 47.33951 46.92260
#
# Poissons Ratio (x) = -0.52774 -0.45392
# Poissons Ratio (y) = -0.31358 -0.27750
# Poissons Ratio (z) = -0.27211 -0.27997
#
# Static dielectric constant tensor:
#      x y z
#    x 1.730630 0.054680 0.029750 
#    y 0.054680 1.797020 0.014330 
#    z 0.029750 0.014330 1.790830 
# 
# From -- ./inp_files/346923.got.cif
#   From: 2010.05.17/outbox.cif.g08.bks.cpg/sg2_174_cif.got.tgz:346923.got - 2010.06.03 11:33:40.
