data_PCOD9024535
_publ_section_title
;
Structure prediction by ZEFSAII (Michael W. Deem and Ramdas Pophale) SiO2 
 PCOD9024535
Probable space group: P -1
;
_chemical_formula_sum "Si O2"
_cell_formula_units_Z 16
_cell_length_a 14.430665
_cell_length_b 8.699577
_cell_length_c 8.062989
_cell_angle_alpha 67.070938
_cell_angle_beta 53.564642
_cell_angle_gamma 89.731100
_cell_volume 714.060676
_symmetry_space_group_name_H-M "P -1"
_symmetry_group_IT_number 2
_symmetry_cell_setting 'triclinic'
loop_
_space_group_symop_operation_xyz
x,y,z
-x,-y,-z
loop_
_atom_site_type_symbol
_atom_site_label
_atom_site_fract_x
_atom_site_fract_y
_atom_site_fract_z
Si Si1 0.862594 0.981421 0.307693
Si Si2 0.570214 0.977070 0.196763
Si Si3 0.237123 0.544161 0.494193
Si Si4 0.717782 0.763297 0.248595
Si Si5 0.920645 0.030936 0.726525
Si Si6 0.034666 0.616834 0.078777
Si Si7 0.781032 0.298582 0.874069
Si Si8 0.671358 0.055051 0.683914
O O1 0.772973 0.968820 0.562782
O O2 0.782840 0.875514 0.290087
O O3 0.914096 0.184293 0.118647
O O4 0.978512 0.925652 0.254971
O O5 0.595611 0.806635 0.315524
O O6 0.434911 0.982789 0.323153
O O7 0.663260 0.142239 0.120896
O O8 0.615289 0.992987 0.949645
O O9 0.296570 0.432030 0.595435
O O10 0.269073 0.586142 0.249284
O O11 0.267891 0.735979 0.460770
O O12 0.096113 0.437273 0.676036
O O13 0.815516 0.851481 0.962998
O O14 0.860589 0.189995 0.734582
O O15 0.000000 0.000000 0.500000
O O16 0.134873 0.597189 0.111645
O O17 0.000000 0.500000 0.000000
#
# Coordination Sequence:
#
# PCOD9024535 Si02
#       8
#     2   2   2   2   2   2   2   2
#     4  12  21  38  59  91 122 159 207 248 306 367
#     4   9  20  42  65  84 118 164 212 251 293 368
#     4  11  22  37  60  91 125 159 198 253 315 357
#     4  11  22  38  61  89 125 161 200 258 302 359
#     4  11  21  36  62  86 123 163 205 243 299 373
#     4  12  22  36  58  90 129 158 200 256 306 370
#     4  10  22  41  60  90 123 168 203 248 309 364
#     4  10  22  40  65  90 117 163 211 251 300 369
#
# _framework density 22.407059
#
# number of rings (size 3 to 8) (size 9 to 14) (size 15 to 20)
#    0.000    1.250    5.000    3.750    0.000    1.000 
#    0.000    0.000    0.000    6.750    0.000    0.000 
#    0.000    0.000    0.000    0.000    0.000    0.000 
#
# Total GULP energy -89327.140135 kJ/mol
# GULP energy per Si atom -5582.946258 kJ/mol
# Density = 2.235606 g / cm^3
# Si number density = 22.407059 Si / 1000 Ang^3
#
#
#
# Elastic Constant Matrix: (Units=GPa)
#
#
# Indices 1 2 3 4 5 6 
#
# 1 132.7407 12.1330 1.8988 -9.7184 -1.3591 -16.0779
# 2 12.1330 58.3769 13.5092 -0.9430 10.8857 8.8705
# 3 1.8988 13.5092 46.7016 -1.0251 17.8194 -10.1803
# 4 -9.7184 -0.9430 -1.0251 21.8462 -5.8459 9.1782
# 5 -1.3591 10.8857 17.8194 -5.8459 32.9444 -4.7039
# 6 -16.0779 8.8705 -10.1803 9.1782 -4.7039 34.1409
#
#
#
# Elastic Compliance Matrix: (Units=1/GPa)
#
#
# Indices 1 2 3 4 5 6 
#
# 1 0.008557 -0.003027 0.000861 0.002251 0.001964 0.004738
# 2 -0.003027 0.021781 -0.006525 0.002326 -0.004854 -0.010324
# 3 0.000861 -0.006525 0.030983 -0.006974 -0.014197 0.011258
# 4 0.002251 0.002326 -0.006974 0.055807 0.010839 -0.015133
# 5 0.001964 -0.004854 -0.014197 0.010839 0.041755 0.000792
# 6 0.004738 -0.010324 0.011258 -0.015133 0.000792 0.041739
#
#
# Mechanical properties :
#
#
# Convention : Reuss Voigt Hill
#
# Bulk Modulus (GPa) = 22.75950 32.54458 27.65204
# Shear Modulus (GPa) = 21.49154 31.80483 26.64819
#
# Velocity S-wave (km/s) = 3.10036 3.77159 3.45233
# Velocity P-wave (km/s) = 4.79538 5.78985 5.31592
#
# Compressibility (1/GPa) = 0.04393769
#
# Stress axis : x y z
#
# Youngs Moduli (GPa) = 116.86739 45.91211 32.27583
#
# Poissons Ratio (x) = 0.13900 -0.02778
# Poissons Ratio (y) = 0.35381 0.21059
# Poissons Ratio (z) = -0.10061 0.29957
#
# Static dielectric constant tensor:
#      x y z
#    x 1.847690 -0.000910 0.055620 
#    y -0.000910 1.857690 0.044590 
#    z 0.055620 0.044590 1.921350 
# 
# From -- ./inp_files/297597.got.cif
#   From: 2010.05.17/outbox.cif.g08.bks.cpg/sg2_149_cif.got.tgz:297597.got - 2010.06.03 11:33:40.
