data_PCOD9024296
_publ_section_title
;
Structure prediction by ZEFSAII (Michael W. Deem and Ramdas Pophale) SiO2 
 PCOD9024296
Probable space group: P -1
;
_chemical_formula_sum "Si O2"
_cell_formula_units_Z 16
_cell_length_a 6.501025
_cell_length_b 11.909863
_cell_length_c 24.775112
_cell_angle_alpha 150.254077
_cell_angle_beta 110.335215
_cell_angle_gamma 55.685798
_cell_volume 737.445671
_symmetry_space_group_name_H-M "P -1"
_symmetry_group_IT_number 2
_symmetry_cell_setting 'triclinic'
loop_
_space_group_symop_operation_xyz
x,y,z
-x,-y,-z
loop_
_atom_site_type_symbol
_atom_site_label
_atom_site_fract_x
_atom_site_fract_y
_atom_site_fract_z
Si Si1 0.179711 0.639194 0.814008
Si Si2 0.562983 0.369937 0.009125
Si Si3 0.923742 0.041512 0.599959
Si Si4 0.238771 0.252150 0.253282
Si Si5 0.887094 0.816046 0.971374
Si Si6 0.949604 0.539164 0.447501
Si Si7 0.592105 0.361341 0.600238
Si Si8 0.706799 0.450911 0.834514
O O1 0.459382 0.444219 0.787122
O O2 0.055611 0.561604 0.723511
O O3 0.952538 0.770383 0.894501
O O4 0.211930 0.876638 0.894876
O O5 0.639344 0.059875 0.882076
O O6 0.500000 0.500000 0.000000
O O7 0.323542 0.545357 0.102746
O O8 0.821916 0.355003 0.046830
O O9 0.686673 0.233716 0.615738
O O10 0.942256 0.221134 0.723039
O O11 0.901882 0.820024 0.537886
O O12 0.185337 0.873614 0.517167
O O13 0.392083 0.377120 0.295838
O O14 0.192410 0.303140 0.334405
O O15 0.702869 0.719985 0.933217
O O16 0.689473 0.553693 0.412001
O O17 0.000000 0.500000 0.500000
#
# Coordination Sequence:
#
# PCOD9024296 Si02
#       8
#     2   2   2   2   2   2   2   2
#     4   9  18  34  58  89 128 150 201 254 306 358
#     4  10  24  41  57  87 129 166 205 257 304 369
#     4  10  23  39  65 100 125 161 210 260 315 367
#     4  10  22  40  64  91 119 166 206 255 311 369
#     4   9  19  35  56  88 121 163 202 247 301 367
#     4  11  25  43  65  90 125 168 210 261 316 370
#     4  10  22  44  68  93 125 161 213 265 313 370
#     4  11  21  35  61  92 122 165 201 249 310 372
#
# _framework density 21.696515000000002
#
# number of rings (size 3 to 8) (size 9 to 14) (size 15 to 20)
#    0.000    2.000    0.000    3.000    1.750    9.500 
#    2.250    0.000    0.000    0.000    0.000    0.000 
#    0.000    0.000    0.000    0.000    0.000    0.000 
#
# Total GULP energy -89283.417960 kJ/mol
# GULP energy per Si atom -5580.213622 kJ/mol
# Density = 2.164713 g / cm^3
# Si number density = 21.696515 Si / 1000 Ang^3
#
#
#
# Elastic Constant Matrix: (Units=GPa)
#
#
# Indices 1 2 3 4 5 6 
#
# 1 78.2875 48.4854 27.3468 -12.8753 7.9653 19.5508
# 2 48.4854 117.9202 45.8098 -27.8692 -3.7348 30.7320
# 3 27.3468 45.8098 84.8578 -20.5187 -4.7688 19.3005
# 4 -12.8753 -27.8692 -20.5187 28.2340 4.9166 -10.4852
# 5 7.9653 -3.7348 -4.7688 4.9166 23.1767 -7.5166
# 6 19.5508 30.7320 19.3005 -10.4852 -7.5166 29.4831
#
#
#
# Elastic Compliance Matrix: (Units=1/GPa)
#
#
# Indices 1 2 3 4 5 6 
#
# 1 0.020427 -0.005302 -0.001972 0.001229 -0.011535 -0.009232
# 2 -0.005302 0.015921 -0.003067 0.008077 -0.000672 -0.008371
# 3 -0.001972 -0.003067 0.016570 0.006546 0.000984 -0.003764
# 4 0.001229 0.008077 0.006546 0.051044 -0.007739 0.002661
# 5 -0.011535 -0.000672 0.000984 -0.007739 0.055001 0.018975
# 6 -0.009232 -0.008371 -0.003764 0.002661 0.018975 0.057012
#
#
# Mechanical properties :
#
#
# Convention : Reuss Voigt Hill
#
# Bulk Modulus (GPa) = 31.02137 58.26106 44.64122
# Shear Modulus (GPa) = 20.20993 26.80700 23.50846
#
# Velocity S-wave (km/s) = 3.05533 3.51884 3.29525
# Velocity P-wave (km/s) = 5.17452 6.58944 5.92437
#
# Compressibility (1/GPa) = 0.03223584
#
# Stress axis : x y z
#
# Youngs Moduli (GPa) = 48.95450 62.81059 60.35045
#
# Poissons Ratio (x) = 0.33301 0.11902
# Poissons Ratio (y) = 0.25955 0.18510
# Poissons Ratio (z) = 0.09655 0.19264
#
# Static dielectric constant tensor:
#      x y z
#    x 1.812200 -0.020660 -0.042000 
#    y -0.020660 1.802550 0.012210 
#    z -0.042000 0.012210 1.849210 
# 
# From -- ./inp_files/83534.got.cif
#   From: 2010.05.17/outbox.cif.g08.bks.cpg/sg2_42_cif.got.tgz:83534.got - 2010.06.03 11:33:40.
