data_PCOD9024439
_publ_section_title
;
Structure prediction by ZEFSAII (Michael W. Deem and Ramdas Pophale) SiO2 
 PCOD9024439
Probable space group: P -1
;
_chemical_formula_sum "Si O2"
_cell_formula_units_Z 14
_cell_length_a 9.326260
_cell_length_b 10.402084
_cell_length_c 16.886878
_cell_angle_alpha 35.427008
_cell_angle_beta 42.974565
_cell_angle_gamma 43.493888
_cell_volume 611.725981
_symmetry_space_group_name_H-M "P -1"
_symmetry_group_IT_number 2
_symmetry_cell_setting 'triclinic'
loop_
_space_group_symop_operation_xyz
x,y,z
-x,-y,-z
loop_
_atom_site_type_symbol
_atom_site_label
_atom_site_fract_x
_atom_site_fract_y
_atom_site_fract_z
Si Si1 0.238833 0.986878 0.667823
Si Si2 0.434730 0.417471 0.191038
Si Si3 0.267167 0.091525 0.332521
Si Si4 0.913408 0.158226 0.571956
Si Si5 0.100537 0.592093 0.990464
Si Si6 0.351739 0.323936 0.571331
Si Si7 0.989271 0.737434 0.140569
O O1 0.477643 0.773434 0.677166
O O2 0.091008 0.858275 0.839835
O O3 0.262374 0.203122 0.597568
O O4 0.109335 0.072260 0.598051
O O5 0.431628 0.238158 0.210067
O O6 0.630338 0.529393 0.052030
O O7 0.192307 0.601616 0.186663
O O8 0.046271 0.196995 0.421123
O O9 0.190809 0.047013 0.299280
O O10 0.391295 0.827134 0.447190
O O11 0.724598 0.399490 0.548714
O O12 0.000000 0.500000 0.000000
O O13 0.015117 0.614169 0.104817
O O14 0.234993 0.270511 0.724402
O O15 0.000000 0.000000 0.000000
#
# Coordination Sequence:
#
# PCOD9024439 Si02
#       7
#     2   2   2   2   2   2   2
#     4   9  22  41  60  95 124 165 213 266 314 376
#     4   9  21  40  62  91 123 169 212 251 321 383
#     4  10  22  40  64  97 123 172 214 252 329 379
#     4  11  22  40  67  90 134 164 211 271 312 381
#     4  10  23  41  65  93 123 164 218 261 317 379
#     4  11  22  41  63  98 124 171 217 255 322 385
#     4  12  21  42  67  89 132 169 212 265 320 383
#
# _framework density 22.886064000000001
#
# number of rings (size 3 to 8) (size 9 to 14) (size 15 to 20)
#    0.857    0.857    2.857    1.286    2.000    2.286 
#    2.571    2.143    0.000    0.000    0.000    0.000 
#    0.000    0.000    0.000    0.000    0.000    0.000 
#
# Total GULP energy -78020.000653 kJ/mol
# GULP energy per Si atom -5572.857189 kJ/mol
# Density = 2.283397 g / cm^3
# Si number density = 22.886064 Si / 1000 Ang^3
#
#
#
# Elastic Constant Matrix: (Units=GPa)
#
#
# Indices 1 2 3 4 5 6 
#
# 1 153.4227 35.3728 11.3818 -9.1962 -18.6217 19.5289
# 2 35.3728 85.3992 8.7702 -15.5402 -0.3157 -5.9562
# 3 11.3818 8.7702 36.3357 -2.8243 -7.9761 7.9288
# 4 -9.1962 -15.5402 -2.8243 36.3294 -3.9149 6.5835
# 5 -18.6217 -0.3157 -7.9761 -3.9149 29.2784 -5.1053
# 6 19.5289 -5.9562 7.9288 6.5835 -5.1053 41.6955
#
#
#
# Elastic Compliance Matrix: (Units=1/GPa)
#
#
# Indices 1 2 3 4 5 6 
#
# 1 0.008577 -0.003502 0.000357 0.002021 0.005037 -0.004288
# 2 -0.003502 0.014496 -0.003211 0.004251 -0.001779 0.003433
# 3 0.000357 -0.003211 0.031554 0.003158 0.008142 -0.006128
# 4 0.002021 0.004251 0.003158 0.031648 0.005505 -0.005263
# 5 0.005037 -0.001779 0.008142 0.005505 0.040276 -0.000099
# 6 -0.004288 0.003433 -0.006128 -0.005263 -0.000099 0.028466
#
#
# Mechanical properties :
#
#
# Convention : Reuss Voigt Hill
#
# Bulk Modulus (GPa) = 23.85746 42.91191 33.38468
# Shear Modulus (GPa) = 27.51747 36.10285 31.81016
#
# Velocity S-wave (km/s) = 3.47128 3.97609 3.73223
# Velocity P-wave (km/s) = 5.14912 6.31427 5.76123
#
# Compressibility (1/GPa) = 0.04191562
#
# Stress axis : x y z
#
# Youngs Moduli (GPa) = 116.58828 68.98233 31.69149
#
# Poissons Ratio (x) = 0.24158 -0.01131
# Poissons Ratio (y) = 0.40830 0.10176
# Poissons Ratio (z) = -0.04162 0.22150
#
# Static dielectric constant tensor:
#      x y z
#    x 1.886710 0.006890 0.009980 
#    y 0.006890 1.873170 -0.021170 
#    z 0.009980 -0.021170 1.956750 
# 
# From -- ./inp_files/555888.got.cif
#   From: 2010.05.17/outbox.cif.g08.bks.cpg/sg2_278_cif.got.tgz:555888.got - 2010.06.03 11:33:40.
