data_PCOD9024254
_publ_section_title
;
Structure prediction by ZEFSAII (Michael W. Deem and Ramdas Pophale) SiO2 
 PCOD9024254
Probable space group: P -1
;
_chemical_formula_sum "Si O2"
_cell_formula_units_Z 15
_cell_length_a 8.533685
_cell_length_b 15.077628
_cell_length_c 12.531265
_cell_angle_alpha 27.550268
_cell_angle_beta 83.839814
_cell_angle_gamma 74.406058
_cell_volume 686.542881
_symmetry_space_group_name_H-M "P -1"
_symmetry_group_IT_number 2
_symmetry_cell_setting 'triclinic'
loop_
_space_group_symop_operation_xyz
x,y,z
-x,-y,-z
loop_
_atom_site_type_symbol
_atom_site_label
_atom_site_fract_x
_atom_site_fract_y
_atom_site_fract_z
Si Si1 0.711917 0.615943 0.359775
Si Si2 0.328433 0.142935 0.416907
Si Si3 0.000000 0.500000 0.000000
Si Si4 0.155593 0.976768 0.779670
Si Si5 0.547875 0.422220 0.745374
Si Si6 0.096607 0.877296 0.520186
Si Si7 0.047125 0.197981 0.758312
Si Si8 0.525032 0.371694 0.244329
O O1 0.594804 0.588049 0.494821
O O2 0.588460 0.645879 0.235200
O O3 0.801427 0.777193 0.209081
O O4 0.875617 0.401193 0.563035
O O5 0.185057 0.304341 0.181859
O O6 0.372760 0.290075 0.341236
O O7 0.500000 0.000000 0.500000
O O8 0.258221 0.003047 0.641674
O O9 0.930567 0.340399 0.241476
O O10 0.112000 0.160293 0.671984
O O11 0.272946 0.768193 0.049752
O O12 0.980795 0.993147 0.719024
O O13 0.481065 0.505833 0.777898
O O14 0.296119 0.818243 0.574315
O O15 0.000000 0.000000 0.500000
O O16 0.000000 0.000000 0.000000
O O17 0.500000 0.500000 0.000000
#
# Coordination Sequence:
#
# PCOD9024254 Si02
#       8
#     2   2   1   2   2   2   2   2
#     4  10  24  45  73  94 141 177 227 295 345 426
#     4  11  23  42  64  97 136 186 237 284 346 419
#     4  10  22  40  64  86 130 184 220 288 330 402
#     4  11  24  41  66  98 137 171 234 288 335 430
#     4  11  23  44  65 105 133 182 231 282 364 406
#     4  11  23  42  63  96 132 180 228 275 342 412
#     4  11  22  47  69 102 130 176 229 290 353 409
#     4  12  22  40  68  94 138 179 227 286 339 423
#
# _framework density 21.848600000000001
#
# number of rings (size 3 to 8) (size 9 to 14) (size 15 to 20)
#    0.000    1.067    2.667    4.800    0.000    0.533 
#    4.800    0.000    0.000    0.000    0.000    0.000 
#    0.000    0.000    0.000    0.000    0.000    0.000 
#
# Total GULP energy -83500.770209 kJ/mol
# GULP energy per Si atom -5566.718014 kJ/mol
# Density = 2.179887 g / cm^3
# Si number density = 21.848600 Si / 1000 Ang^3
#
#
#
# Elastic Constant Matrix: (Units=GPa)
#
#
# Indices 1 2 3 4 5 6 
#
# 1 101.6316 34.7299 36.4153 -1.1593 11.2312 20.1531
# 2 34.7299 133.5700 23.1980 8.9704 14.6449 2.1489
# 3 36.4153 23.1980 75.4697 -1.3580 14.7224 12.1090
# 4 -1.1593 8.9704 -1.3580 24.1113 -2.7781 5.7622
# 5 11.2312 14.6449 14.7224 -2.7781 37.1378 -3.0090
# 6 20.1531 2.1489 12.1090 5.7622 -3.0090 48.3690
#
#
#
# Elastic Compliance Matrix: (Units=1/GPa)
#
#
# Indices 1 2 3 4 5 6 
#
# 1 0.013522 -0.002636 -0.004638 0.002334 -0.001419 -0.004722
# 2 -0.002636 0.008915 -0.001293 -0.004120 -0.002403 0.001367
# 3 -0.004638 -0.001293 0.017358 0.001325 -0.005099 -0.002831
# 4 0.002334 -0.004120 0.001325 0.045072 0.003256 -0.006288
# 5 -0.001419 -0.002403 -0.005099 0.003256 0.030853 0.003506
# 6 -0.004722 0.001367 -0.002831 -0.006288 0.003506 0.024257
#
#
# Mechanical properties :
#
#
# Convention : Reuss Voigt Hill
#
# Bulk Modulus (GPa) = 44.12707 55.48418 49.80563
# Shear Modulus (GPa) = 30.36502 36.34551 33.35526
#
# Velocity S-wave (km/s) = 3.73204 4.08305 3.91148
# Velocity P-wave (km/s) = 6.22988 6.90495 6.57608
#
# Compressibility (1/GPa) = 0.02266182
#
# Stress axis : x y z
#
# Youngs Moduli (GPa) = 73.95535 112.17355 57.60898
#
# Poissons Ratio (x) = 0.29563 0.26718
# Poissons Ratio (y) = 0.19491 0.07450
# Poissons Ratio (z) = 0.34299 0.14507
#
# Static dielectric constant tensor:
#      x y z
#    x 1.649050 0.068940 -0.069930 
#    y 0.068940 1.810760 0.012540 
#    z -0.069930 0.012540 1.801540 
# 
# From -- ./inp_files/398116.got.cif
#   From: 2010.05.17/outbox.cif.g08.bks.cpg/sg2_200_cif.got.tgz:398116.got - 2010.06.03 11:33:40.
