data_PCOD9024896
_publ_section_title
;
Structure prediction by ZEFSAII (Michael W. Deem and Ramdas Pophale) SiO2 
 PCOD9024896
Probable space group: P -1
;
_chemical_formula_sum "Si O2"
_cell_formula_units_Z 14
_cell_length_a 8.571966
_cell_length_b 8.900571
_cell_length_c 9.089645
_cell_angle_alpha 91.786524
_cell_angle_beta 71.661627
_cell_angle_gamma 66.447100
_cell_volume 593.547389
_symmetry_space_group_name_H-M "P -1"
_symmetry_group_IT_number 2
_symmetry_cell_setting 'triclinic'
loop_
_space_group_symop_operation_xyz
x,y,z
-x,-y,-z
loop_
_atom_site_type_symbol
_atom_site_label
_atom_site_fract_x
_atom_site_fract_y
_atom_site_fract_z
Si Si1 0.795751 0.140340 0.037583
Si Si2 0.435683 0.023927 0.767214
Si Si3 0.830923 0.273950 0.521393
Si Si4 0.220656 0.058818 0.532246
Si Si5 0.122772 0.618131 0.796589
Si Si6 0.314007 0.589574 0.146362
Si Si7 0.766922 0.662170 0.011092
O O1 0.765801 0.290596 0.162170
O O2 0.636738 0.085990 0.118276
O O3 0.784941 0.224659 0.885433
O O4 0.000000 0.000000 0.000000
O O5 0.634047 0.942941 0.633383
O O6 0.411921 0.178857 0.882597
O O7 0.296488 0.079895 0.669492
O O8 0.790002 0.119733 0.475749
O O9 0.852657 0.377662 0.382395
O O10 0.677865 0.390673 0.682802
O O11 0.021627 0.195584 0.551489
O O12 0.176507 0.445515 0.859138
O O13 0.914471 0.723877 0.914259
O O14 0.500000 0.500000 0.000000
O O15 0.224286 0.467996 0.121068
#
# Coordination Sequence:
#
# PCOD9024896 Si02
#       7
#     2   2   2   2   2   2   2
#     4  11  21  41  72  96 126 184 224 265 329 412
#     4  11  21  43  68  97 133 169 232 272 324 396
#     4  11  23  44  66  95 137 172 221 270 347 391
#     4  10  24  38  66 104 129 170 218 291 322 387
#     4  10  22  40  66  95 127 177 220 264 335 400
#     4  11  26  45  65  97 138 173 218 282 338 396
#     4  10  23  42  65  96 131 172 224 268 327 400
#
# _framework density 23.586995000000002
#
# number of rings (size 3 to 8) (size 9 to 14) (size 15 to 20)
#    0.000    1.429    2.857    1.714    6.000    1.714 
#    5.143    4.286    0.000    0.000    0.000    0.000 
#    0.000    0.000    0.000    0.000    0.000    0.000 
#
# Total GULP energy -78276.932116 kJ/mol
# GULP energy per Si atom -5591.209437 kJ/mol
# Density = 2.353331 g / cm^3
# Si number density = 23.586995 Si / 1000 Ang^3
#
#
#
# Elastic Constant Matrix: (Units=GPa)
#
#
# Indices 1 2 3 4 5 6 
#
# 1 55.7171 12.3161 8.0340 -4.7579 -8.5723 5.9181
# 2 12.3161 49.1163 43.8718 -2.9241 -7.1699 15.2609
# 3 8.0340 43.8718 156.9035 -16.7565 -4.3619 -0.4686
# 4 -4.7579 -2.9241 -16.7565 27.9858 2.3223 -5.7605
# 5 -8.5723 -7.1699 -4.3619 2.3223 33.0954 -2.4683
# 6 5.9181 15.2609 -0.4686 -5.7605 -2.4683 24.1177
#
#
#
# Elastic Compliance Matrix: (Units=1/GPa)
#
#
# Indices 1 2 3 4 5 6 
#
# 1 0.019797 -0.004516 0.000652 0.002765 0.003973 -0.000921
# 2 -0.004516 0.040778 -0.012153 -0.009686 0.004747 -0.026759
# 3 0.000652 -0.012153 0.010503 0.007126 -0.000883 0.009346
# 4 0.002765 -0.009686 0.007126 0.042857 -0.002287 0.015591
# 5 0.003973 0.004747 -0.000883 -0.002287 0.032224 -0.001244
# 6 -0.000921 -0.026759 0.009346 0.015591 -0.001244 0.062399
#
#
# Mechanical properties :
#
#
# Convention : Reuss Voigt Hill
#
# Bulk Modulus (GPa) = 25.61238 43.35342 34.48290
# Shear Modulus (GPa) = 19.71556 30.20743 24.96150
#
# Velocity S-wave (km/s) = 2.89427 3.58254 3.25664
# Velocity P-wave (km/s) = 4.69588 5.96095 5.36583
#
# Compressibility (1/GPa) = 0.03904362
#
# Stress axis : x y z
#
# Youngs Moduli (GPa) = 50.51230 24.52295 95.21528
#
# Poissons Ratio (x) = 0.11075 -0.06208
# Poissons Ratio (y) = 0.22812 1.15716
# Poissons Ratio (z) = -0.03294 0.29803
#
# Static dielectric constant tensor:
#      x y z
#    x 2.078300 0.025330 0.034190 
#    y 0.025330 1.963790 -0.002460 
#    z 0.034190 -0.002460 1.864200 
# 
# From -- ./inp_files/158470.got.cif
#   From: 2010.05.17/outbox.cif.g08.bks.cpg/sg2_80_cif.got.tgz:158470.got - 2010.06.03 11:33:40.
