data_PCOD9024959
_publ_section_title
;
Structure prediction by ZEFSAII (Michael W. Deem and Ramdas Pophale) SiO2 
 PCOD9024959
Probable space group: P -1
;
_chemical_formula_sum "Si O2"
_cell_formula_units_Z 16
_cell_length_a 5.655145
_cell_length_b 8.233781
_cell_length_c 18.395533
_cell_angle_alpha 90.611037
_cell_angle_beta 90.983909
_cell_angle_gamma 127.834098
_cell_volume 676.155477
_symmetry_space_group_name_H-M "P -1"
_symmetry_group_IT_number 2
_symmetry_cell_setting 'triclinic'
loop_
_space_group_symop_operation_xyz
x,y,z
-x,-y,-z
loop_
_atom_site_type_symbol
_atom_site_label
_atom_site_fract_x
_atom_site_fract_y
_atom_site_fract_z
Si Si1 0.252578 0.539041 0.915060
Si Si2 0.158976 0.392603 0.515966
Si Si3 0.235059 0.240124 0.657982
Si Si4 0.568025 0.191659 0.955338
Si Si5 0.418111 0.099074 0.291663
Si Si6 0.756819 0.115657 0.165639
Si Si7 0.324118 0.963002 0.571932
Si Si8 0.431284 0.435388 0.221052
O O1 0.246313 0.715883 0.878516
O O2 0.409702 0.491925 0.856151
O O3 0.913777 0.340405 0.930020
O O4 0.441109 0.657794 0.989954
O O5 0.500000 0.500000 0.500000
O O6 0.128445 0.333392 0.600665
O O7 0.000000 0.500000 0.500000
O O8 0.008445 0.202437 0.458273
O O9 0.472959 0.386088 0.721754
O O10 0.368281 0.156794 0.607153
O O11 0.933636 0.051994 0.694687
O O12 0.330323 0.069858 0.888430
O O13 0.500000 0.000000 0.000000
O O14 0.509459 0.016105 0.227190
O O15 0.585066 0.123662 0.366095
O O16 0.534420 0.318591 0.263920
O O17 0.083231 0.257098 0.203291
O O18 0.500000 0.000000 0.500000
#
# Coordination Sequence:
#
# PCOD9024959 Si02
#       8
#     2   2   2   2   2   2   2   2
#     4   9  20  40  66  96 142 178 229 284 344 417
#     4  12  28  47  75 105 142 188 244 311 379 453
#     4  12  27  44  71  98 140 183 236 299 370 440
#     4   9  18  39  68  99 134 187 226 282 342 412
#     4  11  25  45  70  96 139 182 235 297 358 439
#     4  10  22  40  66  97 139 177 236 282 350 424
#     4  12  26  49  71 103 137 184 244 305 376 442
#     4  11  25  43  66 104 138 185 232 290 357 430
#
# _framework density 23.663198999999999
#
# number of rings (size 3 to 8) (size 9 to 14) (size 15 to 20)
#    0.000    1.250    1.250    3.375    5.250    4.500 
#    0.000    5.625    0.000    0.000    0.000    0.000 
#    0.000    0.000    0.000    0.000    0.000    0.000 
#
# Total GULP energy -89462.296287 kJ/mol
# GULP energy per Si atom -5591.393518 kJ/mol
# Density = 2.360934 g / cm^3
# Si number density = 23.663199 Si / 1000 Ang^3
#
#
#
# Elastic Constant Matrix: (Units=GPa)
#
#
# Indices 1 2 3 4 5 6 
#
# 1 70.4832 36.8575 51.5988 13.2216 -14.3333 2.9519
# 2 36.8575 115.4359 79.6289 24.5906 -11.6831 15.9777
# 3 51.5988 79.6289 179.1827 29.3512 -11.6552 3.8721
# 4 13.2216 24.5906 29.3512 65.0081 8.6112 6.1465
# 5 -14.3333 -11.6831 -11.6552 8.6112 26.4354 5.4346
# 6 2.9519 15.9777 3.8721 6.1465 5.4346 36.5928
#
#
#
# Elastic Compliance Matrix: (Units=1/GPa)
#
#
# Indices 1 2 3 4 5 6 
#
# 1 0.020730 -0.002181 -0.003879 -0.002810 0.009745 -0.001285
# 2 -0.002181 0.014835 -0.004979 -0.003065 0.005424 -0.006065
# 3 -0.003879 -0.004979 0.009125 -0.001602 -0.000130 0.001810
# 4 -0.002810 -0.003065 -0.001602 0.019139 -0.009814 -0.000023
# 5 0.009745 0.005424 -0.000130 -0.009814 0.050497 -0.008992
# 6 -0.001285 -0.006065 0.001810 -0.000023 -0.008992 0.031228
#
#
# Mechanical properties :
#
#
# Convention : Reuss Voigt Hill
#
# Bulk Modulus (GPa) = 44.21996 77.91914 61.06955
# Shear Modulus (GPa) = 28.54401 38.74170 33.64285
#
# Velocity S-wave (km/s) = 3.47690 4.05064 3.77468
# Velocity P-wave (km/s) = 5.90307 7.40789 6.69787
#
# Compressibility (1/GPa) = 0.02261422
#
# Stress axis : x y z
#
# Youngs Moduli (GPa) = 48.23870 67.40862 109.58762
#
# Poissons Ratio (x) = 0.14700 0.42505
# Poissons Ratio (y) = 0.10520 0.54560
# Poissons Ratio (z) = 0.18710 0.33560
#
# Static dielectric constant tensor:
#      x y z
#    x 1.962290 -0.070570 0.019210 
#    y -0.070570 1.937060 -0.017270 
#    z 0.019210 -0.017270 1.932120 
# 
# From -- ./inp_files/548162.got.cif
#   From: 2010.05.17/outbox.cif.g08.bks.cpg/sg2_275_cif.got.tgz:548162.got - 2010.06.03 11:33:40.
