data_PCOD9024183
_publ_section_title
;
Structure prediction by ZEFSAII (Michael W. Deem and Ramdas Pophale) SiO2 
 PCOD9024183
Probable space group: P -1
;
_chemical_formula_sum "Si O2"
_cell_formula_units_Z 16
_cell_length_a 5.524414
_cell_length_b 23.985568
_cell_length_c 24.166219
_cell_angle_alpha 168.323323
_cell_angle_beta 106.485971
_cell_angle_gamma 75.049242
_cell_volume 618.158502
_symmetry_space_group_name_H-M "P -1"
_symmetry_group_IT_number 2
_symmetry_cell_setting 'triclinic'
loop_
_space_group_symop_operation_xyz
x,y,z
-x,-y,-z
loop_
_atom_site_type_symbol
_atom_site_label
_atom_site_fract_x
_atom_site_fract_y
_atom_site_fract_z
Si Si1 0.880173 0.400715 0.548952
Si Si2 0.235152 0.181340 0.972216
Si Si3 0.345527 0.215738 0.229154
Si Si4 0.073421 0.936285 0.031035
Si Si5 0.662973 0.330785 0.053041
Si Si6 0.706119 0.909549 0.560807
Si Si7 0.695945 0.260063 0.713388
Si Si8 0.000739 0.818135 0.243013
O O1 0.811971 0.152457 0.347960
O O2 0.927377 0.175282 0.283991
O O3 0.700049 0.630456 0.784627
O O4 0.101286 0.656815 0.796395
O O5 0.452637 0.264186 0.021976
O O6 0.951079 0.258107 0.013127
O O7 0.500000 0.500000 0.500000
O O8 0.080669 0.202495 0.166389
O O9 0.310300 0.120424 0.197600
O O10 0.500000 0.000000 0.000000
O O11 0.574228 0.139784 0.809277
O O12 0.701341 0.651375 0.350169
O O13 0.579646 0.792695 0.381874
O O14 0.955450 0.077199 0.714594
O O15 0.744554 0.249198 0.771578
O O16 0.859845 0.037520 0.480662
O O17 0.821795 0.540302 0.968161
#
# Coordination Sequence:
#
# PCOD9024183 Si02
#       8
#     2   2   2   2   2   2   2   2
#     4  10  22  47  72  94 134 184 235 286 354 410
#     4  11  26  51  68 105 135 182 229 310 351 408
#     4  11  22  39  64 104 148 184 225 282 340 395
#     4  10  22  43  66 104 140 186 233 280 334 422
#     4  12  28  46  75 100 140 175 236 288 368 412
#     4  12  25  40  70 100 130 182 220 285 340 436
#     4  10  22  40  63  96 135 173 218 274 333 411
#     4  10  22  40  63  96 135 173 218 274 333 411
#
# _framework density 25.883327999999999
#
# number of rings (size 3 to 8) (size 9 to 14) (size 15 to 20)
#    0.000    1.250    0.000    4.875    5.250    2.000 
#   22.500    5.000    0.000    0.000    0.000    0.000 
#    0.000    0.000    0.000    0.000    0.000    0.000 
#
# Total GULP energy -89129.605515 kJ/mol
# GULP energy per Si atom -5570.600345 kJ/mol
# Density = 2.582442 g / cm^3
# Si number density = 25.883328 Si / 1000 Ang^3
#
#
#
# Elastic Constant Matrix: (Units=GPa)
#
#
# Indices 1 2 3 4 5 6 
#
# 1 99.6139 62.4938 33.6426 23.3030 13.3953 30.8207
# 2 62.4938 99.7108 60.0594 27.2871 23.0082 45.0084
# 3 33.6426 60.0594 232.9749 42.5832 20.0711 36.3001
# 4 23.3030 27.2871 42.5832 56.8420 11.7480 16.9558
# 5 13.3953 23.0082 20.0711 11.7480 36.7098 3.5147
# 6 30.8207 45.0084 36.3001 16.9558 3.5147 64.4228
#
#
#
# Elastic Compliance Matrix: (Units=1/GPa)
#
#
# Indices 1 2 3 4 5 6 
#
# 1 0.016890 -0.010125 0.000689 -0.002488 0.000677 -0.000776
# 2 -0.010125 0.024956 -0.002347 -0.001011 -0.009335 -0.010493
# 3 0.000689 -0.002347 0.005546 -0.002838 -0.000806 -0.001023
# 4 -0.002488 -0.001011 -0.002838 0.022719 -0.003960 -0.002268
# 5 0.000677 -0.009335 -0.000806 -0.003960 0.033993 0.005840
# 6 -0.000776 -0.010493 -0.001023 -0.002268 0.005840 0.024080
#
#
# Mechanical properties :
#
#
# Convention : Reuss Voigt Hill
#
# Bulk Modulus (GPa) = 41.97544 82.74345 62.35945
# Shear Modulus (GPa) = 31.31008 50.00185 40.65596
#
# Velocity S-wave (km/s) = 3.48179 4.40001 3.96756
# Velocity P-wave (km/s) = 5.69352 7.60597 6.71815
#
# Compressibility (1/GPa) = 0.02382346
#
# Stress axis : x y z
#
# Youngs Moduli (GPa) = 59.20836 40.06990 180.32215
#
# Poissons Ratio (x) = 0.40572 -0.12418
# Poissons Ratio (y) = 0.59950 0.42329
# Poissons Ratio (z) = -0.04077 0.09406
#
# Static dielectric constant tensor:
#      x y z
#    x 2.106920 -0.128560 0.102760 
#    y -0.128560 2.249110 -0.074290 
#    z 0.102760 -0.074290 1.988300 
# 
# From -- ./inp_files/616038.got.cif
#   From: 2010.05.17/outbox.cif.g08.bks.cpg/sg2_309_cif.got.tgz:616038.got - 2010.06.03 11:33:40.
