data_PCOD9024494
_publ_section_title
;
Structure prediction by ZEFSAII (Michael W. Deem and Ramdas Pophale) SiO2 
 PCOD9024494
Probable space group: P -1
;
_chemical_formula_sum "Si O2"
_cell_formula_units_Z 16
_cell_length_a 9.439157
_cell_length_b 11.184033
_cell_length_c 14.532981
_cell_angle_alpha 82.980665
_cell_angle_beta 152.234524
_cell_angle_gamma 89.920103
_cell_volume 689.172107
_symmetry_space_group_name_H-M "P -1"
_symmetry_group_IT_number 2
_symmetry_cell_setting 'triclinic'
loop_
_space_group_symop_operation_xyz
x,y,z
-x,-y,-z
loop_
_atom_site_type_symbol
_atom_site_label
_atom_site_fract_x
_atom_site_fract_y
_atom_site_fract_z
Si Si1 0.371879 0.083714 0.706297
Si Si2 0.725545 0.267315 0.322372
Si Si3 0.366758 0.961166 0.330981
Si Si4 0.547375 0.859590 0.966499
Si Si5 0.141120 0.703587 0.403160
Si Si6 0.174613 0.833226 0.939166
Si Si7 0.690619 0.693175 0.597143
Si Si8 0.828819 0.480865 0.244115
O O1 0.504323 0.010635 0.696673
O O2 0.015866 0.152231 0.477479
O O3 0.429323 0.990287 0.834948
O O4 0.531646 0.195091 0.820592
O O5 0.453448 0.242851 0.103250
O O6 0.696006 0.264906 0.414065
O O7 0.798259 0.396262 0.321546
O O8 0.481465 0.813182 0.413438
O O9 0.500000 0.000000 0.500000
O O10 0.015310 0.039494 0.133014
O O11 0.306663 0.847192 0.911220
O O12 0.898187 0.825582 0.212377
O O13 0.428095 0.646774 0.506684
O O14 0.923644 0.608690 0.306307
O O15 0.937252 0.744192 0.799026
O O16 0.901509 0.598797 0.658238
O O17 0.500000 0.500000 0.000000
#
# Coordination Sequence:
#
# PCOD9024494 Si02
#       8
#     2   2   2   2   2   2   2   2
#     4  12  24  41  72 108 146 187 237 286 355 427
#     4  12  25  45  74 105 139 189 236 292 359 418
#     4  10  22  40  65 101 148 187 225 287 353 420
#     4  12  25  46  72 111 146 184 240 291 343 432
#     4  12  27  46  75 104 142 187 236 297 351 419
#     4  11  22  42  69 104 149 188 227 285 352 424
#     4  11  24  45  70 103 142 184 230 293 359 409
#     4  12  24  52  77  97 137 187 244 297 353 408
#
# _framework density 23.216263000000001
#
# number of rings (size 3 to 8) (size 9 to 14) (size 15 to 20)
#    0.000    0.500    5.000    3.375    5.250    0.000 
#    0.000    0.625    0.000    0.000    0.000    0.000 
#    0.000    0.000    0.000    0.000    0.000    0.000 
#
# Total GULP energy -89412.882672 kJ/mol
# GULP energy per Si atom -5588.305167 kJ/mol
# Density = 2.316342 g / cm^3
# Si number density = 23.216263 Si / 1000 Ang^3
#
#
#
# Elastic Constant Matrix: (Units=GPa)
#
#
# Indices 1 2 3 4 5 6 
#
# 1 82.9857 -8.7152 22.4336 -10.6101 -8.8295 -12.1903
# 2 -8.7152 57.7553 -5.2562 -0.6361 -10.6681 3.1285
# 3 22.4336 -5.2562 60.3115 -3.3725 -5.7896 1.4096
# 4 -10.6101 -0.6361 -3.3725 36.2453 -6.1881 6.1277
# 5 -8.8295 -10.6681 -5.7896 -6.1881 39.0497 -0.2643
# 6 -12.1903 3.1285 1.4096 6.1277 -0.2643 33.7988
#
#
#
# Elastic Compliance Matrix: (Units=1/GPa)
#
#
# Indices 1 2 3 4 5 6 
#
# 1 0.015285 0.002378 -0.004986 0.003924 0.004021 0.004821
# 2 0.002378 0.019095 0.001563 0.002497 0.006372 -0.001378
# 3 -0.004986 0.001563 0.018927 0.001214 0.002278 -0.002935
# 4 0.003924 0.002497 0.001214 0.030764 0.006595 -0.004393
# 5 0.004021 0.006372 0.002278 0.006595 0.029640 -0.000198
# 6 0.004821 -0.001378 -0.002935 -0.004393 -0.000198 0.032370
#
#
# Mechanical properties :
#
#
# Convention : Reuss Voigt Hill
#
# Bulk Modulus (GPa) = 19.52473 24.21965 21.87219
# Shear Modulus (GPa) = 30.25856 34.65811 32.45834
#
# Velocity S-wave (km/s) = 3.61409 3.86792 3.74316
# Velocity P-wave (km/s) = 5.08367 5.51385 5.30312
#
# Compressibility (1/GPa) = 0.05121710
#
# Stress axis : x y z
#
# Youngs Moduli (GPa) = 65.42184 52.37062 52.83594
#
# Poissons Ratio (x) = -0.12452 0.26342
# Poissons Ratio (y) = -0.15555 -0.08260
# Poissons Ratio (z) = 0.32617 -0.08187
#
# Static dielectric constant tensor:
#      x y z
#    x 1.872410 0.034360 0.015240 
#    y 0.034360 1.943510 0.045460 
#    z 0.015240 0.045460 1.966130 
# 
# From -- ./inp_files/500376.got.cif
#   From: 2010.05.17/outbox.cif.g08.bks.cpg/sg2_251_cif.got.tgz:500376.got - 2010.06.03 11:33:40.
