data_PCOD9024142
_publ_section_title
;
Structure prediction by ZEFSAII (Michael W. Deem and Ramdas Pophale) SiO2 
 PCOD9024142
Probable space group: P -1
;
_chemical_formula_sum "Si O2"
_cell_formula_units_Z 16
_cell_length_a 12.043403
_cell_length_b 14.210264
_cell_length_c 8.639790
_cell_angle_alpha 121.692803
_cell_angle_beta 143.515704
_cell_angle_gamma 72.779331
_cell_volume 724.375891
_symmetry_space_group_name_H-M "P -1"
_symmetry_group_IT_number 2
_symmetry_cell_setting 'triclinic'
loop_
_space_group_symop_operation_xyz
x,y,z
-x,-y,-z
loop_
_atom_site_type_symbol
_atom_site_label
_atom_site_fract_x
_atom_site_fract_y
_atom_site_fract_z
Si Si1 0.872600 0.228923 0.438129
Si Si2 0.295853 0.617910 0.093961
Si Si3 0.611848 0.169829 0.809390
Si Si4 0.168644 0.086173 0.672596
Si Si5 0.931777 0.492655 0.737116
Si Si6 0.490614 0.547413 0.704462
Si Si7 0.785633 0.991846 0.687299
Si Si8 0.554853 0.233048 0.311330
O O1 0.921795 0.362667 0.570334
O O2 0.752076 0.210006 0.447228
O O3 0.069948 0.191147 0.628909
O O4 0.724128 0.160090 0.085490
O O5 0.348394 0.697179 0.073419
O O6 0.360223 0.499680 0.068181
O O7 0.405324 0.697811 0.425461
O O8 0.074283 0.581388 0.865268
O O9 0.386224 0.107776 0.516738
O O10 0.714220 0.105566 0.742580
O O11 0.208237 0.034815 0.509405
O O12 0.371317 0.126955 0.023309
O O13 0.000000 0.000000 0.500000
O O14 0.719195 0.509417 0.513274
O O15 0.000000 0.500000 0.000000
O O16 0.500000 0.500000 0.500000
O O17 0.499555 0.680462 0.803800
O O18 0.000000 0.000000 0.000000
#
# Coordination Sequence:
#
# PCOD9024142 Si02
#       8
#     2   2   2   2   2   2   2   2
#     4  11  23  44  64  92 133 172 204 263 331 372
#     4  11  23  38  66  98 124 170 220 256 311 395
#     4  11  26  45  67  90 133 176 212 262 324 389
#     4  12  27  40  70  98 122 162 225 273 314 384
#     4  11  20  37  65  94 134 169 205 266 319 372
#     4   9  18  36  60  91 127 163 204 256 318 367
#     4  11  25  48  65  90 131 174 211 267 333 376
#     4  10  22  40  63  94 131 165 207 270 323 363
#
# _framework density 22.087980000000002
#
# number of rings (size 3 to 8) (size 9 to 14) (size 15 to 20)
#    0.000    1.250    6.250    0.750    5.250    2.000 
#    0.000    2.500    0.000    0.000    0.000    0.000 
#    0.000    0.000    0.000    0.000    0.000    0.000 
#
# Total GULP energy -89421.521280 kJ/mol
# GULP energy per Si atom -5588.845080 kJ/mol
# Density = 2.203771 g / cm^3
# Si number density = 22.087980 Si / 1000 Ang^3
#
#
#
# Elastic Constant Matrix: (Units=GPa)
#
#
# Indices 1 2 3 4 5 6 
#
# 1 79.8347 17.8346 23.1198 1.1691 18.9849 -13.3039
# 2 17.8346 48.8248 -8.6493 3.4830 10.7139 0.3020
# 3 23.1198 -8.6493 91.5336 8.2147 26.1434 -1.3437
# 4 1.1691 3.4830 8.2147 25.3612 0.1916 5.2495
# 5 18.9849 10.7139 26.1434 0.1916 45.2402 10.7506
# 6 -13.3039 0.3020 -1.3437 5.2495 10.7506 29.3003
#
#
#
# Elastic Compliance Matrix: (Units=1/GPa)
#
#
# Indices 1 2 3 4 5 6 
#
# 1 0.018172 -0.005446 -0.002684 -0.001478 -0.007435 0.011177
# 2 -0.005446 0.025795 0.006628 -0.005692 -0.007990 0.001517
# 3 -0.002684 0.006628 0.015979 -0.006836 -0.010744 0.004613
# 4 -0.001478 -0.005692 -0.006836 0.044942 0.008612 -0.012138
# 5 -0.007435 -0.007990 -0.010744 0.008612 0.037856 -0.019219
# 6 0.011177 0.001517 0.004613 -0.012138 -0.019219 0.048626
#
#
# Mechanical properties :
#
#
# Convention : Reuss Voigt Hill
#
# Bulk Modulus (GPa) = 17.56172 31.64482 24.60327
# Shear Modulus (GPa) = 23.43520 32.50619 27.97069
#
# Velocity S-wave (km/s) = 3.26082 3.84040 3.56242
# Velocity P-wave (km/s) = 4.70588 5.83290 5.29943
#
# Compressibility (1/GPa) = 0.05694204
#
# Stress axis : x y z
#
# Youngs Moduli (GPa) = 55.03014 38.76763 62.58106
#
# Poissons Ratio (x) = 0.21111 0.16799
# Poissons Ratio (y) = 0.29967 -0.41479
# Poissons Ratio (z) = 0.14772 -0.25696
#
# Static dielectric constant tensor:
#      x y z
#    x 1.840790 0.015360 -0.017310 
#    y 0.015360 1.875530 -0.001400 
#    z -0.017310 -0.001400 1.832640 
# 
# From -- ./inp_files/274188.got.cif
#   From: 2010.05.17/outbox.cif.g08.bks.cpg/sg2_138_cif.got.tgz:274188.got - 2010.06.03 11:33:40.
