data_PCOD9024975
_publ_section_title
;
Structure prediction by ZEFSAII (Michael W. Deem and Ramdas Pophale) SiO2 
 PCOD9024975
Probable space group: P -1
;
_chemical_formula_sum "Si O2"
_cell_formula_units_Z 14
_cell_length_a 13.528114
_cell_length_b 8.260811
_cell_length_c 9.811802
_cell_angle_alpha 133.451714
_cell_angle_beta 120.337456
_cell_angle_gamma 93.028584
_cell_volume 528.592545
_symmetry_space_group_name_H-M "P -1"
_symmetry_group_IT_number 2
_symmetry_cell_setting 'triclinic'
loop_
_space_group_symop_operation_xyz
x,y,z
-x,-y,-z
loop_
_atom_site_type_symbol
_atom_site_label
_atom_site_fract_x
_atom_site_fract_y
_atom_site_fract_z
Si Si1 0.213741 0.858927 0.155390
Si Si2 0.655380 0.290733 0.637717
Si Si3 0.169320 0.223322 0.530186
Si Si4 0.307102 0.222244 0.900218
Si Si5 0.453303 0.827609 0.009796
Si Si6 0.054763 0.803499 0.773282
Si Si7 0.888524 0.421742 0.654982
O O1 0.333675 0.843688 0.295181
O O2 0.204533 0.055011 0.364328
O O3 0.206191 0.950334 0.048851
O O4 0.052917 0.532611 0.865674
O O5 0.795876 0.385869 0.698609
O O6 0.520592 0.059444 0.311231
O O7 0.661706 0.556359 0.836135
O O8 0.215770 0.220623 0.713303
O O9 0.997937 0.078933 0.302766
O O10 0.281732 0.560382 0.759857
O O11 0.461188 0.304894 0.004075
O O12 0.209911 0.882247 0.669213
O O13 0.500000 0.000000 0.000000
O O14 0.935995 0.689295 0.750139
O O15 0.000000 0.500000 0.500000
#
# Coordination Sequence:
#
# PCOD9024975 Si02
#       7
#     2   2   2   2   2   2   2
#     4  10  22  40  66  98 134 176 205 271 330 382
#     4  11  22  43  68  98 129 173 222 266 324 384
#     4  12  22  43  69  95 136 173 216 269 330 383
#     4  11  24  41  71  99 123 180 220 267 326 388
#     4  11  26  49  65  93 133 172 220 279 323 384
#     4  10  23  42  61 101 135 172 214 263 324 394
#     4   9  22  42  63  96 144 162 214 268 321 385
#
# _framework density 26.485430000000001
#
# number of rings (size 3 to 8) (size 9 to 14) (size 15 to 20)
#    0.857    0.571    2.857    3.857    0.000    2.857 
#    5.143    0.000    0.000    0.000    0.000    0.000 
#    0.000    0.000    0.000    0.000    0.000    0.000 
#
# Total GULP energy -78317.493285 kJ/mol
# GULP energy per Si atom -5594.106663 kJ/mol
# Density = 2.642515 g / cm^3
# Si number density = 26.485430 Si / 1000 Ang^3
#
#
#
# Elastic Constant Matrix: (Units=GPa)
#
#
# Indices 1 2 3 4 5 6 
#
# 1 82.2784 38.4390 44.5756 -3.2868 -11.4864 -8.1127
# 2 38.4390 111.2067 40.6785 -16.4696 1.4039 -2.6897
# 3 44.5756 40.6785 183.6886 -10.1236 -26.7426 -18.7523
# 4 -3.2868 -16.4696 -10.1236 47.2788 -9.1066 -3.9737
# 5 -11.4864 1.4039 -26.7426 -9.1066 52.6337 1.5254
# 6 -8.1127 -2.6897 -18.7523 -3.9737 1.5254 35.5968
#
#
#
# Elastic Compliance Matrix: (Units=1/GPa)
#
#
# Indices 1 2 3 4 5 6 
#
# 1 0.016155 -0.004770 -0.002351 -0.000431 0.002327 0.001935
# 2 -0.004770 0.011665 -0.001554 0.003040 -0.001598 -0.000616
# 3 -0.002351 -0.001554 0.007290 0.001793 0.003449 0.003240
# 4 -0.000431 0.003040 0.001793 0.023775 0.004747 0.003526
# 5 0.002327 -0.001598 0.003449 0.004747 0.022071 0.001811
# 6 0.001935 -0.000616 0.003240 0.003526 0.001811 0.030509
#
#
# Mechanical properties :
#
#
# Convention : Reuss Voigt Hill
#
# Bulk Modulus (GPa) = 56.30815 69.39553 62.85184
# Shear Modulus (GPa) = 37.10985 44.00059 40.55522
#
# Velocity S-wave (km/s) = 3.74724 4.08034 3.91734
# Velocity P-wave (km/s) = 6.32682 6.96112 6.65154
#
# Compressibility (1/GPa) = 0.01775942
#
# Stress axis : x y z
#
# Youngs Moduli (GPa) = 61.90127 85.72741 137.16927
#
# Poissons Ratio (x) = 0.40895 0.32252
# Poissons Ratio (y) = 0.29529 0.21311
# Poissons Ratio (z) = 0.14555 0.13319
#
# Static dielectric constant tensor:
#      x y z
#    x 2.130140 0.060210 0.019050 
#    y 0.060210 2.165260 -0.023580 
#    z 0.019050 -0.023580 2.039180 
# 
# From -- ./inp_files/462568.got.cif
#   From: 2010.05.17/outbox.cif.g08.bks.cpg/sg2_232_cif.got.tgz:462568.got - 2010.06.03 11:33:40.
