data_PCOD9024522
_publ_section_title
;
Structure prediction by ZEFSAII (Michael W. Deem and Ramdas Pophale) SiO2 
 PCOD9024522
Probable space group: P -1
;
_chemical_formula_sum "Si O2"
_cell_formula_units_Z 16
_cell_length_a 13.355225
_cell_length_b 8.491193
_cell_length_c 14.343337
_cell_angle_alpha 73.914376
_cell_angle_beta 144.166321
_cell_angle_gamma 120.478334
_cell_volume 791.131119
_symmetry_space_group_name_H-M "P -1"
_symmetry_group_IT_number 2
_symmetry_cell_setting 'triclinic'
loop_
_space_group_symop_operation_xyz
x,y,z
-x,-y,-z
loop_
_atom_site_type_symbol
_atom_site_label
_atom_site_fract_x
_atom_site_fract_y
_atom_site_fract_z
Si Si1 0.469424 0.327494 0.940756
Si Si2 0.803589 0.836035 0.831925
Si Si3 0.171665 0.702037 0.722838
Si Si4 0.174303 0.681366 0.516587
Si Si5 0.962076 0.024107 0.357978
Si Si6 0.568772 0.443644 0.653725
Si Si7 0.296874 0.055577 0.461098
Si Si8 0.469211 0.547509 0.738072
O O1 0.530221 0.429485 0.869831
O O2 0.242769 0.163625 0.793327
O O3 0.500000 0.500000 0.000000
O O4 0.610265 0.247866 0.091447
O O5 0.775063 0.629045 0.810928
O O6 0.747473 0.910743 0.684192
O O7 0.641499 0.756391 0.805507
O O8 0.000000 0.000000 0.000000
O O9 0.165783 0.753912 0.601257
O O10 0.082896 0.802715 0.702379
O O11 0.035896 0.473994 0.657206
O O12 0.290322 0.566955 0.637773
O O13 0.280830 0.854662 0.498305
O O14 0.128155 0.048987 0.404605
O O15 0.000000 0.000000 0.500000
O O16 0.500000 0.500000 0.500000
O O17 0.510922 0.228705 0.626931
O O18 0.420445 0.437868 0.622262
#
# Coordination Sequence:
#
# PCOD9024522 Si02
#       8
#     2   2   2   2   2   2   2   2
#     4  12  24  40  65  93 129 169 204 260 322 367
#     4   9  22  38  65  89 119 162 207 254 315 368
#     4  11  24  39  56  98 132 160 213 254 314 375
#     4  11  22  37  64  93 126 166 210 260 305 382
#     4  12  24  40  66  93 128 169 208 255 318 377
#     4   8  18  38  59  86 114 157 205 250 295 361
#     4  11  21  38  67  90 121 165 209 255 310 367
#     4  10  22  40  65  87 129 162 210 252 317 367
#
# _framework density 20.224205999999999
#
# number of rings (size 3 to 8) (size 9 to 14) (size 15 to 20)
#    0.750    0.750    2.500    3.375    3.500    0.500 
#    0.000    0.000    0.000    1.500    0.000    0.000 
#    0.000    0.000    0.000    0.000    0.000    0.000 
#
# Total GULP energy -89068.206315 kJ/mol
# GULP energy per Si atom -5566.762895 kJ/mol
# Density = 2.017818 g / cm^3
# Si number density = 20.224206 Si / 1000 Ang^3
#
#
#
# Elastic Constant Matrix: (Units=GPa)
#
#
# Indices 1 2 3 4 5 6 
#
# 1 37.3327 -7.1672 7.3944 0.4079 -17.1756 4.3350
# 2 -7.1672 100.3376 43.7161 18.0332 -10.2897 15.4351
# 3 7.3944 43.7161 81.4260 33.7823 -1.9485 -0.2674
# 4 0.4079 18.0332 33.7823 36.3867 -0.2537 2.6756
# 5 -17.1756 -10.2897 -1.9485 -0.2537 21.8184 0.4573
# 6 4.3350 15.4351 -0.2674 2.6756 0.4573 31.6920
#
#
#
# Elastic Compliance Matrix: (Units=1/GPa)
#
#
# Indices 1 2 3 4 5 6 
#
# 1 0.063740 0.020437 -0.019060 0.008763 0.058643 -0.020419
# 2 0.020437 0.021932 -0.014595 0.003679 0.025471 -0.014279
# 3 -0.019060 -0.014595 0.030503 -0.021900 -0.019672 0.012105
# 4 0.008763 0.003679 -0.021900 0.046475 0.007369 -0.007205
# 5 0.058643 0.025471 -0.019672 0.007369 0.102814 -0.022698
# 6 -0.020419 -0.014279 0.012105 -0.007205 -0.022698 0.042339
#
#
# Mechanical properties :
#
#
# Convention : Reuss Voigt Hill
#
# Bulk Modulus (GPa) = 11.14333 34.10922 22.62627
# Shear Modulus (GPa) = 13.73057 29.65628 21.69342
#
# Velocity S-wave (km/s) = 2.60843 3.83348 3.27868
# Velocity P-wave (km/s) = 3.82018 6.04121 5.05421
#
# Compressibility (1/GPa) = 0.08973981
#
# Stress axis : x y z
#
# Youngs Moduli (GPa) = 15.68869 45.59476 32.78419
#
# Poissons Ratio (x) = -0.93184 0.62488
# Poissons Ratio (y) = -0.32064 0.47848
# Poissons Ratio (z) = 0.29903 0.66544
#
# Static dielectric constant tensor:
#      x y z
#    x 1.722400 -0.001870 0.018190 
#    y -0.001870 1.759330 0.048540 
#    z 0.018190 0.048540 1.733450 
# 
# From -- ./inp_files/355591.got.cif
#   From: 2010.05.17/outbox.cif.g08.bks.cpg/sg2_178_cif.got.tgz:355591.got - 2010.06.03 11:33:40.
