data_PCOD9024731
_publ_section_title
;
Structure prediction by ZEFSAII (Michael W. Deem and Ramdas Pophale) SiO2 
 PCOD9024731
Probable space group: P -1
;
_chemical_formula_sum "Si O2"
_cell_formula_units_Z 16
_cell_length_a 4.990101
_cell_length_b 5.898492
_cell_length_c 27.284248
_cell_angle_alpha 95.283172
_cell_angle_beta 123.080494
_cell_angle_gamma 84.631299
_cell_volume 669.147974
_symmetry_space_group_name_H-M "P -1"
_symmetry_group_IT_number 2
_symmetry_cell_setting 'triclinic'
loop_
_space_group_symop_operation_xyz
x,y,z
-x,-y,-z
loop_
_atom_site_type_symbol
_atom_site_label
_atom_site_fract_x
_atom_site_fract_y
_atom_site_fract_z
Si Si1 0.337386 0.803518 0.646101
Si Si2 0.076994 0.825693 0.127233
Si Si3 0.587292 0.893152 0.431122
Si Si4 0.241298 0.313712 0.462735
Si Si5 0.413082 0.607434 0.069313
Si Si6 0.750738 0.187813 0.041953
Si Si7 0.170173 0.592871 0.319309
Si Si8 0.495804 0.186685 0.734977
O O1 0.281782 0.995101 0.602346
O O2 0.673804 0.661970 0.672431
O O3 0.068171 0.628766 0.600660
O O4 0.339270 0.951298 0.698333
O O5 0.218512 0.631595 0.100404
O O6 0.303526 0.845535 0.196474
O O7 0.721812 0.763861 0.107165
O O8 0.042145 0.053883 0.095322
O O9 0.411465 0.100527 0.446919
O O10 0.832026 0.765950 0.490500
O O11 0.331572 0.718029 0.383488
O O12 0.500000 0.500000 0.500000
O O13 0.573432 0.366220 0.064350
O O14 0.197743 0.695089 0.003153
O O15 0.500000 0.000000 0.000000
O O16 0.280742 0.728631 0.284758
O O17 0.790914 0.622555 0.284610
#
# Coordination Sequence:
#
# PCOD9024731 Si02
#       8
#     2   2   2   2   2   2   2   2
#     4  11  25  44  69  91 134 176 220 276 347 403
#     4  11  23  41  65  95 136 176 225 276 328 389
#     4  10  23  41  64  97 132 164 217 276 337 418
#     4  11  23  39  69 100 131 165 216 279 350 410
#     4  10  22  40  66 101 135 173 222 274 331 395
#     4   9  21  40  67 100 137 177 216 273 337 390
#     4  11  25  44  71  91 132 173 226 275 340 393
#     4  11  26  45  65  97 130 179 231 280 323 402
#
# _framework density 23.911002
#
# number of rings (size 3 to 8) (size 9 to 14) (size 15 to 20)
#    0.000    1.500    1.250    2.250    3.500   11.500 
#    0.000    0.000    0.000    0.000    0.000    0.000 
#    0.000    0.000    0.000    0.000    0.000    0.000 
#
# Total GULP energy -89593.244307 kJ/mol
# GULP energy per Si atom -5599.577769 kJ/mol
# Density = 2.385658 g / cm^3
# Si number density = 23.911002 Si / 1000 Ang^3
#
#
#
# Elastic Constant Matrix: (Units=GPa)
#
#
# Indices 1 2 3 4 5 6 
#
# 1 72.4939 7.4040 35.7479 1.5174 -0.7386 -5.3263
# 2 7.4040 87.9763 48.2904 -1.7258 0.2401 -9.3336
# 3 35.7479 48.2904 210.7266 -9.7478 1.8364 -10.5820
# 4 1.5174 -1.7258 -9.7478 19.0448 -6.8071 4.1689
# 5 -0.7386 0.2401 1.8364 -6.8071 31.7574 -2.3199
# 6 -5.3263 -9.3336 -10.5820 4.1689 -2.3199 34.7452
#
#
#
# Elastic Compliance Matrix: (Units=1/GPa)
#
#
# Indices 1 2 3 4 5 6 
#
# 1 0.015306 0.000354 -0.002718 -0.003007 0.000010 0.001975
# 2 0.000354 0.013266 -0.003003 -0.000951 0.000084 0.002823
# 3 -0.002718 -0.003003 0.006048 0.003085 0.000291 0.000268
# 4 -0.003007 -0.000951 0.003085 0.059933 0.012156 -0.006156
# 5 0.000010 0.000084 0.000291 0.012156 0.034145 0.000934
# 6 0.001975 0.002823 0.000268 -0.006156 0.000934 0.030725
#
#
# Mechanical properties :
#
#
# Convention : Reuss Voigt Hill
#
# Bulk Modulus (GPa) = 41.86316 61.56460 51.71388
# Shear Modulus (GPa) = 28.07107 35.75979 31.91543
#
# Velocity S-wave (km/s) = 3.43006 3.87141 3.65740
# Velocity P-wave (km/s) = 5.76481 6.76661 6.28570
#
# Compressibility (1/GPa) = 0.02388735
#
# Stress axis : x y z
#
# Youngs Moduli (GPa) = 65.33195 75.38123 165.33388
#
# Poissons Ratio (x) = -0.02670 0.44934
# Poissons Ratio (y) = -0.02314 0.49651
# Poissons Ratio (z) = 0.17756 0.22638
#
# Static dielectric constant tensor:
#      x y z
#    x 1.958160 0.071480 0.006420 
#    y 0.071480 1.961580 -0.005210 
#    z 0.006420 -0.005210 1.867260 
# 
# From -- ./inp_files/121147.got.cif
#   From: 2010.05.17/outbox.cif.g08.bks.cpg/sg2_61_cif.got.tgz:121147.got - 2010.06.03 11:33:40.
