data_PCOD9024775
_publ_section_title
;
Structure prediction by ZEFSAII (Michael W. Deem and Ramdas Pophale) SiO2 
 PCOD9024775
Probable space group: P -1
;
_chemical_formula_sum "Si O2"
_cell_formula_units_Z 16
_cell_length_a 13.592363
_cell_length_b 9.592829
_cell_length_c 14.378398
_cell_angle_alpha 125.432167
_cell_angle_beta 40.857542
_cell_angle_gamma 94.353786
_cell_volume 732.526880
_symmetry_space_group_name_H-M "P -1"
_symmetry_group_IT_number 2
_symmetry_cell_setting 'triclinic'
loop_
_space_group_symop_operation_xyz
x,y,z
-x,-y,-z
loop_
_atom_site_type_symbol
_atom_site_label
_atom_site_fract_x
_atom_site_fract_y
_atom_site_fract_z
Si Si1 0.950173 0.698595 0.428673
Si Si2 0.717484 0.927172 0.305855
Si Si3 0.364681 0.797046 0.805962
Si Si4 0.257951 0.713438 0.661493
Si Si5 0.393396 0.508954 0.988136
Si Si6 0.884549 0.763732 0.933589
Si Si7 0.222898 0.010523 0.515497
Si Si8 0.844099 0.045383 0.789810
O O1 0.803777 0.858940 0.508488
O O2 0.001612 0.460144 0.298065
O O3 0.870275 0.851683 0.637559
O O4 0.173812 0.603453 0.209177
O O5 0.819694 0.856326 0.306954
O O6 0.500000 0.000000 0.500000
O O7 0.700972 0.139102 0.364015
O O8 0.847735 0.737414 0.056547
O O9 0.295821 0.714418 0.744696
O O10 0.584835 0.557051 0.585498
O O11 0.219871 0.923915 0.046855
O O12 0.336198 0.002267 0.855622
O O13 0.032878 0.812917 0.847564
O O14 0.551791 0.246515 0.735044
O O15 0.500000 0.500000 0.000000
O O16 0.333291 0.704939 0.035889
O O17 0.056723 0.986859 0.612678
#
# Coordination Sequence:
#
# PCOD9024775 Si02
#       8
#     2   2   2   2   2   2   2   2
#     4  11  24  37  59  94 130 167 216 254 314 383
#     4  11  23  41  69 102 124 160 218 264 317 376
#     4  10  22  40  66  86 120 167 214 258 307 375
#     4  10  22  44  66  90 125 170 206 258 322 375
#     4  11  19  38  61  89 128 169 204 266 320 367
#     4  11  24  43  61  92 132 171 207 257 316 375
#     4  11  21  38  63  91 132 165 205 269 322 369
#     4  11  21  38  62  97 120 170 218 254 317 381
#
# _framework density 21.842202
#
# number of rings (size 3 to 8) (size 9 to 14) (size 15 to 20)
#    0.000    1.250    2.500    5.250    0.000    6.000 
#    0.000    0.625    0.000    0.000    0.000    0.000 
#    0.000    0.000    0.000    0.000    0.000    0.000 
#
# Total GULP energy -89353.949545 kJ/mol
# GULP energy per Si atom -5584.621847 kJ/mol
# Density = 2.179249 g / cm^3
# Si number density = 21.842202 Si / 1000 Ang^3
#
#
#
# Elastic Constant Matrix: (Units=GPa)
#
#
# Indices 1 2 3 4 5 6 
#
# 1 93.3651 37.0743 19.2046 -1.5214 3.8089 -5.4603
# 2 37.0743 45.5436 26.3563 -4.9778 8.7753 0.7445
# 3 19.2046 26.3563 112.4357 14.7336 6.2846 -4.4228
# 4 -1.5214 -4.9778 14.7336 33.2924 -0.5538 3.2667
# 5 3.8089 8.7753 6.2846 -0.5538 33.7594 -3.5802
# 6 -5.4603 0.7445 -4.4228 3.2667 -3.5802 28.3430
#
#
#
# Elastic Compliance Matrix: (Units=1/GPa)
#
#
# Indices 1 2 3 4 5 6 
#
# 1 0.016476 -0.014717 0.000976 -0.002260 0.002199 0.004251
# 2 -0.014717 0.041541 -0.008343 0.009820 -0.008208 -0.007397
# 3 0.000976 -0.008343 0.011669 -0.006660 0.000096 0.003008
# 4 -0.002260 0.009820 -0.006660 0.034910 -0.001110 -0.005896
# 5 0.002199 -0.008208 0.000096 -0.001110 0.031982 0.004822
# 6 0.004251 -0.007397 0.003008 -0.005896 0.004822 0.038054
#
#
# Mechanical properties :
#
#
# Convention : Reuss Voigt Hill
#
# Bulk Modulus (GPa) = 39.18823 46.29053 42.73938
# Shear Modulus (GPa) = 21.99688 30.32622 26.16155
#
# Velocity S-wave (km/s) = 3.17690 3.73020 3.46461
# Velocity P-wave (km/s) = 5.60690 6.30806 5.96779
#
# Compressibility (1/GPa) = 0.02551787
#
# Stress axis : x y z
#
# Youngs Moduli (GPa) = 60.69439 24.07249 85.69976
#
# Poissons Ratio (x) = 0.35428 -0.08366
# Poissons Ratio (y) = 0.89325 0.71499
# Poissons Ratio (z) = -0.05925 0.20084
#
# Static dielectric constant tensor:
#      x y z
#    x 1.811850 0.004950 0.003900 
#    y 0.004950 1.873660 0.059360 
#    z 0.003900 0.059360 1.849740 
# 
# From -- ./inp_files/528914.got.cif
#   From: 2010.05.17/outbox.cif.g08.bks.cpg/sg2_265_cif.got.tgz:528914.got - 2010.06.03 11:33:40.
