data_PCOD9024639
_publ_section_title
;
Structure prediction by ZEFSAII (Michael W. Deem and Ramdas Pophale) SiO2 
 PCOD9024639
Probable space group: P -1
;
_chemical_formula_sum "Si O2"
_cell_formula_units_Z 14
_cell_length_a 5.079789
_cell_length_b 17.380462
_cell_length_c 11.745884
_cell_angle_alpha 35.498713
_cell_angle_beta 85.849587
_cell_angle_gamma 86.340170
_cell_volume 600.588498
_symmetry_space_group_name_H-M "P -1"
_symmetry_group_IT_number 2
_symmetry_cell_setting 'triclinic'
loop_
_space_group_symop_operation_xyz
x,y,z
-x,-y,-z
loop_
_atom_site_type_symbol
_atom_site_label
_atom_site_fract_x
_atom_site_fract_y
_atom_site_fract_z
Si Si1 0.209945 0.441863 0.831333
Si Si2 0.701514 0.088158 0.523008
Si Si3 0.677189 0.104491 0.937585
Si Si4 0.771901 0.821933 0.718795
Si Si5 0.732323 0.612901 0.603227
Si Si6 0.668096 0.633387 0.328194
Si Si7 0.963595 0.882962 0.303628
O O1 0.442382 0.550724 0.692087
O O2 0.187727 0.374771 0.787306
O O3 0.936686 0.515797 0.775550
O O4 0.269288 0.324919 0.057819
O O5 0.423606 0.142233 0.421708
O O6 0.805790 0.114485 0.614143
O O7 0.928079 0.153625 0.358002
O O8 0.707700 0.931231 0.685739
O O9 0.512195 0.234284 0.819485
O O10 0.903129 0.136034 0.801238
O O11 0.500000 0.000000 0.000000
O O12 0.807851 0.022727 0.135429
O O13 0.820195 0.622817 0.455517
O O14 0.769886 0.759686 0.472180
O O15 0.500000 0.500000 0.500000
#
# Coordination Sequence:
#
# PCOD9024639 Si02
#       7
#     2   2   2   2   2   2   2
#     4  11  24  41  69  92 135 172 222 272 326 381
#     4  10  24  42  69  91 128 171 213 283 329 383
#     4  11  24  41  64 100 136 170 222 265 324 415
#     4  10  23  44  64  97 124 164 233 270 325 387
#     4  11  23  42  63  98 132 176 214 269 324 411
#     4  10  22  40  65  95 133 175 215 265 330 389
#     4  11  25  41  67  94 137 173 217 267 344 386
#
# _framework density 23.310469000000001
#
# number of rings (size 3 to 8) (size 9 to 14) (size 15 to 20)
#    0.000    1.429    1.429    3.000    4.000    5.714 
#    0.000    4.286    0.000    0.000    0.000    0.000 
#    0.000    0.000    0.000    0.000    0.000    0.000 
#
# Total GULP energy -78358.872002 kJ/mol
# GULP energy per Si atom -5597.062286 kJ/mol
# Density = 2.325741 g / cm^3
# Si number density = 23.310469 Si / 1000 Ang^3
#
#
#
# Elastic Constant Matrix: (Units=GPa)
#
#
# Indices 1 2 3 4 5 6 
#
# 1 65.1005 17.1996 6.8899 -18.3875 6.8908 12.3560
# 2 17.1996 85.4158 44.4128 -17.4688 6.2845 17.8354
# 3 6.8899 44.4128 110.3463 -27.3115 20.0887 4.8372
# 4 -18.3875 -17.4688 -27.3115 28.0520 1.3861 2.4012
# 5 6.8908 6.2845 20.0887 1.3861 35.3935 -3.9766
# 6 12.3560 17.8354 4.8372 2.4012 -3.9766 41.2272
#
#
#
# Elastic Compliance Matrix: (Units=1/GPa)
#
#
# Indices 1 2 3 4 5 6 
#
# 1 0.024751 -0.000825 0.007192 0.024135 -0.010863 -0.010358
# 2 -0.000825 0.017211 -0.004825 0.006146 -0.001196 -0.007106
# 3 0.007192 -0.004825 0.017924 0.020139 -0.012011 -0.004503
# 4 0.024135 0.006146 0.020139 0.077631 -0.022389 -0.018936
# 5 -0.010863 -0.001196 -0.012011 -0.022389 0.039431 0.010290
# 6 -0.010358 -0.007106 -0.004503 -0.018936 0.010290 0.033058
#
#
# Mechanical properties :
#
#
# Convention : Reuss Voigt Hill
#
# Bulk Modulus (GPa) = 15.88085 44.20747 30.04416
# Shear Modulus (GPa) = 21.93824 33.75857 27.84841
#
# Velocity S-wave (km/s) = 3.07112 3.80967 3.46016
# Velocity P-wave (km/s) = 4.40491 6.19332 5.37403
#
# Compressibility (1/GPa) = 0.06296890
#
# Stress axis : x y z
#
# Youngs Moduli (GPa) = 40.40318 58.10136 55.79058
#
# Poissons Ratio (x) = 0.04796 -0.40126
# Poissons Ratio (y) = 0.03335 0.26921
# Poissons Ratio (z) = -0.29059 0.28036
#
# Static dielectric constant tensor:
#      x y z
#    x 1.727280 -0.226580 0.173590 
#    y -0.226580 1.588060 0.266600 
#    z 0.173590 0.266600 1.633810 
# 
# From -- ./inp_files/78383.got.cif
#   From: 2010.05.17/outbox.cif.g08.bks.cpg/sg2_40_cif.got.tgz:78383.got - 2010.06.03 11:33:40.
