data_PCOD9024199
_publ_section_title
;
Structure prediction by ZEFSAII (Michael W. Deem and Ramdas Pophale) SiO2 
 PCOD9024199
Probable space group: P -1
;
_chemical_formula_sum "Si O2"
_cell_formula_units_Z 14
_cell_length_a 10.710128
_cell_length_b 17.213083
_cell_length_c 10.094872
_cell_angle_alpha 25.857581
_cell_angle_beta 122.269513
_cell_angle_gamma 132.741254
_cell_volume 578.701440
_symmetry_space_group_name_H-M "P -1"
_symmetry_group_IT_number 2
_symmetry_cell_setting 'triclinic'
loop_
_space_group_symop_operation_xyz
x,y,z
-x,-y,-z
loop_
_atom_site_type_symbol
_atom_site_label
_atom_site_fract_x
_atom_site_fract_y
_atom_site_fract_z
Si Si1 0.017369 0.640328 0.928166
Si Si2 0.379884 0.049642 0.221268
Si Si3 0.040521 0.842536 0.193442
Si Si4 0.870434 0.907269 0.777992
Si Si5 0.425048 0.540174 0.726561
Si Si6 0.630315 0.348660 0.210678
Si Si7 0.706365 0.384297 0.741091
O O1 0.023174 0.854474 0.575601
O O2 0.190508 0.726155 0.984814
O O3 0.000000 0.500000 0.000000
O O4 0.838052 0.480008 0.144704
O O5 0.265208 0.083991 0.209187
O O6 0.239076 0.928641 0.207366
O O7 0.421935 0.869994 0.553340
O O8 0.539797 0.270488 0.918390
O O9 0.877762 0.619972 0.494853
O O10 0.005164 0.857550 0.997664
O O11 0.000000 0.000000 0.000000
O O12 0.736953 0.690508 0.960991
O O13 0.459005 0.694461 0.630218
O O14 0.368341 0.606363 0.459543
O O15 0.577899 0.491528 0.878986
#
# Coordination Sequence:
#
# PCOD9024199 Si02
#       7
#     2   2   2   2   2   2   2
#     4  12  23  41  70 101 133 175 224 280 334 392
#     4  11  22  41  70  97 135 178 219 286 320 398
#     4   9  19  39  57  98 134 163 215 279 324 381
#     4  10  22  40  63  98 134 172 230 267 338 396
#     4  10  26  45  64  98 136 179 223 273 334 405
#     4  11  24  46  67  94 141 178 218 278 337 392
#     4  11  24  41  67 103 127 178 228 268 336 393
#
# _framework density 24.192095999999999
#
# number of rings (size 3 to 8) (size 9 to 14) (size 15 to 20)
#    0.000    1.429    2.857    1.714    4.000    8.000 
#    0.000    0.000    0.000    0.000    0.000    0.000 
#    0.000    0.000    0.000    0.000    0.000    0.000 
#
# Total GULP energy -78002.610475 kJ/mol
# GULP energy per Si atom -5571.615034 kJ/mol
# Density = 2.413703 g / cm^3
# Si number density = 24.192096 Si / 1000 Ang^3
#
#
#
# Elastic Constant Matrix: (Units=GPa)
#
#
# Indices 1 2 3 4 5 6 
#
# 1 72.1564 34.8063 17.3565 7.4143 9.4880 -3.2372
# 2 34.8063 83.7117 -6.7032 17.3291 1.7127 14.6165
# 3 17.3565 -6.7032 80.6457 -9.7361 -13.3347 -2.6126
# 4 7.4143 17.3291 -9.7361 41.1539 4.2483 4.5036
# 5 9.4880 1.7127 -13.3347 4.2483 26.2236 -6.4444
# 6 -3.2372 14.6165 -2.6126 4.5036 -6.4444 36.3941
#
#
#
# Elastic Compliance Matrix: (Units=1/GPa)
#
#
# Indices 1 2 3 4 5 6 
#
# 1 0.021956 -0.009992 -0.007165 -0.000842 -0.009862 0.003809
# 2 -0.009992 0.018500 0.003422 -0.004756 0.003218 -0.006915
# 3 -0.007165 0.003422 0.016276 0.002552 0.010399 0.000682
# 4 -0.000842 -0.004756 0.002552 0.027581 -0.003030 -0.001931
# 5 -0.009862 0.003218 0.010399 -0.003030 0.049152 0.007655
# 6 0.003809 -0.006915 0.000682 -0.001931 0.007655 0.032236
#
#
# Mechanical properties :
#
#
# Convention : Reuss Voigt Hill
#
# Bulk Modulus (GPa) = 34.17237 36.38145 35.27691
# Shear Modulus (GPa) = 24.63952 33.49128 29.06540
#
# Velocity S-wave (km/s) = 3.19485 3.72477 3.46994
# Velocity P-wave (km/s) = 5.26930 5.79395 5.53784
#
# Compressibility (1/GPa) = 0.02926341
#
# Stress axis : x y z
#
# Youngs Moduli (GPa) = 45.54500 54.05306 61.43959
#
# Poissons Ratio (x) = 0.54010 0.44021
# Poissons Ratio (y) = 0.45508 -0.21026
# Poissons Ratio (z) = 0.32633 -0.18498
#
# Static dielectric constant tensor:
#      x y z
#    x 1.926540 -0.084830 -0.001890 
#    y -0.084830 3.192830 0.687270 
#    z -0.001890 0.687270 2.341680 
# 
# From -- ./inp_files/230729.got.cif
#   From: 2010.05.17/outbox.cif.g08.bks.cpg/sg2_116_cif.got.tgz:230729.got - 2010.06.03 11:33:40.
