data_PCOD9024294
_publ_section_title
;
Structure prediction by ZEFSAII (Michael W. Deem and Ramdas Pophale) SiO2 
 PCOD9024294
Probable space group: P -1
;
_chemical_formula_sum "Si O2"
_cell_formula_units_Z 16
_cell_length_a 9.771209
_cell_length_b 14.308703
_cell_length_c 10.064732
_cell_angle_alpha 81.166270
_cell_angle_beta 113.032687
_cell_angle_gamma 42.440118
_cell_volume 613.432506
_symmetry_space_group_name_H-M "P -1"
_symmetry_group_IT_number 2
_symmetry_cell_setting 'triclinic'
loop_
_space_group_symop_operation_xyz
x,y,z
-x,-y,-z
loop_
_atom_site_type_symbol
_atom_site_label
_atom_site_fract_x
_atom_site_fract_y
_atom_site_fract_z
Si Si1 0.129843 0.145290 0.863023
Si Si2 0.471586 0.180314 0.686861
Si Si3 0.693979 0.234967 0.621588
Si Si4 0.482359 0.572715 0.747270
Si Si5 0.601323 0.840085 0.894371
Si Si6 0.135228 0.187660 0.221455
Si Si7 0.132305 0.589022 0.654630
Si Si8 0.640494 0.220401 0.112082
O O1 0.154622 0.238566 0.903571
O O2 0.805636 0.272723 0.716429
O O3 0.353736 0.956723 0.085743
O O4 0.285179 0.052929 0.797189
O O5 0.517262 0.264032 0.647829
O O6 0.120393 0.339205 0.520237
O O7 0.661112 0.018951 0.677798
O O8 0.518255 0.356070 0.392368
O O9 0.025004 0.002537 0.758107
O O10 0.275228 0.597567 0.630261
O O11 0.328458 0.714707 0.782036
O O12 0.815001 0.356962 0.979845
O O13 0.673298 0.837175 0.776510
O O14 0.564722 0.749112 0.907327
O O15 0.043994 0.267927 0.315537
O O16 0.429828 0.370612 0.877287
#
# Coordination Sequence:
#
# PCOD9024294 Si02
#       8
#     2   2   2   2   2   2   2   2
#     4   9  21  42  64  86 130 166 210 260 316 358
#     4  11  23  40  67  92 125 166 217 254 310 372
#     4  11  23  40  67  92 125 166 217 254 310 372
#     4  11  24  39  64  96 133 163 204 255 322 377
#     4   9  20  37  68  88 118 165 212 251 314 351
#     4  10  22  40  64  90 136 163 202 255 319 377
#     4  11  24  39  64  96 133 163 204 255 322 377
#     4  10  22  40  64  90 136 163 202 255 319 377
#
# _framework density 26.082740000000001
#
# number of rings (size 3 to 8) (size 9 to 14) (size 15 to 20)
#    0.000    1.750    0.000    4.125   12.250    1.000 
#    0.000    5.000    5.500    0.000    0.000    0.000 
#    0.000    0.000    0.000    0.000    0.000    0.000 
#
# Total GULP energy -89651.817544 kJ/mol
# GULP energy per Si atom -5603.238597 kJ/mol
# Density = 2.602338 g / cm^3
# Si number density = 26.082740 Si / 1000 Ang^3
#
#
#
# Elastic Constant Matrix: (Units=GPa)
#
#
# Indices 1 2 3 4 5 6 
#
# 1 206.5175 30.6314 48.9067 2.2500 18.0319 -0.9871
# 2 30.6314 84.3138 20.0447 -16.0918 15.0843 -11.5240
# 3 48.9067 20.0447 163.3906 -8.2211 21.3229 0.1757
# 4 2.2500 -16.0918 -8.2211 26.7534 -1.6047 0.9892
# 5 18.0319 15.0843 21.3229 -1.6047 33.2446 6.3297
# 6 -0.9871 -11.5240 0.1757 0.9892 6.3297 45.4862
#
#
#
# Elastic Compliance Matrix: (Units=1/GPa)
#
#
# Indices 1 2 3 4 5 6 
#
# 1 0.005587 -0.001872 -0.001367 -0.002095 -0.001384 -0.000110
# 2 -0.001872 0.016197 -0.000084 0.009292 -0.006745 0.004800
# 3 -0.001367 -0.000084 0.007133 0.002015 -0.003775 0.000403
# 4 -0.002095 0.009292 0.002015 0.043543 -0.002597 0.001715
# 5 -0.001384 -0.006745 -0.003775 -0.002597 0.037498 -0.006886
# 6 -0.000110 0.004800 0.000403 0.001715 -0.006886 0.024118
#
#
# Mechanical properties :
#
#
# Convention : Reuss Voigt Hill
#
# Bulk Modulus (GPa) = 44.90228 72.59863 58.75045
# Shear Modulus (GPa) = 33.75044 44.73946 39.24495
#
# Velocity S-wave (km/s) = 3.60109 4.14610 3.88317
# Velocity P-wave (km/s) = 5.87734 7.12843 6.53291
#
# Compressibility (1/GPa) = 0.02227058
#
# Stress axis : x y z
#
# Youngs Moduli (GPa) = 178.99371 61.74136 140.18385
#
# Poissons Ratio (x) = 0.11556 0.19167
# Poissons Ratio (y) = 0.33503 0.01179
# Poissons Ratio (z) = 0.24473 0.00519
#
# Static dielectric constant tensor:
#      x y z
#    x 2.025730 0.028640 0.009740 
#    y 0.028640 2.073130 -0.011530 
#    z 0.009740 -0.011530 2.028580 
# 
# From -- ./inp_files/398963.got.cif
#   From: 2010.05.17/outbox.cif.g08.bks.cpg/sg2_200_cif.got.tgz:398963.got - 2010.06.03 11:33:40.
