data_PCOD9024390
_publ_section_title
;
Structure prediction by ZEFSAII (Michael W. Deem and Ramdas Pophale) SiO2 
 PCOD9024390
Probable space group: P -1
;
_chemical_formula_sum "Si O2"
_cell_formula_units_Z 16
_cell_length_a 5.210870
_cell_length_b 11.429159
_cell_length_c 26.831142
_cell_angle_alpha 26.266470
_cell_angle_beta 99.058642
_cell_angle_gamma 107.554429
_cell_volume 649.596171
_symmetry_space_group_name_H-M "P -1"
_symmetry_group_IT_number 2
_symmetry_cell_setting 'triclinic'
loop_
_space_group_symop_operation_xyz
x,y,z
-x,-y,-z
loop_
_atom_site_type_symbol
_atom_site_label
_atom_site_fract_x
_atom_site_fract_y
_atom_site_fract_z
Si Si1 0.987567 0.724647 0.508370
Si Si2 0.739228 0.283331 0.753714
Si Si3 0.327889 0.164117 0.199640
Si Si4 0.819084 0.435067 0.891257
Si Si5 0.227199 0.139029 0.854795
Si Si6 0.446959 0.735770 0.441922
Si Si7 0.834654 0.277670 0.121696
Si Si8 0.289752 0.342375 0.302125
O O1 0.838465 0.448195 0.642617
O O2 0.169949 0.646158 0.501584
O O3 0.736722 0.832508 0.444455
O O4 0.216005 0.008096 0.430979
O O5 0.918173 0.097684 0.845652
O O6 0.411061 0.134670 0.813025
O O7 0.824661 0.541288 0.698578
O O8 0.997429 0.062443 0.215339
O O9 0.503643 0.179484 0.149105
O O10 0.403787 0.963879 0.316627
O O11 0.102533 0.565306 0.882125
O O12 0.817627 0.573290 0.785282
O O13 0.631336 0.542404 0.881983
O O14 0.745968 0.100479 0.016569
O O15 0.384368 0.450140 0.764424
O O16 0.500000 0.500000 0.500000
O O17 0.000000 0.500000 0.000000
#
# Coordination Sequence:
#
# PCOD9024390 Si02
#       8
#     2   2   2   2   2   2   2   2
#     4  12  24  46  71  98 136 175 224 277 341 390
#     4  10  25  42  63 101 137 179 219 271 333 394
#     4  10  22  42  65  93 129 170 220 265 341 380
#     4  10  22  41  66  96 135 180 218 270 325 404
#     4  10  24  40  61  99 138 172 225 265 333 389
#     4  12  26  47  70 100 127 174 228 284 333 393
#     4  10  22  40  64  95 127 173 222 269 327 395
#     4  10  23  41  70  97 137 178 225 269 328 404
#
# _framework density 24.630687999999999
#
# number of rings (size 3 to 8) (size 9 to 14) (size 15 to 20)
#    1.500    0.000    1.250    3.750    3.500    2.000 
#    6.750    0.000    0.000    0.000    0.000    0.000 
#    0.000    0.000    0.000    0.000    0.000    0.000 
#
# Total GULP energy -89299.395360 kJ/mol
# GULP energy per Si atom -5581.212210 kJ/mol
# Density = 2.457463 g / cm^3
# Si number density = 24.630688 Si / 1000 Ang^3
#
#
#
# Elastic Constant Matrix: (Units=GPa)
#
#
# Indices 1 2 3 4 5 6 
#
# 1 133.5212 9.8884 42.1163 4.3561 10.4562 -11.6770
# 2 9.8884 34.5366 -6.3386 7.5051 1.2554 -0.6228
# 3 42.1163 -6.3386 103.2298 -2.9973 5.6059 -2.0575
# 4 4.3561 7.5051 -2.9973 36.3146 -6.5110 -1.7865
# 5 10.4562 1.2554 5.6059 -6.5110 43.7798 5.1677
# 6 -11.6770 -0.6228 -2.0575 -1.7865 5.1677 33.4802
#
#
#
# Elastic Compliance Matrix: (Units=1/GPa)
#
#
# Indices 1 2 3 4 5 6 
#
# 1 0.009434 -0.003044 -0.003881 -0.001058 -0.002213 0.003280
# 2 -0.003044 0.031793 0.003085 -0.006232 -0.001461 -0.000388
# 3 -0.003881 0.003085 0.011496 0.000668 -0.000478 -0.000480
# 4 -0.001058 -0.006232 0.000668 0.029878 0.004740 0.000419
# 5 -0.002213 -0.001461 -0.000478 0.004740 0.024696 -0.004387
# 6 0.003280 -0.000388 -0.000480 0.000419 -0.004387 0.031675
#
#
# Mechanical properties :
#
#
# Convention : Reuss Voigt Hill
#
# Bulk Modulus (GPa) = 22.20144 40.29109 31.24627
# Shear Modulus (GPa) = 30.92815 37.75635 34.34225
#
# Velocity S-wave (km/s) = 3.54740 3.91947 3.73807
# Velocity P-wave (km/s) = 5.08055 6.07261 5.59860
#
# Compressibility (1/GPa) = 0.04504212
#
# Stress axis : x y z
#
# Youngs Moduli (GPa) = 106.00246 31.45377 86.98971
#
# Poissons Ratio (x) = 0.09574 0.33760
# Poissons Ratio (y) = 0.32264 -0.26833
# Poissons Ratio (z) = 0.41138 -0.09702
#
# Static dielectric constant tensor:
#      x y z
#    x 2.062520 0.107500 -0.031380 
#    y 0.107500 2.128270 -0.027220 
#    z -0.031380 -0.027220 1.899890 
# 
# From -- ./inp_files/621910.got.cif
#   From: 2010.05.17/outbox.cif.g08.bks.cpg/sg2_311_cif.got.tgz:621910.got - 2010.06.03 11:33:40.
