data_PCOD9024868
_publ_section_title
;
Structure prediction by ZEFSAII (Michael W. Deem and Ramdas Pophale) SiO2 
 PCOD9024868
Probable space group: P -1
;
_chemical_formula_sum "Si O2"
_cell_formula_units_Z 16
_cell_length_a 9.324033
_cell_length_b 11.768304
_cell_length_c 14.584188
_cell_angle_alpha 148.221112
_cell_angle_beta 101.530137
_cell_angle_gamma 91.662733
_cell_volume 761.942615
_symmetry_space_group_name_H-M "P -1"
_symmetry_group_IT_number 2
_symmetry_cell_setting 'triclinic'
loop_
_space_group_symop_operation_xyz
x,y,z
-x,-y,-z
loop_
_atom_site_type_symbol
_atom_site_label
_atom_site_fract_x
_atom_site_fract_y
_atom_site_fract_z
Si Si1 0.857297 0.258097 0.472167
Si Si2 0.546083 0.350343 0.181892
Si Si3 0.819057 0.787993 0.588239
Si Si4 0.156090 0.729180 0.154542
Si Si5 0.621268 0.465673 0.063970
Si Si6 0.934664 0.755062 0.772819
Si Si7 0.721861 0.094444 0.152701
Si Si8 0.823630 0.999573 0.476762
O O1 0.874423 0.524635 0.668317
O O2 0.731583 0.148263 0.299026
O O3 0.033210 0.262232 0.472013
O O4 0.800800 0.105800 0.450804
O O5 0.648002 0.617898 0.409186
O O6 0.561881 0.336302 0.064351
O O7 0.633762 0.214373 0.158704
O O8 0.360929 0.186618 0.065716
O O9 0.817894 0.743736 0.666633
O O10 0.864389 0.062123 0.762859
O O11 0.209264 0.852484 0.344286
O O12 0.274764 0.646144 0.056160
O O13 0.000000 0.500000 0.000000
O O14 0.720448 0.729434 0.288045
O O15 0.500000 0.500000 0.000000
O O16 0.095831 0.769834 0.755594
O O17 0.000000 0.000000 0.000000
O O18 0.000000 0.000000 0.500000
#
# Coordination Sequence:
#
# PCOD9024868 Si02
#       8
#     2   2   2   2   2   2   2   2
#     4  11  20  42  64  96 139 169 226 281 344 398
#     4  11  21  43  68  90 133 176 224 271 341 408
#     4  11  21  41  68  95 132 181 223 280 339 406
#     4  12  26  42  73 105 132 181 243 279 341 418
#     4  12  27  47  68 100 142 185 226 287 353 408
#     4  11  24  38  64 102 136 170 227 286 339 398
#     4  10  22  40  66  94 124 181 217 271 342 404
#     4  12  23  43  71 101 137 182 229 287 340 406
#
# _framework density 20.998957000000001
#
# number of rings (size 3 to 8) (size 9 to 14) (size 15 to 20)
#    0.000    0.750    6.250    1.500    3.500    1.500 
#    0.000    1.875    0.000    0.000    0.000    0.000 
#    0.000    0.000    0.000    0.000    0.000    0.000 
#
# Total GULP energy -89230.361089 kJ/mol
# GULP energy per Si atom -5576.897568 kJ/mol
# Density = 2.095116 g / cm^3
# Si number density = 20.998957 Si / 1000 Ang^3
#
#
#
# Elastic Constant Matrix: (Units=GPa)
#
#
# Indices 1 2 3 4 5 6 
#
# 1 24.5655 14.5914 19.9999 8.0659 4.4291 -8.7956
# 2 14.5914 143.0822 24.7467 7.6141 -11.6317 -10.9698
# 3 19.9999 24.7467 119.2815 19.8000 -1.3063 -5.6542
# 4 8.0659 7.6141 19.8000 46.6724 2.4284 4.1736
# 5 4.4291 -11.6317 -1.3063 2.4284 38.2881 1.0662
# 6 -8.7956 -10.9698 -5.6542 4.1736 1.0662 21.2949
#
#
#
# Elastic Compliance Matrix: (Units=1/GPa)
#
#
# Indices 1 2 3 4 5 6 
#
# 1 0.061491 -0.003437 -0.007107 -0.008744 -0.008510 0.023880
# 2 -0.003437 0.007929 -0.000802 -0.000722 0.002756 0.002455
# 3 -0.007107 -0.000802 0.010255 -0.003042 0.001124 -0.000086
# 4 -0.008744 -0.000722 -0.003042 0.025247 -0.000643 -0.009707
# 5 -0.008510 0.002756 0.001124 -0.000643 0.028104 -0.003078
# 6 0.023880 0.002455 -0.000086 -0.009707 -0.003078 0.060122
#
#
# Mechanical properties :
#
#
# Convention : Reuss Voigt Hill
#
# Bulk Modulus (GPa) = 17.54947 45.06728 31.30838
# Shear Modulus (GPa) = 21.29160 36.42381 28.85770
#
# Velocity S-wave (km/s) = 3.18769 4.16932 3.71110
# Velocity P-wave (km/s) = 4.68230 6.68475 5.77104
#
# Compressibility (1/GPa) = 0.05698177
#
# Stress axis : x y z
#
# Youngs Moduli (GPa) = 16.26261 126.11889 97.51555
#
# Poissons Ratio (x) = 0.43351 0.69303
# Poissons Ratio (y) = 0.05590 0.07823
# Poissons Ratio (z) = 0.11558 0.10117
#
# Static dielectric constant tensor:
#      x y z
#    x 2.038630 0.183240 -0.168510 
#    y 0.183240 1.880600 -0.131950 
#    z -0.168510 -0.131950 1.857750 
# 
# From -- ./inp_files/382381.got.cif
#   From: 2010.05.17/outbox.cif.g08.bks.cpg/sg2_192_cif.got.tgz:382381.got - 2010.06.03 11:33:40.
