data_PCOD9024408
_publ_section_title
;
Structure prediction by ZEFSAII (Michael W. Deem and Ramdas Pophale) SiO2 
 PCOD9024408
Probable space group: P -1
;
_chemical_formula_sum "Si O2"
_cell_formula_units_Z 16
_cell_length_a 16.708606
_cell_length_b 7.993389
_cell_length_c 9.891739
_cell_angle_alpha 87.831813
_cell_angle_beta 91.483425
_cell_angle_gamma 33.800488
_cell_volume 730.503643
_symmetry_space_group_name_H-M "P -1"
_symmetry_group_IT_number 2
_symmetry_cell_setting 'triclinic'
loop_
_space_group_symop_operation_xyz
x,y,z
-x,-y,-z
loop_
_atom_site_type_symbol
_atom_site_label
_atom_site_fract_x
_atom_site_fract_y
_atom_site_fract_z
Si Si1 0.918463 0.769108 0.390725
Si Si2 0.863220 0.157612 0.584324
Si Si3 0.085716 0.436285 0.129725
Si Si4 0.427673 0.400693 0.012695
Si Si5 0.279061 0.304523 0.956959
Si Si6 0.630336 0.369863 0.276640
Si Si7 0.817523 0.382195 0.323999
Si Si8 0.332336 0.752216 0.264881
O O1 0.918281 0.938034 0.473874
O O2 0.000000 0.500000 0.500000
O O3 0.989941 0.651611 0.249208
O O4 0.748181 0.034996 0.348100
O O5 0.007378 0.936836 0.685576
O O6 0.806583 0.414656 0.486647
O O7 0.739366 0.263542 0.643356
O O8 0.206694 0.098056 0.202765
O O9 0.161068 0.460529 0.057893
O O10 0.000000 0.500000 0.000000
O O11 0.390121 0.546852 0.147446
O O12 0.591993 0.053431 0.014835
O O13 0.337027 0.387641 0.992045
O O14 0.387688 0.599240 0.886589
O O15 0.228164 0.401453 0.795430
O O16 0.705717 0.421450 0.295732
O O17 0.472760 0.611628 0.325121
#
# Coordination Sequence:
#
# PCOD9024408 Si02
#       8
#     2   2   2   2   2   2   2   2
#     4  11  24  42  63  97 136 175 218 274 340 394
#     4  10  22  43  64  92 133 181 220 271 337 410
#     4  12  25  41  70 103 132 173 228 281 329 401
#     4  10  22  40  64  95 133 174 215 279 340 393
#     4  10  22  41  64  95 132 170 225 277 330 392
#     4  10  22  40  66  97 133 173 218 284 337 389
#     4   9  21  41  66  87 133 178 221 269 338 393
#     4  12  23  40  69 101 132 174 229 276 338 399
#
# _framework density 21.902698000000001
#
# number of rings (size 3 to 8) (size 9 to 14) (size 15 to 20)
#    0.000    1.500    2.500    1.875    1.750    5.000 
#    0.000    5.625    0.000    0.000    0.000    0.000 
#    0.000    0.000    0.000    0.000    0.000    0.000 
#
# Total GULP energy -89160.063350 kJ/mol
# GULP energy per Si atom -5572.503959 kJ/mol
# Density = 2.185285 g / cm^3
# Si number density = 21.902698 Si / 1000 Ang^3
#
#
#
# Elastic Constant Matrix: (Units=GPa)
#
#
# Indices 1 2 3 4 5 6 
#
# 1 71.9477 24.3258 33.6893 4.3601 -13.5127 -33.4843
# 2 24.3258 72.6863 24.5643 -14.7295 4.2940 -25.3673
# 3 33.6893 24.5643 93.0376 -12.1933 -15.3748 -23.1892
# 4 4.3601 -14.7295 -12.1933 46.1721 5.5801 -2.4670
# 5 -13.5127 4.2940 -15.3748 5.5801 36.9982 7.1783
# 6 -33.4843 -25.3673 -23.1892 -2.4670 7.1783 39.9975
#
#
#
# Elastic Compliance Matrix: (Units=1/GPa)
#
#
# Indices 1 2 3 4 5 6 
#
# 1 0.025465 -0.002710 -0.004184 -0.004176 0.005412 0.015945
# 2 -0.002710 0.021793 -0.001911 0.008329 -0.007973 0.012390
# 3 -0.004184 -0.001911 0.014642 0.003393 0.003619 0.003334
# 4 -0.004176 0.008329 0.003393 0.026727 -0.006383 0.006548
# 5 0.005412 -0.007973 0.003619 -0.006383 0.033329 -0.004803
# 6 0.015945 0.012390 0.003334 0.006548 -0.004803 0.049407
#
#
# Mechanical properties :
#
#
# Convention : Reuss Voigt Hill
#
# Bulk Modulus (GPa) = 22.57795 44.75895 33.66845
# Shear Modulus (GPa) = 24.54172 34.97303 29.75738
#
# Velocity S-wave (km/s) = 3.35100 4.00026 3.68994
# Velocity P-wave (km/s) = 5.03020 6.46652 5.79305
#
# Compressibility (1/GPa) = 0.04429101
#
# Stress axis : x y z
#
# Youngs Moduli (GPa) = 39.27022 45.88554 68.29833
#
# Poissons Ratio (x) = 0.12433 0.28577
# Poissons Ratio (y) = 0.10640 0.13049
# Poissons Ratio (z) = 0.16431 0.08767
#
# Static dielectric constant tensor:
#      x y z
#    x 1.960620 0.006950 -0.014980 
#    y 0.006950 1.860780 -0.090260 
#    z -0.014980 -0.090260 1.882120 
# 
# From -- ./inp_files/329024.got.cif
#   From: 2010.05.17/outbox.cif.g08.bks.cpg/sg2_165_cif.got.tgz:329024.got - 2010.06.03 11:33:40.
