data_PCOD9024669
_publ_section_title
;
Structure prediction by ZEFSAII (Michael W. Deem and Ramdas Pophale) SiO2 
 PCOD9024669
Probable space group: P -1
;
_chemical_formula_sum "Si O2"
_cell_formula_units_Z 16
_cell_length_a 9.642628
_cell_length_b 9.143877
_cell_length_c 26.917594
_cell_angle_alpha 129.713603
_cell_angle_beta 25.905453
_cell_angle_gamma 132.949301
_cell_volume 756.431618
_symmetry_space_group_name_H-M "P -1"
_symmetry_group_IT_number 2
_symmetry_cell_setting 'triclinic'
loop_
_space_group_symop_operation_xyz
x,y,z
-x,-y,-z
loop_
_atom_site_type_symbol
_atom_site_label
_atom_site_fract_x
_atom_site_fract_y
_atom_site_fract_z
Si Si1 0.216792 0.719064 0.958675
Si Si2 0.353630 0.478058 0.396318
Si Si3 0.631673 0.864226 0.185402
Si Si4 0.190441 0.422638 0.236911
Si Si5 0.453613 0.922373 0.642392
Si Si6 0.738253 0.932655 0.369992
Si Si7 0.795923 0.631967 0.467983
Si Si8 0.507989 0.847002 0.788429
O O1 0.581256 0.718665 0.858685
O O2 0.258450 0.760195 0.895507
O O3 0.000000 0.500000 0.000000
O O4 0.007019 0.861006 0.075161
O O5 0.630482 0.693859 0.356465
O O6 0.289201 0.382272 0.450322
O O7 0.454459 0.336408 0.294933
O O8 0.000000 0.500000 0.500000
O O9 0.410743 0.637883 0.190344
O O10 0.497145 0.930574 0.294587
O O11 0.612061 0.012230 0.179884
O O12 0.858161 0.277538 0.286924
O O13 0.066502 0.514848 0.346123
O O14 0.771556 0.851343 0.509766
O O15 0.342733 0.009782 0.647044
O O16 0.500000 0.000000 0.500000
O O17 0.123885 0.034032 0.282622
O O18 0.500000 0.500000 0.500000
#
# Coordination Sequence:
#
# PCOD9024669 Si02
#       8
#     2   2   2   2   2   2   2   2
#     4  10  23  47  71  94 130 183 230 288 337 384
#     4  12  25  41  66 100 142 180 217 272 332 412
#     4  11  26  41  73  94 132 178 233 279 338 392
#     4  10  22  42  67  96 135 174 219 280 334 396
#     4  11  24  42  64 105 132 178 228 267 340 414
#     4  12  26  41  68 102 144 183 216 273 344 408
#     4  10  22  40  65  96 142 171 212 272 331 406
#     4  12  25  46  65 103 135 176 231 279 339 400
#
# _framework density 21.151944
#
# number of rings (size 3 to 8) (size 9 to 14) (size 15 to 20)
#    0.000    1.000    3.750    2.625   10.500    1.000 
#    0.000    0.000    0.000    3.750    0.000    0.000 
#    0.000    0.000    0.000    0.000    0.000    0.000 
#
# Total GULP energy -89232.911627 kJ/mol
# GULP energy per Si atom -5577.056977 kJ/mol
# Density = 2.110380 g / cm^3
# Si number density = 21.151944 Si / 1000 Ang^3
#
#
#
# Elastic Constant Matrix: (Units=GPa)
#
#
# Indices 1 2 3 4 5 6 
#
# 1 69.0681 -5.6974 10.9847 3.0155 -11.6702 -13.1965
# 2 -5.6974 68.7025 -3.2732 8.6200 -10.3394 9.4678
# 3 10.9847 -3.2732 102.9152 11.4743 -21.2757 -3.4700
# 4 3.0155 8.6200 11.4743 29.6971 -8.7077 -2.9271
# 5 -11.6702 -10.3394 -21.2757 -8.7077 34.5883 1.8654
# 6 -13.1965 9.4678 -3.4700 -2.9271 1.8654 38.1701
#
#
#
# Elastic Compliance Matrix: (Units=1/GPa)
#
#
# Indices 1 2 3 4 5 6 
#
# 1 0.016563 0.001466 -0.000426 0.000180 0.005537 0.005067
# 2 0.001466 0.016767 0.001934 -0.004469 0.005793 -0.004102
# 3 -0.000426 0.001934 0.011559 -0.003005 0.006795 -0.000139
# 4 0.000180 -0.004469 -0.003005 0.038318 0.006333 0.003527
# 5 0.005537 0.005793 0.006795 0.006333 0.038301 -0.000291
# 6 0.005067 -0.004102 -0.000139 0.003527 -0.000291 0.029240
#
#
# Mechanical properties :
#
#
# Convention : Reuss Voigt Hill
#
# Bulk Modulus (GPa) = 19.67082 27.19042 23.43062
# Shear Modulus (GPa) = 30.91279 36.40255 33.65767
#
# Velocity S-wave (km/s) = 3.82706 4.15300 3.99335
# Velocity P-wave (km/s) = 5.37107 5.98993 5.68892
#
# Compressibility (1/GPa) = 0.05083673
#
# Stress axis : x y z
#
# Youngs Moduli (GPa) = 60.37598 59.64101 86.51305
#
# Poissons Ratio (x) = -0.08741 0.03684
# Poissons Ratio (y) = -0.08848 -0.16734
# Poissons Ratio (z) = 0.02571 -0.11536
#
# Static dielectric constant tensor:
#      x y z
#    x 1.740060 -0.006470 -0.046080 
#    y -0.006470 1.825440 -0.038150 
#    z -0.046080 -0.038150 1.803380 
# 
# From -- ./inp_files/343866.got.cif
#   From: 2010.05.17/outbox.cif.g08.bks.cpg/sg2_172_cif.got.tgz:343866.got - 2010.06.03 11:33:40.
