data_PCOD9024172
_publ_section_title
;
Structure prediction by ZEFSAII (Michael W. Deem and Ramdas Pophale) SiO2 
 PCOD9024172
Probable space group: P -1
;
_chemical_formula_sum "Si O2"
_cell_formula_units_Z 16
_cell_length_a 8.578731
_cell_length_b 20.075701
_cell_length_c 16.170126
_cell_angle_alpha 160.548994
_cell_angle_beta 121.159454
_cell_angle_gamma 51.222530
_cell_volume 693.682980
_symmetry_space_group_name_H-M "P -1"
_symmetry_group_IT_number 2
_symmetry_cell_setting 'triclinic'
loop_
_space_group_symop_operation_xyz
x,y,z
-x,-y,-z
loop_
_atom_site_type_symbol
_atom_site_label
_atom_site_fract_x
_atom_site_fract_y
_atom_site_fract_z
Si Si1 0.314153 0.476993 0.520771
Si Si2 0.959575 0.734972 0.847889
Si Si3 0.033857 0.202120 0.648663
Si Si4 0.453096 0.031295 0.624585
Si Si5 0.778823 0.215614 0.296863
Si Si6 0.101669 0.275541 0.568145
Si Si7 0.419548 0.618801 0.205041
Si Si8 0.844109 0.290204 0.961658
O O1 0.210005 0.348688 0.292312
O O2 0.562054 0.328612 0.420978
O O3 0.271671 0.688088 0.696812
O O4 0.179971 0.548639 0.651596
O O5 0.001570 0.806192 0.031684
O O6 0.870482 0.946313 0.008936
O O7 0.808000 0.329300 0.774720
O O8 0.019336 0.288720 0.653106
O O9 0.211623 0.223815 0.774667
O O10 0.108792 0.927576 0.337551
O O11 0.678383 0.966633 0.649629
O O12 0.420853 0.854045 0.467564
O O13 0.500000 0.000000 0.500000
O O14 0.947086 0.267867 0.448875
O O15 0.129806 0.498572 0.820666
O O16 0.500000 0.500000 0.000000
O O17 0.602528 0.426320 0.085457
#
# Coordination Sequence:
#
# PCOD9024172 Si02
#       8
#     2   2   2   2   2   2   2   2
#     4  10  24  40  66  95 124 167 211 259 316 383
#     4  11  22  41  66  91 128 167 211 256 320 373
#     4  11  22  43  67  88 128 176 209 262 319 365
#     4   9  20  40  63  88 126 165 208 255 311 370
#     4  11  21  42  65  91 133 161 208 264 315 375
#     4  10  22  40  63  96 130 163 214 262 310 382
#     4  11  23  40  65  92 124 165 218 260 312 375
#     4  11  23  40  63  91 130 168 211 265 311 377
#
# _framework density 23.065290000000001
#
# number of rings (size 3 to 8) (size 9 to 14) (size 15 to 20)
#    0.000    1.500    3.750    1.125    1.750    0.000 
#    2.250    4.375    0.000    0.000    0.000    0.000 
#    0.000    0.000    0.000    0.000    0.000    0.000 
#
# Total GULP energy -89232.974935 kJ/mol
# GULP energy per Si atom -5577.060933 kJ/mol
# Density = 2.301279 g / cm^3
# Si number density = 23.065290 Si / 1000 Ang^3
#
#
#
# Elastic Constant Matrix: (Units=GPa)
#
#
# Indices 1 2 3 4 5 6 
#
# 1 126.5119 16.4301 23.1031 15.1882 -15.4171 -33.6795
# 2 16.4301 63.2597 5.8741 -5.3392 -15.2546 -32.2630
# 3 23.1031 5.8741 52.0773 21.0776 9.9531 3.9153
# 4 15.1882 -5.3392 21.0776 11.7079 -6.5155 -5.5587
# 5 -15.4171 -15.2546 9.9531 -6.5155 24.6949 8.2766
# 6 -33.6795 -32.2630 3.9153 -5.5587 8.2766 24.7963
#
#
#
# Elastic Compliance Matrix: (Units=1/GPa)
#
#
# Indices 1 2 3 4 5 6 
#
# 1 0.011936 -0.002145 0.004803 -0.023635 -0.005082 0.009061
# 2 -0.002145 0.005725 0.020425 -0.041603 -0.016129 -0.002633
# 3 0.004803 0.020425 0.001453 0.022093 0.009213 0.034747
# 4 -0.023635 -0.041603 0.022093 0.007522 -0.020120 -0.081320
# 5 -0.005082 -0.016129 0.009213 -0.020120 0.033421 -0.045009
# 6 0.009061 -0.002633 0.034747 -0.081320 -0.045009 0.040516
#
#
# Mechanical properties :
#
#
# Convention : Reuss Voigt Hill
#
# Bulk Modulus (GPa) = 15.31898 36.96261 26.14079
# Shear Modulus (GPa) = 65.64460 25.33594 45.49027
#
# Velocity S-wave (km/s) = 5.34061 3.31787 4.44581
# Velocity P-wave (km/s) = 6.68472 5.54416 6.14098
#
# Compressibility (1/GPa) = 0.06527850
#
# Stress axis : x y z
#
# Youngs Moduli (GPa) = 83.77836 174.68356 688.26403
#
# Poissons Ratio (x) = 0.37475 -3.30545
# Poissons Ratio (y) = 0.17973 -14.05785
# Poissons Ratio (z) = -0.40235 -3.56793
#
# Static dielectric constant tensor:
#      x y z
#    x 1.954470 -0.048020 -0.036550 
#    y -0.048020 1.938860 0.049500 
#    z -0.036550 0.049500 1.992610 
# 
# From -- ./inp_files/562794.got.cif
#   From: 2010.05.17/outbox.cif.g08.bks.cpg/sg2_282_cif.got.tgz:562794.got - 2010.06.03 11:33:40.
