data_PCOD9024144
_publ_section_title
;
Structure prediction by ZEFSAII (Michael W. Deem and Ramdas Pophale) SiO2 
 PCOD9024144
Probable space group: P -1
;
_chemical_formula_sum "Si O2"
_cell_formula_units_Z 16
_cell_length_a 14.511665
_cell_length_b 8.523309
_cell_length_c 12.225984
_cell_angle_alpha 119.150017
_cell_angle_beta 128.037601
_cell_angle_gamma 103.232527
_cell_volume 664.778310
_symmetry_space_group_name_H-M "P -1"
_symmetry_group_IT_number 2
_symmetry_cell_setting 'triclinic'
loop_
_space_group_symop_operation_xyz
x,y,z
-x,-y,-z
loop_
_atom_site_type_symbol
_atom_site_label
_atom_site_fract_x
_atom_site_fract_y
_atom_site_fract_z
Si Si1 0.396242 0.570436 0.567153
Si Si2 0.319519 0.390850 0.876943
Si Si3 0.742875 0.910567 0.795318
Si Si4 0.844241 0.774637 0.532540
Si Si5 0.061226 0.681784 0.742617
Si Si6 0.760760 0.063410 0.244944
Si Si7 0.422157 0.017586 0.709087
Si Si8 0.149012 0.825519 0.256244
O O1 0.583565 0.715982 0.703737
O O2 0.235162 0.270656 0.284529
O O3 0.348790 0.476722 0.626977
O O4 0.404367 0.785461 0.613995
O O5 0.192420 0.264141 0.636006
O O6 0.240232 0.151971 0.821203
O O7 0.500000 0.500000 0.000000
O O8 0.387236 0.657893 0.067829
O O9 0.716144 0.978646 0.682820
O O10 0.896807 0.208665 0.068034
O O11 0.952720 0.724686 0.629011
O O12 0.926325 0.063240 0.730242
O O13 0.943092 0.364903 0.534407
O O14 0.235518 0.865851 0.852603
O O15 0.611046 0.969498 0.183835
O O16 0.269588 0.913761 0.479560
O O17 0.000000 0.500000 0.000000
#
# Coordination Sequence:
#
# PCOD9024144 Si02
#       8
#     2   2   2   2   2   2   2   2
#     4  10  24  43  67  96 130 171 232 263 322 392
#     4  10  22  40  63  94 132 167 215 271 325 381
#     4  10  25  43  65  98 134 171 216 281 317 388
#     4  11  23  41  67  97 127 182 216 264 335 387
#     4  11  24  41  68  98 136 172 215 269 333 392
#     4  10  22  42  63  95 132 168 214 274 320 388
#     4  11  22  43  70  96 128 179 218 269 329 389
#     4  11  24  41  67  94 138 172 221 268 331 392
#
# _framework density 24.068172000000001
#
# number of rings (size 3 to 8) (size 9 to 14) (size 15 to 20)
#    0.000    1.500    3.750    0.750    5.250    5.500 
#    2.250    0.000    0.000    0.000    0.000    0.000 
#    0.000    0.000    0.000    0.000    0.000    0.000 
#
# Total GULP energy -89328.494845 kJ/mol
# GULP energy per Si atom -5583.030928 kJ/mol
# Density = 2.401339 g / cm^3
# Si number density = 24.068172 Si / 1000 Ang^3
#
#
#
# Elastic Constant Matrix: (Units=GPa)
#
#
# Indices 1 2 3 4 5 6 
#
# 1 44.6000 16.2861 18.8816 6.8592 -19.4172 -7.0605
# 2 16.2861 88.8151 26.6430 30.3685 -19.7184 -7.0961
# 3 18.8816 26.6430 92.9416 23.8317 -41.5977 -12.3164
# 4 6.8592 30.3685 23.8317 53.0591 -9.9967 -10.2378
# 5 -19.4172 -19.7184 -41.5977 -9.9967 40.5729 13.6272
# 6 -7.0605 -7.0961 -12.3164 -10.2378 13.6272 37.5803
#
#
#
# Elastic Compliance Matrix: (Units=1/GPa)
#
#
# Indices 1 2 3 4 5 6 
#
# 1 0.028853 -0.002533 0.000929 -0.000106 0.013380 0.000366
# 2 -0.002533 0.015356 0.000163 -0.007883 0.004971 -0.001473
# 3 0.000929 0.000163 0.021649 -0.006255 0.021975 -0.002372
# 4 -0.000106 -0.007883 -0.006255 0.026192 -0.005741 0.005659
# 5 0.013380 0.004971 0.021975 -0.005741 0.058675 -0.012186
# 6 0.000366 -0.001473 -0.002372 0.005659 -0.012186 0.031584
#
#
# Mechanical properties :
#
#
# Convention : Reuss Voigt Hill
#
# Bulk Modulus (GPa) = 15.87922 38.88644 27.38283
# Shear Modulus (GPa) = 24.25044 37.21219 30.73131
#
# Velocity S-wave (km/s) = 3.17767 3.93633 3.57717
# Velocity P-wave (km/s) = 4.48056 6.07054 5.33511
#
# Compressibility (1/GPa) = 0.06297540
#
# Stress axis : x y z
#
# Youngs Moduli (GPa) = 34.65850 65.12078 46.19208
#
# Poissons Ratio (x) = 0.16498 -0.04291
# Poissons Ratio (y) = 0.08780 -0.00755
# Poissons Ratio (z) = -0.03219 -0.01064
#
# Static dielectric constant tensor:
#      x y z
#    x 1.989060 0.031290 0.031910 
#    y 0.031290 1.910990 0.077290 
#    z 0.031910 0.077290 2.010540 
# 
# From -- ./inp_files/282957.got.cif
#   From: 2010.05.17/outbox.cif.g08.bks.cpg/sg2_142_cif.got.tgz:282957.got - 2010.06.03 11:33:40.
