data_PCOD9024938
_publ_section_title
;
Structure prediction by ZEFSAII (Michael W. Deem and Ramdas Pophale) SiO2 
 PCOD9024938
Probable space group: P -1
;
_chemical_formula_sum "Si O2"
_cell_formula_units_Z 16
_cell_length_a 12.022480
_cell_length_b 8.109830
_cell_length_c 11.823451
_cell_angle_alpha 63.323307
_cell_angle_beta 105.529419
_cell_angle_gamma 69.101895
_cell_volume 826.289957
_symmetry_space_group_name_H-M "P -1"
_symmetry_group_IT_number 2
_symmetry_cell_setting 'triclinic'
loop_
_space_group_symop_operation_xyz
x,y,z
-x,-y,-z
loop_
_atom_site_type_symbol
_atom_site_label
_atom_site_fract_x
_atom_site_fract_y
_atom_site_fract_z
Si Si1 0.889513 0.294794 0.278884
Si Si2 0.131468 0.730876 0.239570
Si Si3 0.692464 0.718985 0.685925
Si Si4 0.175779 0.868664 0.985645
Si Si5 0.641168 0.257916 0.127217
Si Si6 0.834800 0.191810 0.523992
Si Si7 0.595888 0.150641 0.381629
Si Si8 0.860736 0.524217 0.990758
O O1 0.767780 0.264010 0.213841
O O2 0.878370 0.306029 0.407688
O O3 0.861592 0.501011 0.133360
O O4 0.039746 0.071015 0.361263
O O5 0.182673 0.492256 0.278343
O O6 0.181558 0.718486 0.383151
O O7 0.190185 0.830913 0.135813
O O8 0.965893 0.895902 0.144263
O O9 0.565395 0.690454 0.679440
O O10 0.740925 0.729608 0.822494
O O11 0.645508 0.924972 0.529885
O O12 0.299202 0.839458 0.951349
O O13 0.147203 0.682460 0.991517
O O14 0.611787 0.133298 0.255032
O O15 0.500000 0.500000 0.000000
O O16 0.693221 0.224263 0.433864
O O17 0.000000 0.500000 0.000000
#
# Coordination Sequence:
#
# PCOD9024938 Si02
#       8
#     2   2   2   2   2   2   2   2
#     4   9  18  30  49  81 102 131 182 223 251 305
#     4  10  18  34  54  75 112 141 168 223 269 311
#     4  10  22  35  52  79 113 139 174 221 270 314
#     4   9  19  32  52  81 109 133 179 225 258 312
#     4  10  17  32  57  79 100 137 181 221 258 308
#     4  10  18  32  57  74 106 140 176 221 259 307
#     4  10  21  36  54  80 107 141 179 222 259 313
#     4  10  17  31  54  76 102 138 178 216 262 309
#
# _framework density 19.363662000000001
#
# number of rings (size 3 to 8) (size 9 to 14) (size 15 to 20)
#    0.000    2.250    2.500    3.000    0.000    0.500 
#    0.000    0.625    5.500    0.000    0.000    5.250 
#    0.000    0.000    0.000    0.000    0.000    0.000 
#
# Total GULP energy -89085.935787 kJ/mol
# GULP energy per Si atom -5567.870987 kJ/mol
# Density = 1.931959 g / cm^3
# Si number density = 19.363662 Si / 1000 Ang^3
#
#
#
# Elastic Constant Matrix: (Units=GPa)
#
#
# Indices 1 2 3 4 5 6 
#
# 1 70.7636 6.7694 35.8787 3.6416 -12.7764 -17.8341
# 2 6.7694 32.8388 22.7779 10.5857 -11.2208 -22.1871
# 3 35.8787 22.7779 146.1401 21.9524 -26.3281 -19.7803
# 4 3.6416 10.5857 21.9524 32.8821 -12.7169 -0.9649
# 5 -12.7764 -11.2208 -26.3281 -12.7169 41.6042 4.9945
# 6 -17.8341 -22.1871 -19.7803 -0.9649 4.9945 24.5883
#
#
#
# Elastic Compliance Matrix: (Units=1/GPa)
#
#
# Indices 1 2 3 4 5 6 
#
# 1 0.023868 0.025997 -0.002945 -0.005501 0.006367 0.036891
# 2 0.025997 0.132115 -0.000839 -0.034537 0.016602 0.132666
# 3 -0.002945 -0.000839 0.009433 -0.004419 0.003019 0.003909
# 4 -0.005501 -0.034537 -0.004419 0.045816 0.004750 -0.037877
# 5 0.006367 0.016602 0.003019 0.004750 0.031944 0.015725
# 6 0.036891 0.132666 0.003909 -0.037877 0.015725 0.185602
#
#
# Mechanical properties :
#
#
# Convention : Reuss Voigt Hill
#
# Bulk Modulus (GPa) = 4.76549 42.28828 23.52688
# Shear Modulus (GPa) = 11.00596 32.10268 21.55432
#
# Velocity S-wave (km/s) = 2.38666 4.07613 3.33998
# Velocity P-wave (km/s) = 3.17195 6.63623 5.20100
#
# Compressibility (1/GPa) = 0.20984217
#
# Stress axis : x y z
#
# Youngs Moduli (GPa) = 41.89705 7.56917 106.00693
#
# Poissons Ratio (x) = -0.19677 0.31219
# Poissons Ratio (y) = -1.08919 0.08892
# Poissons Ratio (z) = 0.12339 0.00635
#
# Static dielectric constant tensor:
#      x y z
#    x 1.688850 -0.008960 -0.032650 
#    y -0.008960 1.684850 0.022600 
#    z -0.032650 0.022600 1.760000 
# 
# From -- ./inp_files/391090.got.cif
#   From: 2010.05.17/outbox.cif.g08.bks.cpg/sg2_196_cif.got.tgz:391090.got - 2010.06.03 11:33:40.
