data_PCOD9024286
_publ_section_title
;
Structure prediction by ZEFSAII (Michael W. Deem and Ramdas Pophale) SiO2 
 PCOD9024286
Probable space group: P -1
;
_chemical_formula_sum "Si O2"
_cell_formula_units_Z 14
_cell_length_a 6.654669
_cell_length_b 16.355966
_cell_length_c 15.146212
_cell_angle_alpha 26.501659
_cell_angle_beta 132.211443
_cell_angle_gamma 133.558380
_cell_volume 525.270791
_symmetry_space_group_name_H-M "P -1"
_symmetry_group_IT_number 2
_symmetry_cell_setting 'triclinic'
loop_
_space_group_symop_operation_xyz
x,y,z
-x,-y,-z
loop_
_atom_site_type_symbol
_atom_site_label
_atom_site_fract_x
_atom_site_fract_y
_atom_site_fract_z
Si Si1 0.868151 0.578076 0.512378
Si Si2 0.727892 0.041346 0.425752
Si Si3 0.513845 0.813811 0.236661
Si Si4 0.472964 0.019578 0.191980
Si Si5 0.125209 0.224192 0.150929
Si Si6 0.677377 0.610451 0.225179
Si Si7 0.618907 0.427108 0.986256
O O1 0.806204 0.751124 0.382093
O O2 0.689006 0.369630 0.691986
O O3 0.742801 0.594928 0.361745
O O4 0.164835 0.535009 0.630835
O O5 0.737429 0.944952 0.616400
O O6 0.496712 0.967036 0.351968
O O7 0.000000 0.000000 0.500000
O O8 0.758846 0.265233 0.217617
O O9 0.406154 0.847264 0.270010
O O10 0.500000 0.000000 0.000000
O O11 0.789466 0.136923 0.137577
O O12 0.268998 0.159197 0.991816
O O13 0.238727 0.380654 0.108824
O O14 0.291541 0.333324 0.010144
O O15 0.385633 0.550707 0.141865
#
# Coordination Sequence:
#
# PCOD9024286 Si02
#       7
#     2   2   2   2   2   2   2
#     4  10  24  44  64  93 130 160 212 254 315 373
#     4   9  20  39  59  91 122 160 206 252 302 371
#     4  11  23  43  66  93 123 168 206 262 310 372
#     4  10  22  41  67  93 126 166 209 255 317 362
#     4  10  22  41  63  92 125 164 207 258 302 378
#     4  10  22  43  64  95 125 165 208 258 309 372
#     4  10  22  40  64  90 128 166 202 255 315 357
#
# _framework density 26.652919000000001
#
# number of rings (size 3 to 8) (size 9 to 14) (size 15 to 20)
#    0.000    2.000    1.429    0.429    4.000    5.714 
#   15.429    0.000    0.000    0.000    0.000    0.000 
#    0.000    0.000    0.000    0.000    0.000    0.000 
#
# Total GULP energy -78119.273591 kJ/mol
# GULP energy per Si atom -5579.948114 kJ/mol
# Density = 2.659226 g / cm^3
# Si number density = 26.652919 Si / 1000 Ang^3
#
#
#
# Elastic Constant Matrix: (Units=GPa)
#
#
# Indices 1 2 3 4 5 6 
#
# 1 72.0064 16.6084 35.0229 -9.3485 8.0913 7.5805
# 2 16.6084 71.7651 52.2742 -6.7316 10.3252 -20.2606
# 3 35.0229 52.2742 187.7734 4.0302 20.4472 -6.6058
# 4 -9.3485 -6.7316 4.0302 42.0154 -21.0263 -0.3005
# 5 8.0913 10.3252 20.4472 -21.0263 45.2167 -13.6608
# 6 7.5805 -20.2606 -6.6058 -0.3005 -13.6608 42.0872
#
#
#
# Elastic Compliance Matrix: (Units=1/GPa)
#
#
# Indices 1 2 3 4 5 6 
#
# 1 0.016870 -0.003316 -0.002286 0.002543 -0.001717 -0.005532
# 2 -0.003316 0.022080 -0.005699 0.005568 0.004270 0.011758
# 3 -0.002286 -0.005699 0.007865 -0.004595 -0.004794 -0.002686
# 4 0.002543 0.005568 -0.004595 0.035372 0.019213 0.007990
# 5 -0.001717 0.004270 -0.004794 0.019213 0.036675 0.013654
# 6 -0.005532 0.011758 -0.002686 0.007990 0.013654 0.034484
#
#
# Mechanical properties :
#
#
# Convention : Reuss Voigt Hill
#
# Bulk Modulus (GPa) = 41.29916 59.92843 50.61379
# Shear Modulus (GPa) = 27.17121 41.03981 34.10551
#
# Velocity S-wave (km/s) = 3.19634 3.92827 3.58105
# Velocity P-wave (km/s) = 5.39916 6.56572 6.01081
#
# Compressibility (1/GPa) = 0.02421357
#
# Stress axis : x y z
#
# Youngs Moduli (GPa) = 59.27818 45.28883 127.15070
#
# Poissons Ratio (x) = 0.15016 0.29062
# Poissons Ratio (y) = 0.19654 0.72468
# Poissons Ratio (z) = 0.13549 0.25812
#
# Static dielectric constant tensor:
#      x y z
#    x 2.348010 0.014370 -0.050500 
#    y 0.014370 2.073020 -0.019860 
#    z -0.050500 -0.019860 2.072040 
# 
# From -- ./inp_files/505161.got.cif
#   From: 2010.05.17/outbox.cif.g08.bks.cpg/sg2_253_cif.got.tgz:505161.got - 2010.06.03 11:33:40.
