data_PCOD9024655
_publ_section_title
;
Structure prediction by ZEFSAII (Michael W. Deem and Ramdas Pophale) SiO2 
 PCOD9024655
Probable space group: P -1
;
_chemical_formula_sum "Si O2"
_cell_formula_units_Z 16
_cell_length_a 6.057830
_cell_length_b 6.037391
_cell_length_c 23.290972
_cell_angle_alpha 67.296965
_cell_angle_beta 67.289892
_cell_angle_gamma 92.933765
_cell_volume 704.562237
_symmetry_space_group_name_H-M "P -1"
_symmetry_group_IT_number 2
_symmetry_cell_setting 'triclinic'
loop_
_space_group_symop_operation_xyz
x,y,z
-x,-y,-z
loop_
_atom_site_type_symbol
_atom_site_label
_atom_site_fract_x
_atom_site_fract_y
_atom_site_fract_z
Si Si1 0.673430 0.508418 0.342245
Si Si2 0.055479 0.891329 0.595425
Si Si3 0.304098 0.463181 0.153305
Si Si4 0.848596 0.006525 0.220777
Si Si5 0.057032 0.885416 0.096501
Si Si6 0.799808 0.631385 0.033182
Si Si7 0.801149 0.636847 0.530646
Si Si8 0.422583 0.252264 0.277607
O O1 0.803597 0.301578 0.373474
O O2 0.459971 0.528983 0.406690
O O3 0.551727 0.405231 0.304055
O O4 0.850213 0.771619 0.284157
O O5 0.919282 0.772914 0.563101
O O6 0.838120 0.913084 0.658396
O O7 0.224872 0.153407 0.533491
O O8 0.223164 0.714965 0.123324
O O9 0.534392 0.457339 0.089823
O O10 0.377712 0.435612 0.214248
O O11 0.074192 0.236687 0.187371
O O12 0.599130 0.089881 0.250930
O O13 0.876994 0.935976 0.159144
O O14 0.904015 0.743719 0.072786
O O15 0.213320 0.142778 0.029828
O O16 0.000000 0.500000 0.000000
O O17 0.000000 0.500000 0.500000
#
# Coordination Sequence:
#
# PCOD9024655 Si02
#       8
#     2   2   2   2   2   2   2   2
#     4  11  24  43  66  95 132 173 217 266 322 383
#     4  10  22  41  65  95 128 169 219 268 319 380
#     4  12  25  43  67  96 131 169 213 263 321 383
#     4  12  25  41  65  97 130 170 215 263 321 383
#     4  11  25  44  68  97 129 167 214 264 322 382
#     4  11  25  47  70  96 130 168 213 265 321 384
#     4  10  22  40  65  96 130 169 215 269 324 378
#     4  11  24  43  65  92 132 171 216 267 320 382
#
# _framework density 22.709133999999999
#
# number of rings (size 3 to 8) (size 9 to 14) (size 15 to 20)
#    0.000    1.000    0.000    6.750    0.000   10.500 
#    0.000    1.250    0.000    0.000    0.000    0.000 
#    0.000    0.000    0.000    0.000    0.000    0.000 
#
# Total GULP energy -89640.935687 kJ/mol
# GULP energy per Si atom -5602.558480 kJ/mol
# Density = 2.265745 g / cm^3
# Si number density = 22.709134 Si / 1000 Ang^3
#
#
#
# Elastic Constant Matrix: (Units=GPa)
#
#
# Indices 1 2 3 4 5 6 
#
# 1 75.6642 39.7938 64.6070 5.5354 19.3359 -21.0624
# 2 39.7938 83.8129 66.2787 16.2620 10.4760 -26.4817
# 3 64.6070 66.2787 189.7450 6.9587 6.8636 -20.9944
# 4 5.5354 16.2620 6.9587 46.4335 -26.0885 -2.8392
# 5 19.3359 10.4760 6.8636 -26.0885 38.0916 -4.4651
# 6 -21.0624 -26.4817 -20.9944 -2.8392 -4.4651 30.7527
#
#
#
# Elastic Compliance Matrix: (Units=1/GPa)
#
#
# Indices 1 2 3 4 5 6 
#
# 1 0.029128 0.001793 -0.007906 -0.015039 -0.022819 0.011394
# 2 0.001793 0.027152 -0.007106 -0.017320 -0.017122 0.015673
# 3 -0.007906 -0.007106 0.009552 0.006466 0.008299 -0.003212
# 4 -0.015039 -0.017320 0.006466 0.054639 0.047617 -0.008842
# 5 -0.022819 -0.017122 0.008299 0.047617 0.072515 -0.009782
# 6 0.011394 0.015673 -0.003212 -0.008842 -0.009782 0.049389
#
#
# Mechanical properties :
#
#
# Convention : Reuss Voigt Hill
#
# Bulk Modulus (GPa) = 25.38542 76.73125 51.05833
# Shear Modulus (GPa) = 17.73400 34.95841 26.34620
#
# Velocity S-wave (km/s) = 2.79752 3.92777 3.40981
# Velocity P-wave (km/s) = 4.65163 7.37780 6.16723
#
# Compressibility (1/GPa) = 0.03939269
#
# Stress axis : x y z
#
# Youngs Moduli (GPa) = 34.33162 36.82937 104.69108
#
# Poissons Ratio (x) = -0.06604 0.82774
# Poissons Ratio (y) = -0.06156 0.74396
# Poissons Ratio (z) = 0.27144 0.26172
#
# Static dielectric constant tensor:
#      x y z
#    x 1.824510 0.011230 -0.008950 
#    y 0.011230 1.820290 -0.005850 
#    z -0.008950 -0.005850 1.838280 
# 
# From -- ./inp_files/10569.got.cif
#   From: 2010.05.17/outbox.cif.g08.bks.cpg/sg2_6_cif.got.tgz:10569.got - 2010.06.03 11:33:40.
