data_PCOD9024517
_publ_section_title
;
Structure prediction by ZEFSAII (Michael W. Deem and Ramdas Pophale) SiO2 
 PCOD9024517
Probable space group: P -1
;
_chemical_formula_sum "Si O2"
_cell_formula_units_Z 16
_cell_length_a 9.390354
_cell_length_b 21.706598
_cell_length_c 7.990325
_cell_angle_alpha 47.503743
_cell_angle_beta 73.129803
_cell_angle_gamma 108.359924
_cell_volume 792.396703
_symmetry_space_group_name_H-M "P -1"
_symmetry_group_IT_number 2
_symmetry_cell_setting 'triclinic'
loop_
_space_group_symop_operation_xyz
x,y,z
-x,-y,-z
loop_
_atom_site_type_symbol
_atom_site_label
_atom_site_fract_x
_atom_site_fract_y
_atom_site_fract_z
Si Si1 0.463137 0.669404 0.314960
Si Si2 0.089111 0.610641 0.651899
Si Si3 0.242757 0.294699 0.127365
Si Si4 0.246380 0.916391 0.437352
Si Si5 0.657946 0.511626 0.041684
Si Si6 0.767410 0.935265 0.633835
Si Si7 0.441913 0.843867 0.336240
Si Si8 0.767351 0.872499 0.373756
O O1 0.230795 0.618178 0.453315
O O2 0.444878 0.608681 0.603149
O O3 0.571898 0.658292 0.152492
O O4 0.612597 0.811614 0.018493
O O5 0.251981 0.734971 0.477402
O O6 0.000000 0.500000 0.000000
O O7 0.872680 0.573106 0.752601
O O8 0.240677 0.229445 0.403331
O O9 0.008006 0.189214 0.318686
O O10 0.271459 0.398528 0.996509
O O11 0.338629 0.861457 0.482450
O O12 0.272111 0.983091 0.471147
O O13 0.378915 0.026334 0.056381
O O14 0.500000 0.500000 0.000000
O O15 0.737227 0.900350 0.516061
O O16 0.000000 0.000000 0.500000
O O17 0.574569 0.823435 0.412069
O O18 0.000000 0.000000 0.000000
#
# Coordination Sequence:
#
# PCOD9024517 Si02
#       8
#     2   2   2   2   2   2   2   2
#     4  10  22  41  64  87 126 169 202 248 317 372
#     4  10  22  40  65  85 121 168 207 250 315 367
#     4  11  22  41  65  93 127 163 208 253 317 373
#     4  11  21  38  63  92 127 168 198 252 324 373
#     4  11  25  43  65  94 119 163 217 264 300 371
#     4  11  20  38  63  91 127 164 202 248 316 372
#     4  11  22  39  62  90 129 164 206 260 305 375
#     4  11  23  36  62  95 122 163 209 254 304 379
#
# _framework density 20.191907
#
# number of rings (size 3 to 8) (size 9 to 14) (size 15 to 20)
#    0.000    1.250    6.250    0.375    3.500    0.500 
#    0.000    3.125    0.000    0.000    0.000    0.000 
#    0.000    0.000    0.000    0.000    0.000    0.000 
#
# Total GULP energy -89231.389013 kJ/mol
# GULP energy per Si atom -5576.961813 kJ/mol
# Density = 2.014595 g / cm^3
# Si number density = 20.191907 Si / 1000 Ang^3
#
#
#
# Elastic Constant Matrix: (Units=GPa)
#
#
# Indices 1 2 3 4 5 6 
#
# 1 102.1229 3.1510 40.0496 7.5354 -20.3778 -4.9804
# 2 3.1510 62.9441 18.7542 -4.7630 -1.9717 -17.3154
# 3 40.0496 18.7542 108.7410 -0.8619 -16.4166 -4.3292
# 4 7.5354 -4.7630 -0.8619 24.4341 -8.6246 -2.5807
# 5 -20.3778 -1.9717 -16.4166 -8.6246 34.4097 6.1381
# 6 -4.9804 -17.3154 -4.3292 -2.5807 6.1381 34.1876
#
#
#
# Elastic Compliance Matrix: (Units=1/GPa)
#
#
# Indices 1 2 3 4 5 6 
#
# 1 0.012492 0.000738 -0.003977 -0.002045 0.004914 0.000654
# 2 0.000738 0.019993 -0.003394 0.004361 -0.000775 0.010272
# 3 -0.003977 -0.003394 0.011794 0.002205 0.003868 -0.001333
# 4 -0.002045 0.004361 0.002205 0.046818 0.011162 0.003720
# 5 0.004914 -0.000775 0.003868 0.011162 0.037475 -0.005073
# 6 0.000654 0.010272 -0.001333 0.003720 -0.005073 0.035571
#
#
# Mechanical properties :
#
#
# Convention : Reuss Voigt Hill
#
# Bulk Modulus (GPa) = 32.24162 44.19086 38.21624
# Shear Modulus (GPa) = 26.63174 32.72981 29.68078
#
# Velocity S-wave (km/s) = 3.63565 4.03045 3.83813
# Velocity P-wave (km/s) = 5.79881 6.60245 6.21364
#
# Compressibility (1/GPa) = 0.03101581
#
# Stress axis : x y z
#
# Youngs Moduli (GPa) = 80.05014 50.01807 84.78572
#
# Poissons Ratio (x) = -0.03693 0.33716
# Poissons Ratio (y) = -0.05911 0.28773
# Poissons Ratio (z) = 0.31833 0.16974
#
# Static dielectric constant tensor:
#      x y z
#    x 1.735120 -0.041550 -0.023350 
#    y -0.041550 1.748770 0.014360 
#    z -0.023350 0.014360 1.763440 
# 
# From -- ./inp_files/225218.got.cif
#   From: 2010.05.17/outbox.cif.g08.bks.cpg/sg2_113_cif.got.tgz:225218.got - 2010.06.03 11:33:40.
