data_PCOD9024630
_publ_section_title
;
Structure prediction by ZEFSAII (Michael W. Deem and Ramdas Pophale) SiO2 
 PCOD9024630
Probable space group: P -1
;
_chemical_formula_sum "Si O2"
_cell_formula_units_Z 16
_cell_length_a 14.277661
_cell_length_b 17.125339
_cell_length_c 9.278773
_cell_angle_alpha 101.901868
_cell_angle_beta 68.942749
_cell_angle_gamma 156.146651
_cell_volume 809.945225
_symmetry_space_group_name_H-M "P -1"
_symmetry_group_IT_number 2
_symmetry_cell_setting 'triclinic'
loop_
_space_group_symop_operation_xyz
x,y,z
-x,-y,-z
loop_
_atom_site_type_symbol
_atom_site_label
_atom_site_fract_x
_atom_site_fract_y
_atom_site_fract_z
Si Si1 0.067914 0.160424 0.887073
Si Si2 0.019320 0.443213 0.083031
Si Si3 0.388759 0.240593 0.817070
Si Si4 0.534195 0.986745 0.632322
Si Si5 0.496300 0.216264 0.464719
Si Si6 0.336524 0.521081 0.957495
Si Si7 0.195576 0.088868 0.336381
Si Si8 0.067582 0.591420 0.345543
O O1 0.270961 0.236772 0.819602
O O2 0.190306 0.332590 0.934540
O O3 0.959989 0.081087 0.753501
O O4 0.833418 0.966045 0.047820
O O5 0.734847 0.211761 0.208264
O O6 0.168519 0.594326 0.190618
O O7 0.000000 0.500000 0.000000
O O8 0.173501 0.476777 0.971465
O O9 0.459062 0.235395 0.642840
O O10 0.607796 0.422884 0.882216
O O11 0.616044 0.955558 0.546735
O O12 0.500000 0.000000 0.500000
O O13 0.740246 0.194577 0.671460
O O14 0.367514 0.168936 0.387759
O O15 0.801096 0.426989 0.363653
O O16 0.610586 0.719904 0.800357
O O17 0.000000 0.000000 0.500000
O O18 0.000000 0.500000 0.500000
#
# Coordination Sequence:
#
# PCOD9024630 Si02
#       8
#     2   2   2   2   2   2   2   2
#     4  10  23  43  64  92 130 171 220 267 326 388
#     4  11  25  43  65  97 139 173 220 277 330 396
#     4  10  22  40  65  95 130 167 216 281 319 379
#     4  11  24  41  68 100 130 173 225 269 332 402
#     4  11  23  40  69  96 132 173 218 267 339 378
#     4  11  24  40  69  95 129 176 221 260 337 391
#     4  11  24  46  63  92 134 174 214 274 319 394
#     4  11  22  42  66  97 136 169 219 278 322 393
#
# _framework density 19.754422999999999
#
# number of rings (size 3 to 8) (size 9 to 14) (size 15 to 20)
#    0.000    1.250    3.750    2.625    1.750    4.000 
#    2.250    0.000    0.000    0.000    0.000    0.000 
#    0.000    0.000    0.000    0.000    0.000    0.000 
#
# Total GULP energy -89364.788298 kJ/mol
# GULP energy per Si atom -5585.299269 kJ/mol
# Density = 1.970946 g / cm^3
# Si number density = 19.754423 Si / 1000 Ang^3
#
#
#
# Elastic Constant Matrix: (Units=GPa)
#
#
# Indices 1 2 3 4 5 6 
#
# 1 85.8622 60.4826 37.5357 5.6739 -4.6845 0.6472
# 2 60.4826 160.3314 44.9797 23.6789 -6.7228 -26.5997
# 3 37.5357 44.9797 104.0594 12.6527 -6.5472 -10.4577
# 4 5.6739 23.6789 12.6527 30.2681 -0.7298 -3.3710
# 5 -4.6845 -6.7228 -6.5472 -0.7298 38.5297 11.4654
# 6 0.6472 -26.5997 -10.4577 -3.3710 11.4654 37.9987
#
#
#
# Elastic Compliance Matrix: (Units=1/GPa)
#
#
# Indices 1 2 3 4 5 6 
#
# 1 0.018835 -0.007424 -0.004575 0.003446 0.002426 -0.007203
# 2 -0.007424 0.011436 -0.000799 -0.006389 -0.001483 0.007793
# 3 -0.004575 -0.000799 0.012297 -0.003374 0.000610 0.002420
# 4 0.003446 -0.006389 -0.003374 0.038573 0.000075 -0.002060
# 5 0.002426 -0.001483 0.000610 0.000075 0.028965 -0.009645
# 6 -0.007203 0.007793 0.002420 -0.002060 -0.009645 0.035288
#
#
# Mechanical properties :
#
#
# Convention : Reuss Voigt Hill
#
# Bulk Modulus (GPa) = 58.91861 70.69434 64.80647
# Shear Modulus (GPa) = 28.30492 35.17630 31.74061
#
# Velocity S-wave (km/s) = 3.78939 4.22439 4.01279
# Velocity P-wave (km/s) = 7.00259 7.72387 7.37206
#
# Compressibility (1/GPa) = 0.01697257
#
# Stress axis : x y z
#
# Youngs Moduli (GPa) = 53.09187 87.44391 81.31864
#
# Poissons Ratio (x) = 0.64918 0.37207
# Poissons Ratio (y) = 0.39415 0.06494
# Poissons Ratio (z) = 0.24292 0.06983
#
# Static dielectric constant tensor:
#      x y z
#    x 1.668220 0.002650 -0.022270 
#    y 0.002650 1.729800 0.022520 
#    z -0.022270 0.022520 1.702030 
# 
# From -- ./inp_files/273343.got.cif
#   From: 2010.05.17/outbox.cif.g08.bks.cpg/sg2_137_cif.got.tgz:273343.got - 2010.06.03 11:33:40.
