data_PCOD9024549
_publ_section_title
;
Structure prediction by ZEFSAII (Michael W. Deem and Ramdas Pophale) SiO2 
 PCOD9024549
Probable space group: P -1
;
_chemical_formula_sum "Si O2"
_cell_formula_units_Z 16
_cell_length_a 11.642619
_cell_length_b 14.116195
_cell_length_c 8.408288
_cell_angle_alpha 127.131215
_cell_angle_beta 35.188510
_cell_angle_gamma 113.960823
_cell_volume 623.343337
_symmetry_space_group_name_H-M "P -1"
_symmetry_group_IT_number 2
_symmetry_cell_setting 'triclinic'
loop_
_space_group_symop_operation_xyz
x,y,z
-x,-y,-z
loop_
_atom_site_type_symbol
_atom_site_label
_atom_site_fract_x
_atom_site_fract_y
_atom_site_fract_z
Si Si1 0.181924 0.738371 0.088013
Si Si2 0.781428 0.503486 0.333621
Si Si3 0.229495 0.812632 0.603786
Si Si4 0.230037 0.246186 0.274682
Si Si5 0.399745 0.915191 0.202183
Si Si6 0.377783 0.295693 0.806754
Si Si7 0.127069 0.165756 0.750017
Si Si8 0.208948 0.541784 0.350280
O O1 0.009290 0.738471 0.417801
O O2 0.030002 0.789014 0.166226
O O3 0.326645 0.827338 0.067072
O O4 0.298417 0.602452 0.778554
O O5 0.695735 0.645843 0.600408
O O6 0.796525 0.459549 0.454210
O O7 0.000000 0.500000 0.000000
O O8 0.299723 0.885593 0.453786
O O9 0.402219 0.789123 0.522423
O O10 0.227746 0.674883 0.411705
O O11 0.014838 0.865186 0.977129
O O12 0.361698 0.122641 0.067827
O O13 0.281187 0.261926 0.048910
O O14 0.301771 0.050642 0.404090
O O15 0.240843 0.269720 0.790444
O O16 0.375389 0.437798 0.974251
O O17 0.000000 0.500000 0.500000
#
# Coordination Sequence:
#
# PCOD9024549 Si02
#       8
#     2   2   2   2   2   2   2   2
#     4  11  22  41  63  88 124 165 206 255 305 365
#     4   9  19  36  62  90 122 157 201 246 314 366
#     4  11  23  40  63  96 121 162 207 255 310 359
#     4   9  22  41  62  92 120 163 202 254 314 359
#     4  11  26  41  62  90 126 167 211 247 303 371
#     4  10  22  40  65  91 127 159 204 257 306 369
#     4  12  24  42  62  92 124 168 207 252 307 359
#     4  11  19  37  64  93 125 155 201 257 312 364
#
# _framework density 25.668035
#
# number of rings (size 3 to 8) (size 9 to 14) (size 15 to 20)
#    0.000    1.500    2.500    1.875    3.500    5.000 
#    0.000    0.000    0.000    0.000    0.000    0.000 
#    0.000    0.000    0.000    0.000    0.000    0.000 
#
# Total GULP energy -89592.252672 kJ/mol
# GULP energy per Si atom -5599.515792 kJ/mol
# Density = 2.560961 g / cm^3
# Si number density = 25.668035 Si / 1000 Ang^3
#
#
#
# Elastic Constant Matrix: (Units=GPa)
#
#
# Indices 1 2 3 4 5 6 
#
# 1 93.4172 -4.2705 18.6371 -3.4156 -10.5577 0.7423
# 2 -4.2705 42.3119 10.7285 -6.6079 -0.7414 -19.7471
# 3 18.6371 10.7285 100.7984 13.7602 -5.6523 -7.6493
# 4 -3.4156 -6.6079 13.7602 36.8695 -5.8452 -5.3499
# 5 -10.5577 -0.7414 -5.6523 -5.8452 24.5928 5.9414
# 6 0.7423 -19.7471 -7.6493 -5.3499 5.9414 34.2425
#
#
#
# Elastic Compliance Matrix: (Units=1/GPa)
#
#
# Indices 1 2 3 4 5 6 
#
# 1 0.012099 0.002676 -0.002674 0.003500 0.005422 0.000290
# 2 0.002676 0.037346 -0.004427 0.011640 -0.001426 0.022556
# 3 -0.002674 -0.004427 0.011583 -0.005436 0.000284 -0.000806
# 4 0.003500 0.011640 -0.005436 0.033966 0.006351 0.009627
# 5 0.005422 -0.001426 0.000284 0.006351 0.046440 -0.007942
# 6 0.000290 0.022556 -0.000806 0.009627 -0.007942 0.044907
#
#
# Mechanical properties :
#
#
# Convention : Reuss Voigt Hill
#
# Bulk Modulus (GPa) = 19.16484 31.85750 25.51117
# Shear Modulus (GPa) = 23.52011 33.23646 28.37828
#
# Velocity S-wave (km/s) = 3.03036 3.60232 3.32865
# Velocity P-wave (km/s) = 4.44148 5.45349 4.97329
#
# Compressibility (1/GPa) = 0.05217888
#
# Stress axis : x y z
#
# Youngs Moduli (GPa) = 82.65264 26.77628 86.33241
#
# Poissons Ratio (x) = -0.07165 0.23081
# Poissons Ratio (y) = -0.22116 0.38219
# Poissons Ratio (z) = 0.22098 0.11854
#
# Static dielectric constant tensor:
#      x y z
#    x 2.006460 0.003320 -0.017030 
#    y 0.003320 2.022200 -0.017340 
#    z -0.017030 -0.017340 2.053890 
# 
# From -- ./inp_files/272056.got.cif
#   From: 2010.05.17/outbox.cif.g08.bks.cpg/sg2_137_cif.got.tgz:272056.got - 2010.06.03 11:33:40.
