data_PCOD9024033
_publ_section_title
;
Structure prediction by ZEFSAII (Michael W. Deem and Ramdas Pophale) SiO2 
 PCOD9024033
Probable space group: P -1
;
_chemical_formula_sum "Si O2"
_cell_formula_units_Z 12
_cell_length_a 6.868186
_cell_length_b 9.748031
_cell_length_c 13.606456
_cell_angle_alpha 35.222083
_cell_angle_beta 101.411603
_cell_angle_gamma 91.012041
_cell_volume 498.033223
_symmetry_space_group_name_H-M "P -1"
_symmetry_group_IT_number 2
_symmetry_cell_setting 'triclinic'
loop_
_space_group_symop_operation_xyz
x,y,z
-x,-y,-z
loop_
_atom_site_type_symbol
_atom_site_label
_atom_site_fract_x
_atom_site_fract_y
_atom_site_fract_z
Si Si1 0.517470 0.315609 0.199473
Si Si2 0.108368 0.115625 0.529177
Si Si3 0.162698 0.542640 0.158196
Si Si4 0.427588 0.350665 0.826201
Si Si5 0.832051 0.971022 0.919257
Si Si6 0.841481 0.346949 0.540646
O O1 0.658206 0.051595 0.339014
O O2 0.289414 0.351791 0.201336
O O3 0.635921 0.423351 0.234285
O O4 0.500000 0.500000 0.000000
O O5 0.120786 0.383494 0.338171
O O6 0.000000 0.000000 0.500000
O O7 0.973542 0.145642 0.595870
O O8 0.329418 0.691506 0.117077
O O9 0.954171 0.741012 0.997765
O O10 0.335391 0.464431 0.647947
O O11 0.345032 0.126910 0.988690
O O12 0.000000 0.000000 0.000000
O O13 0.769229 0.207795 0.705436
O O14 0.000000 0.500000 0.500000
#
# Coordination Sequence:
#
# PCOD9024033 Si02
#       6
#     2   2   2   2   2   2
#     4  10  22  40  63 100 135 170 231 276 335 400
#     4  12  21  42  71  99 139 183 224 283 339 407
#     4  10  23  43  65  99 140 171 232 284 332 407
#     4  10  24  45  65 101 135 174 233 276 343 396
#     4  12  23  45  70  95 139 182 228 282 340 412
#     4  12  24  45  71 101 138 181 228 284 345 403
#
# _framework density 24.094777000000001
#
# number of rings (size 3 to 8) (size 9 to 14) (size 15 to 20)
#    1.000    0.000    5.000    1.500    0.000    3.333 
#    0.000    5.000    0.000    0.000    0.000    0.000 
#    0.000    0.000    0.000    0.000    0.000    0.000 
#
# Total GULP energy -67089.053883 kJ/mol
# GULP energy per Si atom -5590.754490 kJ/mol
# Density = 2.403994 g / cm^3
# Si number density = 24.094777 Si / 1000 Ang^3
#
#
#
# Elastic Constant Matrix: (Units=GPa)
#
#
# Indices 1 2 3 4 5 6 
#
# 1 102.0519 15.3780 37.8612 -1.5814 -18.8686 -17.3042
# 2 15.3780 71.8740 5.8352 3.2422 -2.5428 -5.6804
# 3 37.8612 5.8352 182.6497 10.3544 -24.1619 1.7403
# 4 -1.5814 3.2422 10.3544 37.3915 1.1191 -1.0719
# 5 -18.8686 -2.5428 -24.1619 1.1191 41.2165 -10.0896
# 6 -17.3042 -5.6804 1.7403 -1.0719 -10.0896 40.3336
#
#
#
# Elastic Compliance Matrix: (Units=1/GPa)
#
#
# Indices 1 2 3 4 5 6 
#
# 1 0.013260 -0.001939 -0.001966 0.001284 0.006518 0.007165
# 2 -0.001939 0.014498 0.000053 -0.001329 0.000385 0.001269
# 3 -0.001966 0.000053 0.006362 -0.001946 0.002771 -0.000469
# 4 0.001284 -0.001329 -0.001946 0.027513 -0.001165 0.000887
# 5 0.006518 0.000385 0.002771 -0.001165 0.031517 0.010584
# 6 0.007165 0.001269 -0.000469 0.000887 0.010584 0.030737
#
#
# Mechanical properties :
#
#
# Convention : Reuss Voigt Hill
#
# Bulk Modulus (GPa) = 37.85421 52.74713 45.30067
# Shear Modulus (GPa) = 35.61380 43.62174 39.61777
#
# Velocity S-wave (km/s) = 3.84874 4.25952 4.05933
# Velocity P-wave (km/s) = 5.95777 6.79194 6.38848
#
# Compressibility (1/GPa) = 0.02641714
#
# Stress axis : x y z
#
# Youngs Moduli (GPa) = 75.41334 68.97727 157.18158
#
# Poissons Ratio (x) = 0.13372 0.30895
# Poissons Ratio (y) = 0.14619 -0.00830
# Poissons Ratio (z) = 0.14823 -0.00364
#
# Static dielectric constant tensor:
#      x y z
#    x 1.940150 -0.084940 0.010220 
#    y -0.084940 2.051610 -0.009660 
#    z 0.010220 -0.009660 1.864780 
# 
# From -- ./inp_files/373308.got.cif
#   From: 2010.05.17/outbox.cif.g08.bks.cpg/sg2_187_cif.got.tgz:373308.got - 2010.06.03 11:33:40.
