data_PCOD9024022
_publ_section_title
;
Structure prediction by ZEFSAII (Michael W. Deem and Ramdas Pophale) SiO2 
 PCOD9024022
Probable space group: P -1
;
_chemical_formula_sum "Si O2"
_cell_formula_units_Z 16
_cell_length_a 20.291923
_cell_length_b 9.338939
_cell_length_c 7.952052
_cell_angle_alpha 101.965023
_cell_angle_beta 120.644972
_cell_angle_gamma 125.621986
_cell_volume 730.344465
_symmetry_space_group_name_H-M "P -1"
_symmetry_group_IT_number 2
_symmetry_cell_setting 'triclinic'
loop_
_space_group_symop_operation_xyz
x,y,z
-x,-y,-z
loop_
_atom_site_type_symbol
_atom_site_label
_atom_site_fract_x
_atom_site_fract_y
_atom_site_fract_z
Si Si1 0.909123 0.237194 0.098430
Si Si2 0.032537 0.349254 0.648839
Si Si3 0.368637 0.203521 0.209971
Si Si4 0.754537 0.503453 0.911077
Si Si5 0.495302 0.097085 0.277219
Si Si6 0.081584 0.276197 0.160789
Si Si7 0.661095 0.400267 0.231325
Si Si8 0.240655 0.207985 0.793244
O O1 0.936930 0.452274 0.168321
O O2 0.977158 0.298981 0.379558
O O3 0.981832 0.253283 0.059081
O O4 0.752154 0.965172 0.855776
O O5 0.167752 0.469034 0.843162
O O6 0.911857 0.071067 0.508352
O O7 0.500000 0.500000 0.500000
O O8 0.403373 0.086801 0.214527
O O9 0.315333 0.182618 0.956812
O O10 0.606482 0.236493 0.595625
O O11 0.844336 0.610839 0.892273
O O12 0.758419 0.675563 0.021717
O O13 0.575105 0.281487 0.260930
O O14 0.419235 0.834251 0.052236
O O15 0.200255 0.455215 0.494941
O O16 0.000000 0.000000 0.000000
O O17 0.691496 0.599464 0.224166
#
# Coordination Sequence:
#
# PCOD9024022 Si02
#       8
#     2   2   2   2   2   2   2   2
#     4  10  24  40  66  94 129 174 207 264 331 366
#     4  10  22  40  62  98 127 164 215 269 316 377
#     4  11  23  42  65  93 131 170 213 264 310 392
#     4  11  22  39  64  94 126 166 215 265 308 384
#     4  10  24  44  65  93 131 171 215 255 326 380
#     4  11  22  39  66  92 127 168 212 264 321 377
#     4  10  24  42  67  96 126 171 213 266 313 387
#     4  11  22  39  68  97 128 166 217 263 323 373
#
# _framework density 21.907471000000001
#
# number of rings (size 3 to 8) (size 9 to 14) (size 15 to 20)
#    0.000    1.500    1.250    3.375    8.750    2.500 
#    0.000    0.000    0.000    0.000    0.000    0.000 
#    0.000    0.000    0.000    0.000    0.000    0.000 
#
# Total GULP energy -89506.361488 kJ/mol
# GULP energy per Si atom -5594.147593 kJ/mol
# Density = 2.185761 g / cm^3
# Si number density = 21.907471 Si / 1000 Ang^3
#
#
#
# Elastic Constant Matrix: (Units=GPa)
#
#
# Indices 1 2 3 4 5 6 
#
# 1 72.1681 0.8709 16.3345 11.1563 17.0452 13.4070
# 2 0.8709 84.1755 27.9857 24.2130 8.6272 16.3635
# 3 16.3345 27.9857 138.7307 11.5296 15.2766 -3.4104
# 4 11.1563 24.2130 11.5296 33.7368 -5.9358 1.0656
# 5 17.0452 8.6272 15.2766 -5.9358 35.2981 0.1700
# 6 13.4070 16.3635 -3.4104 1.0656 0.1700 35.2471
#
#
#
# Elastic Compliance Matrix: (Units=1/GPa)
#
#
# Indices 1 2 3 4 5 6 
#
# 1 0.022100 0.008468 -0.001775 -0.014939 -0.014428 -0.011988
# 2 0.008468 0.021978 -0.002908 -0.019166 -0.011362 -0.013071
# 3 -0.001775 -0.002908 0.008369 -0.000660 -0.002179 0.002865
# 4 -0.014939 -0.019166 -0.000660 0.051823 0.020837 0.012849
# 5 -0.014428 -0.011362 -0.002179 0.020837 0.042475 0.009717
# 6 -0.011988 -0.013071 0.002865 0.012849 0.009717 0.038841
#
#
# Mechanical properties :
#
#
# Convention : Reuss Voigt Hill
#
# Bulk Modulus (GPa) = 16.66187 42.82851 29.74519
# Shear Modulus (GPa) = 25.24985 37.51527 31.38256
#
# Velocity S-wave (km/s) = 3.39863 4.14266 3.78895
# Velocity P-wave (km/s) = 4.79823 6.51723 5.72264
#
# Compressibility (1/GPa) = 0.06001728
#
# Stress axis : x y z
#
# Youngs Moduli (GPa) = 45.24850 45.50058 119.48828
#
# Poissons Ratio (x) = -0.38528 0.21206
# Poissons Ratio (y) = -0.38315 0.34745
# Poissons Ratio (z) = 0.08030 0.13231
#
# Static dielectric constant tensor:
#      x y z
#    x 1.617400 -0.264590 0.086540 
#    y -0.264590 1.311640 0.111320 
#    z 0.086540 0.111320 1.764540 
# 
# From -- ./inp_files/254876.got.cif
#   From: 2010.05.17/outbox.cif.g08.bks.cpg/sg2_128_cif.got.tgz:254876.got - 2010.06.03 11:33:40.
