data_PCOD9024717
_publ_section_title
;
Structure prediction by ZEFSAII (Michael W. Deem and Ramdas Pophale) SiO2 
 PCOD9024717
Probable space group: P -1
;
_chemical_formula_sum "Si O2"
_cell_formula_units_Z 15
_cell_length_a 8.951411
_cell_length_b 9.589431
_cell_length_c 21.405578
_cell_angle_alpha 35.948907
_cell_angle_beta 136.613646
_cell_angle_gamma 145.601162
_cell_volume 599.763463
_symmetry_space_group_name_H-M "P -1"
_symmetry_group_IT_number 2
_symmetry_cell_setting 'triclinic'
loop_
_space_group_symop_operation_xyz
x,y,z
-x,-y,-z
loop_
_atom_site_type_symbol
_atom_site_label
_atom_site_fract_x
_atom_site_fract_y
_atom_site_fract_z
Si Si1 0.797977 0.673585 0.140225
Si Si2 0.200105 0.121495 0.440948
Si Si3 0.734324 0.315560 0.762661
Si Si4 0.542402 0.012208 0.326067
Si Si5 0.050826 0.980354 0.236348
Si Si6 0.664235 0.093460 0.949153
Si Si7 0.000000 0.500000 0.000000
Si Si8 0.179584 0.389019 0.580498
O O1 0.068152 0.784325 0.145233
O O2 0.644682 0.330282 0.217211
O O3 0.875808 0.782699 0.195724
O O4 0.642963 0.808750 0.024346
O O5 0.113218 0.338520 0.325726
O O6 0.270325 0.039202 0.557522
O O7 0.506003 0.340291 0.425439
O O8 0.966151 0.815088 0.450212
O O9 0.558082 0.189014 0.692616
O O10 0.595995 0.205237 0.828011
O O11 0.302967 0.960922 0.316517
O O12 0.100339 0.293863 0.129558
O O13 0.891386 0.833705 0.304133
O O14 0.951277 0.359286 0.965769
O O15 0.500000 0.000000 0.000000
O O16 0.000000 0.500000 0.500000
#
# Coordination Sequence:
#
# PCOD9024717 Si02
#       8
#     2   2   2   2   2   2   1   2
#     4  10  24  43  71  98 146 190 241 301 369 440
#     4  12  28  44  76 108 149 198 250 303 364 444
#     4  11  27  45  68 106 141 193 241 301 369 442
#     4  11  24  45  68  97 143 192 245 294 367 437
#     4  10  22  40  67 102 141 190 241 303 368 439
#     4  11  24  44  72 103 140 183 245 304 369 438
#     4  10  22  40  66 100 138 174 232 306 364 426
#     4  12  25  45  73 109 151 193 248 307 375 430
#
# _framework density 25.00986
#
# number of rings (size 3 to 8) (size 9 to 14) (size 15 to 20)
#    0.000    1.067    1.333    3.600    9.333    2.133 
#    0.000    0.000    0.000    0.000    0.000    0.000 
#    0.000    0.000    0.000    0.000    0.000    0.000 
#
# Total GULP energy -83541.654807 kJ/mol
# GULP energy per Si atom -5569.443654 kJ/mol
# Density = 2.495294 g / cm^3
# Si number density = 25.009860 Si / 1000 Ang^3
#
#
#
# Elastic Constant Matrix: (Units=GPa)
#
#
# Indices 1 2 3 4 5 6 
#
# 1 80.7759 19.2268 59.2128 25.2561 -6.8215 4.4119
# 2 19.2268 22.2784 -22.0811 -21.0998 16.5898 -5.8749
# 3 59.2128 -22.0811 138.7478 -10.5248 7.9320 -5.9990
# 4 25.2561 -21.0998 -10.5248 15.0863 -5.0450 11.1233
# 5 -6.8215 16.5898 7.9320 -5.0450 49.6507 -7.9192
# 6 4.4119 -5.8749 -5.9990 11.1233 -7.9192 34.9192
#
#
#
# Elastic Compliance Matrix: (Units=1/GPa)
#
#
# Indices 1 2 3 4 5 6 
#
# 1 0.003813 0.012790 0.001499 0.013871 -0.003089 -0.003191
# 2 0.012790 0.002376 -0.006909 -0.027562 0.000294 0.006443
# 3 0.001499 -0.006909 0.004717 -0.010832 0.001167 0.003174
# 4 0.013871 -0.027562 -0.010832 0.006666 0.012314 -0.007581
# 5 -0.003089 0.000294 0.001167 0.012314 0.020916 0.001461
# 6 -0.003191 0.006443 0.003174 -0.007581 0.001461 0.033416
#
#
# Mechanical properties :
#
#
# Convention : Reuss Voigt Hill
#
# Bulk Modulus (GPa) = 38.96293 39.39102 39.17697
# Shear Modulus (GPa) = 76.10416 32.29413 54.19914
#
# Velocity S-wave (km/s) = 5.52229 3.59730 4.66027
# Velocity P-wave (km/s) = 7.50159 5.74791 6.68253
#
# Compressibility (1/GPa) = 0.02566542
#
# Stress axis : x y z
#
# Youngs Moduli (GPa) = 262.24652 420.93720 212.00489
#
# Poissons Ratio (x) = -5.38391 -0.31778
# Poissons Ratio (y) = -3.35421 1.46482
# Poissons Ratio (z) = -0.39309 2.90842
#
# Static dielectric constant tensor:
#      x y z
#    x 2.116600 0.138460 0.007020 
#    y 0.138460 2.011840 -0.009120 
#    z 0.007020 -0.009120 1.984470 
# 
# From -- ./inp_files/28179.got.cif
#   From: 2010.05.17/outbox.cif.g08.bks.cpg/sg2_15_cif.got.tgz:28179.got - 2010.06.03 11:33:40.
