data_PCOD9024953
_publ_section_title
;
Structure prediction by ZEFSAII (Michael W. Deem and Ramdas Pophale) SiO2 
 PCOD9024953
Probable space group: P -1
;
_chemical_formula_sum "Si O2"
_cell_formula_units_Z 14
_cell_length_a 14.431615
_cell_length_b 7.267619
_cell_length_c 10.749340
_cell_angle_alpha 58.705932
_cell_angle_beta 38.976210
_cell_angle_gamma 55.299354
_cell_volume 576.542719
_symmetry_space_group_name_H-M "P -1"
_symmetry_group_IT_number 2
_symmetry_cell_setting 'triclinic'
loop_
_space_group_symop_operation_xyz
x,y,z
-x,-y,-z
loop_
_atom_site_type_symbol
_atom_site_label
_atom_site_fract_x
_atom_site_fract_y
_atom_site_fract_z
Si Si1 0.092932 0.502783 0.099571
Si Si2 0.334803 0.476568 0.225420
Si Si3 0.151916 0.842774 0.124589
Si Si4 0.521329 0.092097 0.311720
Si Si5 0.642776 0.776493 0.947735
Si Si6 0.125432 0.693876 0.729720
Si Si7 0.539687 0.312594 0.630975
O O1 0.099178 0.680725 0.137899
O O2 0.206575 0.259219 0.112705
O O3 0.986111 0.926274 0.803786
O O4 0.929730 0.469721 0.247715
O O5 0.383885 0.325199 0.348710
O O6 0.500000 0.500000 0.000000
O O7 0.205168 0.712429 0.247225
O O8 0.298496 0.313090 0.216964
O O9 0.308453 0.884237 0.894143
O O10 0.148224 0.579541 0.883583
O O11 0.500000 0.000000 0.500000
O O12 0.500472 0.904936 0.302879
O O13 0.562680 0.616232 0.163772
O O14 0.500000 0.000000 0.000000
O O15 0.280441 0.741485 0.509344
O O16 0.500000 0.500000 0.500000
#
# Coordination Sequence:
#
# PCOD9024953 Si02
#       7
#     2   2   2   2   2   2   2
#     4  10  22  40  66  97 133 181 223 268 345 399
#     4   9  21  39  66  96 126 175 222 270 335 395
#     4  10  22  43  69  95 134 180 222 271 342 407
#     4  11  23  41  70 101 131 171 229 281 332 396
#     4  11  21  42  71  91 132 179 224 276 326 403
#     4  11  23  41  66  98 139 178 219 281 338 400
#     4  12  25  42  66 105 135 172 232 283 329 400
#
# _framework density 24.282675999999999
#
# number of rings (size 3 to 8) (size 9 to 14) (size 15 to 20)
#    0.000    1.429    2.857    2.143    8.000    0.000 
#    0.000    1.429    3.143    0.000    0.000    0.000 
#    0.000    0.000    0.000    0.000    0.000    0.000 
#
# Total GULP energy -78268.928529 kJ/mol
# GULP energy per Si atom -5590.637752 kJ/mol
# Density = 2.422741 g / cm^3
# Si number density = 24.282676 Si / 1000 Ang^3
#
#
#
# Elastic Constant Matrix: (Units=GPa)
#
#
# Indices 1 2 3 4 5 6 
#
# 1 153.6413 44.8590 43.3378 -12.8133 1.7567 -8.3012
# 2 44.8590 86.1786 18.1423 -12.5545 -6.3649 -9.6817
# 3 43.3378 18.1423 64.1890 -2.0838 6.8605 -4.7562
# 4 -12.8133 -12.5545 -2.0838 31.5777 -12.2403 0.0482
# 5 1.7567 -6.3649 6.8605 -12.2403 58.4726 -24.5957
# 6 -8.3012 -9.6817 -4.7562 0.0482 -24.5957 52.0658
#
#
#
# Elastic Compliance Matrix: (Units=1/GPa)
#
#
# Indices 1 2 3 4 5 6 
#
# 1 0.009141 -0.003152 -0.005233 0.002434 0.000836 0.000786
# 2 -0.003152 0.015700 -0.002320 0.006959 0.005563 0.004826
# 3 -0.005233 -0.002320 0.019964 -0.003106 -0.003559 -0.001121
# 4 0.002434 0.006959 -0.003106 0.040045 0.012485 0.007259
# 5 0.000836 0.005563 -0.003559 0.012485 0.026286 0.013249
# 6 0.000786 0.004826 -0.001121 0.007259 0.013249 0.026379
#
#
# Mechanical properties :
#
#
# Convention : Reuss Voigt Hill
#
# Bulk Modulus (GPa) = 42.74456 57.40968 50.07712
# Shear Modulus (GPa) = 29.98970 41.60121 35.79545
#
# Velocity S-wave (km/s) = 3.51810 4.14358 3.84359
# Velocity P-wave (km/s) = 5.84327 6.82539 6.35334
#
# Compressibility (1/GPa) = 0.02339479
#
# Stress axis : x y z
#
# Youngs Moduli (GPa) = 109.39928 63.69543 50.08937
#
# Poissons Ratio (x) = 0.20076 0.26211
# Poissons Ratio (y) = 0.34481 0.11622
# Poissons Ratio (z) = 0.57246 0.14780
#
# Static dielectric constant tensor:
#      x y z
#    x 2.028550 0.066050 0.033040 
#    y 0.066050 2.058080 -0.004710 
#    z 0.033040 -0.004710 1.958240 
# 
# From -- ./inp_files/444009.got.cif
#   From: 2010.05.17/outbox.cif.g08.bks.cpg/sg2_223_cif.got.tgz:444009.got - 2010.06.03 11:33:40.
