data_PCOD9024310
_publ_section_title
;
Structure prediction by ZEFSAII (Michael W. Deem and Ramdas Pophale) SiO2 
 PCOD9024310
Probable space group: P -1
;
_chemical_formula_sum "Si O2"
_cell_formula_units_Z 16
_cell_length_a 11.736274
_cell_length_b 4.987446
_cell_length_c 14.382301
_cell_angle_alpha 55.142955
_cell_angle_beta 82.934158
_cell_angle_gamma 68.029268
_cell_volume 636.060542
_symmetry_space_group_name_H-M "P -1"
_symmetry_group_IT_number 2
_symmetry_cell_setting 'triclinic'
loop_
_space_group_symop_operation_xyz
x,y,z
-x,-y,-z
loop_
_atom_site_type_symbol
_atom_site_label
_atom_site_fract_x
_atom_site_fract_y
_atom_site_fract_z
Si Si1 0.857629 0.360536 0.047813
Si Si2 0.351907 0.518712 0.199637
Si Si3 0.517593 0.774403 0.255817
Si Si4 0.281166 0.610166 0.545440
Si Si5 0.800988 0.552904 0.605684
Si Si6 0.968555 0.376889 0.382833
Si Si7 0.365631 0.808358 0.953851
Si Si8 0.995974 0.436572 0.854097
O O1 0.895734 0.535221 0.096781
O O2 0.960202 0.962810 0.107904
O O3 0.728403 0.313931 0.070704
O O4 0.878831 0.530774 0.915031
O O5 0.460291 0.538408 0.251248
O O6 0.238936 0.548565 0.271247
O O7 0.325378 0.817386 0.063921
O O8 0.406416 0.138498 0.220674
O O9 0.589884 0.599258 0.376337
O O10 0.611998 0.867572 0.159709
O O11 0.264535 0.574633 0.444448
O O12 0.179334 0.463279 0.627141
O O13 0.247376 0.023354 0.484595
O O14 0.949645 0.434315 0.612213
O O15 0.015125 0.336062 0.280746
O O16 0.000000 0.000000 0.500000
O O17 0.500000 0.500000 0.000000
#
# Coordination Sequence:
#
# PCOD9024310 Si02
#       8
#     2   2   2   2   2   2   2   2
#     4  10  22  40  64  92 122 159 202 250 301 356
#     4  11  24  42  64  90 122 161 203 250 302 358
#     4  11  24  41  64  91 122 160 203 251 301 357
#     4  11  24  41  64  91 122 160 203 251 301 357
#     4  11  24  42  64  90 122 161 203 250 302 358
#     4  10  23  41  63  91 125 161 201 248 303 362
#     4  10  23  41  63  91 125 161 201 248 303 362
#     4  10  22  40  64  92 122 159 202 250 301 356
#
# _framework density 25.154838000000002
#
# number of rings (size 3 to 8) (size 9 to 14) (size 15 to 20)
#    0.000    1.500    0.000    3.750    0.000   15.000 
#    0.000    7.500    0.000    0.000    0.000    0.000 
#    0.000    0.000    0.000    0.000    0.000    0.000 
#
# Total GULP energy -89658.251036 kJ/mol
# GULP energy per Si atom -5603.640690 kJ/mol
# Density = 2.509758 g / cm^3
# Si number density = 25.154838 Si / 1000 Ang^3
#
#
#
# Elastic Constant Matrix: (Units=GPa)
#
#
# Indices 1 2 3 4 5 6 
#
# 1 101.9373 -3.5028 19.5319 0.1533 -10.9497 -1.2188
# 2 -3.5028 62.0278 15.8804 3.8725 6.6310 9.8335
# 3 19.5319 15.8804 135.2793 12.3520 -13.4838 -0.9183
# 4 0.1533 3.8725 12.3520 28.5816 -1.9623 3.0172
# 5 -10.9497 6.6310 -13.4838 -1.9623 48.3678 2.8028
# 6 -1.2188 9.8335 -0.9183 3.0172 2.8028 18.2114
#
#
#
# Elastic Compliance Matrix: (Units=1/GPa)
#
#
# Indices 1 2 3 4 5 6 
#
# 1 0.010310 0.000742 -0.001447 0.000616 0.001864 -0.000173
# 2 0.000742 0.018664 -0.002567 -0.000579 -0.002570 -0.009666
# 3 -0.001447 -0.002567 0.008433 -0.003348 0.002127 0.001942
# 4 0.000616 -0.000579 -0.003348 0.037239 0.001153 -0.006162
# 5 0.001864 -0.002570 0.002127 0.001153 0.022204 -0.001989
# 6 -0.000173 -0.009666 0.001942 -0.006162 -0.001989 0.061543
#
#
# Mechanical properties :
#
#
# Convention : Reuss Voigt Hill
#
# Bulk Modulus (GPa) = 32.40051 40.34037 36.37044
# Shear Modulus (GPa) = 28.53456 36.85449 32.69452
#
# Velocity S-wave (km/s) = 3.37168 3.83182 3.60909
# Velocity P-wave (km/s) = 5.29773 5.97066 5.64423
#
# Compressibility (1/GPa) = 0.03086371
#
# Stress axis : x y z
#
# Youngs Moduli (GPa) = 96.99320 53.57834 118.57740
#
# Poissons Ratio (x) = -0.03978 0.17163
# Poissons Ratio (y) = -0.07202 0.30439
# Poissons Ratio (z) = 0.14039 0.13754
#
# Static dielectric constant tensor:
#      x y z
#    x 2.012610 -0.048710 -0.023260 
#    y -0.048710 1.962170 0.012210 
#    z -0.023260 0.012210 1.987370 
# 
# From -- ./inp_files/510264.got.cif
#   From: 2010.05.17/outbox.cif.g08.bks.cpg/sg2_256_cif.got.tgz:510264.got - 2010.06.03 11:33:40.
