data_PCOD9024765
_publ_section_title
;
Structure prediction by ZEFSAII (Michael W. Deem and Ramdas Pophale) SiO2 
 PCOD9024765
Probable space group: P -1
;
_chemical_formula_sum "Si O2"
_cell_formula_units_Z 15
_cell_length_a 10.338883
_cell_length_b 14.609102
_cell_length_c 10.728977
_cell_angle_alpha 61.135726
_cell_angle_beta 27.328695
_cell_angle_gamma 62.864013
_cell_volume 650.048781
_symmetry_space_group_name_H-M "P -1"
_symmetry_group_IT_number 2
_symmetry_cell_setting 'triclinic'
loop_
_space_group_symop_operation_xyz
x,y,z
-x,-y,-z
loop_
_atom_site_type_symbol
_atom_site_label
_atom_site_fract_x
_atom_site_fract_y
_atom_site_fract_z
Si Si1 0.439105 0.228164 0.939957
Si Si2 0.430154 0.317753 0.502792
Si Si3 0.561898 0.925752 0.375260
Si Si4 0.500000 0.000000 0.000000
Si Si5 0.289185 0.430259 0.297252
Si Si6 0.014296 0.983281 0.232621
Si Si7 0.972863 0.623917 0.966154
Si Si8 0.063739 0.231312 0.490805
O O1 0.235279 0.318966 0.994278
O O2 0.747759 0.263068 0.690599
O O3 0.269901 0.188279 0.231807
O O4 0.462456 0.125267 0.902877
O O5 0.423094 0.198556 0.539910
O O6 0.406809 0.395262 0.354294
O O7 0.170948 0.347880 0.796596
O O8 0.717408 0.332729 0.323245
O O9 0.500000 0.000000 0.500000
O O10 0.278536 0.957075 0.518482
O O11 0.832851 0.961064 0.046620
O O12 0.221072 0.973900 0.178496
O O13 0.000000 0.500000 0.500000
O O14 0.219006 0.326058 0.352727
O O15 0.500000 0.500000 0.000000
O O16 0.964260 0.862342 0.325370
O O17 0.000000 0.500000 0.000000
#
# Coordination Sequence:
#
# PCOD9024765 Si02
#       8
#     2   2   2   1   2   2   2   2
#     4  11  24  42  72 102 145 184 234 289 353 418
#     4  12  27  48  72 107 140 192 241 296 361 428
#     4  12  25  44  74 104 149 184 231 290 363 439
#     4  10  22  40  66 104 138 182 224 282 344 416
#     4  12  28  47  74  98 138 179 238 298 352 412
#     4  11  24  42  70 104 146 185 228 282 352 427
#     4  12  28  47  74 101 146 194 249 298 353 425
#     4  11  25  44  70 105 138 182 233 287 349 420
#
# _framework density 23.075192000000001
#
# number of rings (size 3 to 8) (size 9 to 14) (size 15 to 20)
#    0.000    0.533    0.000    8.000    5.600    8.000 
#    0.000    0.000    0.000    0.000    0.000    0.000 
#    0.000    0.000    0.000    0.000    0.000    0.000 
#
# Total GULP energy -83775.695591 kJ/mol
# GULP energy per Si atom -5585.046373 kJ/mol
# Density = 2.302267 g / cm^3
# Si number density = 23.075192 Si / 1000 Ang^3
#
#
#
# Elastic Constant Matrix: (Units=GPa)
#
#
# Indices 1 2 3 4 5 6 
#
# 1 40.8993 12.6641 0.5193 6.5461 -19.2856 -4.8266
# 2 12.6641 132.9766 13.5909 -5.4862 -8.6279 -5.0853
# 3 0.5193 13.5909 105.6492 -0.3468 -18.0634 0.1227
# 4 6.5461 -5.4862 -0.3468 40.0207 -0.0769 -4.2755
# 5 -19.2856 -8.6279 -18.0634 -0.0769 35.9055 -0.8273
# 6 -4.8266 -5.0853 0.1227 -4.2755 -0.8273 44.0701
#
#
#
# Elastic Compliance Matrix: (Units=1/GPa)
#
#
# Indices 1 2 3 4 5 6 
#
# 1 0.036391 -0.002599 0.003697 -0.005863 0.020850 0.003498
# 2 -0.002599 0.007968 -0.001002 0.001594 0.000037 0.000793
# 3 0.003697 -0.001002 0.010802 -0.000599 0.007186 0.000336
# 4 -0.005863 0.001594 -0.000599 0.026372 -0.002964 0.002046
# 5 0.020850 0.000037 0.007186 -0.002964 0.042731 0.002782
# 6 0.003498 0.000793 0.000336 0.002046 0.002782 0.023416
#
#
# Mechanical properties :
#
#
# Convention : Reuss Voigt Hill
#
# Bulk Modulus (GPa) = 18.06550 37.00818 27.53684
# Shear Modulus (GPa) = 30.13150 40.84930 35.49040
#
# Velocity S-wave (km/s) = 3.61750 4.21202 3.92603
# Velocity P-wave (km/s) = 5.02935 6.30299 5.70185
#
# Compressibility (1/GPa) = 0.05535414
#
# Stress axis : x y z
#
# Youngs Moduli (GPa) = 27.47951 125.49495 92.57347
#
# Poissons Ratio (x) = 0.32614 -0.34224
# Poissons Ratio (y) = 0.07142 0.09273
# Poissons Ratio (z) = -0.10159 0.12571
#
# Static dielectric constant tensor:
#      x y z
#    x 2.217480 0.145530 -0.034350 
#    y 0.145530 1.933100 0.004620 
#    z -0.034350 0.004620 1.855910 
# 
# From -- ./inp_files/433768.got.cif
#   From: 2010.05.17/outbox.cif.g08.bks.cpg/sg2_217_cif.got.tgz:433768.got - 2010.06.03 11:33:40.
