data_PCOD9024355
_publ_section_title
;
Structure prediction by ZEFSAII (Michael W. Deem and Ramdas Pophale) SiO2 
 PCOD9024355
Probable space group: P -1
;
_chemical_formula_sum "Si O2"
_cell_formula_units_Z 16
_cell_length_a 6.158455
_cell_length_b 20.108314
_cell_length_c 17.655232
_cell_angle_alpha 21.638150
_cell_angle_beta 69.894915
_cell_angle_gamma 68.776598
_cell_volume 751.357562
_symmetry_space_group_name_H-M "P -1"
_symmetry_group_IT_number 2
_symmetry_cell_setting 'triclinic'
loop_
_space_group_symop_operation_xyz
x,y,z
-x,-y,-z
loop_
_atom_site_type_symbol
_atom_site_label
_atom_site_fract_x
_atom_site_fract_y
_atom_site_fract_z
Si Si1 0.886933 0.946055 0.493620
Si Si2 0.194724 0.472187 0.404294
Si Si3 0.487271 0.263541 0.198113
Si Si4 0.318247 0.353480 0.668841
Si Si5 0.038640 0.594682 0.648989
Si Si6 0.417149 0.256697 0.921435
Si Si7 0.707687 0.118966 0.606144
Si Si8 0.427850 0.386089 0.240873
O O1 0.663738 0.085699 0.347454
O O2 0.775827 0.769566 0.720934
O O3 0.000000 0.000000 0.500000
O O4 0.068291 0.936742 0.414533
O O5 0.304562 0.326681 0.608242
O O6 0.125772 0.383706 0.428244
O O7 0.361691 0.632171 0.207615
O O8 0.944270 0.564880 0.365439
O O9 0.546697 0.324300 0.211823
O O10 0.511503 0.409753 0.976031
O O11 0.500000 0.500000 0.500000
O O12 0.394583 0.223689 0.867914
O O13 0.852407 0.599222 0.734947
O O14 0.200912 0.402884 0.821207
O O15 0.199969 0.754544 0.473157
O O16 0.403309 0.061385 0.166955
O O17 0.537506 0.249934 0.434781
#
# Coordination Sequence:
#
# PCOD9024355 Si02
#       8
#     2   2   2   2   2   2   2   2
#     4  11  22  41  62  86 117 159 210 265 315 376
#     4   9  18  37  66  94 125 167 208 249 305 371
#     4  10  23  41  61  85 112 160 210 262 317 370
#     4   8  16  35  66  97 124 164 208 249 301 369
#     4  11  23  41  60  93 128 167 206 265 312 374
#     4  10  22  40  64  93 130 167 207 254 313 370
#     4  12  25  40  61  94 126 165 210 264 317 375
#     4  11  23  40  60  84 121 159 209 261 315 372
#
# _framework density 21.294789000000002
#
# number of rings (size 3 to 8) (size 9 to 14) (size 15 to 20)
#    0.000    1.750    2.500    1.500    0.000    5.500 
#    0.000    0.625    0.000   30.750    0.000    0.000 
#    0.000    0.000    0.000    0.000    0.000    0.000 
#
# Total GULP energy -89130.755531 kJ/mol
# GULP energy per Si atom -5570.672221 kJ/mol
# Density = 2.124632 g / cm^3
# Si number density = 21.294789 Si / 1000 Ang^3
#
#
#
# Elastic Constant Matrix: (Units=GPa)
#
#
# Indices 1 2 3 4 5 6 
#
# 1 83.2702 26.7679 57.9747 9.0165 -5.5724 -2.6465
# 2 26.7679 57.3767 47.4765 6.3826 -0.8803 1.0197
# 3 57.9747 47.4765 126.0049 19.2995 -6.2084 -3.8615
# 4 9.0165 6.3826 19.2995 19.7237 -0.6630 -5.7681
# 5 -5.5724 -0.8803 -6.2084 -0.6630 22.4733 6.5720
# 6 -2.6465 1.0197 -3.8615 -5.7681 6.5720 44.7456
#
#
#
# Elastic Compliance Matrix: (Units=1/GPa)
#
#
# Indices 1 2 3 4 5 6 
#
# 1 0.017987 -0.002342 -0.007233 -0.000275 0.002328 0.000116
# 2 -0.002342 0.025772 -0.008913 0.001072 -0.001677 -0.001111
# 3 -0.007233 -0.008913 0.016204 -0.009707 0.002163 -0.000395
# 4 -0.000275 0.001072 -0.009707 0.062091 -0.003093 0.007580
# 5 0.002328 -0.001677 0.002163 -0.003093 0.047569 -0.007023
# 6 0.000116 -0.001111 -0.000395 0.007580 -0.007023 0.024355
#
#
# Mechanical properties :
#
#
# Convention : Reuss Voigt Hill
#
# Bulk Modulus (GPa) = 43.50622 59.00998 51.25810
# Shear Modulus (GPa) = 20.95416 26.35071 23.65243
#
# Velocity S-wave (km/s) = 3.14029 3.52152 3.33635
# Velocity P-wave (km/s) = 5.79856 6.65627 6.24217
#
# Compressibility (1/GPa) = 0.02298522
#
# Stress axis : x y z
#
# Youngs Moduli (GPa) = 55.59571 38.80225 61.71431
#
# Poissons Ratio (x) = 0.09089 0.44637
# Poissons Ratio (y) = 0.13023 0.55009
# Poissons Ratio (z) = 0.40211 0.34586
#
# Static dielectric constant tensor:
#      x y z
#    x 1.872430 0.096490 -0.017920 
#    y 0.096490 1.901160 -0.002100 
#    z -0.017920 -0.002100 1.791470 
# 
# From -- ./inp_files/105318.got.cif
#   From: 2010.05.17/outbox.cif.g08.bks.cpg/sg2_53_cif.got.tgz:105318.got - 2010.06.03 11:33:40.
