data_PCOD9024102
_publ_section_title
;
Structure prediction by ZEFSAII (Michael W. Deem and Ramdas Pophale) SiO2 
 PCOD9024102
Probable space group: P -1
;
_chemical_formula_sum "Si O2"
_cell_formula_units_Z 14
_cell_length_a 9.498485
_cell_length_b 10.262885
_cell_length_c 7.003842
_cell_angle_alpha 95.944663
_cell_angle_beta 97.639471
_cell_angle_gamma 122.133128
_cell_volume 560.539215
_symmetry_space_group_name_H-M "P -1"
_symmetry_group_IT_number 2
_symmetry_cell_setting 'triclinic'
loop_
_space_group_symop_operation_xyz
x,y,z
-x,-y,-z
loop_
_atom_site_type_symbol
_atom_site_label
_atom_site_fract_x
_atom_site_fract_y
_atom_site_fract_z
Si Si1 0.315353 0.344822 0.740131
Si Si2 0.041537 0.465772 0.212835
Si Si3 0.409015 0.089731 0.718428
Si Si4 0.914672 0.860060 0.615056
Si Si5 0.223833 0.810114 0.343404
Si Si6 0.184972 0.877087 0.934657
Si Si7 0.687562 0.628354 0.809234
O O1 0.364073 0.217629 0.704751
O O2 0.154456 0.287116 0.566714
O O3 0.484715 0.508982 0.736776
O O4 0.278187 0.342743 0.955073
O O5 0.103117 0.628075 0.355016
O O6 0.197802 0.440561 0.235773
O O7 0.871483 0.292830 0.189020
O O8 0.000000 0.500000 0.000000
O O9 0.602919 0.165340 0.707192
O O10 0.287299 0.940434 0.537440
O O11 0.364963 0.020962 0.914272
O O12 0.749822 0.781462 0.713687
O O13 0.055216 0.906314 0.807693
O O14 0.000000 0.000000 0.500000
O O15 0.156126 0.854310 0.152100
#
# Coordination Sequence:
#
# PCOD9024102 Si02
#       7
#     2   2   2   2   2   2   2
#     4  11  23  43  66  97 130 172 221 267 328 394
#     4   9  19  40  65  90 126 167 210 263 320 388
#     4  11  22  40  65  96 126 167 217 268 324 390
#     4  11  23  42  64  97 132 169 218 271 323 394
#     4  10  22  41  66  91 128 169 217 268 320 388
#     4  10  22  40  63  92 127 170 212 268 325 382
#     4  10  23  43  69  93 130 176 217 271 327 385
#
# _framework density 24.975949
#
# number of rings (size 3 to 8) (size 9 to 14) (size 15 to 20)
#    0.000    1.714    2.857    0.857    0.000    5.714 
#    0.000    4.286    0.000    0.000    0.000    0.000 
#    0.000    0.000    0.000    0.000    0.000    0.000 
#
# Total GULP energy -78176.593206 kJ/mol
# GULP energy per Si atom -5584.042372 kJ/mol
# Density = 2.491910 g / cm^3
# Si number density = 24.975949 Si / 1000 Ang^3
#
#
#
# Elastic Constant Matrix: (Units=GPa)
#
#
# Indices 1 2 3 4 5 6 
#
# 1 67.2104 22.5671 5.1776 -6.2498 2.0771 -1.1703
# 2 22.5671 134.9673 22.7553 -32.4860 -8.1748 13.6511
# 3 5.1776 22.7553 89.8065 -23.8993 11.6439 3.6016
# 4 -6.2498 -32.4860 -23.8993 45.7764 3.3658 2.8320
# 5 2.0771 -8.1748 11.6439 3.3658 39.4178 -0.1549
# 6 -1.1703 13.6511 3.6016 2.8320 -0.1549 30.2619
#
#
#
# Elastic Compliance Matrix: (Units=1/GPa)
#
#
# Indices 1 2 3 4 5 6 
#
# 1 0.015948 -0.002925 -0.000055 0.000059 -0.001428 0.001930
# 2 -0.002925 0.010283 -0.000678 0.006732 0.001891 -0.005291
# 3 -0.000055 -0.000678 0.013968 0.007291 -0.004895 -0.002066
# 4 0.000059 0.006732 0.007291 0.031113 -0.003444 -0.006832
# 5 -0.001428 0.001891 -0.004895 -0.003444 0.027577 0.000138
# 6 0.001930 -0.005291 -0.002066 -0.006832 0.000138 0.036392
#
#
# Mechanical properties :
#
#
# Convention : Reuss Voigt Hill
#
# Bulk Modulus (GPa) = 30.41139 43.66490 37.03814
# Shear Modulus (GPa) = 32.56079 39.19018 35.87548
#
# Velocity S-wave (km/s) = 3.61458 3.96551 3.79410
# Velocity P-wave (km/s) = 5.44269 6.20385 5.83569
#
# Compressibility (1/GPa) = 0.03288242
#
# Stress axis : x y z
#
# Youngs Moduli (GPa) = 62.70310 97.25019 71.59271
#
# Poissons Ratio (x) = 0.28445 0.00394
# Poissons Ratio (y) = 0.18340 0.04856
# Poissons Ratio (z) = 0.00345 0.06596
#
# Static dielectric constant tensor:
#      x y z
#    x 2.073770 0.007140 0.028370 
#    y 0.007140 2.020100 0.008280 
#    z 0.028370 0.008280 1.985490 
# 
# From -- ./inp_files/71319.got.cif
#   From: 2010.05.17/outbox.cif.g08.bks.cpg/sg2_36_cif.got.tgz:71319.got - 2010.06.03 11:33:40.
