data_PCOD9024045
_publ_section_title
;
Structure prediction by ZEFSAII (Michael W. Deem and Ramdas Pophale) SiO2 
 PCOD9024045
Probable space group: P -1
;
_chemical_formula_sum "Si O2"
_cell_formula_units_Z 14
_cell_length_a 25.940930
_cell_length_b 9.444659
_cell_length_c 6.989256
_cell_angle_alpha 57.113360
_cell_angle_beta 145.477352
_cell_angle_gamma 135.777383
_cell_volume 671.953288
_symmetry_space_group_name_H-M "P -1"
_symmetry_group_IT_number 2
_symmetry_cell_setting 'triclinic'
loop_
_space_group_symop_operation_xyz
x,y,z
-x,-y,-z
loop_
_atom_site_type_symbol
_atom_site_label
_atom_site_fract_x
_atom_site_fract_y
_atom_site_fract_z
Si Si1 0.171459 0.642139 0.782457
Si Si2 0.406556 0.306912 0.476264
Si Si3 0.012089 0.021551 0.747484
Si Si4 0.249518 0.368784 0.173663
Si Si5 0.461954 0.719292 0.759103
Si Si6 0.608953 0.980860 0.669362
Si Si7 0.018049 0.310307 0.842908
O O1 0.121733 0.520076 0.921495
O O2 0.074038 0.655249 0.394594
O O3 0.204159 0.505494 0.872437
O O4 0.280541 0.863387 0.989298
O O5 0.500000 0.500000 0.500000
O O6 0.306872 0.324907 0.213797
O O7 0.368325 0.110668 0.375041
O O8 0.462964 0.299150 0.848318
O O9 0.973987 0.153018 0.640988
O O10 0.144431 0.160057 0.087745
O O11 0.000000 0.000000 0.500000
O O12 0.957800 0.804129 0.841220
O O13 0.344813 0.507405 0.518101
O O14 0.522736 0.801130 0.680580
O O15 0.439707 0.887847 0.632922
#
# Coordination Sequence:
#
# PCOD9024045 Si02
#       7
#     2   2   2   2   2   2   2
#     4   9  20  41  65  86 122 165 199 246 304 359
#     4  12  24  38  61  94 124 159 205 249 297 359
#     4  10  22  40  63  94 121 151 203 256 298 358
#     4  10  22  41  60  90 124 161 199 247 304 352
#     4  10  22  43  60  86 125 163 202 248 299 360
#     4  10  22  40  63  87 122 162 204 247 299 361
#     4   9  20  42  64  86 121 161 200 247 306 356
#
# _framework density 20.834779999999999
#
# number of rings (size 3 to 8) (size 9 to 14) (size 15 to 20)
#    0.000    2.000    1.429    0.857    4.000    0.000 
#    7.714    7.857    0.000    0.000    0.000    0.000 
#    0.000    0.000    0.000    0.000    0.000    0.000 
#
# Total GULP energy -78180.510342 kJ/mol
# GULP energy per Si atom -5584.322167 kJ/mol
# Density = 2.078736 g / cm^3
# Si number density = 20.834780 Si / 1000 Ang^3
#
#
#
# Elastic Constant Matrix: (Units=GPa)
#
#
# Indices 1 2 3 4 5 6 
#
# 1 102.5686 17.0393 31.0682 -11.9887 24.6215 -38.1356
# 2 17.0393 54.8528 13.5223 0.1726 1.2423 0.4893
# 3 31.0682 13.5223 40.2987 -8.0583 4.3278 -7.1099
# 4 -11.9887 0.1726 -8.0583 22.0288 0.6879 7.7902
# 5 24.6215 1.2423 4.3278 0.6879 36.9957 -1.1092
# 6 -38.1356 0.4893 -7.1099 7.7902 -1.1092 42.0354
#
#
#
# Elastic Compliance Matrix: (Units=1/GPa)
#
#
# Indices 1 2 3 4 5 6 
#
# 1 0.025943 -0.004805 -0.012594 0.002751 -0.015066 0.020554
# 2 -0.004805 0.020968 -0.005113 -0.003037 0.003004 -0.004826
# 3 -0.012594 -0.005113 0.036380 0.008752 0.003933 -0.006731
# 4 0.002751 -0.003037 0.008752 0.052284 -0.003898 -0.005781
# 5 -0.015066 0.003004 0.003933 -0.003898 0.036228 -0.011360
# 6 0.020554 -0.004826 -0.006731 -0.005781 -0.011360 0.042126
#
#
# Mechanical properties :
#
#
# Convention : Reuss Voigt Hill
#
# Bulk Modulus (GPa) = 26.13173 35.66441 30.89807
# Shear Modulus (GPa) = 18.40215 29.28465 23.84340
#
# Velocity S-wave (km/s) = 2.97516 3.75315 3.38657
# Velocity P-wave (km/s) = 4.93677 5.99470 5.49127
#
# Compressibility (1/GPa) = 0.03826766
#
# Stress axis : x y z
#
# Youngs Moduli (GPa) = 38.54623 47.69125 27.48796
#
# Poissons Ratio (x) = 0.22916 0.34618
# Poissons Ratio (y) = 0.18522 0.14054
# Poissons Ratio (z) = 0.48544 0.24383
#
# Static dielectric constant tensor:
#      x y z
#    x 1.748190 -0.021870 0.022670 
#    y -0.021870 1.760990 0.003790 
#    z 0.022670 0.003790 1.728840 
# 
# From -- ./inp_files/99326.got.cif
#   From: 2010.05.17/outbox.cif.g08.bks.cpg/sg2_50_cif.got.tgz:99326.got - 2010.06.03 11:33:40.
