data_PCOD9024285
_publ_section_title
;
Structure prediction by ZEFSAII (Michael W. Deem and Ramdas Pophale) SiO2 
 PCOD9024285
Probable space group: P -1
;
_chemical_formula_sum "Si O2"
_cell_formula_units_Z 16
_cell_length_a 16.285285
_cell_length_b 13.934974
_cell_length_c 9.214430
_cell_angle_alpha 142.582291
_cell_angle_beta 137.611854
_cell_angle_gamma 30.239734
_cell_volume 630.423575
_symmetry_space_group_name_H-M "P -1"
_symmetry_group_IT_number 2
_symmetry_cell_setting 'triclinic'
loop_
_space_group_symop_operation_xyz
x,y,z
-x,-y,-z
loop_
_atom_site_type_symbol
_atom_site_label
_atom_site_fract_x
_atom_site_fract_y
_atom_site_fract_z
Si Si1 0.902782 0.978043 0.459215
Si Si2 0.015117 0.344369 0.057171
Si Si3 0.264951 0.317698 0.097112
Si Si4 0.695029 0.877687 0.595557
Si Si5 0.833817 0.354211 0.389360
Si Si6 0.587096 0.150472 0.190092
Si Si7 0.786832 0.466403 0.141283
Si Si8 0.411649 0.714278 0.969539
O O1 0.005960 0.872445 0.611277
O O2 0.707416 0.162111 0.449848
O O3 0.000000 0.000000 0.500000
O O4 0.917562 0.804667 0.174466
O O5 0.904133 0.324468 0.989901
O O6 0.168907 0.252339 0.252438
O O7 0.883185 0.576909 0.085555
O O8 0.205311 0.464146 0.337709
O O9 0.396720 0.318240 0.190195
O O10 0.360298 0.076635 0.981312
O O11 0.758502 0.680865 0.340470
O O12 0.500000 0.000000 0.500000
O O13 0.671228 0.085132 0.787454
O O14 0.868026 0.371111 0.289516
O O15 0.679993 0.369268 0.227441
O O16 0.613294 0.185960 0.102561
O O17 0.610072 0.539354 0.022238
#
# Coordination Sequence:
#
# PCOD9024285 Si02
#       8
#     2   2   2   2   2   2   2   2
#     4  11  23  41  68  95 133 174 214 269 330 386
#     4  11  22  41  67  96 130 169 218 266 325 382
#     4  10  25  40  69 100 127 169 222 274 321 387
#     4  10  22  40  64  90 127 172 213 262 324 381
#     4  11  24  41  65 100 128 172 219 262 332 384
#     4  11  21  43  66  93 135 165 221 265 329 371
#     4  11  24  41  64  95 130 173 216 268 319 388
#     4  11  21  43  66  90 134 173 213 271 323 388
#
# _framework density 25.379759
#
# number of rings (size 3 to 8) (size 9 to 14) (size 15 to 20)
#    0.000    1.250    3.750    1.500    1.750    2.500 
#    0.000    2.500    0.000    0.000    0.000    0.000 
#    0.000    0.000    0.000    0.000    0.000    0.000 
#
# Total GULP energy -89294.111288 kJ/mol
# GULP energy per Si atom -5580.881955 kJ/mol
# Density = 2.532199 g / cm^3
# Si number density = 25.379759 Si / 1000 Ang^3
#
#
#
# Elastic Constant Matrix: (Units=GPa)
#
#
# Indices 1 2 3 4 5 6 
#
# 1 141.5191 31.8108 21.5612 -12.3421 -1.5236 -4.5641
# 2 31.8108 94.4076 23.8676 -34.7449 0.9369 1.8151
# 3 21.5612 23.8676 65.3910 -13.9429 7.9558 -5.3046
# 4 -12.3421 -34.7449 -13.9429 36.4175 -4.9549 5.3029
# 5 -1.5236 0.9369 7.9558 -4.9549 35.2486 -10.7583
# 6 -4.5641 1.8151 -5.3046 5.3029 -10.7583 33.9610
#
#
#
# Elastic Compliance Matrix: (Units=1/GPa)
#
#
# Indices 1 2 3 4 5 6 
#
# 1 0.007904 -0.002341 -0.001852 -0.000294 0.001183 0.001319
# 2 -0.002341 0.018088 -0.002852 0.016091 0.001140 -0.003878
# 3 -0.001852 -0.002852 0.018072 0.002944 -0.003296 0.001223
# 4 -0.000294 0.016091 0.002944 0.045226 0.003280 -0.006463
# 5 0.001183 0.001140 -0.003296 0.003280 0.032450 0.009350
# 6 0.001319 -0.003878 0.001223 -0.006463 0.009350 0.033992
#
#
# Mechanical properties :
#
#
# Convention : Reuss Voigt Hill
#
# Bulk Modulus (GPa) = 33.36168 50.64410 42.00289
# Shear Modulus (GPa) = 27.80675 36.06396 31.93535
#
# Velocity S-wave (km/s) = 3.31362 3.77367 3.55110
# Velocity P-wave (km/s) = 5.27386 6.24382 5.77923
#
# Compressibility (1/GPa) = 0.02997451
#
# Stress axis : x y z
#
# Youngs Moduli (GPa) = 126.51829 55.28676 55.33372
#
# Poissons Ratio (x) = 0.12940 0.10245
# Poissons Ratio (y) = 0.29613 0.15784
# Poissons Ratio (z) = 0.23426 0.15770
#
# Static dielectric constant tensor:
#      x y z
#    x 2.037250 -0.066450 0.055170 
#    y -0.066450 2.148120 0.020460 
#    z 0.055170 0.020460 2.097560 
# 
# From -- ./inp_files/335823.got.cif
#   From: 2010.05.17/outbox.cif.g08.bks.cpg/sg2_168_cif.got.tgz:335823.got - 2010.06.03 11:33:40.
