data_PCOD9024434
_publ_section_title
;
Structure prediction by ZEFSAII (Michael W. Deem and Ramdas Pophale) SiO2 
 PCOD9024434
Probable space group: P -1
;
_chemical_formula_sum "Si O2"
_cell_formula_units_Z 15
_cell_length_a 25.653223
_cell_length_b 6.051886
_cell_length_c 5.512908
_cell_angle_alpha 88.013869
_cell_angle_beta 108.540674
_cell_angle_gamma 129.729659
_cell_volume 607.159066
_symmetry_space_group_name_H-M "P -1"
_symmetry_group_IT_number 2
_symmetry_cell_setting 'triclinic'
loop_
_space_group_symop_operation_xyz
x,y,z
-x,-y,-z
loop_
_atom_site_type_symbol
_atom_site_label
_atom_site_fract_x
_atom_site_fract_y
_atom_site_fract_z
Si Si1 0.309947 0.661144 0.427786
Si Si2 0.177972 0.363276 0.538098
Si Si3 0.554334 0.261132 0.380880
Si Si4 0.906214 0.487669 0.297104
Si Si5 0.361498 0.184530 0.148690
Si Si6 0.774407 0.885472 0.002284
Si Si7 0.955574 0.237255 0.751886
Si Si8 0.500000 0.500000 0.000000
O O1 0.253939 0.641398 0.518150
O O2 0.384535 0.746172 0.624135
O O3 0.333806 0.883817 0.237159
O O4 0.260499 0.327739 0.270699
O O5 0.134672 0.435095 0.615515
O O6 0.202220 0.240033 0.769033
O O7 0.116412 0.095320 0.275848
O O8 0.594051 0.563411 0.584138
O O9 0.500000 0.000000 0.500000
O O10 0.510050 0.270618 0.112412
O O11 0.928512 0.344558 0.510910
O O12 0.981646 0.754115 0.268688
O O13 0.844629 0.223887 0.036000
O O14 0.290714 0.140855 0.980561
O O15 0.418314 0.295415 0.016031
O O16 0.000000 0.500000 0.000000
#
# Coordination Sequence:
#
# PCOD9024434 Si02
#       8
#     2   2   2   2   2   2   2   1
#     4  11  24  43  67  96 138 176 232 284 344 421
#     4  11  23  40  67  97 132 179 224 283 346 409
#     4  11  25  47  66 103 138 177 234 290 346 428
#     4  10  22  40  64  98 133 170 233 277 336 419
#     4  11  25  44  68  98 132 177 231 285 347 423
#     4  10  23  43  63  94 132 177 221 282 344 407
#     4  10  22  40  64  96 135 177 222 279 342 409
#     4  12  24  44  72  94 136 182 222 292 358 402
#
# _framework density 24.705226
#
# number of rings (size 3 to 8) (size 9 to 14) (size 15 to 20)
#    0.000    1.333    1.333    3.200    0.000    9.600 
#    0.000    0.000    0.000    0.000    0.000    0.000 
#    0.000    0.000    0.000    0.000    0.000    0.000 
#
# Total GULP energy -83738.156898 kJ/mol
# GULP energy per Si atom -5582.543793 kJ/mol
# Density = 2.464900 g / cm^3
# Si number density = 24.705226 Si / 1000 Ang^3
#
#
#
# Elastic Constant Matrix: (Units=GPa)
#
#
# Indices 1 2 3 4 5 6 
#
# 1 234.7589 55.2581 33.1054 -7.1130 33.5190 29.9187
# 2 55.2581 95.2713 17.8029 6.1794 2.8712 18.7228
# 3 33.1054 17.8029 37.6433 18.2130 9.7767 -1.3827
# 4 -7.1130 6.1794 18.2130 47.3610 -2.2071 -4.7388
# 5 33.5190 2.8712 9.7767 -2.2071 21.5748 -2.5370
# 6 29.9187 18.7228 -1.3827 -4.7388 -2.5370 44.1323
#
#
#
# Elastic Compliance Matrix: (Units=1/GPa)
#
#
# Indices 1 2 3 4 5 6 
#
# 1 0.007432 -0.002540 -0.003984 0.002085 -0.009710 -0.004420
# 2 -0.002540 0.013644 -0.005221 -0.000372 0.003984 -0.004041
# 3 -0.003984 -0.005221 0.045044 -0.017575 -0.014904 0.003584
# 4 0.002085 -0.000372 -0.017575 0.028778 0.007923 0.001739
# 5 -0.009710 0.003984 -0.014904 0.007923 0.069560 0.009275
# 6 -0.004420 -0.004041 0.003584 0.001739 0.009275 0.028202
#
#
# Mechanical properties :
#
#
# Convention : Reuss Voigt Hill
#
# Bulk Modulus (GPa) = 23.45862 64.44513 43.95188
# Shear Modulus (GPa) = 21.70494 40.04745 30.87620
#
# Velocity S-wave (km/s) = 2.96726 4.03055 3.53906
# Velocity P-wave (km/s) = 4.61037 6.91395 5.87615
#
# Compressibility (1/GPa) = 0.04262825
#
# Stress axis : x y z
#
# Youngs Moduli (GPa) = 134.54654 73.29467 22.20031
#
# Poissons Ratio (x) = 0.18619 0.08845
# Poissons Ratio (y) = 0.34178 0.11592
# Poissons Ratio (z) = 0.53608 0.38270
#
# Static dielectric constant tensor:
#      x y z
#    x 1.941570 -0.007400 -0.055460 
#    y -0.007400 1.944180 0.065460 
#    z -0.055460 0.065460 2.018620 
# 
# From -- ./inp_files/102856.got.cif
#   From: 2010.05.17/outbox.cif.g08.bks.cpg/sg2_52_cif.got.tgz:102856.got - 2010.06.03 11:33:40.
