data_PCOD9024720
_publ_section_title
;
Structure prediction by ZEFSAII (Michael W. Deem and Ramdas Pophale) SiO2 
 PCOD9024720
Probable space group: P -1
;
_chemical_formula_sum "Si O2"
_cell_formula_units_Z 16
_cell_length_a 5.721591
_cell_length_b 15.896070
_cell_length_c 23.468049
_cell_angle_alpha 21.320194
_cell_angle_beta 94.378398
_cell_angle_gamma 103.300495
_cell_volume 695.439892
_symmetry_space_group_name_H-M "P -1"
_symmetry_group_IT_number 2
_symmetry_cell_setting 'triclinic'
loop_
_space_group_symop_operation_xyz
x,y,z
-x,-y,-z
loop_
_atom_site_type_symbol
_atom_site_label
_atom_site_fract_x
_atom_site_fract_y
_atom_site_fract_z
Si Si1 0.829439 0.157674 0.444577
Si Si2 0.724029 0.098863 0.894557
Si Si3 0.258465 0.221464 0.506223
Si Si4 0.784454 0.596936 0.226125
Si Si5 0.301250 0.243153 0.624836
Si Si6 0.453507 0.905049 0.903897
Si Si7 0.108751 0.235706 0.026726
Si Si8 0.716585 0.215916 0.284424
O O1 0.753917 0.395187 0.303874
O O2 0.873853 0.165687 0.372564
O O3 0.051317 0.209694 0.462212
O O4 0.576817 0.905349 0.619258
O O5 0.816533 0.872252 0.031807
O O6 0.606249 0.116236 0.821370
O O7 0.500000 0.000000 0.000000
O O8 0.967621 0.344294 0.766834
O O9 0.526491 0.463076 0.342587
O O10 0.225304 0.256735 0.549895
O O11 0.282592 0.957016 0.659604
O O12 0.500000 0.500000 0.500000
O O13 0.030675 0.063235 0.765886
O O14 0.438093 0.048397 0.755833
O O15 0.608822 0.734781 0.006916
O O16 0.152652 0.768814 0.006204
O O17 0.176170 0.480568 0.914871
#
# Coordination Sequence:
#
# PCOD9024720 Si02
#       8
#     2   2   2   2   2   2   2   2
#     4  10  22  40  66 100 139 178 222 292 353 422
#     4  11  24  39  64  97 140 181 229 290 348 425
#     4  11  24  43  66 103 133 188 229 291 345 418
#     4  10  24  36  64  98 139 175 232 279 362 417
#     4  10  27  45  69 100 140 185 240 290 346 413
#     4  10  26  45  70  99 140 183 235 286 351 412
#     4  10  25  46  73 101 132 189 233 293 347 412
#     4  10  23  42  69 100 139 178 234 285 357 416
#
# _framework density 23.007021999999999
#
# number of rings (size 3 to 8) (size 9 to 14) (size 15 to 20)
#    0.750    1.000    0.000    1.875   14.000    3.000 
#    0.000    1.250    0.000    0.000    0.000    0.000 
#    0.000    0.000    0.000    0.000    0.000    0.000 
#
# Total GULP energy -89119.728583 kJ/mol
# GULP energy per Si atom -5569.983036 kJ/mol
# Density = 2.295466 g / cm^3
# Si number density = 23.007022 Si / 1000 Ang^3
#
#
#
# Elastic Constant Matrix: (Units=GPa)
#
#
# Indices 1 2 3 4 5 6 
#
# 1 106.9855 25.7119 14.6310 -0.7199 -4.8111 21.2136
# 2 25.7119 98.4544 18.3533 -8.4361 -1.6497 12.8799
# 3 14.6310 18.3533 80.7638 -24.3149 -6.1972 5.7237
# 4 -0.7199 -8.4361 -24.3149 36.6986 -0.0372 3.4319
# 5 -4.8111 -1.6497 -6.1972 -0.0372 36.0627 -12.6757
# 6 21.2136 12.8799 5.7237 3.4319 -12.6757 33.2705
#
#
#
# Elastic Compliance Matrix: (Units=1/GPa)
#
#
# Indices 1 2 3 4 5 6 
#
# 1 0.011238 -0.001879 -0.001385 -0.000515 -0.001138 -0.006580
# 2 -0.001879 0.011564 -0.001537 0.001948 -0.001286 -0.003705
# 3 -0.001385 -0.001537 0.016476 0.010697 0.001989 -0.001702
# 4 -0.000515 0.001948 0.010697 0.035334 -0.000211 -0.005991
# 5 -0.001138 -0.001286 0.001989 -0.000211 0.032535 0.013299
# 6 -0.006580 -0.003705 -0.001702 -0.005991 0.013299 0.041664
#
#
# Mechanical properties :
#
#
# Convention : Reuss Voigt Hill
#
# Bulk Modulus (GPa) = 33.69717 44.84400 39.27058
# Shear Modulus (GPa) = 29.70795 36.37354 33.04074
#
# Velocity S-wave (km/s) = 3.59730 3.98046 3.79372
# Velocity P-wave (km/s) = 5.65087 6.37646 6.02460
#
# Compressibility (1/GPa) = 0.02967609
#
# Stress axis : x y z
#
# Youngs Moduli (GPa) = 88.98221 86.47249 60.69597
#
# Poissons Ratio (x) = 0.16249 0.08405
# Poissons Ratio (y) = 0.16720 0.09330
# Poissons Ratio (z) = 0.12323 0.13292
#
# Static dielectric constant tensor:
#      x y z
#    x 1.939410 -0.013470 0.028800 
#    y -0.013470 1.900060 0.027300 
#    z 0.028800 0.027300 1.910830 
# 
# From -- ./inp_files/615788.got.cif
#   From: 2010.05.17/outbox.cif.g08.bks.cpg/sg2_308_cif.got.tgz:615788.got - 2010.06.03 11:33:40.
