data_PCOD9024329
_publ_section_title
;
Structure prediction by ZEFSAII (Michael W. Deem and Ramdas Pophale) SiO2 
 PCOD9024329
Probable space group: P -1
;
_chemical_formula_sum "Si O2"
_cell_formula_units_Z 13
_cell_length_a 13.908664
_cell_length_b 7.197740
_cell_length_c 8.003503
_cell_angle_alpha 128.989696
_cell_angle_beta 68.496098
_cell_angle_gamma 128.111298
_cell_volume 489.693269
_symmetry_space_group_name_H-M "P -1"
_symmetry_group_IT_number 2
_symmetry_cell_setting 'triclinic'
loop_
_space_group_symop_operation_xyz
x,y,z
-x,-y,-z
loop_
_atom_site_type_symbol
_atom_site_label
_atom_site_fract_x
_atom_site_fract_y
_atom_site_fract_z
Si Si1 0.223063 0.755424 0.919335
Si Si2 0.116018 0.326378 0.466431
Si Si3 0.326268 0.229544 0.673574
Si Si4 0.493024 0.251139 0.980363
Si Si5 0.500000 0.000000 0.500000
Si Si6 0.123033 0.827150 0.327171
Si Si7 0.141770 0.141738 0.022775
O O1 0.150773 0.648597 0.079879
O O2 0.162559 0.904364 0.948569
O O3 0.205476 0.521606 0.667098
O O4 0.361431 0.011314 0.996933
O O5 0.175692 0.383301 0.277751
O O6 0.991984 0.326939 0.562296
O O7 0.085434 0.012258 0.345577
O O8 0.390520 0.069238 0.611962
O O9 0.247902 0.054437 0.466025
O O10 0.429706 0.563886 0.802514
O O11 0.227476 0.231357 0.859594
O O12 0.531497 0.098863 0.736077
O O13 0.500000 0.500000 0.000000
O O14 0.000000 0.000000 0.000000
#
# Coordination Sequence:
#
# PCOD9024329 Si02
#       7
#     2   2   2   2   1   2   2
#     4  11  23  42  67  99 128 175 223 261 332 396
#     4  10  23  42  67  94 138 176 211 274 326 393
#     4  11  23  43  67 100 130 175 218 271 327 388
#     4  10  22  41  64  93 130 171 215 272 322 380
#     4  10  22  40  64  92 132 170 220 268 318 376
#     4  10  23  44  64  96 136 172 217 270 333 387
#     4  11  22  41  67 100 134 167 221 273 331 382
#
# _framework density 26.547234
#
# number of rings (size 3 to 8) (size 9 to 14) (size 15 to 20)
#    0.000    1.538    4.615    0.462    2.154    3.692 
#    2.769    1.538    0.000    0.000    0.000    0.000 
#    0.000    0.000    0.000    0.000    0.000    0.000 
#
# Total GULP energy -72414.816288 kJ/mol
# GULP energy per Si atom -5570.370484 kJ/mol
# Density = 2.648681 g / cm^3
# Si number density = 26.547234 Si / 1000 Ang^3
#
#
#
# Elastic Constant Matrix: (Units=GPa)
#
#
# Indices 1 2 3 4 5 6 
#
# 1 102.5338 27.5638 23.1102 9.4202 -14.9374 25.2897
# 2 27.5638 61.6105 26.2026 0.7579 -14.9683 17.5578
# 3 23.1102 26.2026 181.2551 -7.8785 1.7414 21.8600
# 4 9.4202 0.7579 -7.8785 30.0791 12.3456 3.5605
# 5 -14.9374 -14.9683 1.7414 12.3456 46.5581 2.6810
# 6 25.2897 17.5578 21.8600 3.5605 2.6810 37.8336
#
#
#
# Elastic Compliance Matrix: (Units=1/GPa)
#
#
# Indices 1 2 3 4 5 6 
#
# 1 0.013781 -0.002177 -0.000845 -0.005954 0.005767 -0.007562
# 2 -0.002177 0.022301 -0.002181 -0.002682 0.007720 -0.007929
# 3 -0.000845 -0.002181 0.006361 0.003025 -0.001882 -0.002250
# 4 -0.005954 -0.002682 0.003025 0.041634 -0.013957 0.000548
# 5 0.005767 0.007720 -0.001882 -0.013957 0.029995 -0.007162
# 6 -0.007562 -0.007929 -0.002250 0.000548 -0.007162 0.036922
#
#
# Mechanical properties :
#
#
# Convention : Reuss Voigt Hill
#
# Bulk Modulus (GPa) = 31.21288 55.46139 43.33714
# Shear Modulus (GPa) = 29.05688 40.79568 34.92628
#
# Velocity S-wave (km/s) = 3.31197 3.92436 3.63109
# Velocity P-wave (km/s) = 5.13892 6.43980 5.82578
#
# Compressibility (1/GPa) = 0.03203805
#
# Stress axis : x y z
#
# Youngs Moduli (GPa) = 72.56482 44.84193 157.20970
#
# Poissons Ratio (x) = 0.09761 0.13278
# Poissons Ratio (y) = 0.15795 0.34284
# Poissons Ratio (z) = 0.06129 0.09779
#
# Static dielectric constant tensor:
#      x y z
#    x 2.137540 0.000020 0.071710 
#    y 0.000020 2.163430 -0.006470 
#    z 0.071710 -0.006470 2.111220 
# 
# From -- ./inp_files/291332.got.cif
#   From: 2010.05.17/outbox.cif.g08.bks.cpg/sg2_146_cif.got.tgz:291332.got - 2010.06.03 11:33:40.
