data_PCOD9024205
_publ_section_title
;
Structure prediction by ZEFSAII (Michael W. Deem and Ramdas Pophale) SiO2 
 PCOD9024205
Probable space group: P -1
;
_chemical_formula_sum "Si O2"
_cell_formula_units_Z 14
_cell_length_a 27.811091
_cell_length_b 5.230598
_cell_length_c 9.777906
_cell_angle_alpha 109.861861
_cell_angle_beta 27.818993
_cell_angle_gamma 121.839275
_cell_volume 534.287828
_symmetry_space_group_name_H-M "P -1"
_symmetry_group_IT_number 2
_symmetry_cell_setting 'triclinic'
loop_
_space_group_symop_operation_xyz
x,y,z
-x,-y,-z
loop_
_atom_site_type_symbol
_atom_site_label
_atom_site_fract_x
_atom_site_fract_y
_atom_site_fract_z
Si Si1 0.748060 0.222902 0.238029
Si Si2 0.511722 0.253809 0.832168
Si Si3 0.224526 0.331093 0.194062
Si Si4 0.937280 0.203376 0.207622
Si Si5 0.573948 0.502673 0.443461
Si Si6 0.869748 0.366777 0.680515
Si Si7 0.255296 0.760928 0.436986
O O1 0.646220 0.318435 0.501518
O O2 0.786457 0.278988 0.309320
O O3 0.664967 0.843088 0.347853
O O4 0.855117 0.391965 0.886187
O O5 0.488787 0.289138 0.738319
O O6 0.500000 0.500000 0.000000
O O7 0.400235 0.922760 0.103631
O O8 0.125089 0.323605 0.342182
O O9 0.214177 0.461034 0.387853
O O10 0.230042 0.017401 0.140360
O O11 0.337925 0.592631 0.867501
O O12 0.947464 0.318842 0.359103
O O13 0.798633 0.049499 0.473280
O O14 0.000000 0.500000 0.000000
O O15 0.000000 0.000000 0.000000
O O16 0.500000 0.500000 0.500000
#
# Coordination Sequence:
#
# PCOD9024205 Si02
#       7
#     2   2   2   2   2   2   2
#     4  11  24  44  61 105 146 180 229 279 346 425
#     4  12  25  40  64 103 148 187 229 277 344 421
#     4  10  22  40  63  99 131 182 227 274 333 405
#     4  11  25  49  73 103 132 177 240 302 352 409
#     4  11  24  38  60  93 143 187 231 272 324 413
#     4  10  22  44  72  98 135 176 227 287 347 412
#     4  11  25  42  70 100 138 190 231 288 351 413
#
# _framework density 26.203102000000001
#
# number of rings (size 3 to 8) (size 9 to 14) (size 15 to 20)
#    0.000    1.143    2.857    3.000   10.000    2.286 
#    0.000    1.429    0.000    0.000    0.000    0.000 
#    0.000    0.000    0.000    0.000    0.000    0.000 
#
# Total GULP energy -78003.815419 kJ/mol
# GULP energy per Si atom -5571.701101 kJ/mol
# Density = 2.614346 g / cm^3
# Si number density = 26.203102 Si / 1000 Ang^3
#
#
#
# Elastic Constant Matrix: (Units=GPa)
#
#
# Indices 1 2 3 4 5 6 
#
# 1 181.2050 42.2618 62.1838 21.0206 42.3784 13.5778
# 2 42.2618 63.7146 20.8378 9.8333 7.4405 -9.6918
# 3 62.1838 20.8378 169.2037 26.3367 58.7006 4.3734
# 4 21.0206 9.8333 26.3367 38.5719 -7.5218 -3.3260
# 5 42.3784 7.4405 58.7006 -7.5218 59.2389 10.8096
# 6 13.5778 -9.6918 4.3734 -3.3260 10.8096 36.6283
#
#
#
# Elastic Compliance Matrix: (Units=1/GPa)
#
#
# Indices 1 2 3 4 5 6 
#
# 1 0.008847 -0.004960 0.000432 -0.005347 -0.006212 -0.003296
# 2 -0.004960 0.020500 -0.000771 -0.001328 0.000264 0.007157
# 3 0.000432 -0.000771 0.012525 -0.011264 -0.014297 0.001337
# 4 -0.005347 -0.001328 -0.011264 0.040873 0.020211 0.000723
# 5 -0.006212 0.000264 -0.014297 0.020211 0.039049 -0.005609
# 6 -0.003296 0.007157 0.001337 0.000723 -0.005609 0.031978
#
#
# Mechanical properties :
#
#
# Convention : Reuss Voigt Hill
#
# Bulk Modulus (GPa) = 31.97659 73.85444 52.91552
# Shear Modulus (GPa) = 28.60473 46.14381 37.37427
#
# Velocity S-wave (km/s) = 3.30760 4.20099 3.78078
# Velocity P-wave (km/s) = 5.17850 7.19567 6.26875
#
# Compressibility (1/GPa) = 0.03127288
#
# Stress axis : x y z
#
# Youngs Moduli (GPa) = 113.02877 48.77984 79.84000
#
# Poissons Ratio (x) = 0.24197 -0.03448
# Poissons Ratio (y) = 0.56066 0.06159
# Poissons Ratio (z) = -0.04882 0.03763
#
# Static dielectric constant tensor:
#      x y z
#    x 2.036830 -0.039390 -0.039480 
#    y -0.039390 2.095990 -0.055120 
#    z -0.039480 -0.055120 2.146620 
# 
# From -- ./inp_files/56525.got.cif
#   From: 2010.05.17/outbox.cif.g08.bks.cpg/sg2_29_cif.got.tgz:56525.got - 2010.06.03 11:33:40.
