data_PCOD9024019
_publ_section_title
;
Structure prediction by ZEFSAII (Michael W. Deem and Ramdas Pophale) SiO2 
 PCOD9024019
Probable space group: P -1
;
_chemical_formula_sum "Si O2"
_cell_formula_units_Z 14
_cell_length_a 10.000469
_cell_length_b 19.567074
_cell_length_c 7.250074
_cell_angle_alpha 120.339437
_cell_angle_beta 128.432500
_cell_angle_gamma 39.073482
_cell_volume 699.752776
_symmetry_space_group_name_H-M "P -1"
_symmetry_group_IT_number 2
_symmetry_cell_setting 'triclinic'
loop_
_space_group_symop_operation_xyz
x,y,z
-x,-y,-z
loop_
_atom_site_type_symbol
_atom_site_label
_atom_site_fract_x
_atom_site_fract_y
_atom_site_fract_z
Si Si1 0.266185 0.102743 0.539142
Si Si2 0.166484 0.268614 0.972203
Si Si3 0.509794 0.680475 0.622542
Si Si4 0.007385 0.207214 0.079145
Si Si5 0.005497 0.091166 0.599001
Si Si6 0.800269 0.504794 0.908713
Si Si7 0.470908 0.414627 0.860927
O O1 0.273102 0.174464 0.785272
O O2 0.176494 0.061325 0.539478
O O3 0.500000 0.000000 0.500000
O O4 0.102138 0.175315 0.323466
O O5 0.339145 0.287672 0.176957
O O6 0.919163 0.380857 0.834810
O O7 0.727398 0.301192 0.977507
O O8 0.108318 0.245061 0.085293
O O9 0.242976 0.791686 0.515342
O O10 0.568174 0.601009 0.728419
O O11 0.589294 0.606350 0.411687
O O12 0.071734 0.110453 0.877325
O O13 0.000000 0.000000 0.500000
O O14 0.730356 0.542267 0.109201
O O15 0.000000 0.500000 0.000000
O O16 0.500000 0.500000 0.000000
#
# Coordination Sequence:
#
# PCOD9024019 Si02
#       7
#     2   2   2   2   2   2   2
#     4  11  26  43  66  95 122 171 217 259 321 376
#     4  10  23  41  65  96 130 167 206 268 316 369
#     4  10  24  41  66  95 131 166 212 262 314 375
#     4  10  23  43  65  95 127 164 216 258 318 382
#     4  10  24  45  66  92 128 166 213 268 317 367
#     4  10  22  40  62  97 130 162 208 257 314 376
#     4  11  22  40  66  94 125 172 205 250 322 377
#
# _framework density 20.007065999999998
#
# number of rings (size 3 to 8) (size 9 to 14) (size 15 to 20)
#    0.000    1.714    1.429    0.857    6.000    6.857 
#    5.143    0.000    0.000    0.000    0.000    0.000 
#    0.000    0.000    0.000    0.000    0.000    0.000 
#
# Total GULP energy -78121.263255 kJ/mol
# GULP energy per Si atom -5580.090233 kJ/mol
# Density = 1.996153 g / cm^3
# Si number density = 20.007066 Si / 1000 Ang^3
#
#
#
# Elastic Constant Matrix: (Units=GPa)
#
#
# Indices 1 2 3 4 5 6 
#
# 1 98.8175 30.2643 37.5272 31.5921 -19.7312 1.5400
# 2 30.2643 81.2825 27.8626 24.4884 -13.7436 5.5448
# 3 37.5272 27.8626 96.9931 18.9837 -11.1321 13.2304
# 4 31.5921 24.4884 18.9837 25.7289 -6.5802 -2.8743
# 5 -19.7312 -13.7436 -11.1321 -6.5802 28.5566 5.7197
# 6 1.5400 5.5448 13.2304 -2.8743 5.7197 32.1198
#
#
#
# Elastic Compliance Matrix: (Units=1/GPa)
#
#
# Indices 1 2 3 4 5 6 
#
# 1 0.019274 0.002051 -0.002104 -0.022168 0.009184 -0.004031
# 2 0.002051 0.019175 -0.000974 -0.018900 0.007106 -0.005964
# 3 -0.002104 -0.000974 0.014017 -0.006728 0.003334 -0.006701
# 4 -0.022168 -0.018900 -0.006728 0.088347 -0.010041 0.016791
# 5 0.009184 0.007106 0.003334 -0.010041 0.046206 -0.012167
# 6 -0.004031 -0.005964 -0.006701 0.016791 -0.012167 0.038786
#
#
# Mechanical properties :
#
#
# Convention : Reuss Voigt Hill
#
# Bulk Modulus (GPa) = 19.83589 52.04458 35.94024
# Shear Modulus (GPa) = 20.43627 29.37697 24.90662
#
# Velocity S-wave (km/s) = 3.19948 3.83604 3.53213
# Velocity P-wave (km/s) = 4.85643 6.75942 5.88535
#
# Compressibility (1/GPa) = 0.05041366
#
# Stress axis : x y z
#
# Youngs Moduli (GPa) = 51.88304 52.15072 71.34074
#
# Poissons Ratio (x) = -0.10697 0.15009
# Poissons Ratio (y) = -0.10642 0.06947
# Poissons Ratio (z) = 0.10916 0.05078
#
# Static dielectric constant tensor:
#      x y z
#    x 1.697470 -0.001960 0.020130 
#    y -0.001960 1.709510 -0.009310 
#    z 0.020130 -0.009310 1.702980 
# 
# From -- ./inp_files/51749.got.cif
#   From: 2010.05.17/outbox.cif.g08.bks.cpg/sg2_26_cif.got.tgz:51749.got - 2010.06.03 11:33:40.
