data_PCOD9024190
_publ_section_title
;
Structure prediction by ZEFSAII (Michael W. Deem and Ramdas Pophale) SiO2 
 PCOD9024190
Probable space group: P -1
;
_chemical_formula_sum "Si O2"
_cell_formula_units_Z 16
_cell_length_a 5.363779
_cell_length_b 8.234890
_cell_length_c 16.864588
_cell_angle_alpha 121.542199
_cell_angle_beta 97.873774
_cell_angle_gamma 89.948818
_cell_volume 626.655472
_symmetry_space_group_name_H-M "P -1"
_symmetry_group_IT_number 2
_symmetry_cell_setting 'triclinic'
loop_
_space_group_symop_operation_xyz
x,y,z
-x,-y,-z
loop_
_atom_site_type_symbol
_atom_site_label
_atom_site_fract_x
_atom_site_fract_y
_atom_site_fract_z
Si Si1 0.132829 0.648350 0.777695
Si Si2 0.552310 0.260633 0.512596
Si Si3 0.293127 0.233145 0.729333
Si Si4 0.872955 0.984690 0.902848
Si Si5 0.776309 0.394771 0.409109
Si Si6 0.226286 0.894413 0.379262
Si Si7 0.372683 0.709192 0.963276
Si Si8 0.196653 0.326674 0.921743
O O1 0.178697 0.426765 0.739831
O O2 0.159077 0.676867 0.692481
O O3 0.331428 0.733774 0.874895
O O4 0.891655 0.767376 0.820118
O O5 0.644207 0.238985 0.422015
O O6 0.436621 0.457814 0.573051
O O7 0.777334 0.238936 0.577412
O O8 0.326905 0.098130 0.471412
O O9 0.549221 0.183696 0.684469
O O10 0.338170 0.262063 0.831741
O O11 0.040326 0.093188 0.669901
O O12 0.011039 0.139856 0.887565
O O13 0.626465 0.091411 0.939211
O O14 0.000000 0.000000 0.000000
O O15 0.000000 0.500000 0.500000
O O16 0.157740 0.546331 0.946106
O O17 0.633133 0.635864 0.983277
#
# Coordination Sequence:
#
# PCOD9024190 Si02
#       8
#     2   2   2   2   2   2   2   2
#     4  10  22  44  65  98 137 186 229 288 353 419
#     4  10  25  42  70  99 134 190 227 301 342 417
#     4  11  25  45  70 106 138 183 238 288 349 418
#     4  10  22  40  63  97 130 177 225 285 346 416
#     4  11  23  44  67 101 144 179 232 286 358 415
#     4  11  25  46  72 102 140 185 240 290 348 414
#     4   9  21  44  65  96 134 178 232 286 347 411
#     4  10  22  41  68  97 132 179 226 292 341 414
#
# _framework density 25.53237
#
# number of rings (size 3 to 8) (size 9 to 14) (size 15 to 20)
#    0.000    1.750    1.250    1.125    5.250    3.000 
#   13.500    1.250    0.000    0.000    0.000    0.000 
#    0.000    0.000    0.000    0.000    0.000    0.000 
#
# Total GULP energy -89210.239971 kJ/mol
# GULP energy per Si atom -5575.639998 kJ/mol
# Density = 2.547426 g / cm^3
# Si number density = 25.532370 Si / 1000 Ang^3
#
#
#
# Elastic Constant Matrix: (Units=GPa)
#
#
# Indices 1 2 3 4 5 6 
#
# 1 71.2636 30.6983 38.7706 1.1548 -2.6959 -15.0514
# 2 30.6983 91.9219 31.7167 -6.4002 -12.1701 -3.6894
# 3 38.7706 31.7167 133.0081 -26.9457 -16.4944 -20.4289
# 4 1.1548 -6.4002 -26.9457 45.3601 -11.6105 -4.8635
# 5 -2.6959 -12.1701 -16.4944 -11.6105 38.6723 2.9064
# 6 -15.0514 -3.6894 -20.4289 -4.8635 2.9064 30.8425
#
#
#
# Elastic Compliance Matrix: (Units=1/GPa)
#
#
# Indices 1 2 3 4 5 6 
#
# 1 0.020477 -0.005732 -0.005394 -0.005144 -0.004624 0.005359
# 2 -0.005732 0.013775 -0.000789 0.002592 0.004504 -0.001688
# 3 -0.005394 -0.000789 0.013574 0.010885 0.007889 0.007237
# 4 -0.005144 0.002592 0.010885 0.033690 0.014542 0.008952
# 5 -0.004624 0.004504 0.007889 0.014542 0.034492 0.002550
# 6 0.005359 -0.001688 0.007237 0.008952 0.002550 0.040801
#
#
# Mechanical properties :
#
#
# Convention : Reuss Voigt Hill
#
# Bulk Modulus (GPa) = 41.67848 55.39607 48.53728
# Shear Modulus (GPa) = 26.50576 35.97551 31.24064
#
# Velocity S-wave (km/s) = 3.22549 3.75776 3.50175
# Velocity P-wave (km/s) = 5.49827 6.36955 5.94988
#
# Compressibility (1/GPa) = 0.02399320
#
# Stress axis : x y z
#
# Youngs Moduli (GPa) = 48.83585 72.59753 73.67102
#
# Poissons Ratio (x) = 0.41616 0.39740
# Poissons Ratio (y) = 0.27995 0.05814
# Poissons Ratio (z) = 0.26343 0.05730
#
# Static dielectric constant tensor:
#      x y z
#    x 2.115530 0.048970 -0.020380 
#    y 0.048970 2.135130 0.045090 
#    z -0.020380 0.045090 1.996410 
# 
# From -- ./inp_files/548317.got.cif
#   From: 2010.05.17/outbox.cif.g08.bks.cpg/sg2_275_cif.got.tgz:548317.got - 2010.06.03 11:33:40.
