data_PCOD9024420
_publ_section_title
;
Structure prediction by ZEFSAII (Michael W. Deem and Ramdas Pophale) SiO2 
 PCOD9024420
Probable space group: P -1
;
_chemical_formula_sum "Si O2"
_cell_formula_units_Z 14
_cell_length_a 11.386087
_cell_length_b 11.557696
_cell_length_c 11.665483
_cell_angle_alpha 44.746355
_cell_angle_beta 42.192105
_cell_angle_gamma 40.741224
_cell_volume 632.892453
_symmetry_space_group_name_H-M "P -1"
_symmetry_group_IT_number 2
_symmetry_cell_setting 'triclinic'
loop_
_space_group_symop_operation_xyz
x,y,z
-x,-y,-z
loop_
_atom_site_type_symbol
_atom_site_label
_atom_site_fract_x
_atom_site_fract_y
_atom_site_fract_z
Si Si1 0.421300 0.654644 0.306500
Si Si2 0.238194 0.171441 0.330308
Si Si3 0.287086 0.512079 0.122102
Si Si4 0.027175 0.821558 0.905021
Si Si5 0.903759 0.229266 0.717129
Si Si6 0.809608 0.706620 0.981803
Si Si7 0.660368 0.226024 0.478791
O O1 0.305425 0.719161 0.227689
O O2 0.483388 0.436412 0.434525
O O3 0.287512 0.773420 0.426408
O O4 0.613138 0.684523 0.149233
O O5 0.324254 0.304166 0.217408
O O6 0.187875 0.213715 0.202103
O O7 0.048979 0.224650 0.513635
O O8 0.378085 0.946580 0.397791
O O9 0.143258 0.616263 0.260942
O O10 0.500000 0.500000 0.000000
O O11 0.164207 0.644988 0.010500
O O12 0.158552 0.801367 0.712204
O O13 0.833940 0.820311 0.991058
O O14 0.984928 0.017722 0.853850
O O15 0.000000 0.500000 0.000000
#
# Coordination Sequence:
#
# PCOD9024420 Si02
#       7
#     2   2   2   2   2   2   2
#     4  11  23  41  66 100 131 166 215 262 322 380
#     4  11  24  43  66  94 130 170 213 264 327 375
#     4  12  25  45  67  92 130 172 220 266 314 383
#     4  11  23  44  66  94 132 172 212 264 326 374
#     4  11  25  43  67  94 129 174 218 260 317 386
#     4  12  22  40  66  96 133 165 207 266 325 377
#     4  10  22  40  64  96 128 165 213 263 319 378
#
# _framework density 22.120664000000001
#
# number of rings (size 3 to 8) (size 9 to 14) (size 15 to 20)
#    0.000    0.857    2.857    4.286    2.000    5.714 
#    0.000    7.857    0.000    0.000    0.000    0.000 
#    0.000    0.000    0.000    0.000    0.000    0.000 
#
# Total GULP energy -78295.187291 kJ/mol
# GULP energy per Si atom -5592.513378 kJ/mol
# Density = 2.207032 g / cm^3
# Si number density = 22.120664 Si / 1000 Ang^3
#
#
#
# Elastic Constant Matrix: (Units=GPa)
#
#
# Indices 1 2 3 4 5 6 
#
# 1 105.9268 36.2961 57.8418 -5.6056 -12.3536 12.6991
# 2 36.2961 103.3123 48.2234 -23.3971 -4.6673 30.0516
# 3 57.8418 48.2234 110.1829 -12.9070 2.1257 6.9365
# 4 -5.6056 -23.3971 -12.9070 40.4055 16.7588 -4.5408
# 5 -12.3536 -4.6673 2.1257 16.7588 30.2189 2.2480
# 6 12.6991 30.0516 6.9365 -4.5408 2.2480 25.8785
#
#
#
# Elastic Compliance Matrix: (Units=1/GPa)
#
#
# Indices 1 2 3 4 5 6 
#
# 1 0.016253 -0.000383 -0.008860 -0.006263 0.011220 -0.007230
# 2 -0.000383 0.020652 -0.006739 0.006892 0.001239 -0.020886
# 3 -0.008860 -0.006739 0.016881 0.005237 -0.009453 0.009389
# 4 -0.006263 0.006892 0.005237 0.039889 -0.024192 0.002767
# 5 0.011220 0.001239 -0.009453 -0.024192 0.052937 -0.013254
# 6 -0.007230 -0.020886 0.009389 0.002767 -0.013254 0.065564
#
#
# Mechanical properties :
#
#
# Convention : Reuss Voigt Hill
#
# Bulk Modulus (GPa) = 45.82528 67.12717 56.47622
# Shear Modulus (GPa) = 19.88751 31.10463 25.49607
#
# Velocity S-wave (km/s) = 3.00166 3.75391 3.39867
# Velocity P-wave (km/s) = 5.72489 7.01434 6.40216
#
# Compressibility (1/GPa) = 0.02182202
#
# Stress axis : x y z
#
# Youngs Moduli (GPa) = 61.52523 48.42216 59.23811
#
# Poissons Ratio (x) = 0.01856 0.52483
# Poissons Ratio (y) = 0.02359 0.39921
# Poissons Ratio (z) = 0.54509 0.32632
#
# Static dielectric constant tensor:
#      x y z
#    x 1.799570 0.028400 -0.008350 
#    y 0.028400 1.829430 -0.005250 
#    z -0.008350 -0.005250 1.829360 
# 
# From -- ./inp_files/185545.got.cif
#   From: 2010.05.17/outbox.cif.g08.bks.cpg/sg2_93_cif.got.tgz:185545.got - 2010.06.03 11:33:40.
