data_PCOD9024032
_publ_section_title
;
Structure prediction by ZEFSAII (Michael W. Deem and Ramdas Pophale) SiO2 
 PCOD9024032
Probable space group: P -1
;
_chemical_formula_sum "Si O2"
_cell_formula_units_Z 16
_cell_length_a 16.254044
_cell_length_b 6.186228
_cell_length_c 15.511112
_cell_angle_alpha 62.468466
_cell_angle_beta 142.195939
_cell_angle_gamma 129.805203
_cell_volume 731.283319
_symmetry_space_group_name_H-M "P -1"
_symmetry_group_IT_number 2
_symmetry_cell_setting 'triclinic'
loop_
_space_group_symop_operation_xyz
x,y,z
-x,-y,-z
loop_
_atom_site_type_symbol
_atom_site_label
_atom_site_fract_x
_atom_site_fract_y
_atom_site_fract_z
Si Si1 0.317231 0.345165 0.633126
Si Si2 0.385699 0.673933 0.062071
Si Si3 0.645861 0.153855 0.532462
Si Si4 0.865764 0.506508 0.442388
Si Si5 0.879896 0.657789 0.959583
Si Si6 0.900484 0.598544 0.791399
Si Si7 0.185505 0.002777 0.413085
Si Si8 0.583050 0.315943 0.109542
O O1 0.455060 0.335952 0.797300
O O2 0.382577 0.666981 0.596762
O O3 0.162823 0.260174 0.576974
O O4 0.266580 0.152756 0.541653
O O5 0.258238 0.453787 0.064003
O O6 0.444754 0.998676 0.073417
O O7 0.341015 0.648883 0.929105
O O8 0.779015 0.379827 0.663339
O O9 0.500000 0.000000 0.500000
O O10 0.688930 0.931332 0.569413
O O11 0.715777 0.384950 0.277285
O O12 0.000000 0.500000 0.500000
O O13 0.873162 0.323728 0.562089
O O14 0.832792 0.580494 0.834599
O O15 0.966338 0.480458 0.081686
O O16 0.000000 0.000000 0.000000
O O17 0.937034 0.904301 0.731192
O O18 0.500000 0.500000 0.000000
#
# Coordination Sequence:
#
# PCOD9024032 Si02
#       8
#     2   2   2   2   2   2   2   2
#     4  10  22  40  63 100 130 178 227 281 341 418
#     4  11  25  43  71  95 139 182 239 289 344 424
#     4  10  23  37  67  97 131 177 221 281 352 413
#     4  11  24  42  68 101 136 179 229 294 352 416
#     4  11  26  44  69 100 140 188 236 291 350 414
#     4  10  24  43  62  99 136 176 235 279 352 425
#     4  10  22  42  62  94 140 164 228 281 345 418
#     4  11  24  45  69 102 137 184 237 288 357 412
#
# _framework density 21.879346000000002
#
# number of rings (size 3 to 8) (size 9 to 14) (size 15 to 20)
#    0.000    1.500    2.500    0.750    5.250    8.500 
#    0.000    0.000    0.000    0.000    0.000    0.000 
#    0.000    0.000    0.000    0.000    0.000    0.000 
#
# Total GULP energy -89132.710951 kJ/mol
# GULP energy per Si atom -5570.794434 kJ/mol
# Density = 2.182955 g / cm^3
# Si number density = 21.879346 Si / 1000 Ang^3
#
#
#
# Elastic Constant Matrix: (Units=GPa)
#
#
# Indices 1 2 3 4 5 6 
#
# 1 135.9983 36.2116 22.1908 10.5421 6.9231 -8.5772
# 2 36.2116 73.2170 35.0889 -19.0721 14.0502 -8.4701
# 3 22.1908 35.0889 99.4039 -24.5164 -8.3923 -5.3878
# 4 10.5421 -19.0721 -24.5164 35.1695 -14.1273 -1.5240
# 5 6.9231 14.0502 -8.3923 -14.1273 37.8274 0.2829
# 6 -8.5772 -8.4701 -5.3878 -1.5240 0.2829 34.6230
#
#
#
# Elastic Compliance Matrix: (Units=1/GPa)
#
#
# Indices 1 2 3 4 5 6 
#
# 1 0.010293 -0.005242 -0.003246 -0.009929 -0.004368 0.000361
# 2 -0.005242 0.022189 -0.004876 0.008233 -0.005318 0.003777
# 3 -0.003246 -0.004876 0.017353 0.015282 0.011953 0.001278
# 4 -0.009929 0.008233 0.015282 0.055956 0.023016 0.004207
# 5 -0.004368 -0.005318 0.011953 0.023016 0.040457 0.000160
# 6 0.000361 0.003777 0.001278 0.004207 0.000160 0.030279
#
#
# Mechanical properties :
#
#
# Convention : Reuss Voigt Hill
#
# Bulk Modulus (GPa) = 43.27441 55.06687 49.17064
# Shear Modulus (GPa) = 23.70143 35.86585 29.78364
#
# Velocity S-wave (km/s) = 3.29489 4.05316 3.69354
# Velocity P-wave (km/s) = 5.85634 6.86493 6.38059
#
# Compressibility (1/GPa) = 0.02310835
#
# Stress axis : x y z
#
# Youngs Moduli (GPa) = 97.15182 45.06656 57.62550
#
# Poissons Ratio (x) = 0.23623 0.18703
# Poissons Ratio (y) = 0.50925 0.28100
# Poissons Ratio (z) = 0.31532 0.21976
#
# Static dielectric constant tensor:
#      x y z
#    x 2.001580 -0.009680 -0.022580 
#    y -0.009680 1.864280 -0.009160 
#    z -0.022580 -0.009160 1.836920 
# 
# From -- ./inp_files/525637.got.cif
#   From: 2010.05.17/outbox.cif.g08.bks.cpg/sg2_263_cif.got.tgz:525637.got - 2010.06.03 11:33:40.
