data_PCOD9024095
_publ_section_title
;
Structure prediction by ZEFSAII (Michael W. Deem and Ramdas Pophale) SiO2 
 PCOD9024095
Probable space group: P -1
;
_chemical_formula_sum "Si O2"
_cell_formula_units_Z 14
_cell_length_a 7.538903
_cell_length_b 18.907733
_cell_length_c 7.056340
_cell_angle_alpha 69.110578
_cell_angle_beta 140.760640
_cell_angle_gamma 124.953885
_cell_volume 514.058772
_symmetry_space_group_name_H-M "P -1"
_symmetry_group_IT_number 2
_symmetry_cell_setting 'triclinic'
loop_
_space_group_symop_operation_xyz
x,y,z
-x,-y,-z
loop_
_atom_site_type_symbol
_atom_site_label
_atom_site_fract_x
_atom_site_fract_y
_atom_site_fract_z
Si Si1 0.942688 0.542270 0.155511
Si Si2 0.245617 0.104720 0.313643
Si Si3 0.142253 0.093723 0.791534
Si Si4 0.500282 0.618484 0.824317
Si Si5 0.798293 0.736087 0.269876
Si Si6 0.072138 0.661583 0.840468
Si Si7 0.769491 0.173779 0.964297
O O1 0.772275 0.443695 0.185278
O O2 0.303910 0.596305 0.487660
O O3 0.747825 0.583060 0.057607
O O4 0.912959 0.565516 0.891290
O O5 0.596910 0.169918 0.625995
O O6 0.243393 0.102743 0.087102
O O7 0.131397 0.005324 0.376394
O O8 0.983999 0.128166 0.159113
O O9 0.017011 0.163341 0.610967
O O10 0.455273 0.122384 0.891680
O O11 0.689725 0.714199 0.981911
O O12 0.953830 0.680018 0.527386
O O13 0.453965 0.699955 0.122100
O O14 0.028149 0.728040 0.880884
#
# Coordination Sequence:
#
# PCOD9024095 Si02
#       7
#     2   2   2   2   2   2   2
#     4  10  22  40  63  92 125 160 212 251 302 400
#     4  11  25  42  68  93 125 186 211 272 339 379
#     4  10  25  43  64  98 133 162 235 269 318 404
#     4  10  22  40  64  92 123 165 203 257 316 364
#     4  11  24  40  62  92 127 163 204 271 318 368
#     4  11  24  40  62  94 126 163 212 256 320 383
#     4  11  24  42  65  94 132 172 219 271 328 384
#
# _framework density 27.234241000000001
#
# number of rings (size 3 to 8) (size 9 to 14) (size 15 to 20)
#    0.000    1.429    0.000    4.286    4.000    9.143 
#    0.000    0.000    0.000    0.000    0.000    0.000 
#    0.000    0.000    0.000    0.000    0.000    0.000 
#
# Total GULP energy -78482.355314 kJ/mol
# GULP energy per Si atom -5605.882522 kJ/mol
# Density = 2.717225 g / cm^3
# Si number density = 27.234241 Si / 1000 Ang^3
#
#
#
# Elastic Constant Matrix: (Units=GPa)
#
#
# Indices 1 2 3 4 5 6 
#
# 1 75.7989 13.8482 6.8206 -1.0434 -2.1191 -4.2266
# 2 13.8482 111.5854 27.4565 -17.0845 5.5111 -6.6794
# 3 6.8206 27.4565 145.4739 -4.6916 4.5855 -11.6860
# 4 -1.0434 -17.0845 -4.6916 39.5468 -3.8723 -5.0582
# 5 -2.1191 5.5111 4.5855 -3.8723 47.1162 -6.4347
# 6 -4.2266 -6.6794 -11.6860 -5.0582 -6.4347 40.3602
#
#
#
# Elastic Compliance Matrix: (Units=1/GPa)
#
#
# Indices 1 2 3 4 5 6 
#
# 1 0.013606 -0.001616 -0.000270 -0.000118 0.000984 0.001221
# 2 -0.001616 0.010345 -0.001594 0.004380 -0.000557 0.001541
# 3 -0.000270 -0.001594 0.007356 0.000388 -0.000258 0.001845
# 4 -0.000118 0.004380 0.000388 0.028060 0.002396 0.004723
# 5 0.000984 -0.000557 -0.000258 0.002396 0.022068 0.003755
# 6 0.001221 0.001541 0.001845 0.004723 0.003755 0.026885
#
#
# Mechanical properties :
#
#
# Convention : Reuss Voigt Hill
#
# Bulk Modulus (GPa) = 41.07051 47.67873 44.37462
# Shear Modulus (GPa) = 40.51979 44.38682 42.45331
#
# Velocity S-wave (km/s) = 3.86142 4.04148 3.95247
# Velocity P-wave (km/s) = 5.91557 6.27080 6.09577
#
# Compressibility (1/GPa) = 0.02434837
#
# Stress axis : x y z
#
# Youngs Moduli (GPa) = 73.49544 96.66609 135.93470
#
# Poissons Ratio (x) = 0.15620 0.03666
# Poissons Ratio (y) = 0.11876 0.21669
# Poissons Ratio (z) = 0.01982 0.15409
#
# Static dielectric constant tensor:
#      x y z
#    x 2.181070 0.072790 -0.052280 
#    y 0.072790 2.158580 -0.027990 
#    z -0.052280 -0.027990 1.997230 
# 
# From -- ./inp_files/223553.got.cif
#   From: 2010.05.17/outbox.cif.g08.bks.cpg/sg2_112_cif.got.tgz:223553.got - 2010.06.03 11:33:40.
