data_PCOD9024813
_publ_section_title
;
Structure prediction by ZEFSAII (Michael W. Deem and Ramdas Pophale) SiO2 
 PCOD9024813
Probable space group: P -1
;
_chemical_formula_sum "Si O2"
_cell_formula_units_Z 14
_cell_length_a 11.856825
_cell_length_b 8.904155
_cell_length_c 11.736374
_cell_angle_alpha 140.381129
_cell_angle_beta 68.841154
_cell_angle_gamma 121.808707
_cell_volume 669.133645
_symmetry_space_group_name_H-M "P -1"
_symmetry_group_IT_number 2
_symmetry_cell_setting 'triclinic'
loop_
_space_group_symop_operation_xyz
x,y,z
-x,-y,-z
loop_
_atom_site_type_symbol
_atom_site_label
_atom_site_fract_x
_atom_site_fract_y
_atom_site_fract_z
Si Si1 0.000527 0.240519 0.213082
Si Si2 0.811209 0.451068 0.041549
Si Si3 0.532608 0.038939 0.878220
Si Si4 0.749862 0.279040 0.215546
Si Si5 0.134956 0.721009 0.315883
Si Si6 0.006974 0.044898 0.346236
Si Si7 0.290670 0.203382 0.428462
O O1 0.868952 0.279231 0.248944
O O2 0.001667 0.182996 0.311441
O O3 0.126031 0.500282 0.278447
O O4 0.000000 0.000000 0.000000
O O5 0.799324 0.300912 0.078281
O O6 0.891604 0.754808 0.213762
O O7 0.884038 0.405598 0.876380
O O8 0.655253 0.320662 0.982164
O O9 0.385448 0.966809 0.842295
O O10 0.589254 0.829710 0.697110
O O11 0.500000 0.000000 0.000000
O O12 0.707531 0.520505 0.382295
O O13 0.022176 0.808375 0.450782
O O14 0.261077 0.997921 0.423245
O O15 0.156634 0.075737 0.326160
#
# Coordination Sequence:
#
# PCOD9024813 Si02
#       7
#     2   2   2   2   2   2   2
#     4  12  26  38  62  93 134 169 197 259 318 381
#     4  10  22  40  66  92 124 162 213 262 308 362
#     4   9  22  38  63  93 123 165 208 265 305 364
#     4  11  22  43  63  95 128 164 214 251 314 374
#     4  11  22  40  61  95 125 163 205 261 316 360
#     4  12  23  40  61  97 129 161 207 258 319 372
#     4  11  22  38  70  94 122 163 210 271 307 363
#
# _framework density 20.922577
#
# number of rings (size 3 to 8) (size 9 to 14) (size 15 to 20)
#    0.000    1.143    4.286    2.143    6.000    2.857 
#    0.000    0.714    0.000    3.429    0.000    0.000 
#    0.000    0.000    0.000    0.000    0.000    0.000 
#
# Total GULP energy -78007.686555 kJ/mol
# GULP energy per Si atom -5571.977611 kJ/mol
# Density = 2.087496 g / cm^3
# Si number density = 20.922577 Si / 1000 Ang^3
#
#
#
# Elastic Constant Matrix: (Units=GPa)
#
#
# Indices 1 2 3 4 5 6 
#
# 1 69.6659 54.0143 16.5833 -3.5987 6.4545 26.5897
# 2 54.0143 125.8488 36.1180 -1.2168 1.9302 7.2569
# 3 16.5833 36.1180 104.7223 -11.0072 -9.6290 15.6385
# 4 -3.5987 -1.2168 -11.0072 46.9797 10.4461 0.4331
# 5 6.4545 1.9302 -9.6290 10.4461 28.5166 -1.3167
# 6 26.5897 7.2569 15.6385 0.4331 -1.3167 29.5425
#
#
#
# Elastic Compliance Matrix: (Units=1/GPa)
#
#
# Indices 1 2 3 4 5 6 
#
# 1 0.041272 -0.016635 0.004246 0.006459 -0.010805 -0.035885
# 2 -0.016635 0.015613 -0.004861 -0.002739 0.002711 0.013871
# 3 0.004246 -0.004861 0.012399 0.002713 0.002139 -0.009136
# 4 0.006459 -0.002739 0.002713 0.024570 -0.009701 -0.007369
# 5 -0.010805 0.002711 0.002139 -0.009701 0.042065 0.009944
# 6 -0.035885 0.013871 -0.009136 -0.007369 0.009944 0.068127
#
#
# Mechanical properties :
#
#
# Convention : Reuss Voigt Hill
#
# Bulk Modulus (GPa) = 28.74848 57.07425 42.91136
# Shear Modulus (GPa) = 19.98872 33.90919 26.94895
#
# Velocity S-wave (km/s) = 3.09425 4.03016 3.59281
# Velocity P-wave (km/s) = 5.15132 6.99959 6.14534
#
# Compressibility (1/GPa) = 0.03478445
#
# Stress axis : x y z
#
# Youngs Moduli (GPa) = 24.22932 64.04961 80.65047
#
# Poissons Ratio (x) = 1.06548 -0.34243
# Poissons Ratio (y) = 0.40306 0.39201
# Poissons Ratio (z) = -0.10287 0.31132
#
# Static dielectric constant tensor:
#      x y z
#    x 1.780450 0.040120 0.015210 
#    y 0.040120 1.812320 0.050390 
#    z 0.015210 0.050390 1.846430 
# 
# From -- ./inp_files/407275.got.cif
#   From: 2010.05.17/outbox.cif.g08.bks.cpg/sg2_204_cif.got.tgz:407275.got - 2010.06.03 11:33:40.
