data_PCOD9024184
_publ_section_title
;
Structure prediction by ZEFSAII (Michael W. Deem and Ramdas Pophale) SiO2 
 PCOD9024184
Probable space group: P -1
;
_chemical_formula_sum "Si O2"
_cell_formula_units_Z 16
_cell_length_a 5.302406
_cell_length_b 19.473082
_cell_length_c 19.221476
_cell_angle_alpha 27.365530
_cell_angle_beta 124.298119
_cell_angle_gamma 133.136038
_cell_volume 660.054118
_symmetry_space_group_name_H-M "P -1"
_symmetry_group_IT_number 2
_symmetry_cell_setting 'triclinic'
loop_
_space_group_symop_operation_xyz
x,y,z
-x,-y,-z
loop_
_atom_site_type_symbol
_atom_site_label
_atom_site_fract_x
_atom_site_fract_y
_atom_site_fract_z
Si Si1 0.481467 0.696462 0.387348
Si Si2 0.589445 0.293806 0.483946
Si Si3 0.279722 0.337936 0.195831
Si Si4 0.710913 0.407691 0.698108
Si Si5 0.748269 0.004220 0.742959
Si Si6 0.368753 0.735068 0.042535
Si Si7 0.987820 0.649535 0.710875
Si Si8 0.274528 0.265818 0.108417
O O1 0.269079 0.688236 0.430933
O O2 0.552003 0.535846 0.550530
O O3 0.329127 0.686008 0.296901
O O4 0.842355 0.868090 0.299401
O O5 0.214645 0.284147 0.430684
O O6 0.879343 0.464494 0.337945
O O7 0.575325 0.125943 0.602914
O O8 0.051095 0.289964 0.272681
O O9 0.126391 0.248231 0.179159
O O10 0.623521 0.313406 0.279561
O O11 0.415171 0.540545 0.022356
O O12 0.535157 0.285476 0.845895
O O13 0.650465 0.882418 0.770648
O O14 0.629696 0.887830 0.898080
O O15 0.246753 0.555439 0.146161
O O16 0.018941 0.750505 0.976160
#
# Coordination Sequence:
#
# PCOD9024184 Si02
#       8
#     2   2   2   2   2   2   2   2
#     4  10  22  42  64  98 132 175 225 279 341 401
#     4  11  22  42  67  94 135 180 223 281 341 406
#     4  10  23  39  70 101 133 171 241 283 330 406
#     4  10  22  40  69  97 127 176 235 277 326 406
#     4  11  24  40  64  95 141 180 213 278 356 399
#     4  11  22  40  69  97 133 175 226 278 334 410
#     4  11  22  41  70 102 127 179 235 284 331 406
#     4  10  22  40  63  96 136 176 218 280 345 397
#
# _framework density 24.240435999999999
#
# number of rings (size 3 to 8) (size 9 to 14) (size 15 to 20)
#    0.000    1.500    2.500    2.625    3.500    2.000 
#    0.000    3.750    0.000    0.000    0.000    0.000 
#    0.000    0.000    0.000    0.000    0.000    0.000 
#
# Total GULP energy -89564.073679 kJ/mol
# GULP energy per Si atom -5597.754605 kJ/mol
# Density = 2.418526 g / cm^3
# Si number density = 24.240436 Si / 1000 Ang^3
#
#
#
# Elastic Constant Matrix: (Units=GPa)
#
#
# Indices 1 2 3 4 5 6 
#
# 1 87.5019 31.5347 32.0554 -7.6719 13.0850 -13.4008
# 2 31.5347 102.6535 45.2975 7.2864 8.2533 -24.0620
# 3 32.0554 45.2975 81.6448 -0.5333 -6.6639 -4.2245
# 4 -7.6719 7.2864 -0.5333 33.4954 -8.8902 -2.9121
# 5 13.0850 8.2533 -6.6639 -8.8902 45.2384 -3.2761
# 6 -13.4008 -24.0620 -4.2245 -2.9121 -3.2761 41.7247
#
#
#
# Elastic Compliance Matrix: (Units=1/GPa)
#
#
# Indices 1 2 3 4 5 6 
#
# 1 0.015303 -0.001397 -0.005374 0.002925 -0.004139 0.003444
# 2 -0.001397 0.016315 -0.008486 -0.004459 -0.004158 0.007463
# 3 -0.005374 -0.008486 0.019369 0.002191 0.006095 -0.004027
# 4 0.002925 -0.004459 0.002191 0.033511 0.006983 0.001477
# 5 -0.004139 -0.004158 0.006095 0.006983 0.026290 -0.000559
# 6 0.003444 0.007463 -0.004027 0.001477 -0.000559 0.029028
#
#
# Mechanical properties :
#
#
# Convention : Reuss Voigt Hill
#
# Bulk Modulus (GPa) = 48.84089 54.39726 51.61907
# Shear Modulus (GPa) = 28.22365 34.95254 31.58809
#
# Velocity S-wave (km/s) = 3.41592 3.80137 3.61379
# Velocity P-wave (km/s) = 5.97915 6.46194 6.22523
#
# Compressibility (1/GPa) = 0.02047465
#
# Stress axis : x y z
#
# Youngs Moduli (GPa) = 65.34532 61.29163 51.62805
#
# Poissons Ratio (x) = 0.08565 0.27743
# Poissons Ratio (y) = 0.09131 0.43810
# Poissons Ratio (z) = 0.35114 0.52010
#
# Static dielectric constant tensor:
#      x y z
#    x 1.984580 0.001930 0.000760 
#    y 0.001930 1.951590 0.038880 
#    z 0.000760 0.038880 1.922020 
# 
# From -- ./inp_files/39018.got.cif
#   From: 2010.05.17/outbox.cif.g08.bks.cpg/sg2_20_cif.got.tgz:39018.got - 2010.06.03 11:33:40.
