data_PCOD9024318
_publ_section_title
;
Structure prediction by ZEFSAII (Michael W. Deem and Ramdas Pophale) SiO2 
 PCOD9024318
Probable space group: P -1
;
_chemical_formula_sum "Si O2"
_cell_formula_units_Z 16
_cell_length_a 27.534160
_cell_length_b 12.039709
_cell_length_c 6.466480
_cell_angle_alpha 129.389893
_cell_angle_beta 67.643516
_cell_angle_gamma 151.231102
_cell_volume 702.550334
_symmetry_space_group_name_H-M "P -1"
_symmetry_group_IT_number 2
_symmetry_cell_setting 'triclinic'
loop_
_space_group_symop_operation_xyz
x,y,z
-x,-y,-z
loop_
_atom_site_type_symbol
_atom_site_label
_atom_site_fract_x
_atom_site_fract_y
_atom_site_fract_z
Si Si1 0.569575 0.241192 0.863451
Si Si2 0.064101 0.841026 0.501482
Si Si3 0.175106 0.302855 0.548105
Si Si4 0.018775 0.184753 0.043776
Si Si5 0.464126 0.120726 0.282030
Si Si6 0.258752 0.796523 0.165448
Si Si7 0.165181 0.813792 0.091037
Si Si8 0.302713 0.342552 0.206525
O O1 0.668964 0.571501 0.979088
O O2 0.500000 0.000000 0.500000
O O3 0.600605 0.179677 0.882221
O O4 0.498697 0.171030 0.048769
O O5 0.034560 0.807805 0.743190
O O6 0.122268 0.832180 0.339677
O O7 0.140943 0.152876 0.646739
O O8 0.943857 0.544675 0.222742
O O9 0.257376 0.387558 0.406462
O O10 0.231648 0.594433 0.823304
O O11 0.058553 0.028475 0.282921
O O12 0.150982 0.534143 0.186712
O O13 0.000000 0.000000 0.000000
O O14 0.581058 0.412520 0.567676
O O15 0.381203 0.053843 0.365206
O O16 0.255439 0.932537 0.198835
O O17 0.212034 0.007149 0.039828
#
# Coordination Sequence:
#
# PCOD9024318 Si02
#       8
#     2   2   2   2   2   2   2   2
#     4   9  18  39  63  91 118 162 216 260 307 367
#     4  10  22  46  63  91 131 171 216 254 314 390
#     4  11  22  41  67  94 131 164 213 272 310 369
#     4  12  24  38  67 100 125 165 215 263 323 376
#     4  10  22  40  64  92 128 162 212 267 314 368
#     4  12  23  41  65  98 135 167 204 272 324 370
#     4  10  23  44  64  90 137 173 203 264 324 375
#     4  10  23  42  67  92 124 174 215 255 312 384
#
# _framework density 22.774170999999999
#
# number of rings (size 3 to 8) (size 9 to 14) (size 15 to 20)
#    0.000    1.500    2.500    3.375    1.750    3.000 
#    6.750    0.625    0.000    0.000    0.000    0.000 
#    0.000    0.000    0.000    0.000    0.000    0.000 
#
# Total GULP energy -89505.818422 kJ/mol
# GULP energy per Si atom -5594.113651 kJ/mol
# Density = 2.272234 g / cm^3
# Si number density = 22.774171 Si / 1000 Ang^3
#
#
#
# Elastic Constant Matrix: (Units=GPa)
#
#
# Indices 1 2 3 4 5 6 
#
# 1 92.4595 37.6187 0.5275 -14.6728 -9.1205 10.4332
# 2 37.6187 117.8854 12.9611 -27.2479 -0.1130 -5.9823
# 3 0.5275 12.9611 44.6684 -8.6721 6.7988 2.4012
# 4 -14.6728 -27.2479 -8.6721 33.6021 0.7510 5.2282
# 5 -9.1205 -0.1130 6.7988 0.7510 17.7829 7.4151
# 6 10.4332 -5.9823 2.4012 5.2282 7.4151 40.0244
#
#
#
# Elastic Compliance Matrix: (Units=1/GPa)
#
#
# Indices 1 2 3 4 5 6 
#
# 1 0.014987 -0.004247 0.000693 0.004142 0.010140 -0.007003
# 2 -0.004247 0.011749 -0.001734 0.006885 -0.002811 0.002588
# 3 0.000693 -0.001734 0.025472 0.005836 -0.009214 -0.001023
# 4 0.004142 0.006885 0.005836 0.039528 0.000637 -0.005682
# 5 0.010140 -0.002811 -0.009214 0.000637 0.071519 -0.015844
# 6 -0.007003 0.002588 -0.001023 -0.005682 -0.015844 0.030936
#
#
# Mechanical properties :
#
#
# Convention : Reuss Voigt Hill
#
# Bulk Modulus (GPa) = 24.01955 39.69199 31.85577
# Shear Modulus (GPa) = 22.86814 31.87562 27.37188
#
# Velocity S-wave (km/s) = 3.17223 3.74523 3.47058
# Velocity P-wave (km/s) = 4.89767 6.01404 5.48434
#
# Compressibility (1/GPa) = 0.04163275
#
# Stress axis : x y z
#
# Youngs Moduli (GPa) = 66.72288 85.11502 39.25813
#
# Poissons Ratio (x) = 0.36149 -0.02719
# Poissons Ratio (y) = 0.28337 0.06805
# Poissons Ratio (z) = -0.04621 0.14755
#
# Static dielectric constant tensor:
#      x y z
#    x 1.844840 0.022570 0.013830 
#    y 0.022570 1.883290 0.005950 
#    z 0.013830 0.005950 1.844890 
# 
# From -- ./inp_files/126939.got.cif
#   From: 2010.05.17/outbox.cif.g08.bks.cpg/sg2_64_cif.got.tgz:126939.got - 2010.06.03 11:33:40.
