data_PCOD9024382
_publ_section_title
;
Structure prediction by ZEFSAII (Michael W. Deem and Ramdas Pophale) SiO2 
 PCOD9024382
Probable space group: P -1
;
_chemical_formula_sum "Si O2"
_cell_formula_units_Z 15
_cell_length_a 14.835352
_cell_length_b 15.400011
_cell_length_c 11.104489
_cell_angle_alpha 45.425181
_cell_angle_beta 130.125636
_cell_angle_gamma 161.409636
_cell_volume 573.717989
_symmetry_space_group_name_H-M "P -1"
_symmetry_group_IT_number 2
_symmetry_cell_setting 'triclinic'
loop_
_space_group_symop_operation_xyz
x,y,z
-x,-y,-z
loop_
_atom_site_type_symbol
_atom_site_label
_atom_site_fract_x
_atom_site_fract_y
_atom_site_fract_z
Si Si1 0.500000 0.500000 0.000000
Si Si2 0.125944 0.911513 0.520645
Si Si3 0.603450 0.032923 0.787907
Si Si4 0.464303 0.085233 0.799829
Si Si5 0.726424 0.527289 0.338619
Si Si6 0.959444 0.903648 0.773861
Si Si7 0.182939 0.586648 0.660324
Si Si8 0.561627 0.349049 0.837804
O O1 0.287827 0.357719 0.853601
O O2 0.755166 0.722529 0.892835
O O3 0.157402 0.833159 0.722359
O O4 0.454251 0.257863 0.450069
O O5 0.985983 0.911471 0.417968
O O6 0.999139 0.756004 0.432301
O O7 0.417206 0.871737 0.664994
O O8 0.628527 0.184785 0.729524
O O9 0.423587 0.761995 0.965810
O O10 0.922194 0.284484 0.805287
O O11 0.548581 0.283893 0.754493
O O12 0.500000 0.000000 0.000000
O O13 0.682708 0.392858 0.322380
O O14 0.804195 0.669186 0.773432
O O15 0.268441 0.136913 0.830423
O O16 0.000000 0.500000 0.500000
#
# Coordination Sequence:
#
# PCOD9024382 Si02
#       8
#     1   2   2   2   2   2   2   2
#     4  10  22  40  64  94 132 170 202 248 320 386
#     4  11  24  43  65  97 134 171 219 269 324 385
#     4  11  23  41  64  92 128 167 218 268 319 387
#     4  10  25  47  70  93 128 175 222 277 330 379
#     4  11  23  39  65  97 135 173 211 263 322 392
#     4  11  24  41  67  99 132 169 212 263 319 391
#     4  12  23  38  63  94 130 168 211 266 325 387
#     4  11  24  43  66  95 126 169 220 266 319 379
#
# _framework density 26.145249
#
# number of rings (size 3 to 8) (size 9 to 14) (size 15 to 20)
#    0.000    1.067    0.000    6.800    0.000    9.067 
#    0.000    7.333    0.000    0.000    0.000    0.000 
#    0.000    0.000    0.000    0.000    0.000    0.000 
#
# Total GULP energy -83568.052093 kJ/mol
# GULP energy per Si atom -5571.203473 kJ/mol
# Density = 2.608574 g / cm^3
# Si number density = 26.145249 Si / 1000 Ang^3
#
#
#
# Elastic Constant Matrix: (Units=GPa)
#
#
# Indices 1 2 3 4 5 6 
#
# 1 104.1037 22.9786 21.5287 1.6751 -2.6157 -21.9068
# 2 22.9786 107.1313 36.5764 18.8824 -13.0500 -8.6580
# 3 21.5287 36.5764 148.0510 31.4298 2.8448 -11.4338
# 4 1.6751 18.8824 31.4298 40.3809 -5.1046 6.3024
# 5 -2.6157 -13.0500 2.8448 -5.1046 40.5666 4.3913
# 6 -21.9068 -8.6580 -11.4338 6.3024 4.3913 36.9826
#
#
#
# Elastic Compliance Matrix: (Units=1/GPa)
#
#
# Indices 1 2 3 4 5 6 
#
# 1 0.011438 -0.001739 -0.000716 -0.000135 -0.000462 0.006225
# 2 -0.001739 0.011447 -0.001727 -0.003766 0.003067 0.001394
# 3 -0.000716 -0.001727 0.009116 -0.007123 -0.002516 0.003503
# 4 -0.000135 -0.003766 -0.007123 0.034145 0.004607 -0.009530
# 5 -0.000462 0.003067 -0.002516 0.004607 0.026830 -0.004305
# 6 0.006225 0.001394 0.003503 -0.009530 -0.004305 0.034272
#
#
# Mechanical properties :
#
#
# Convention : Reuss Voigt Hill
#
# Bulk Modulus (GPa) = 42.30290 57.93927 50.12109
# Shear Modulus (GPa) = 34.84596 42.13284 38.48940
#
# Velocity S-wave (km/s) = 3.65469 4.01869 3.84101
# Velocity P-wave (km/s) = 5.83302 6.61376 6.23562
#
# Compressibility (1/GPa) = 0.02363904
#
# Stress axis : x y z
#
# Youngs Moduli (GPa) = 87.42771 87.36030 109.69557
#
# Poissons Ratio (x) = 0.15188 0.07849
# Poissons Ratio (y) = 0.15200 0.18943
# Poissons Ratio (z) = 0.06256 0.15086
#
# Static dielectric constant tensor:
#      x y z
#    x 2.138200 0.046470 -0.159370 
#    y 0.046470 2.010600 -0.125410 
#    z -0.159370 -0.125410 2.481180 
# 
# From -- ./inp_files/454669.got.cif
#   From: 2010.05.17/outbox.cif.g08.bks.cpg/sg2_228_cif.got.tgz:454669.got - 2010.06.03 11:33:40.
