data_PCOD9024279
_publ_section_title
;
Structure prediction by ZEFSAII (Michael W. Deem and Ramdas Pophale) SiO2 
 PCOD9024279
Probable space group: P -1
;
_chemical_formula_sum "Si O2"
_cell_formula_units_Z 15
_cell_length_a 8.799462
_cell_length_b 7.165883
_cell_length_c 19.795300
_cell_angle_alpha 61.770478
_cell_angle_beta 115.851793
_cell_angle_gamma 67.569709
_cell_volume 664.195874
_symmetry_space_group_name_H-M "P -1"
_symmetry_group_IT_number 2
_symmetry_cell_setting 'triclinic'
loop_
_space_group_symop_operation_xyz
x,y,z
-x,-y,-z
loop_
_atom_site_type_symbol
_atom_site_label
_atom_site_fract_x
_atom_site_fract_y
_atom_site_fract_z
Si Si1 0.324715 0.242654 0.484594
Si Si2 0.000000 0.000000 0.000000
Si Si3 0.736449 0.015906 0.691273
Si Si4 0.102437 0.045917 0.717209
Si Si5 0.384487 0.801099 0.209373
Si Si6 0.119468 0.316946 0.890005
Si Si7 0.539143 0.056549 0.110901
Si Si8 0.797234 0.063679 0.403437
O O1 0.075251 0.596759 0.353568
O O2 0.500000 0.000000 0.500000
O O3 0.494417 0.251139 0.556913
O O4 0.252517 0.113671 0.540268
O O5 0.095678 0.104246 0.950505
O O6 0.120171 0.016143 0.084807
O O7 0.849024 0.675060 0.767399
O O8 0.650005 0.142284 0.728086
O O9 0.958172 0.965346 0.720303
O O10 0.363013 0.837042 0.843944
O O11 0.126553 0.039003 0.642222
O O12 0.549247 0.439884 0.288428
O O13 0.519378 0.878571 0.189333
O O14 0.269417 0.173968 0.873392
O O15 0.274185 0.312457 0.976080
O O16 0.000000 0.000000 0.500000
#
# Coordination Sequence:
#
# PCOD9024279 Si02
#       8
#     2   1   2   2   2   2   2   2
#     4  12  24  41  63  89 123 159 202 251 302 357
#     4  10  22  40  64  90 122 158 200 246 300 354
#     4  12  24  40  63  91 122 159 203 247 301 358
#     4  12  24  40  63  90 122 160 204 248 299 360
#     4  11  23  40  62  90 124 159 202 250 298 356
#     4  10  22  41  64  90 123 159 198 248 300 359
#     4  10  22  41  62  89 123 158 199 247 300 357
#     4  12  24  41  63  88 122 161 203 250 302 355
#
# _framework density 22.5837
#
# number of rings (size 3 to 8) (size 9 to 14) (size 15 to 20)
#    0.000    0.800    0.000    8.000    0.000    3.733 
#    0.000    0.000    0.000    0.000    0.000    0.000 
#    0.000    0.000    0.000    0.000    0.000    0.000 
#
# Total GULP energy -83717.468055 kJ/mol
# GULP energy per Si atom -5581.164537 kJ/mol
# Density = 2.253230 g / cm^3
# Si number density = 22.583700 Si / 1000 Ang^3
#
#
#
# Elastic Constant Matrix: (Units=GPa)
#
#
# Indices 1 2 3 4 5 6 
#
# 1 136.1069 34.0830 28.1420 33.1137 -9.4601 16.6142
# 2 34.0830 64.5415 9.1884 27.2392 -7.9860 -16.1922
# 3 28.1420 9.1884 53.1789 34.3917 -0.0929 1.2655
# 4 33.1137 27.2392 34.3917 46.5551 1.9636 8.5238
# 5 -9.4601 -7.9860 -0.0929 1.9636 30.5139 12.8865
# 6 16.6142 -16.1922 1.2655 8.5238 12.8865 42.7520
#
#
#
# Elastic Compliance Matrix: (Units=1/GPa)
#
#
# Indices 1 2 3 4 5 6 
#
# 1 0.011507 -0.007937 -0.006054 0.002425 0.005274 -0.009372
# 2 -0.007937 0.038038 0.020390 -0.036087 -0.000334 0.024183
# 3 -0.006054 0.020390 0.048080 -0.046435 -0.001111 0.018245
# 4 0.002425 -0.036087 -0.046435 0.080511 -0.001887 -0.028719
# 5 0.005274 -0.000334 -0.001111 -0.001887 0.040316 -0.013919
# 6 -0.009372 0.024183 0.018245 -0.028719 -0.013919 0.045573
#
#
# Mechanical properties :
#
#
# Convention : Reuss Voigt Hill
#
# Bulk Modulus (GPa) = 9.05609 44.07270 26.56439
# Shear Modulus (GPa) = 17.35906 36.12512 26.74209
#
# Velocity S-wave (km/s) = 2.77547 4.00385 3.44486
# Velocity P-wave (km/s) = 3.78017 6.39782 5.25461
#
# Compressibility (1/GPa) = 0.11042291
#
# Stress axis : x y z
#
# Youngs Moduli (GPa) = 86.90420 26.28930 20.79885
#
# Poissons Ratio (x) = 0.20865 0.12592
# Poissons Ratio (y) = 0.68973 -0.42408
# Poissons Ratio (z) = 0.52611 -0.53603
#
# Static dielectric constant tensor:
#      x y z
#    x 1.791100 0.020140 0.033930 
#    y 0.020140 1.804940 -0.004720 
#    z 0.033930 -0.004720 1.823180 
# 
# From -- ./inp_files/37195.got.cif
#   From: 2010.05.17/outbox.cif.g08.bks.cpg/sg2_19_cif.got.tgz:37195.got - 2010.06.03 11:33:40.
