data_PCOD9024087
_publ_section_title
;
Structure prediction by ZEFSAII (Michael W. Deem and Ramdas Pophale) SiO2 
 PCOD9024087
Probable space group: P -1
;
_chemical_formula_sum "Si O2"
_cell_formula_units_Z 16
_cell_length_a 12.766816
_cell_length_b 5.637730
_cell_length_c 10.285221
_cell_angle_alpha 110.074153
_cell_angle_beta 109.668076
_cell_angle_gamma 98.533352
_cell_volume 624.921728
_symmetry_space_group_name_H-M "P -1"
_symmetry_group_IT_number 2
_symmetry_cell_setting 'triclinic'
loop_
_space_group_symop_operation_xyz
x,y,z
-x,-y,-z
loop_
_atom_site_type_symbol
_atom_site_label
_atom_site_fract_x
_atom_site_fract_y
_atom_site_fract_z
Si Si1 0.988316 0.442276 0.663411
Si Si2 0.358166 0.167965 0.946494
Si Si3 0.061955 0.232321 0.895310
Si Si4 0.370473 0.425897 0.487838
Si Si5 0.425415 0.017507 0.601060
Si Si6 0.150988 0.871807 0.659778
Si Si7 0.847774 0.783106 0.793880
Si Si8 0.600780 0.248527 0.948588
O O1 0.910079 0.166446 0.514105
O O2 0.898837 0.608592 0.683222
O O3 0.045101 0.445895 0.828910
O O4 0.096932 0.575497 0.638867
O O5 0.499195 0.251386 0.011711
O O6 0.287907 0.011651 0.763483
O O7 0.331348 0.446942 0.993074
O O8 0.329632 0.945590 0.005097
O O9 0.102261 0.039423 0.776440
O O10 0.139318 0.299493 0.068549
O O11 0.933348 0.076057 0.865213
O O12 0.500000 0.500000 0.500000
O O13 0.363916 0.240829 0.576413
O O14 0.282080 0.257205 0.313136
O O15 0.351492 0.714663 0.545582
O O16 0.523978 0.126278 0.770243
O O17 0.500000 0.000000 0.500000
#
# Coordination Sequence:
#
# PCOD9024087 Si02
#       8
#     2   2   2   2   2   2   2   2
#     4  10  22  43  62  96 128 169 220 280 334 398
#     4  10  23  41  64  92 126 176 217 271 324 388
#     4  10  22  42  65  94 129 172 221 278 337 394
#     4  10  23  41  61 100 131 175 215 268 330 400
#     4  10  22  40  63  91 132 170 212 270 323 388
#     4  10  23  39  63  95 129 169 224 273 334 399
#     4  10  23  40  65  96 130 169 224 274 335 404
#     4  10  22  42  62  94 130 170 224 267 320 398
#
# _framework density 25.603207999999999
#
# number of rings (size 3 to 8) (size 9 to 14) (size 15 to 20)
#    0.000    2.000    0.000    1.500    5.250    4.000 
#    0.000    0.000    0.000    0.000    0.000    0.000 
#    0.000    0.000    0.000    0.000    0.000    0.000 
#
# Total GULP energy -89362.814903 kJ/mol
# GULP energy per Si atom -5585.175931 kJ/mol
# Density = 2.554493 g / cm^3
# Si number density = 25.603208 Si / 1000 Ang^3
#
#
#
# Elastic Constant Matrix: (Units=GPa)
#
#
# Indices 1 2 3 4 5 6 
#
# 1 56.7921 10.8280 13.7344 4.2111 5.1084 9.7464
# 2 10.8280 173.7481 56.4792 -12.7883 5.0640 -4.0567
# 3 13.7344 56.4792 168.5681 -5.2251 10.3777 7.8210
# 4 4.2111 -12.7883 -5.2251 42.4871 1.5031 0.0184
# 5 5.1084 5.0640 10.3777 1.5031 42.8257 7.3036
# 6 9.7464 -4.0567 7.8210 0.0184 7.3036 23.5359
#
#
#
# Elastic Compliance Matrix: (Units=1/GPa)
#
#
# Indices 1 2 3 4 5 6 
#
# 1 0.019644 -0.001298 -0.000840 -0.002418 -0.000553 -0.007906
# 2 -0.001298 0.006767 -0.002185 0.001918 -0.000631 0.002624
# 3 -0.000840 -0.002185 0.006896 0.000309 -0.000979 -0.002017
# 4 -0.002418 0.001918 0.000309 0.024431 -0.001137 0.001563
# 5 -0.000553 -0.000631 -0.000979 -0.001137 0.025016 -0.007316
# 6 -0.007906 0.002624 -0.002017 0.001563 -0.007316 0.049154
#
#
# Mechanical properties :
#
#
# Convention : Reuss Voigt Hill
#
# Bulk Modulus (GPa) = 40.54690 62.35463 51.45076
# Shear Modulus (GPa) = 33.60763 42.97419 38.29091
#
# Velocity S-wave (km/s) = 3.62696 4.10136 3.87143
# Velocity P-wave (km/s) = 5.78021 6.84363 6.33427
#
# Compressibility (1/GPa) = 0.02466280
#
# Stress axis : x y z
#
# Youngs Moduli (GPa) = 50.90499 147.76533 145.00394
#
# Poissons Ratio (x) = 0.19175 0.12178
# Poissons Ratio (y) = 0.06606 0.31686
# Poissons Ratio (z) = 0.04275 0.32290
#
# Static dielectric constant tensor:
#      x y z
#    x 2.107640 -0.027860 -0.019070 
#    y -0.027860 2.064480 0.022160 
#    z -0.019070 0.022160 1.933170 
# 
# From -- ./inp_files/442086.got.cif
#   From: 2010.05.17/outbox.cif.g08.bks.cpg/sg2_222_cif.got.tgz:442086.got - 2010.06.03 11:33:40.
