data_PCOD9024654
_publ_section_title
;
Structure prediction by ZEFSAII (Michael W. Deem and Ramdas Pophale) SiO2 
 PCOD9024654
Probable space group: P -1
;
_chemical_formula_sum "Si O2"
_cell_formula_units_Z 14
_cell_length_a 16.832617
_cell_length_b 8.124417
_cell_length_c 11.640182
_cell_angle_alpha 100.148221
_cell_angle_beta 141.908421
_cell_angle_gamma 110.354877
_cell_volume 578.544935
_symmetry_space_group_name_H-M "P -1"
_symmetry_group_IT_number 2
_symmetry_cell_setting 'triclinic'
loop_
_space_group_symop_operation_xyz
x,y,z
-x,-y,-z
loop_
_atom_site_type_symbol
_atom_site_label
_atom_site_fract_x
_atom_site_fract_y
_atom_site_fract_z
Si Si1 0.823056 0.183272 0.005350
Si Si2 0.352349 0.447928 0.091123
Si Si3 0.998716 0.732317 0.214894
Si Si4 0.805702 0.925406 0.746558
Si Si5 0.413576 0.868083 0.083274
Si Si6 0.343012 0.210089 0.852684
Si Si7 0.726537 0.355402 0.346629
O O1 0.896891 0.442829 0.075574
O O2 0.042968 0.332388 0.323602
O O3 0.657374 0.061637 0.901219
O O4 0.749245 0.985960 0.796666
O O5 0.580274 0.612230 0.411565
O O6 0.395144 0.668333 0.098780
O O7 0.252410 0.213117 0.859613
O O8 0.195914 0.336552 0.001771
O O9 0.113786 0.878085 0.243526
O O10 0.155726 0.945629 0.525933
O O11 0.000000 0.000000 0.000000
O O12 0.648798 0.148447 0.333043
O O13 0.262801 0.705576 0.778011
O O14 0.500000 0.500000 0.000000
O O15 0.520382 0.259856 0.097347
#
# Coordination Sequence:
#
# PCOD9024654 Si02
#       7
#     2   2   2   2   2   2   2
#     4  11  25  41  67  97 132 172 217 263 321 389
#     4  11  24  44  67  95 133 171 218 266 325 388
#     4  11  25  44  67  96 128 175 221 265 328 382
#     4  12  26  44  67  94 133 175 218 267 322 387
#     4  10  22  40  65  96 129 168 216 266 324 381
#     4  12  22  42  69  94 135 172 210 269 328 381
#     4  11  21  39  65  95 133 165 213 267 322 381
#
# _framework density 24.198640000000001
#
# number of rings (size 3 to 8) (size 9 to 14) (size 15 to 20)
#    0.000    0.857    2.857    4.714    0.000    6.286 
#    0.000    0.000    0.000    0.000    0.000    0.000 
#    0.000    0.000    0.000    0.000    0.000    0.000 
#
# Total GULP energy -78348.462885 kJ/mol
# GULP energy per Si atom -5596.318777 kJ/mol
# Density = 2.414356 g / cm^3
# Si number density = 24.198640 Si / 1000 Ang^3
#
#
#
# Elastic Constant Matrix: (Units=GPa)
#
#
# Indices 1 2 3 4 5 6 
#
# 1 155.2179 17.9328 27.9287 -3.3342 -15.8981 4.5674
# 2 17.9328 55.5518 11.2231 -6.9098 -7.7914 -9.4068
# 3 27.9287 11.2231 84.4900 -10.5464 -3.1355 -4.5692
# 4 -3.3342 -6.9098 -10.5464 23.5672 -7.1894 1.8133
# 5 -15.8981 -7.7914 -3.1355 -7.1894 43.1078 -1.0552
# 6 4.5674 -9.4068 -4.5692 1.8133 -1.0552 29.5196
#
#
#
# Elastic Compliance Matrix: (Units=1/GPa)
#
#
# Indices 1 2 3 4 5 6 
#
# 1 0.007347 -0.001926 -0.002158 0.000339 0.002211 -0.002026
# 2 -0.001926 0.021338 -0.000876 0.006390 0.004313 0.006724
# 3 -0.002158 -0.000876 0.013508 0.005651 0.001016 0.001835
# 4 0.000339 0.006390 0.005651 0.049928 0.010022 0.000150
# 5 0.002211 0.004313 0.001016 0.010022 0.026575 0.001524
# 6 -0.002026 0.006724 0.001835 0.000150 0.001524 0.036661
#
#
# Mechanical properties :
#
#
# Convention : Reuss Voigt Hill
#
# Bulk Modulus (GPa) = 30.98685 45.49210 38.23948
# Shear Modulus (GPa) = 28.40329 35.11726 31.76027
#
# Velocity S-wave (km/s) = 3.42973 3.81360 3.62675
# Velocity P-wave (km/s) = 5.34014 6.18318 5.77706
#
# Compressibility (1/GPa) = 0.03227175
#
# Stress axis : x y z
#
# Youngs Moduli (GPa) = 136.11369 46.86377 74.03173
#
# Poissons Ratio (x) = 0.09028 0.15974
# Poissons Ratio (y) = 0.26222 0.06488
# Poissons Ratio (z) = 0.29370 0.04107
#
# Static dielectric constant tensor:
#      x y z
#    x 1.907790 -0.009090 0.010650 
#    y -0.009090 2.119600 -0.067610 
#    z 0.010650 -0.067610 1.900010 
# 
# From -- ./inp_files/461431.got.cif
#   From: 2010.05.17/outbox.cif.g08.bks.cpg/sg2_231_cif.got.tgz:461431.got - 2010.06.03 11:33:40.
