data_PCOD9024566
_publ_section_title
;
Structure prediction by ZEFSAII (Michael W. Deem and Ramdas Pophale) SiO2 
 PCOD9024566
Probable space group: P -1
;
_chemical_formula_sum "Si O2"
_cell_formula_units_Z 16
_cell_length_a 12.380911
_cell_length_b 9.899585
_cell_length_c 9.082270
_cell_angle_alpha 130.818991
_cell_angle_beta 100.705798
_cell_angle_gamma 71.252087
_cell_volume 797.270451
_symmetry_space_group_name_H-M "P -1"
_symmetry_group_IT_number 2
_symmetry_cell_setting 'triclinic'
loop_
_space_group_symop_operation_xyz
x,y,z
-x,-y,-z
loop_
_atom_site_type_symbol
_atom_site_label
_atom_site_fract_x
_atom_site_fract_y
_atom_site_fract_z
Si Si1 0.338899 0.498844 0.194535
Si Si2 0.757588 0.466662 0.227168
Si Si3 0.697153 0.185873 0.786336
Si Si4 0.251177 0.725720 0.622666
Si Si5 0.510687 0.191175 0.202073
Si Si6 0.125301 0.415131 0.903449
Si Si7 0.413721 0.137775 0.460181
Si Si8 0.128277 0.997485 0.559125
O O1 0.383387 0.647647 0.214792
O O2 0.284234 0.595230 0.397745
O O3 0.440010 0.336394 0.168397
O O4 0.235715 0.444388 0.042251
O O5 0.786017 0.389494 0.341468
O O6 0.865843 0.491727 0.184384
O O7 0.663279 0.668517 0.352137
O O8 0.721928 0.304070 0.013303
O O9 0.797203 0.107021 0.634699
O O10 0.659663 0.007108 0.701923
O O11 0.363213 0.784248 0.741675
O O12 0.162302 0.900631 0.656058
O O13 0.467187 0.197186 0.365989
O O14 0.500000 0.000000 0.000000
O O15 0.144598 0.199855 0.724520
O O16 0.000000 0.500000 0.000000
O O17 0.500000 0.000000 0.500000
O O18 0.000000 0.000000 0.500000
#
# Coordination Sequence:
#
# PCOD9024566 Si02
#       8
#     2   2   2   2   2   2   2   2
#     4  10  22  40  65  92 132 177 219 269 331 392
#     4  11  24  43  66  97 136 171 224 277 327 395
#     4  10  23  41  63  94 132 172 222 270 331 391
#     4  11  23  43  63  95 135 173 219 275 331 391
#     4  12  25  40  64  96 136 180 220 269 335 398
#     4  11  23  45  71  98 131 175 225 273 336 401
#     4  12  25  40  63  96 135 179 224 270 328 393
#     4  11  22  44  71  95 128 174 223 279 334 398
#
# _framework density 20.068473000000001
#
# number of rings (size 3 to 8) (size 9 to 14) (size 15 to 20)
#    0.000    1.000    2.500    5.625    5.250    0.500 
#    0.000    6.250    0.000    0.000    0.000    0.000 
#    0.000    0.000    0.000    0.000    0.000    0.000 
#
# Total GULP energy -89237.789943 kJ/mol
# GULP energy per Si atom -5577.361871 kJ/mol
# Density = 2.002280 g / cm^3
# Si number density = 20.068473 Si / 1000 Ang^3
#
#
#
# Elastic Constant Matrix: (Units=GPa)
#
#
# Indices 1 2 3 4 5 6 
#
# 1 84.7855 42.0140 4.3448 5.0378 8.8863 -4.1296
# 2 42.0140 116.1196 13.7368 0.8938 4.3113 10.3937
# 3 4.3448 13.7368 94.9864 21.3374 10.2620 -0.9448
# 4 5.0378 0.8938 21.3374 36.2851 7.1902 1.9022
# 5 8.8863 4.3113 10.2620 7.1902 31.4852 -5.2122
# 6 -4.1296 10.3937 -0.9448 1.9022 -5.2122 18.0430
#
#
#
# Elastic Compliance Matrix: (Units=1/GPa)
#
#
# Indices 1 2 3 4 5 6 
#
# 1 0.015562 -0.006274 0.001075 -0.002571 -0.002157 0.006880
# 2 -0.006274 0.011951 -0.001942 0.002449 -0.001291 -0.009053
# 3 0.001075 -0.001942 0.012635 -0.007219 -0.002148 0.002167
# 4 -0.002571 0.002449 -0.007219 0.033744 -0.006244 -0.007739
# 5 -0.002157 -0.001291 -0.002148 -0.006244 0.036552 0.011355
# 6 0.006880 -0.009053 0.002167 -0.007739 0.011355 0.066422
#
#
# Mechanical properties :
#
#
# Convention : Reuss Voigt Hill
#
# Bulk Modulus (GPa) = 38.66168 46.23142 42.44655
# Shear Modulus (GPa) = 25.02861 32.88239 28.95550
#
# Velocity S-wave (km/s) = 3.53535 4.05224 3.80259
# Velocity P-wave (km/s) = 5.99763 6.70679 6.36210
#
# Compressibility (1/GPa) = 0.02586541
#
# Stress axis : x y z
#
# Youngs Moduli (GPa) = 64.25813 83.67578 79.14612
#
# Poissons Ratio (x) = 0.52496 -0.08505
# Poissons Ratio (y) = 0.40314 0.15371
# Poissons Ratio (z) = -0.06905 0.16251
#
# Static dielectric constant tensor:
#      x y z
#    x 1.378000 0.257990 -0.118740 
#    y 0.257990 1.596420 0.090700 
#    z -0.118740 0.090700 1.675870 
# 
# From -- ./inp_files/245941.got.cif
#   From: 2010.05.17/outbox.cif.g08.bks.cpg/sg2_123_cif.got.tgz:245941.got - 2010.06.03 11:33:40.
