data_PCOD9024447
_publ_section_title
;
Structure prediction by ZEFSAII (Michael W. Deem and Ramdas Pophale) SiO2 
 PCOD9024447
Probable space group: P -1
;
_chemical_formula_sum "Si O2"
_cell_formula_units_Z 16
_cell_length_a 11.906241
_cell_length_b 10.770969
_cell_length_c 6.878712
_cell_angle_alpha 106.595050
_cell_angle_beta 62.643501
_cell_angle_gamma 112.289082
_cell_volume 718.262043
_symmetry_space_group_name_H-M "P -1"
_symmetry_group_IT_number 2
_symmetry_cell_setting 'triclinic'
loop_
_space_group_symop_operation_xyz
x,y,z
-x,-y,-z
loop_
_atom_site_type_symbol
_atom_site_label
_atom_site_fract_x
_atom_site_fract_y
_atom_site_fract_z
Si Si1 0.740510 0.373270 0.389816
Si Si2 0.636510 0.609432 0.499116
Si Si3 0.696398 0.812868 0.883188
Si Si4 0.030848 0.155112 0.109194
Si Si5 0.439728 0.191380 0.610789
Si Si6 0.851594 0.258817 0.579684
Si Si7 0.374815 0.983435 0.230227
Si Si8 0.047530 0.661468 0.054292
O O1 0.738212 0.521923 0.393868
O O2 0.591103 0.282440 0.508651
O O3 0.826404 0.375696 0.516577
O O4 0.805322 0.303177 0.141716
O O5 0.500000 0.500000 0.500000
O O6 0.631623 0.682077 0.741828
O O7 0.652404 0.724621 0.376430
O O8 0.715575 0.940045 0.780712
O O9 0.832334 0.804714 0.864163
O O10 0.603769 0.830201 0.142211
O O11 0.915474 0.170350 0.350388
O O12 0.029097 0.255058 0.974842
O O13 0.000000 0.000000 0.000000
O O14 0.417211 0.060000 0.435133
O O15 0.710463 0.167686 0.726929
O O16 0.942842 0.304331 0.712738
O O17 0.500000 0.000000 0.000000
O O18 0.000000 0.500000 0.000000
#
# Coordination Sequence:
#
# PCOD9024447 Si02
#       8
#     2   2   2   2   2   2   2   2
#     4  10  23  41  64  94 129 170 219 265 331 398
#     4   9  22  40  62  94 130 165 219 266 328 399
#     4  11  24  39  68  96 129 174 220 268 337 395
#     4  11  26  45  67  99 134 177 233 271 330 404
#     4  10  22  40  64  97 131 166 214 278 332 391
#     4  11  25  43  67  93 136 175 217 278 330 386
#     4  11  23  41  67  98 131 169 220 272 335 395
#     4  11  27  43  67  96 132 179 228 276 330 392
#
# _framework density 22.275994000000001
#
# number of rings (size 3 to 8) (size 9 to 14) (size 15 to 20)
#    0.000    1.500    0.000    3.000    5.250   12.000 
#    0.000    0.000    0.000    0.000    0.000    0.000 
#    0.000    0.000    0.000    0.000    0.000    0.000 
#
# Total GULP energy -89485.114928 kJ/mol
# GULP energy per Si atom -5592.819683 kJ/mol
# Density = 2.222529 g / cm^3
# Si number density = 22.275994 Si / 1000 Ang^3
#
#
#
# Elastic Constant Matrix: (Units=GPa)
#
#
# Indices 1 2 3 4 5 6 
#
# 1 118.9605 35.4236 41.5993 -3.5058 17.4996 -25.5086
# 2 35.4236 83.1433 24.8239 7.0984 22.6939 -16.4956
# 3 41.5993 24.8239 110.0155 7.7446 25.5136 -4.2799
# 4 -3.5058 7.0984 7.7446 29.7850 5.0287 0.4557
# 5 17.4996 22.6939 25.5136 5.0287 46.0575 -7.2262
# 6 -25.5086 -16.4956 -4.2799 0.4557 -7.2262 42.2520
#
#
#
# Elastic Compliance Matrix: (Units=1/GPa)
#
#
# Indices 1 2 3 4 5 6 
#
# 1 0.011961 -0.003018 -0.003738 0.003091 -0.000453 0.005553
# 2 -0.003018 0.015986 -0.000869 -0.003085 -0.005371 0.003445
# 3 -0.003738 -0.000869 0.011906 -0.002482 -0.004819 -0.002187
# 4 0.003091 -0.003085 -0.002482 0.035701 -0.002233 -0.000357
# 5 -0.000453 -0.005371 -0.004819 -0.002233 0.027744 0.001911
# 6 0.005553 0.003445 -0.002187 -0.000357 0.001911 0.028474
#
#
# Mechanical properties :
#
#
# Convention : Reuss Voigt Hill
#
# Bulk Modulus (GPa) = 40.64682 57.31253 48.97968
# Shear Modulus (GPa) = 32.21175 37.63706 34.92440
#
# Velocity S-wave (km/s) = 3.80680 4.11491 3.96385
# Velocity P-wave (km/s) = 6.13260 6.95420 6.55628
#
# Compressibility (1/GPa) = 0.02460217
#
# Stress axis : x y z
#
# Youngs Moduli (GPa) = 83.60852 62.55531 83.98851
#
# Poissons Ratio (x) = 0.18881 0.31395
# Poissons Ratio (y) = 0.25236 0.07298
# Poissons Ratio (z) = 0.31253 0.05436
#
# Static dielectric constant tensor:
#      x y z
#    x 2.016840 0.114090 0.158210 
#    y 0.114090 1.911030 0.131790 
#    z 0.158210 0.131790 1.987690 
# 
# From -- ./inp_files/71115.got.cif
#   From: 2010.05.17/outbox.cif.g08.bks.cpg/sg2_36_cif.got.tgz:71115.got - 2010.06.03 11:33:40.
