data_PCOD9024320
_publ_section_title
;
Structure prediction by ZEFSAII (Michael W. Deem and Ramdas Pophale) SiO2 
 PCOD9024320
Probable space group: P -1
;
_chemical_formula_sum "Si O2"
_cell_formula_units_Z 14
_cell_length_a 19.631662
_cell_length_b 6.675006
_cell_length_c 7.196355
_cell_angle_alpha 54.675593
_cell_angle_beta 45.682485
_cell_angle_gamma 59.623972
_cell_volume 542.069823
_symmetry_space_group_name_H-M "P -1"
_symmetry_group_IT_number 2
_symmetry_cell_setting 'triclinic'
loop_
_space_group_symop_operation_xyz
x,y,z
-x,-y,-z
loop_
_atom_site_type_symbol
_atom_site_label
_atom_site_fract_x
_atom_site_fract_y
_atom_site_fract_z
Si Si1 0.367012 0.964239 0.917184
Si Si2 0.076945 0.210321 0.515186
Si Si3 0.806899 0.301720 0.482871
Si Si4 0.915150 0.713208 0.119554
Si Si5 0.248779 0.471710 0.909238
Si Si6 0.500000 0.000000 0.000000
Si Si7 0.000000 0.000000 0.500000
Si Si8 0.579188 0.459093 0.208723
O O1 0.282942 0.803444 0.208744
O O2 0.318206 0.240220 0.800445
O O3 0.421759 0.996124 0.985494
O O4 0.430606 0.795884 0.736613
O O5 0.065025 0.192383 0.764722
O O6 0.165711 0.344149 0.227027
O O7 0.098783 0.917607 0.544179
O O8 0.991756 0.279101 0.495062
O O9 0.824448 0.567709 0.377053
O O10 0.793051 0.329646 0.272698
O O11 0.000000 0.500000 0.000000
O O12 0.913976 0.916724 0.853578
O O13 0.316108 0.573167 0.876374
O O14 0.446692 0.292727 0.996318
O O15 0.500000 0.500000 0.500000
#
# Coordination Sequence:
#
# PCOD9024320 Si02
#       8
#     2   2   2   2   2   1   1   2
#     4  10  23  41  65  96 129 168 223 264 322 392
#     4  11  25  45  66  98 133 168 227 268 324 399
#     4  11  23  44  65  94 130 174 216 270 329 384
#     4  12  26  43  67  99 132 174 218 272 330 387
#     4  10  23  42  65  95 130 172 217 270 327 383
#     4  10  22  40  64  92 128 164 212 270 316 376
#     4  12  24  44  68  98 130 172 220 272 330 386
#     4  11  23  40  64  97 129 171 214 264 327 386
#
# _framework density 25.826933
#
# number of rings (size 3 to 8) (size 9 to 14) (size 15 to 20)
#    0.000    1.143    2.857    2.571    0.000    6.286 
#    0.000    0.000    0.000    0.000    0.000    0.000 
#    0.000    0.000    0.000    0.000    0.000    0.000 
#
# Total GULP energy -77976.702196 kJ/mol
# GULP energy per Si atom -5569.764443 kJ/mol
# Density = 2.576815 g / cm^3
# Si number density = 25.826933 Si / 1000 Ang^3
#
#
#
# Elastic Constant Matrix: (Units=GPa)
#
#
# Indices 1 2 3 4 5 6 
#
# 1 127.6420 36.0612 32.7270 -6.3441 15.2504 13.3315
# 2 36.0612 113.9376 34.9942 12.0594 13.7702 8.8458
# 3 32.7270 34.9942 103.9871 5.5807 16.0359 15.6937
# 4 -6.3441 12.0594 5.5807 44.5317 6.0168 4.8596
# 5 15.2504 13.7702 16.0359 6.0168 48.6228 -8.2382
# 6 13.3315 8.8458 15.6937 4.8596 -8.2382 51.8526
#
#
#
# Elastic Compliance Matrix: (Units=1/GPa)
#
#
# Indices 1 2 3 4 5 6 
#
# 1 0.009594 -0.002346 -0.001655 0.002794 -0.002522 -0.002228
# 2 -0.002346 0.010750 -0.002481 -0.002723 -0.001224 -0.000419
# 3 -0.001655 -0.002481 0.011981 -0.000269 -0.003250 -0.003269
# 4 0.002794 -0.002723 -0.000269 0.024435 -0.003553 -0.003027
# 5 -0.002522 -0.001224 -0.003250 -0.003553 0.024237 0.006025
# 6 -0.002228 -0.000419 -0.003269 -0.003027 0.006025 0.022160
#
#
# Mechanical properties :
#
#
# Convention : Reuss Voigt Hill
#
# Bulk Modulus (GPa) = 51.64797 61.45906 56.55351
# Shear Modulus (GPa) = 40.79109 45.12038 42.95573
#
# Velocity S-wave (km/s) = 3.97848 4.18428 4.08268
# Velocity P-wave (km/s) = 6.41448 6.86967 6.64597
#
# Compressibility (1/GPa) = 0.01936185
#
# Stress axis : x y z
#
# Youngs Moduli (GPa) = 104.22687 93.02252 83.46352
#
# Poissons Ratio (x) = 0.21826 0.13811
# Poissons Ratio (y) = 0.24454 0.20708
# Poissons Ratio (z) = 0.17246 0.23079
#
# Static dielectric constant tensor:
#      x y z
#    x 2.142870 -0.016910 0.027460 
#    y -0.016910 2.282050 0.038650 
#    z 0.027460 0.038650 2.088300 
# 
# From -- ./inp_files/6476.got.cif
#   From: 2010.05.17/outbox.cif.g08.bks.cpg/sg2_4_cif.got.tgz:6476.got - 2010.06.03 11:33:40.
