data_PCOD9024482
_publ_section_title
;
Structure prediction by ZEFSAII (Michael W. Deem and Ramdas Pophale) SiO2 
 PCOD9024482
Probable space group: P -1
;
_chemical_formula_sum "Si O2"
_cell_formula_units_Z 16
_cell_length_a 11.947816
_cell_length_b 10.072831
_cell_length_c 6.757321
_cell_angle_alpha 111.861587
_cell_angle_beta 95.434884
_cell_angle_gamma 66.459883
_cell_volume 690.544635
_symmetry_space_group_name_H-M "P -1"
_symmetry_group_IT_number 2
_symmetry_cell_setting 'triclinic'
loop_
_space_group_symop_operation_xyz
x,y,z
-x,-y,-z
loop_
_atom_site_type_symbol
_atom_site_label
_atom_site_fract_x
_atom_site_fract_y
_atom_site_fract_z
Si Si1 0.211347 0.198438 0.453570
Si Si2 0.849116 0.960482 0.995479
Si Si3 0.598160 0.209141 0.020044
Si Si4 0.863981 0.551483 0.085852
Si Si5 0.328701 0.323617 0.222506
Si Si6 0.640011 0.401495 0.421474
Si Si7 0.092579 0.797440 0.095228
Si Si8 0.285549 0.867408 0.412804
O O1 0.127572 0.155974 0.254251
O O2 0.152671 0.349325 0.662554
O O3 0.312598 0.221463 0.343216
O O4 0.261344 0.047617 0.518886
O O5 0.944701 0.865674 0.125835
O O6 0.767768 0.649195 0.955952
O O7 0.882978 0.108312 0.032544
O O8 0.463992 0.251459 0.109420
O O9 0.638498 0.350027 0.167614
O O10 0.613068 0.196882 0.779690
O O11 0.701745 0.045410 0.025397
O O12 0.853477 0.386437 0.023973
O O13 0.000000 0.500000 0.000000
O O14 0.296684 0.492546 0.415445
O O15 0.500000 0.500000 0.500000
O O16 0.675614 0.240042 0.452513
O O17 0.163531 0.846657 0.305432
#
# Coordination Sequence:
#
# PCOD9024482 Si02
#       8
#     2   2   2   2   2   2   2   2
#     4  10  25  43  67  96 141 173 221 280 343 394
#     4   9  20  42  65  99 133 178 227 274 331 398
#     4   9  22  41  68  96 138 178 224 278 329 398
#     4  12  26  44  67 100 136 179 224 280 341 404
#     4  11  24  41  65 103 135 178 227 276 339 399
#     4  10  22  40  65 100 131 175 230 272 326 400
#     4   9  19  40  67  93 131 177 225 272 333 387
#     4  10  22  45  66 102 137 180 226 278 331 402
#
# _framework density 23.170116
#
# number of rings (size 3 to 8) (size 9 to 14) (size 15 to 20)
#    0.000    2.250    1.250    0.750    3.500   11.000 
#    4.500   10.625    0.000    0.000    0.000    0.000 
#    0.000    0.000    0.000    0.000    0.000    0.000 
#
# Total GULP energy -89247.139204 kJ/mol
# GULP energy per Si atom -5577.946200 kJ/mol
# Density = 2.311738 g / cm^3
# Si number density = 23.170116 Si / 1000 Ang^3
#
#
#
# Elastic Constant Matrix: (Units=GPa)
#
#
# Indices 1 2 3 4 5 6 
#
# 1 122.7288 27.0798 34.0473 1.7735 -9.7157 -0.6893
# 2 27.0798 106.9367 25.6024 2.2375 4.9858 9.5594
# 3 34.0473 25.6024 96.8323 30.6434 -6.6906 15.4106
# 4 1.7735 2.2375 30.6434 22.6334 1.3200 -0.3035
# 5 -9.7157 4.9858 -6.6906 1.3200 24.0463 -3.9975
# 6 -0.6893 9.5594 15.4106 -0.3035 -3.9975 32.4454
#
#
#
# Elastic Compliance Matrix: (Units=1/GPa)
#
#
# Indices 1 2 3 4 5 6 
#
# 1 0.010348 -0.001890 -0.005792 0.007083 0.003236 0.003993
# 2 -0.001890 0.010987 -0.003490 0.004026 -0.004591 -0.002148
# 3 -0.005792 -0.003490 0.027016 -0.036281 0.005975 -0.011530
# 4 0.007083 0.004026 -0.036281 0.093177 -0.010561 0.015767
# 5 0.003236 -0.004591 0.005975 -0.010561 0.046795 0.004250
# 6 0.003993 -0.002148 -0.011530 0.015767 0.004250 0.037686
#
#
# Mechanical properties :
#
#
# Convention : Reuss Voigt Hill
#
# Bulk Modulus (GPa) = 38.45087 55.55075 47.00081
# Shear Modulus (GPa) = 19.45364 31.80959 25.63162
#
# Velocity S-wave (km/s) = 2.90073 3.70925 3.32962
# Velocity P-wave (km/s) = 5.27731 6.50937 5.92545
#
# Compressibility (1/GPa) = 0.02600721
#
# Stress axis : x y z
#
# Youngs Moduli (GPa) = 96.63598 91.01484 37.01579
#
# Poissons Ratio (x) = 0.17200 0.21440
# Poissons Ratio (y) = 0.18262 0.12919
# Poissons Ratio (z) = 0.55972 0.31764
#
# Static dielectric constant tensor:
#      x y z
#    x 1.914330 0.008260 0.002910 
#    y 0.008260 1.892180 -0.021390 
#    z 0.002910 -0.021390 1.857850 
# 
# From -- ./inp_files/90913.got.cif
#   From: 2010.05.17/outbox.cif.g08.bks.cpg/sg2_46_cif.got.tgz:90913.got - 2010.06.03 11:33:40.
