data_PCOD9024125
_publ_section_title
;
Structure prediction by ZEFSAII (Michael W. Deem and Ramdas Pophale) SiO2 
 PCOD9024125
Probable space group: P -1
;
_chemical_formula_sum "Si O2"
_cell_formula_units_Z 16
_cell_length_a 6.475222
_cell_length_b 8.922524
_cell_length_c 19.493142
_cell_angle_alpha 55.918062
_cell_angle_beta 104.318402
_cell_angle_gamma 130.136876
_cell_volume 701.479998
_symmetry_space_group_name_H-M "P -1"
_symmetry_group_IT_number 2
_symmetry_cell_setting 'triclinic'
loop_
_space_group_symop_operation_xyz
x,y,z
-x,-y,-z
loop_
_atom_site_type_symbol
_atom_site_label
_atom_site_fract_x
_atom_site_fract_y
_atom_site_fract_z
Si Si1 0.774417 0.586798 0.318976
Si Si2 0.784024 0.323451 0.585487
Si Si3 0.659740 0.953493 0.576748
Si Si4 0.873245 0.266691 0.212335
Si Si5 0.439306 0.160942 0.098996
Si Si6 0.219870 0.156994 0.612537
Si Si7 0.894252 0.686267 0.152918
Si Si8 0.654108 0.520793 0.915485
O O1 0.505015 0.319612 0.364463
O O2 0.772904 0.718511 0.349936
O O3 0.815169 0.698654 0.220654
O O4 0.039946 0.600810 0.351005
O O5 0.524453 0.312916 0.567994
O O6 0.000000 0.500000 0.500000
O O7 0.663979 0.063298 0.620950
O O8 0.500000 0.000000 0.500000
O O9 0.984203 0.095164 0.556488
O O10 0.602124 0.133146 0.176278
O O11 0.887279 0.465249 0.201756
O O12 0.133307 0.387940 0.151926
O O13 0.859484 0.086670 0.306415
O O14 0.306197 0.265977 0.097800
O O15 0.655462 0.359721 0.011773
O O16 0.199009 0.920822 0.104874
O O17 0.658801 0.636785 0.097312
#
# Coordination Sequence:
#
# PCOD9024125 Si02
#       8
#     2   2   2   2   2   2   2   2
#     4  11  24  43  66  93 127 169 213 266 321 385
#     4  11  24  46  64  94 128 160 210 267 320 389
#     4  11  24  45  65  95 125 161 211 267 321 384
#     4  11  23  41  63  98 128 169 215 263 316 380
#     4  10  22  40  63  93 131 175 211 265 316 368
#     4  11  26  42  69  93 128 170 214 262 329 383
#     4  11  23  39  65  94 132 168 217 262 314 377
#     4  10  22  40  63  93 133 170 217 262 314 374
#
# _framework density 22.808917000000001
#
# number of rings (size 3 to 8) (size 9 to 14) (size 15 to 20)
#    0.000    1.250    1.250    3.750    0.000   13.000 
#    0.000    0.000    0.000    0.000    0.000    0.000 
#    0.000    0.000    0.000    0.000    0.000    0.000 
#
# Total GULP energy -89529.574779 kJ/mol
# GULP energy per Si atom -5595.598424 kJ/mol
# Density = 2.275700 g / cm^3
# Si number density = 22.808917 Si / 1000 Ang^3
#
#
#
# Elastic Constant Matrix: (Units=GPa)
#
#
# Indices 1 2 3 4 5 6 
#
# 1 104.4970 37.0905 20.6070 -6.2824 -8.7511 23.8369
# 2 37.0905 116.9081 12.3733 -9.9591 3.2141 13.9645
# 3 20.6070 12.3733 60.8706 -0.2320 1.9175 6.6473
# 4 -6.2824 -9.9591 -0.2320 31.2561 2.4411 0.6313
# 5 -8.7511 3.2141 1.9175 2.4411 37.4512 1.5378
# 6 23.8369 13.9645 6.6473 0.6313 1.5378 30.4689
#
#
#
# Elastic Compliance Matrix: (Units=1/GPa)
#
#
# Indices 1 2 3 4 5 6 
#
# 1 0.013686 -0.002904 -0.003185 0.001680 0.003867 -0.008911
# 2 -0.002904 0.010097 -0.000772 0.002797 -0.001599 -0.002165
# 3 -0.003185 -0.000772 0.017813 -0.000617 -0.001511 -0.000951
# 4 0.001680 0.002797 -0.000617 0.033426 -0.001869 -0.003060
# 5 0.003867 -0.001599 -0.001511 -0.001869 0.028079 -0.003341
# 6 -0.008911 -0.002165 -0.000951 -0.003060 -0.003341 0.041224
#
#
# Mechanical properties :
#
#
# Convention : Reuss Voigt Hill
#
# Bulk Modulus (GPa) = 35.87554 46.93526 41.40540
# Shear Modulus (GPa) = 29.87973 33.98224 31.93098
#
# Velocity S-wave (km/s) = 3.62332 3.86407 3.74563
# Velocity P-wave (km/s) = 5.76780 6.36634 6.07445
#
# Compressibility (1/GPa) = 0.02787415
#
# Stress axis : x y z
#
# Youngs Moduli (GPa) = 73.06735 99.03469 56.13974
#
# Poissons Ratio (x) = 0.28757 0.17882
# Poissons Ratio (y) = 0.21216 0.04334
# Poissons Ratio (z) = 0.23274 0.07646
#
# Static dielectric constant tensor:
#      x y z
#    x 1.890410 0.007710 0.016320 
#    y 0.007710 1.833210 0.003750 
#    z 0.016320 0.003750 1.852720 
# 
# From -- ./inp_files/48038.got.cif
#   From: 2010.05.17/outbox.cif.g08.bks.cpg/sg2_25_cif.got.tgz:48038.got - 2010.06.03 11:33:40.
