data_PCOD9024481
_publ_section_title
;
Structure prediction by ZEFSAII (Michael W. Deem and Ramdas Pophale) SiO2 
 PCOD9024481
Probable space group: P -1
;
_chemical_formula_sum "Si O2"
_cell_formula_units_Z 12
_cell_length_a 13.994538
_cell_length_b 12.526206
_cell_length_c 11.860306
_cell_angle_alpha 42.944973
_cell_angle_beta 159.455830
_cell_angle_gamma 136.170161
_cell_volume 491.433394
_symmetry_space_group_name_H-M "P -1"
_symmetry_group_IT_number 2
_symmetry_cell_setting 'triclinic'
loop_
_space_group_symop_operation_xyz
x,y,z
-x,-y,-z
loop_
_atom_site_type_symbol
_atom_site_label
_atom_site_fract_x
_atom_site_fract_y
_atom_site_fract_z
Si Si1 0.238701 0.453284 0.879649
Si Si2 0.253913 0.202163 0.539062
Si Si3 0.177837 0.823983 0.722678
Si Si4 0.497197 0.944546 0.410283
Si Si5 0.085257 0.257003 0.073774
Si Si6 0.683013 0.739046 0.087404
O O1 0.322989 0.304790 0.017633
O O2 0.000000 0.500000 0.500000
O O3 0.132589 0.398123 0.927380
O O4 0.494233 0.592045 0.050000
O O5 0.229057 0.293330 0.324931
O O6 0.006991 0.218321 0.337782
O O7 0.228496 0.015371 0.622997
O O8 0.537371 0.237749 0.892381
O O9 0.989285 0.759646 0.459390
O O10 0.770374 0.882930 0.715956
O O11 0.500000 0.000000 0.500000
O O12 0.235440 0.807642 0.211407
O O13 0.435128 0.097334 0.153045
#
# Coordination Sequence:
#
# PCOD9024481 Si02
#       6
#     2   2   2   2   2   2
#     4  11  27  45  68  96 142 182 218 276 349 404
#     4  10  22  40  65 100 131 172 221 281 328 386
#     4  10  22  40  66  96 135 171 222 274 335 391
#     4  12  24  40  69 102 134 170 228 280 334 395
#     4  12  25  44  68 103 136 172 225 286 328 395
#     4  11  25  44  66 101 133 184 221 274 343 406
#
# _framework density 24.418364
#
# number of rings (size 3 to 8) (size 9 to 14) (size 15 to 20)
#    0.000    1.000    3.333    2.500   11.667    0.000 
#    0.000    1.667    0.000    0.000    0.000    0.000 
#    0.000    0.000    0.000    0.000    0.000    0.000 
#
# Total GULP energy -67298.943962 kJ/mol
# GULP energy per Si atom -5608.245330 kJ/mol
# Density = 2.436279 g / cm^3
# Si number density = 24.418364 Si / 1000 Ang^3
#
#
#
# Elastic Constant Matrix: (Units=GPa)
#
#
# Indices 1 2 3 4 5 6 
#
# 1 88.7304 19.2299 16.2209 -4.5517 -23.7023 13.5882
# 2 19.2299 84.7617 40.2310 13.1658 -16.2769 23.1952
# 3 16.2209 40.2310 111.0559 15.0356 -18.9675 13.8483
# 4 -4.5517 13.1658 15.0356 44.1793 0.1175 -8.3007
# 5 -23.7023 -16.2769 -18.9675 0.1175 46.7362 -7.5375
# 6 13.5882 23.1952 13.8483 -8.3007 -7.5375 35.7011
#
#
#
# Elastic Compliance Matrix: (Units=1/GPa)
#
#
# Indices 1 2 3 4 5 6 
#
# 1 0.013672 -0.001279 -0.000386 0.001407 0.005901 -0.002650
# 2 -0.001279 0.018343 -0.003820 -0.006355 0.002446 -0.010910
# 3 -0.000386 -0.003820 0.011628 -0.003248 0.002874 -0.002030
# 4 0.001407 -0.006355 -0.003248 0.027868 -0.001097 0.011101
# 5 0.005901 0.002446 0.002874 -0.001097 0.026472 0.000384
# 6 -0.002650 -0.010910 -0.002030 0.011101 0.000384 0.039557
#
#
# Mechanical properties :
#
#
# Convention : Reuss Voigt Hill
#
# Bulk Modulus (GPa) = 30.60457 48.43463 39.51960
# Shear Modulus (GPa) = 31.36733 39.24774 35.30753
#
# Velocity S-wave (km/s) = 3.58799 4.01347 3.80668
# Velocity P-wave (km/s) = 5.45211 6.43083 5.96159
#
# Compressibility (1/GPa) = 0.03267486
#
# Stress axis : x y z
#
# Youngs Moduli (GPa) = 73.14155 54.51585 85.99680
#
# Poissons Ratio (x) = 0.06972 0.03319
# Poissons Ratio (y) = 0.09354 0.32848
# Poissons Ratio (z) = 0.02823 0.20823
#
# Static dielectric constant tensor:
#      x y z
#    x 1.948270 -0.050090 0.015230 
#    y -0.050090 1.947220 -0.047840 
#    z 0.015230 -0.047840 1.915150 
# 
# From -- ./inp_files/30814.got.cif
#   From: 2010.05.17/outbox.cif.g08.bks.cpg/sg2_16_cif.got.tgz:30814.got - 2010.06.03 11:33:40.
