data_PCOD9024666
_publ_section_title
;
Structure prediction by ZEFSAII (Michael W. Deem and Ramdas Pophale) SiO2 
 PCOD9024666
Probable space group: P -1
;
_chemical_formula_sum "Si O2"
_cell_formula_units_Z 16
_cell_length_a 6.490151
_cell_length_b 5.967590
_cell_length_c 17.512749
_cell_angle_alpha 94.812108
_cell_angle_beta 84.891732
_cell_angle_gamma 79.578488
_cell_volume 660.969211
_symmetry_space_group_name_H-M "P -1"
_symmetry_group_IT_number 2
_symmetry_cell_setting 'triclinic'
loop_
_space_group_symop_operation_xyz
x,y,z
-x,-y,-z
loop_
_atom_site_type_symbol
_atom_site_label
_atom_site_fract_x
_atom_site_fract_y
_atom_site_fract_z
Si Si1 0.634723 0.672546 0.536173
Si Si2 0.216261 0.828396 0.006483
Si Si3 0.935937 0.750789 0.641569
Si Si4 0.116802 0.565276 0.140193
Si Si5 0.634629 0.147884 0.753222
Si Si6 0.455317 0.117988 0.119044
Si Si7 0.779393 0.601812 0.268575
Si Si8 0.765735 0.956506 0.406298
O O1 0.500000 0.500000 0.500000
O O2 0.801630 0.593390 0.595389
O O3 0.755484 0.770336 0.466085
O O4 0.464128 0.883371 0.580910
O O5 0.152380 0.625101 0.052623
O O6 0.365662 0.946214 0.059982
O O7 0.355416 0.784404 0.924082
O O8 0.000000 0.000000 0.000000
O O9 0.097596 0.610834 0.692662
O O10 0.772729 0.955750 0.691887
O O11 0.070702 0.876538 0.583201
O O12 0.211481 0.744716 0.194028
O O13 0.258937 0.320930 0.145102
O O14 0.883676 0.578092 0.180667
O O15 0.473650 0.355084 0.725063
O O16 0.491081 0.017380 0.808244
O O17 0.815723 0.824099 0.321197
#
# Coordination Sequence:
#
# PCOD9024666 Si02
#       8
#     2   2   2   2   2   2   2   2
#     4  11  26  48  74 106 139 186 236 290 357 418
#     4  10  22  40  65  96 138 182 232 286 345 410
#     4  12  25  46  74 101 142 184 233 290 353 423
#     4  11  23  41  67 100 138 184 235 287 353 413
#     4  11  24  44  66 100 142 180 231 293 344 420
#     4  10  22  42  64  98 137 180 231 291 342 410
#     4  12  25  41  71 104 133 188 232 281 361 416
#     4  11  25  46  71 103 141 182 233 290 351 425
#
# _framework density 24.206873999999999
#
# number of rings (size 3 to 8) (size 9 to 14) (size 15 to 20)
#    0.000    1.000    3.750    2.250    0.000    8.500 
#    0.000    0.000    0.000    0.000    0.000    0.000 
#    0.000    0.000    0.000    0.000    0.000    0.000 
#
# Total GULP energy -89514.775038 kJ/mol
# GULP energy per Si atom -5594.673440 kJ/mol
# Density = 2.415178 g / cm^3
# Si number density = 24.206874 Si / 1000 Ang^3
#
#
#
# Elastic Constant Matrix: (Units=GPa)
#
#
# Indices 1 2 3 4 5 6 
#
# 1 95.8006 24.9314 49.1564 -14.0854 -7.2612 -13.1112
# 2 24.9314 61.0340 19.0720 -8.3570 -11.6086 -11.4307
# 3 49.1564 19.0720 68.4540 -10.1151 -25.9194 1.5296
# 4 -14.0854 -8.3570 -10.1151 36.0419 -6.9767 -1.6296
# 5 -7.2612 -11.6086 -25.9194 -6.9767 38.4931 8.7702
# 6 -13.1112 -11.4307 1.5296 -1.6296 8.7702 50.3747
#
#
#
# Elastic Compliance Matrix: (Units=1/GPa)
#
#
# Indices 1 2 3 4 5 6 
#
# 1 0.020977 -0.003535 -0.018347 0.000420 -0.011015 0.007146
# 2 -0.003535 0.020103 -0.000558 0.004247 0.005128 0.002903
# 3 -0.018347 -0.000558 0.039689 0.008600 0.027056 -0.010539
# 4 0.000420 0.004247 0.008600 0.033881 0.013388 -0.000423
# 5 -0.011015 0.005128 0.027056 0.013388 0.048492 -0.010534
# 6 0.007146 0.002903 -0.010539 -0.000423 -0.010534 0.024510
#
#
# Mechanical properties :
#
#
# Convention : Reuss Voigt Hill
#
# Bulk Modulus (GPa) = 27.86302 45.73425 36.79863
# Shear Modulus (GPa) = 20.45019 33.79049 27.12034
#
# Velocity S-wave (km/s) = 2.90971 3.74023 3.35080
# Velocity P-wave (km/s) = 4.77744 6.13079 5.49593
#
# Compressibility (1/GPa) = 0.03588987
#
# Stress axis : x y z
#
# Youngs Moduli (GPa) = 47.67044 49.74295 25.19565
#
# Poissons Ratio (x) = 0.17584 0.46227
# Poissons Ratio (y) = 0.16851 0.01406
# Poissons Ratio (z) = 0.87462 0.02776
#
# Static dielectric constant tensor:
#      x y z
#    x 1.930620 0.019150 0.006810 
#    y 0.019150 1.908020 -0.034150 
#    z 0.006810 -0.034150 1.969550 
# 
# From -- ./inp_files/125901.got.cif
#   From: 2010.05.17/outbox.cif.g08.bks.cpg/sg2_63_cif.got.tgz:125901.got - 2010.06.03 11:33:40.
