data_PCOD9024200
_publ_section_title
;
Structure prediction by ZEFSAII (Michael W. Deem and Ramdas Pophale) SiO2 
 PCOD9024200
Probable space group: P -1
;
_chemical_formula_sum "Si O2"
_cell_formula_units_Z 16
_cell_length_a 12.269295
_cell_length_b 13.867169
_cell_length_c 11.213059
_cell_angle_alpha 44.235599
_cell_angle_beta 127.971396
_cell_angle_gamma 149.500381
_cell_volume 675.462128
_symmetry_space_group_name_H-M "P -1"
_symmetry_group_IT_number 2
_symmetry_cell_setting 'triclinic'
loop_
_space_group_symop_operation_xyz
x,y,z
-x,-y,-z
loop_
_atom_site_type_symbol
_atom_site_label
_atom_site_fract_x
_atom_site_fract_y
_atom_site_fract_z
Si Si1 0.352070 0.315073 0.238456
Si Si2 0.476989 0.201923 0.637160
Si Si3 0.042648 0.194950 0.862665
Si Si4 0.904450 0.981976 0.327650
Si Si5 0.254455 0.803538 0.302493
Si Si6 0.116611 0.325517 0.523329
Si Si7 0.438752 0.629999 0.892361
Si Si8 0.189455 0.695454 0.626277
O O1 0.416786 0.263878 0.434966
O O2 0.112431 0.187255 0.213505
O O3 0.383195 0.245785 0.201734
O O4 0.486399 0.559496 0.093199
O O5 0.834858 0.790507 0.383692
O O6 0.550916 0.111670 0.715426
O O7 0.698292 0.440877 0.617883
O O8 0.820823 0.096308 0.844756
O O9 0.101590 0.304758 0.675468
O O10 0.235552 0.399166 0.893479
O O11 0.000000 0.000000 0.000000
O O12 0.000000 0.000000 0.500000
O O13 0.712560 0.937229 0.271196
O O14 0.285693 0.794671 0.471490
O O15 0.038474 0.555769 0.333338
O O16 0.887620 0.223807 0.431110
O O17 0.350326 0.714092 0.783715
#
# Coordination Sequence:
#
# PCOD9024200 Si02
#       8
#     2   2   2   2   2   2   2   2
#     4  10  19  31  51  76 105 143 168 194 260 308
#     4  10  17  34  56  74 103 136 180 208 237 306
#     4  10  18  29  53  82 110 126 162 221 259 304
#     4  10  22  34  51  72 105 141 173 212 249 298
#     4   8  14  27  49  78 100 130 165 208 262 292
#     4  10  18  33  54  79  98 128 181 215 255 294
#     4  10  17  31  53  76 110 137 160 205 266 314
#     4   8  14  27  51  76  99 125 166 219 251 302
#
# _framework density 23.687487999999998
#
# number of rings (size 3 to 8) (size 9 to 14) (size 15 to 20)
#    0.000    2.500    2.500    2.625    0.000    0.000 
#    0.000    0.625   11.000   16.500    0.000    0.000 
#    0.000    0.000    0.000    0.000    0.000    0.000 
#
# Total GULP energy -89317.342770 kJ/mol
# GULP energy per Si atom -5582.333923 kJ/mol
# Density = 2.363357 g / cm^3
# Si number density = 23.687488 Si / 1000 Ang^3
#
#
#
# Elastic Constant Matrix: (Units=GPa)
#
#
# Indices 1 2 3 4 5 6 
#
# 1 190.2674 21.9961 32.5953 -2.6133 33.2943 44.7985
# 2 21.9961 41.8951 1.8689 0.1662 -5.1836 13.2232
# 3 32.5953 1.8689 68.8602 -1.5571 27.7840 8.5160
# 4 -2.6133 0.1662 -1.5571 28.5427 5.6241 2.2918
# 5 33.2943 -5.1836 27.7840 5.6241 40.2942 2.1434
# 6 44.7985 13.2232 8.5160 2.2918 2.1434 37.8576
#
#
#
# Elastic Compliance Matrix: (Units=1/GPa)
#
#
# Indices 1 2 3 4 5 6 
#
# 1 0.009338 -0.002830 0.000254 0.003290 -0.008190 -0.009854
# 2 -0.002830 0.028472 -0.001812 -0.001538 0.007813 -0.006538
# 3 0.000254 -0.001812 0.021316 0.004575 -0.015574 -0.003858
# 4 0.003290 -0.001538 0.004575 0.038268 -0.011090 -0.006074
# 5 -0.008190 0.007813 -0.015574 -0.011090 0.044418 0.008623
# 6 -0.009854 -0.006538 -0.003858 -0.006074 0.008623 0.041106
#
#
# Mechanical properties :
#
#
# Convention : Reuss Voigt Hill
#
# Bulk Modulus (GPa) = 19.86080 45.99369 32.92725
# Shear Modulus (GPa) = 23.98349 37.64306 30.81328
#
# Velocity S-wave (km/s) = 3.18543 3.99074 3.61061
# Velocity P-wave (km/s) = 4.68316 6.37916 5.59579
#
# Compressibility (1/GPa) = 0.05035043
#
# Stress axis : x y z
#
# Youngs Moduli (GPa) = 107.09035 35.12207 46.91409
#
# Poissons Ratio (x) = 0.09940 -0.01193
# Poissons Ratio (y) = 0.30309 0.08500
# Poissons Ratio (z) = -0.02724 0.06363
#
# Static dielectric constant tensor:
#      x y z
#    x 1.802520 0.031920 0.084230 
#    y 0.031920 2.051300 -0.005740 
#    z 0.084230 -0.005740 1.932030 
# 
# From -- ./inp_files/311786.got.cif
#   From: 2010.05.17/outbox.cif.g08.bks.cpg/sg2_156_cif.got.tgz:311786.got - 2010.06.03 11:33:40.
