data_PCOD9024156
_publ_section_title
;
Structure prediction by ZEFSAII (Michael W. Deem and Ramdas Pophale) SiO2 
 PCOD9024156
Probable space group: P -1
;
_chemical_formula_sum "Si O2"
_cell_formula_units_Z 11
_cell_length_a 8.448261
_cell_length_b 8.086003
_cell_length_c 14.368192
_cell_angle_alpha 110.496657
_cell_angle_beta 126.236711
_cell_angle_gamma 34.907987
_cell_volume 433.355169
_symmetry_space_group_name_H-M "P -1"
_symmetry_group_IT_number 2
_symmetry_cell_setting 'triclinic'
loop_
_space_group_symop_operation_xyz
x,y,z
-x,-y,-z
loop_
_atom_site_type_symbol
_atom_site_label
_atom_site_fract_x
_atom_site_fract_y
_atom_site_fract_z
Si Si1 0.764372 0.656112 0.537059
Si Si2 0.329192 0.911492 0.029625
Si Si3 0.333482 0.819399 0.686186
Si Si4 0.429807 0.532887 0.127600
Si Si5 0.010973 0.389994 0.763098
Si Si6 0.500000 0.500000 0.500000
O O1 0.586766 0.597582 0.474809
O O2 0.000000 0.500000 0.500000
O O3 0.954650 0.540651 0.679300
O O4 0.500000 0.000000 0.500000
O O5 0.381421 0.763703 0.114717
O O6 0.633729 0.825547 0.111765
O O7 0.373196 0.732631 0.929489
O O8 0.954222 0.256408 0.960420
O O9 0.383826 0.631076 0.742659
O O10 0.335350 0.765198 0.569081
O O11 0.702564 0.645586 0.775780
O O12 0.032997 0.169911 0.685646
#
# Coordination Sequence:
#
# PCOD9024156 Si02
#       6
#     2   2   2   2   2   1
#     4  11  25  45  69 100 132 185 229 279 352 398
#     4  10  22  41  62  95 134 163 226 271 316 418
#     4  11  24  42  66  95 132 177 217 276 346 381
#     4  10  22  40  63  95 128 179 211 266 345 386
#     4  11  24  42  65  98 131 167 229 276 325 416
#     4  10  26  48  66 104 142 172 238 294 318 434
#
# _framework density 25.383337999999998
#
# number of rings (size 3 to 8) (size 9 to 14) (size 15 to 20)
#    0.000    1.455    0.000    4.364    2.545   10.909 
#    6.545    0.000    0.000    0.000    0.000    0.000 
#    0.000    0.000    0.000    0.000    0.000    0.000 
#
# Total GULP energy -61350.559496 kJ/mol
# GULP energy per Si atom -5577.323591 kJ/mol
# Density = 2.532556 g / cm^3
# Si number density = 25.383338 Si / 1000 Ang^3
#
#
#
# Elastic Constant Matrix: (Units=GPa)
#
#
# Indices 1 2 3 4 5 6 
#
# 1 122.3846 41.1016 11.4658 -5.0542 -18.8691 -11.7805
# 2 41.1016 145.0268 3.8143 -13.9318 -23.7976 -26.1310
# 3 11.4658 3.8143 49.7806 -3.8457 -26.6064 2.9504
# 4 -5.0542 -13.9318 -3.8457 26.0236 3.5735 -2.7406
# 5 -18.8691 -23.7976 -26.6064 3.5735 57.7115 -3.5684
# 6 -11.7805 -26.1310 2.9504 -2.7406 -3.5684 42.8872
#
#
#
# Elastic Compliance Matrix: (Units=1/GPa)
#
#
# Indices 1 2 3 4 5 6 
#
# 1 0.009402 -0.001995 -0.001100 0.000517 0.001812 0.001626
# 2 -0.001995 0.009672 0.002088 0.005123 0.004346 0.005891
# 3 -0.001100 0.002088 0.027311 0.003205 0.012917 0.000371
# 4 0.000517 0.005123 0.003205 0.042153 0.001512 0.005862
# 5 0.001812 0.004346 0.012917 0.001512 0.025852 0.004505
# 6 0.001626 0.005891 0.000371 0.005862 0.004505 0.028077
#
#
# Mechanical properties :
#
#
# Convention : Reuss Voigt Hill
#
# Bulk Modulus (GPa) = 22.53840 47.77282 35.15561
# Shear Modulus (GPa) = 31.39282 42.71179 37.05231
#
# Velocity S-wave (km/s) = 3.52056 4.10649 3.82476
# Velocity P-wave (km/s) = 5.04225 6.43006 5.77797
#
# Compressibility (1/GPa) = 0.04436872
#
# Stress axis : x y z
#
# Youngs Moduli (GPa) = 106.36586 103.38665 36.61552
#
# Poissons Ratio (x) = 0.20630 0.04029
# Poissons Ratio (y) = 0.21224 -0.07644
# Poissons Ratio (z) = 0.11703 -0.21584
#
# Static dielectric constant tensor:
#      x y z
#    x 2.075000 -0.070670 0.127380 
#    y -0.070670 1.977230 -0.056350 
#    z 0.127380 -0.056350 2.050880 
# 
# From -- ./inp_files/21581.got.cif
#   From: 2010.05.17/outbox.cif.g08.bks.cpg/sg2_11_cif.got.tgz:21581.got - 2010.06.03 11:33:40.
