data_PCOD9024221
_publ_section_title
;
Structure prediction by ZEFSAII (Michael W. Deem and Ramdas Pophale) SiO2 
 PCOD9024221
Probable space group: P -1
;
_chemical_formula_sum "Si O2"
_cell_formula_units_Z 16
_cell_length_a 9.072710
_cell_length_b 8.800374
_cell_length_c 14.235755
_cell_angle_alpha 89.647025
_cell_angle_beta 57.704245
_cell_angle_gamma 128.601132
_cell_volume 644.123056
_symmetry_space_group_name_H-M "P -1"
_symmetry_group_IT_number 2
_symmetry_cell_setting 'triclinic'
loop_
_space_group_symop_operation_xyz
x,y,z
-x,-y,-z
loop_
_atom_site_type_symbol
_atom_site_label
_atom_site_fract_x
_atom_site_fract_y
_atom_site_fract_z
Si Si1 0.229251 0.285418 0.235221
Si Si2 0.991662 0.504567 0.115480
Si Si3 0.853600 0.871466 0.936538
Si Si4 0.817111 0.831679 0.476274
Si Si5 0.917674 0.299460 0.588990
Si Si6 0.752609 0.650616 0.154335
Si Si7 0.519574 0.114082 0.397709
Si Si8 0.343962 0.696993 0.156301
O O1 0.282043 0.269622 0.111168
O O2 0.454254 0.412990 0.236832
O O3 0.206269 0.452086 0.239757
O O4 0.982430 0.022196 0.338981
O O5 0.891445 0.609985 0.162904
O O6 0.784618 0.270941 0.246480
O O7 0.261273 0.667186 0.077266
O O8 0.000000 0.500000 0.000000
O O9 0.852791 0.735165 0.012465
O O10 0.651134 0.862324 0.051303
O O11 0.142213 0.127982 0.833640
O O12 0.547840 0.750310 0.563103
O O13 0.850501 0.670780 0.466771
O O14 0.000000 0.000000 0.500000
O O15 0.769715 0.250727 0.735457
O O16 0.000000 0.500000 0.500000
O O17 0.707920 0.085149 0.593821
O O18 0.500000 0.000000 0.500000
#
# Coordination Sequence:
#
# PCOD9024221 Si02
#       8
#     2   2   2   2   2   2   2   2
#     4  11  21  45  70  95 140 194 234 296 369 435
#     4  12  25  42  71 106 147 185 237 303 366 433
#     4  10  23  42  67 100 143 195 233 296 366 440
#     4  10  22  42  72  94 136 189 238 290 371 435
#     4  11  24  44  70 102 137 191 249 303 367 434
#     4  10  22  40  64 100 142 176 249 283 355 432
#     4  11  25  49  74 105 146 192 246 299 369 447
#     4  11  24  42  68  99 145 184 239 303 371 432
#
# _framework density 24.839971999999999
#
# number of rings (size 3 to 8) (size 9 to 14) (size 15 to 20)
#    0.000    1.250    0.000    7.500    3.500    1.500 
#    6.750    2.500    0.000    0.000    0.000    0.000 
#    0.000    0.000    0.000    0.000    0.000    0.000 
#
# Total GULP energy -89292.234149 kJ/mol
# GULP energy per Si atom -5580.764634 kJ/mol
# Density = 2.478344 g / cm^3
# Si number density = 24.839972 Si / 1000 Ang^3
#
#
#
# Elastic Constant Matrix: (Units=GPa)
#
#
# Indices 1 2 3 4 5 6 
#
# 1 141.0109 31.4304 22.6808 12.1946 7.8274 4.5414
# 2 31.4304 77.0495 27.2677 7.2560 -4.8011 7.0792
# 3 22.6808 27.2677 111.9865 3.2993 7.0155 7.0841
# 4 12.1946 7.2560 3.2993 41.8667 4.7634 -0.1619
# 5 7.8274 -4.8011 7.0155 4.7634 30.4447 3.2785
# 6 4.5414 7.0792 7.0841 -0.1619 3.2785 39.6616
#
#
#
# Elastic Compliance Matrix: (Units=1/GPa)
#
#
# Indices 1 2 3 4 5 6 
#
# 1 0.008143 -0.003048 -0.000721 -0.001542 -0.002157 -0.000088
# 2 -0.003048 0.016136 -0.003395 -0.002185 0.004702 -0.002322
# 3 -0.000721 -0.003395 0.010115 0.000297 -0.002631 -0.000900
# 4 -0.001542 -0.002185 0.000297 0.025155 -0.004055 0.000951
# 5 -0.002157 0.004702 -0.002631 -0.004055 0.035716 -0.003091
# 6 -0.000088 -0.002322 -0.000900 0.000951 -0.003091 0.026058
#
#
# Mechanical properties :
#
#
# Convention : Reuss Voigt Hill
#
# Bulk Modulus (GPa) = 49.83451 54.75609 52.29530
# Shear Modulus (GPa) = 35.12755 38.97248 37.05002
#
# Velocity S-wave (km/s) = 3.76460 3.96528 3.86625
# Velocity P-wave (km/s) = 6.24517 6.56171 6.40539
#
# Compressibility (1/GPa) = 0.02006641
#
# Stress axis : x y z
#
# Youngs Moduli (GPa) = 122.80752 61.97500 98.86074
#
# Poissons Ratio (x) = 0.18888 0.07128
# Poissons Ratio (y) = 0.37428 0.33562
# Poissons Ratio (z) = 0.08854 0.21040
#
# Static dielectric constant tensor:
#      x y z
#    x 1.973310 -0.032870 0.019890 
#    y -0.032870 2.004400 -0.015540 
#    z 0.019890 -0.015540 2.236750 
# 
# From -- ./inp_files/494835.got.cif
#   From: 2010.05.17/outbox.cif.g08.bks.cpg/sg2_248_cif.got.tgz:494835.got - 2010.06.03 11:33:40.
