data_PCOD9024165
_publ_section_title
;
Structure prediction by ZEFSAII (Michael W. Deem and Ramdas Pophale) SiO2 
 PCOD9024165
Probable space group: P -1
;
_chemical_formula_sum "Si O2"
_cell_formula_units_Z 13
_cell_length_a 7.398388
_cell_length_b 18.454125
_cell_length_c 5.706965
_cell_angle_alpha 73.347005
_cell_angle_beta 133.005050
_cell_angle_gamma 120.434493
_cell_volume 489.142214
_symmetry_space_group_name_H-M "P -1"
_symmetry_group_IT_number 2
_symmetry_cell_setting 'triclinic'
loop_
_space_group_symop_operation_xyz
x,y,z
-x,-y,-z
loop_
_atom_site_type_symbol
_atom_site_label
_atom_site_fract_x
_atom_site_fract_y
_atom_site_fract_z
Si Si1 0.806672 0.927133 0.085374
Si Si2 0.569748 0.610683 0.200172
Si Si3 0.973873 0.294604 0.093144
Si Si4 0.683105 0.764590 0.893928
Si Si5 0.893606 0.548266 0.180489
Si Si6 0.500000 0.000000 0.500000
Si Si7 0.491055 0.862344 0.273479
O O1 0.781775 0.918843 0.349936
O O2 0.844297 0.845386 0.125147
O O3 0.527826 0.931946 0.763900
O O4 0.000000 0.000000 0.000000
O O5 0.791765 0.657293 0.552809
O O6 0.716350 0.581447 0.153541
O O7 0.496347 0.681441 0.953544
O O8 0.304614 0.524156 0.106865
O O9 0.111744 0.259084 0.052439
O O10 0.903264 0.367594 0.854574
O O11 0.716852 0.208670 0.020906
O O12 0.528997 0.801067 0.553229
O O13 0.000000 0.500000 0.500000
O O14 0.417355 0.929818 0.272964
#
# Coordination Sequence:
#
# PCOD9024165 Si02
#       7
#     2   2   2   2   2   1   2
#     4  11  24  42  65  94 130 173 222 280 341 402
#     4  10  22  40  64  95 131 172 219 271 330 402
#     4  11  23  40  66  97 131 174 224 277 334 398
#     4  10  23  41  64  94 129 171 221 274 335 398
#     4  10  22  40  63  95 135 173 216 271 333 401
#     4  10  24  42  66  98 132 170 222 278 340 400
#     4  11  24  42  67  98 133 176 226 279 339 402
#
# _framework density 26.577138000000001
#
# number of rings (size 3 to 8) (size 9 to 14) (size 15 to 20)
#    0.000    1.538    0.000    3.692    0.000   12.923 
#    0.000    0.000    0.000    2.769    0.000    0.000 
#    0.000    0.000    0.000    0.000    0.000    0.000 
#
# Total GULP energy -72373.205754 kJ/mol
# GULP energy per Si atom -5567.169673 kJ/mol
# Density = 2.651665 g / cm^3
# Si number density = 26.577138 Si / 1000 Ang^3
#
#
#
# Elastic Constant Matrix: (Units=GPa)
#
#
# Indices 1 2 3 4 5 6 
#
# 1 61.5220 80.8101 4.6533 7.3575 -10.1137 -2.6140
# 2 80.8101 273.4884 70.0660 -3.7386 -6.8477 7.5118
# 3 4.6533 70.0660 89.1062 -10.4041 -1.5288 6.5708
# 4 7.3575 -3.7386 -10.4041 53.7133 0.3914 2.8933
# 5 -10.1137 -6.8477 -1.5288 0.3914 18.2218 -6.6169
# 6 -2.6140 7.5118 6.5708 2.8933 -6.6169 52.1825
#
#
#
# Elastic Compliance Matrix: (Units=1/GPa)
#
#
# Indices 1 2 3 4 5 6 
#
# 1 0.034951 -0.011855 0.006876 -0.004681 0.017461 0.005065
# 2 -0.011855 0.008645 -0.005990 0.001191 -0.004483 -0.001719
# 3 0.006876 -0.005990 0.015861 0.001724 0.002660 -0.000549
# 4 -0.004681 0.001191 0.001724 0.019813 -0.003204 -0.002128
# 5 0.017461 -0.004483 0.002660 -0.003204 0.066746 0.009826
# 6 0.005065 -0.001719 -0.000549 -0.002128 0.009826 0.021098
#
#
# Mechanical properties :
#
#
# Convention : Reuss Voigt Hill
#
# Bulk Modulus (GPa) = 26.65272 81.68614 54.16943
# Shear Modulus (GPa) = 24.80671 42.72932 33.76802
#
# Velocity S-wave (km/s) = 3.05845 4.01402 3.56837
# Velocity P-wave (km/s) = 4.74577 7.23086 6.11587
#
# Compressibility (1/GPa) = 0.03751962
#
# Stress axis : x y z
#
# Youngs Moduli (GPa) = 28.61133 115.67206 63.04832
#
# Poissons Ratio (x) = 1.37127 -0.43352
# Poissons Ratio (y) = 0.33918 0.37766
# Poissons Ratio (z) = -0.19673 0.69287
#
# Static dielectric constant tensor:
#      x y z
#    x 2.188820 0.199600 0.057070 
#    y 0.199600 2.135830 0.153180 
#    z 0.057070 0.153180 2.256790 
# 
# From -- ./inp_files/41866.got.cif
#   From: 2010.05.17/outbox.cif.g08.bks.cpg/sg2_21_cif.got.tgz:41866.got - 2010.06.03 11:33:40.
