data_PCOD9024633
_publ_section_title
;
Structure prediction by ZEFSAII (Michael W. Deem and Ramdas Pophale) SiO2 
 PCOD9024633
Probable space group: P -1
;
_chemical_formula_sum "Si O2"
_cell_formula_units_Z 15
_cell_length_a 8.374004
_cell_length_b 12.596271
_cell_length_c 12.683353
_cell_angle_alpha 111.139267
_cell_angle_beta 145.931929
_cell_angle_gamma 85.585176
_cell_volume 632.916422
_symmetry_space_group_name_H-M "P -1"
_symmetry_group_IT_number 2
_symmetry_cell_setting 'triclinic'
loop_
_space_group_symop_operation_xyz
x,y,z
-x,-y,-z
loop_
_atom_site_type_symbol
_atom_site_label
_atom_site_fract_x
_atom_site_fract_y
_atom_site_fract_z
Si Si1 0.852093 0.708342 0.343238
Si Si2 0.856037 0.317130 0.050603
Si Si3 0.810756 0.442697 0.271103
Si Si4 0.370060 0.971054 0.167763
Si Si5 0.807511 0.063823 0.264038
Si Si6 0.913832 0.031571 0.789564
Si Si7 0.000000 0.500000 0.000000
Si Si8 0.082432 0.281665 0.849468
O O1 0.512066 0.708303 0.171420
O O2 0.790101 0.564355 0.253715
O O3 0.006078 0.762618 0.335017
O O4 0.070286 0.790476 0.586381
O O5 0.845999 0.179119 0.999836
O O6 0.025380 0.408668 0.079541
O O7 0.957430 0.383164 0.243847
O O8 0.000000 0.500000 0.500000
O O9 0.463235 0.343160 0.075451
O O10 0.380071 0.017391 0.309380
O O11 0.684664 0.992959 0.282886
O O12 0.193497 0.034438 0.021054
O O13 0.073321 0.047134 0.334070
O O14 0.500000 0.000000 0.000000
O O15 0.971837 0.166944 0.827447
O O16 0.983099 0.390994 0.867598
#
# Coordination Sequence:
#
# PCOD9024633 Si02
#       8
#     2   2   2   2   2   2   1   2
#     4  11  23  43  66  99 129 172 225 271 329 399
#     4  11  22  43  70  95 134 170 216 279 330 401
#     4  11  24  39  68 101 128 175 222 272 338 401
#     4  10  22  40  65  95 130 172 219 270 322 389
#     4  10  23  42  67  91 132 177 218 273 328 389
#     4  10  22  40  65  95 130 172 219 270 322 389
#     4  12  20  42  68 102 134 170 216 274 342 396
#     4  11  22  43  70  95 134 170 216 279 330 401
#
# _framework density 23.699808999999998
#
# number of rings (size 3 to 8) (size 9 to 14) (size 15 to 20)
#    0.000    1.333    4.000    2.400    7.467    2.133 
#    2.400    2.000    5.867    0.000    0.000    0.000 
#    0.000    0.000    0.000    0.000    0.000    0.000 
#
# Total GULP energy -83558.124108 kJ/mol
# GULP energy per Si atom -5570.541607 kJ/mol
# Density = 2.364587 g / cm^3
# Si number density = 23.699809 Si / 1000 Ang^3
#
#
#
# Elastic Constant Matrix: (Units=GPa)
#
#
# Indices 1 2 3 4 5 6 
#
# 1 143.0392 17.4828 40.9484 2.8856 -40.9883 14.7191
# 2 17.4828 95.8341 10.5133 -4.7160 -7.7218 -0.1362
# 3 40.9484 10.5133 93.7754 6.5807 -25.4494 -1.3802
# 4 2.8856 -4.7160 6.5807 23.1344 -9.4076 -8.3857
# 5 -40.9883 -7.7218 -25.4494 -9.4076 34.6634 6.5440
# 6 14.7191 -0.1362 -1.3802 -8.3857 6.5440 44.6999
#
#
#
# Elastic Compliance Matrix: (Units=1/GPa)
#
#
# Indices 1 2 3 4 5 6 
#
# 1 0.012447 -0.000742 -0.001472 0.002831 0.015347 -0.005862
# 2 -0.000742 0.010969 -0.000614 0.003528 0.001953 0.000634
# 3 -0.001472 -0.000614 0.013585 -0.000705 0.007980 -0.000398
# 4 0.002831 0.003528 -0.000705 0.052979 0.016759 0.006542
# 5 0.015347 0.001953 0.007980 0.016759 0.059805 -0.010413
# 6 -0.005862 0.000634 -0.000398 0.006542 -0.010413 0.027043
#
#
# Mechanical properties :
#
#
# Convention : Reuss Voigt Hill
#
# Bulk Modulus (GPa) = 31.90206 52.28196 42.09201
# Shear Modulus (GPa) = 25.91593 38.07982 31.99788
#
# Velocity S-wave (km/s) = 3.31041 4.01279 3.67840
# Velocity P-wave (km/s) = 5.30112 6.60136 5.98664
#
# Compressibility (1/GPa) = 0.03134594
#
# Stress axis : x y z
#
# Youngs Moduli (GPa) = 80.34033 91.16391 73.61217
#
# Poissons Ratio (x) = 0.06761 0.10835
# Poissons Ratio (y) = 0.05958 0.04520
# Poissons Ratio (z) = 0.11825 0.05598
#
# Static dielectric constant tensor:
#      x y z
#    x 2.004420 0.006030 0.012120 
#    y 0.006030 1.930490 -0.022250 
#    z 0.012120 -0.022250 1.924590 
# 
# From -- ./inp_files/390857.got.cif
#   From: 2010.05.17/outbox.cif.g08.bks.cpg/sg2_196_cif.got.tgz:390857.got - 2010.06.03 11:33:40.
