data_PCOD9024982
_publ_section_title
;
Structure prediction by ZEFSAII (Michael W. Deem and Ramdas Pophale) SiO2 
 PCOD9024982
Probable space group: P -1
;
_chemical_formula_sum "Si O2"
_cell_formula_units_Z 15
_cell_length_a 5.720374
_cell_length_b 11.352494
_cell_length_c 11.608300
_cell_angle_alpha 112.296889
_cell_angle_beta 116.837743
_cell_angle_gamma 63.497856
_cell_volume 586.829862
_symmetry_space_group_name_H-M "P -1"
_symmetry_group_IT_number 2
_symmetry_cell_setting 'triclinic'
loop_
_space_group_symop_operation_xyz
x,y,z
-x,-y,-z
loop_
_atom_site_type_symbol
_atom_site_label
_atom_site_fract_x
_atom_site_fract_y
_atom_site_fract_z
Si Si1 0.870040 0.686613 0.739182
Si Si2 0.486519 0.608050 0.938993
Si Si3 0.429024 0.482157 0.324333
Si Si4 0.940553 0.210219 0.376097
Si Si5 0.695937 0.795407 0.210715
Si Si6 0.344635 0.764575 0.345580
Si Si7 0.000000 0.000000 0.500000
Si Si8 0.566579 0.063273 0.154811
O O1 0.823141 0.543278 0.674134
O O2 0.665084 0.795364 0.817414
O O3 0.172644 0.667118 0.846827
O O4 0.827490 0.756234 0.631495
O O5 0.640700 0.539283 0.832569
O O6 0.500000 0.500000 0.000000
O O7 0.591103 0.722014 0.057418
O O8 0.692710 0.355159 0.376411
O O9 0.476260 0.623445 0.389815
O O10 0.843722 0.103550 0.237940
O O11 0.999615 0.139707 0.484973
O O12 0.539955 0.764585 0.278044
O O13 0.029020 0.757109 0.251725
O O14 0.595957 0.956993 0.225766
O O15 0.261995 0.907103 0.444464
O O16 0.500000 0.000000 0.000000
#
# Coordination Sequence:
#
# PCOD9024982 Si02
#       8
#     2   2   2   2   2   2   1   2
#     4  10  22  40  66  98 146 187 234 298 359 440
#     4  11  22  38  68 104 147 191 231 290 365 440
#     4  10  23  43  69 107 145 185 240 296 366 441
#     4  10  23  46  68 102 135 189 243 299 366 424
#     4  12  26  44  71 110 146 191 241 295 365 441
#     4  12  28  47  74 104 146 188 250 303 362 423
#     4  12  26  52  76  98 144 194 252 314 356 420
#     4  11  23  39  65 102 146 189 237 293 369 438
#
# _framework density 25.561070999999998
#
# number of rings (size 3 to 8) (size 9 to 14) (size 15 to 20)
#    0.000    1.067    2.667    4.000    5.600    3.200 
#    4.800    0.667    0.000    0.000    0.000    0.000 
#    0.000    0.000    0.000    0.000    0.000    0.000 
#
# Total GULP energy -83655.087870 kJ/mol
# GULP energy per Si atom -5577.005858 kJ/mol
# Density = 2.550289 g / cm^3
# Si number density = 25.561071 Si / 1000 Ang^3
#
#
#
# Elastic Constant Matrix: (Units=GPa)
#
#
# Indices 1 2 3 4 5 6 
#
# 1 124.1022 44.1771 55.8320 -5.8899 1.9104 30.7149
# 2 44.1771 187.4918 36.8828 -6.8875 0.9448 34.9842
# 3 55.8320 36.8828 87.0416 7.2435 -1.2871 18.0742
# 4 -5.8899 -6.8875 7.2435 45.2840 15.4440 -7.8830
# 5 1.9104 0.9448 -1.2871 15.4440 43.8949 -4.7480
# 6 30.7149 34.9842 18.0742 -7.8830 -4.7480 50.6714
#
#
#
# Elastic Compliance Matrix: (Units=1/GPa)
#
#
# Indices 1 2 3 4 5 6 
#
# 1 0.012847 -0.000637 -0.007286 0.002700 -0.002200 -0.004534
# 2 -0.000637 0.006498 -0.001717 0.000869 -0.000839 -0.003431
# 3 -0.007286 -0.001717 0.017609 -0.005104 0.002533 -0.001236
# 4 0.002700 0.000869 -0.005104 0.027136 -0.009518 0.002914
# 5 -0.002200 -0.000839 0.002533 -0.009518 0.026537 0.002015
# 6 -0.004534 -0.003431 -0.001236 0.002914 0.002015 0.025935
#
#
# Mechanical properties :
#
#
# Convention : Reuss Voigt Hill
#
# Bulk Modulus (GPa) = 56.58424 74.71324 65.64874
# Shear Modulus (GPa) = 35.27758 45.41964 40.34861
#
# Velocity S-wave (km/s) = 3.71904 4.21991 3.97737
# Velocity P-wave (km/s) = 6.37390 7.28260 6.84335
#
# Compressibility (1/GPa) = 0.01767277
#
# Stress axis : x y z
#
# Youngs Moduli (GPa) = 77.83938 153.89825 56.79006
#
# Poissons Ratio (x) = 0.09809 0.41378
# Poissons Ratio (y) = 0.04961 0.09750
# Poissons Ratio (z) = 0.56715 0.26422
#
# Static dielectric constant tensor:
#      x y z
#    x 2.122260 -0.003560 0.151850 
#    y -0.003560 2.010170 -0.080950 
#    z 0.151850 -0.080950 2.348820 
# 
# From -- ./inp_files/365082.got.cif
#   From: 2010.05.17/outbox.cif.g08.bks.cpg/sg2_183_cif.got.tgz:365082.got - 2010.06.03 11:33:40.
