data_PCOD9024273
_publ_section_title
;
Structure prediction by ZEFSAII (Michael W. Deem and Ramdas Pophale) SiO2 
 PCOD9024273
Probable space group: P -1
;
_chemical_formula_sum "Si O2"
_cell_formula_units_Z 14
_cell_length_a 18.755477
_cell_length_b 17.087013
_cell_length_c 9.165973
_cell_angle_alpha 30.304090
_cell_angle_beta 153.381599
_cell_angle_gamma 150.010060
_cell_volume 603.624301
_symmetry_space_group_name_H-M "P -1"
_symmetry_group_IT_number 2
_symmetry_cell_setting 'triclinic'
loop_
_space_group_symop_operation_xyz
x,y,z
-x,-y,-z
loop_
_atom_site_type_symbol
_atom_site_label
_atom_site_fract_x
_atom_site_fract_y
_atom_site_fract_z
Si Si1 0.120873 0.068461 0.753076
Si Si2 0.789750 0.334974 0.768951
Si Si3 0.139348 0.393375 0.142089
Si Si4 0.308730 0.366616 0.907299
Si Si5 0.906889 0.759486 0.017619
Si Si6 0.592886 0.914468 0.591507
Si Si7 0.238758 0.761387 0.797032
O O1 0.200840 0.270461 0.545444
O O2 0.284662 0.016225 0.153254
O O3 0.000000 0.000000 0.500000
O O4 0.977589 0.960726 0.786473
O O5 0.802124 0.525768 0.513669
O O6 0.605952 0.218813 0.541755
O O7 0.781400 0.247997 0.050527
O O8 0.951058 0.355401 0.930114
O O9 0.116845 0.338953 0.019783
O O10 0.260986 0.591748 0.064644
O O11 0.265351 0.323965 0.066423
O O12 0.500000 0.500000 0.000000
O O13 0.300049 0.189375 0.113295
O O14 0.062486 0.748237 0.415900
O O15 0.613426 0.066904 0.275267
#
# Coordination Sequence:
#
# PCOD9024273 Si02
#       7
#     2   2   2   2   2   2   2
#     4   9  21  40  65  93 123 170 210 253 312 384
#     4  11  23  39  63  97 129 165 209 267 316 364
#     4  11  22  40  68  95 129 162 218 261 312 375
#     4  10  22  40  64  89 129 168 211 255 319 373
#     4  10  22  40  65  94 123 171 213 257 314 377
#     4  10  23  41  64  92 131 166 211 257 321 371
#     4  11  22  37  65  99 120 169 214 261 308 370
#
# _framework density 23.193235000000001
#
# number of rings (size 3 to 8) (size 9 to 14) (size 15 to 20)
#    0.000    1.714    1.429    2.143    4.000    1.143 
#    0.000    6.429    6.286    6.857    0.000    0.000 
#    0.000    0.000    0.000    0.000    0.000    0.000 
#
# Total GULP energy -78125.307568 kJ/mol
# GULP energy per Si atom -5580.379112 kJ/mol
# Density = 2.314045 g / cm^3
# Si number density = 23.193235 Si / 1000 Ang^3
#
#
#
# Elastic Constant Matrix: (Units=GPa)
#
#
# Indices 1 2 3 4 5 6 
#
# 1 60.8841 16.0326 18.9816 6.2534 -11.8571 -0.8886
# 2 16.0326 109.4501 18.5744 -20.5190 -10.2681 11.1416
# 3 18.9816 18.5744 89.1088 -19.5612 -25.4258 3.6594
# 4 6.2534 -20.5190 -19.5612 47.4705 1.3819 -6.1350
# 5 -11.8571 -10.2681 -25.4258 1.3819 26.4848 -5.9516
# 6 -0.8886 11.1416 3.6594 -6.1350 -5.9516 27.0063
#
#
#
# Elastic Compliance Matrix: (Units=1/GPa)
#
#
# Indices 1 2 3 4 5 6 
#
# 1 0.019860 -0.003054 -0.003295 -0.005144 0.005344 0.002369
# 2 -0.003054 0.010959 0.000115 0.004725 0.002046 -0.003113
# 3 -0.003295 0.000115 0.018122 0.007834 0.016172 0.002732
# 4 -0.005144 0.004725 0.007834 0.027403 0.006633 0.004507
# 5 0.005344 0.002046 0.016172 0.006633 0.058727 0.011589
# 6 0.002369 -0.003113 0.002732 0.004507 0.011589 0.041598
#
#
# Mechanical properties :
#
#
# Convention : Reuss Voigt Hill
#
# Bulk Modulus (GPa) = 27.41811 40.73559 34.07685
# Shear Modulus (GPa) = 24.83911 33.91595 29.37753
#
# Velocity S-wave (km/s) = 3.27611 3.82818 3.56285
# Velocity P-wave (km/s) = 5.11447 6.09439 5.62581
#
# Compressibility (1/GPa) = 0.03647224
#
# Stress axis : x y z
#
# Youngs Moduli (GPa) = 50.35266 91.24887 55.18117
#
# Poissons Ratio (x) = 0.27867 0.18184
# Poissons Ratio (y) = 0.15378 -0.00634
# Poissons Ratio (z) = 0.16593 -0.01049
#
# Static dielectric constant tensor:
#      x y z
#    x 1.953020 -0.138700 -0.033790 
#    y -0.138700 2.016360 0.028270 
#    z -0.033790 0.028270 1.944950 
# 
# From -- ./inp_files/159142.got.cif
#   From: 2010.05.17/outbox.cif.g08.bks.cpg/sg2_80_cif.got.tgz:159142.got - 2010.06.03 11:33:40.
