data_PCOD9024219
_publ_section_title
;
Structure prediction by ZEFSAII (Michael W. Deem and Ramdas Pophale) SiO2 
 PCOD9024219
Probable space group: P -1
;
_chemical_formula_sum "Si O2"
_cell_formula_units_Z 16
_cell_length_a 8.682115
_cell_length_b 15.809780
_cell_length_c 13.100518
_cell_angle_alpha 156.572552
_cell_angle_beta 91.982756
_cell_angle_gamma 85.449349
_cell_volume 709.372779
_symmetry_space_group_name_H-M "P -1"
_symmetry_group_IT_number 2
_symmetry_cell_setting 'triclinic'
loop_
_space_group_symop_operation_xyz
x,y,z
-x,-y,-z
loop_
_atom_site_type_symbol
_atom_site_label
_atom_site_fract_x
_atom_site_fract_y
_atom_site_fract_z
Si Si1 0.575925 0.715388 0.955429
Si Si2 0.579564 0.174655 0.499040
Si Si3 0.391673 0.869042 0.922020
Si Si4 0.780073 0.465638 0.944274
Si Si5 0.069734 0.144844 0.574618
Si Si6 0.883908 0.849425 0.652463
Si Si7 0.301296 0.478880 0.777752
Si Si8 0.768297 0.301860 0.456163
O O1 0.599711 0.926876 0.254194
O O2 0.508199 0.773425 0.906371
O O3 0.432901 0.605688 0.876731
O O4 0.730952 0.548057 0.765915
O O5 0.639503 0.358255 0.773365
O O6 0.400816 0.254905 0.565943
O O7 0.671555 0.180934 0.402204
O O8 0.314141 0.711688 0.669806
O O9 0.500000 0.000000 0.000000
O O10 0.244406 0.005520 0.124211
O O11 0.930732 0.332845 0.752826
O O12 0.800286 0.717425 0.221716
O O13 0.774325 0.408476 0.000100
O O14 0.111919 0.063828 0.370144
O O15 0.000000 0.000000 0.500000
O O16 0.830593 0.609332 0.388565
O O17 0.057293 0.813039 0.661625
#
# Coordination Sequence:
#
# PCOD9024219 Si02
#       8
#     2   2   2   2   2   2   2   2
#     4  11  24  44  71  98 137 188 231 280 356 412
#     4  11  21  44  65  99 138 181 230 286 335 412
#     4  12  23  46  74  97 140 180 231 293 354 407
#     4  10  22  40  64 100 139 178 228 284 340 401
#     4  10  23  41  68 100 145 184 221 278 353 410
#     4  11  23  47  70 103 144 177 227 294 346 406
#     4  10  23  41  68  99 139 177 230 284 346 408
#     4  11  24  44  68 102 136 179 233 290 345 412
#
# _framework density 22.555135
#
# number of rings (size 3 to 8) (size 9 to 14) (size 15 to 20)
#    0.000    1.250    3.750    1.875    1.750    2.500 
#    2.250    1.250    0.000    0.000    0.000    0.000 
#    0.000    0.000    0.000    0.000    0.000    0.000 
#
# Total GULP energy -89230.159667 kJ/mol
# GULP energy per Si atom -5576.884979 kJ/mol
# Density = 2.250380 g / cm^3
# Si number density = 22.555135 Si / 1000 Ang^3
#
#
#
# Elastic Constant Matrix: (Units=GPa)
#
#
# Indices 1 2 3 4 5 6 
#
# 1 95.7969 23.6961 22.3742 1.1889 -12.2491 9.4365
# 2 23.6961 73.1514 29.8020 13.5377 -2.4515 17.9777
# 3 22.3742 29.8020 91.8795 -1.7801 9.3854 11.5730
# 4 1.1889 13.5377 -1.7801 26.5428 3.1464 -1.9514
# 5 -12.2491 -2.4515 9.3854 3.1464 42.6300 -10.1981
# 6 9.4365 17.9777 11.5730 -1.9514 -10.1981 38.7579
#
#
#
# Elastic Compliance Matrix: (Units=1/GPa)
#
#
# Indices 1 2 3 4 5 6 
#
# 1 0.012210 -0.002935 -0.002431 0.000337 0.003887 0.000154
# 2 -0.002935 0.020864 -0.005344 -0.011503 0.000513 -0.007811
# 3 -0.002431 -0.005344 0.014076 0.004202 -0.004947 -0.002222
# 4 0.000337 -0.011503 0.004202 0.044616 -0.003509 0.005322
# 5 0.003887 0.000513 -0.004947 -0.003509 0.027725 0.007411
# 6 0.000154 -0.007811 -0.002222 0.005322 0.007411 0.032268
#
#
# Mechanical properties :
#
#
# Convention : Reuss Voigt Hill
#
# Bulk Modulus (GPa) = 38.86599 45.84137 42.35368
# Shear Modulus (GPa) = 27.50929 33.91650 30.71289
#
# Velocity S-wave (km/s) = 3.49613 3.88198 3.69410
# Velocity P-wave (km/s) = 5.79364 6.36092 6.08389
#
# Compressibility (1/GPa) = 0.02572944
#
# Stress axis : x y z
#
# Youngs Moduli (GPa) = 81.89884 47.92942 71.04313
#
# Poissons Ratio (x) = 0.14066 0.17273
# Poissons Ratio (y) = 0.24036 0.37967
# Poissons Ratio (z) = 0.19913 0.25614
#
# Static dielectric constant tensor:
#      x y z
#    x 1.846240 -0.023890 0.026710 
#    y -0.023890 1.871330 0.000360 
#    z 0.026710 0.000360 1.935210 
# 
# From -- ./inp_files/507154.got.cif
#   From: 2010.05.17/outbox.cif.g08.bks.cpg/sg2_254_cif.got.tgz:507154.got - 2010.06.03 11:33:40.
