data_PCOD9024620
_publ_section_title
;
Structure prediction by ZEFSAII (Michael W. Deem and Ramdas Pophale) SiO2 
 PCOD9024620
Probable space group: P -1
;
_chemical_formula_sum "Si O2"
_cell_formula_units_Z 12
_cell_length_a 11.276898
_cell_length_b 8.893480
_cell_length_c 6.647349
_cell_angle_alpha 121.140632
_cell_angle_beta 96.281322
_cell_angle_gamma 70.272570
_cell_volume 535.353783
_symmetry_space_group_name_H-M "P -1"
_symmetry_group_IT_number 2
_symmetry_cell_setting 'triclinic'
loop_
_space_group_symop_operation_xyz
x,y,z
-x,-y,-z
loop_
_atom_site_type_symbol
_atom_site_label
_atom_site_fract_x
_atom_site_fract_y
_atom_site_fract_z
Si Si1 0.056827 0.858261 0.593888
Si Si2 0.643425 0.556364 0.233941
Si Si3 0.889833 0.410018 0.924716
Si Si4 0.547487 0.212715 0.950993
Si Si5 0.090350 0.149294 0.057631
Si Si6 0.331140 0.212656 0.226708
O O1 0.125243 0.672843 0.353439
O O2 0.946237 0.843163 0.709685
O O3 0.000000 0.000000 0.500000
O O4 0.135605 0.948629 0.816941
O O5 0.520681 0.709888 0.219500
O O6 0.678558 0.638444 0.499799
O O7 0.757581 0.522971 0.075173
O O8 0.615601 0.362934 0.122268
O O9 0.000000 0.500000 0.000000
O O10 0.957817 0.249058 0.989918
O O11 0.632920 0.996382 0.816442
O O12 0.439230 0.220225 0.098672
O O13 0.197745 0.241130 0.114593
#
# Coordination Sequence:
#
# PCOD9024620 Si02
#       6
#     2   2   2   2   2   2
#     4   9  21  39  59  92 128 163 207 250 317 388
#     4  11  24  44  67  93 135 167 218 267 321 382
#     4  11  23  40  63  99 130 166 206 262 331 386
#     4  10  25  45  63  97 123 179 219 264 320 374
#     4  10  22  40  65  95 126 166 208 261 327 379
#     4  11  23  44  69  93 130 167 223 267 319 383
#
# _framework density 22.415082999999999
#
# number of rings (size 3 to 8) (size 9 to 14) (size 15 to 20)
#    0.000    1.667    0.000    3.000    7.000    5.333 
#   12.000    0.000    0.000    0.000    0.000    0.000 
#    0.000    0.000    0.000    0.000    0.000    0.000 
#
# Total GULP energy -67023.803111 kJ/mol
# GULP energy per Si atom -5585.316926 kJ/mol
# Density = 2.236406 g / cm^3
# Si number density = 22.415083 Si / 1000 Ang^3
#
#
#
# Elastic Constant Matrix: (Units=GPa)
#
#
# Indices 1 2 3 4 5 6 
#
# 1 88.8440 14.2806 32.6530 1.1749 12.8075 12.8250
# 2 14.2806 86.0812 -0.5290 -6.1347 6.6155 2.9698
# 3 32.6530 -0.5290 119.5404 -4.6622 8.4953 4.3027
# 4 1.1749 -6.1347 -4.6622 21.9552 10.2319 -1.9533
# 5 12.8075 6.6155 8.4953 10.2319 33.6417 -1.5240
# 6 12.8250 2.9698 4.3027 -1.9533 -1.5240 42.4094
#
#
#
# Elastic Compliance Matrix: (Units=1/GPa)
#
#
# Indices 1 2 3 4 5 6 
#
# 1 0.013984 -0.001919 -0.003411 -0.000432 -0.004131 -0.003917
# 2 -0.001919 0.012636 0.001073 0.005576 -0.003734 -0.000291
# 3 -0.003411 0.001073 0.009617 0.003675 -0.002456 0.000061
# 4 -0.000432 0.005576 0.003675 0.056934 -0.019117 0.001303
# 5 -0.004131 -0.003734 -0.002456 -0.019117 0.038569 0.002266
# 6 -0.003917 -0.000291 0.000061 0.001303 0.002266 0.024920
#
#
# Mechanical properties :
#
#
# Convention : Reuss Voigt Hill
#
# Bulk Modulus (GPa) = 36.06785 43.03055 39.54920
# Shear Modulus (GPa) = 28.66717 36.13865 32.40291
#
# Velocity S-wave (km/s) = 3.58008 4.01964 3.80621
# Velocity P-wave (km/s) = 5.76326 6.38609 6.08265
#
# Compressibility (1/GPa) = 0.02772552
#
# Stress axis : x y z
#
# Youngs Moduli (GPa) = 71.50840 79.13704 103.97801
#
# Poissons Ratio (x) = 0.15187 0.35463
# Poissons Ratio (y) = 0.13723 -0.11161
# Poissons Ratio (z) = 0.24389 -0.08495
#
# Static dielectric constant tensor:
#      x y z
#    x 1.785100 -0.013020 0.007530 
#    y -0.013020 2.013540 0.030540 
#    z 0.007530 0.030540 1.790730 
# 
# From -- ./inp_files/22268.got.cif
#   From: 2010.05.17/outbox.cif.g08.bks.cpg/sg2_12_cif.got.tgz:22268.got - 2010.06.03 11:33:40.
