data_PCOD9024058
_publ_section_title
;
Structure prediction by ZEFSAII (Michael W. Deem and Ramdas Pophale) SiO2 
 PCOD9024058
Probable space group: P -1
;
_chemical_formula_sum "Si O2"
_cell_formula_units_Z 10
_cell_length_a 9.334638
_cell_length_b 15.135487
_cell_length_c 9.313041
_cell_angle_alpha 139.444752
_cell_angle_beta 30.505862
_cell_angle_gamma 139.252573
_cell_volume 412.591590
_symmetry_space_group_name_H-M "P -1"
_symmetry_group_IT_number 2
_symmetry_cell_setting 'triclinic'
loop_
_space_group_symop_operation_xyz
x,y,z
-x,-y,-z
loop_
_atom_site_type_symbol
_atom_site_label
_atom_site_fract_x
_atom_site_fract_y
_atom_site_fract_z
Si Si1 0.553804 0.653339 0.217629
Si Si2 0.160697 0.868837 0.031144
Si Si3 0.805311 0.292575 0.658000
Si Si4 0.758646 0.061712 0.639962
Si Si5 0.535062 0.527869 0.672392
O O1 0.841197 0.652302 0.594693
O O2 0.500000 0.500000 0.000000
O O3 0.362127 0.721659 0.365856
O O4 0.898797 0.744097 0.032639
O O5 0.188118 0.840986 0.142558
O O6 0.038403 0.006211 0.304126
O O7 0.480929 0.924276 0.750550
O O8 0.705671 0.148257 0.657241
O O9 0.539959 0.389439 0.589630
O O10 0.723453 0.414871 0.971798
O O11 0.500000 0.500000 0.500000
#
# Coordination Sequence:
#
# PCOD9024058 Si02
#       5
#     2   2   2   2   2
#     4  10  24  42  63  94 130 164 202 255 316 369
#     4  10  22  40  63  89 124 161 207 255 302 366
#     4  11  23  40  62  92 127 159 207 257 310 368
#     4  10  22  40  63  91 119 163 210 254 303 358
#     4  11  23  40  64  90 124 168 209 252 302 368
#
# _framework density 24.23704
#
# number of rings (size 3 to 8) (size 9 to 14) (size 15 to 20)
#    0.000    1.600    0.000    3.600    0.000   12.800 
#    0.000    0.000    0.000    0.000    0.000    0.000 
#    0.000    0.000    0.000    0.000    0.000    0.000 
#
# Total GULP energy -56022.428056 kJ/mol
# GULP energy per Si atom -5602.242806 kJ/mol
# Density = 2.418188 g / cm^3
# Si number density = 24.237040 Si / 1000 Ang^3
#
#
#
# Elastic Constant Matrix: (Units=GPa)
#
#
# Indices 1 2 3 4 5 6 
#
# 1 199.1245 51.7845 14.0886 -4.6257 21.9531 -16.3319
# 2 51.7845 97.5224 -12.9160 -15.8225 5.1236 12.2246
# 3 14.0886 -12.9160 51.0502 -3.9416 5.2355 -2.6887
# 4 -4.6257 -15.8225 -3.9416 32.0489 6.5977 -1.2556
# 5 21.9531 5.1236 5.2355 6.5977 27.9824 -3.5703
# 6 -16.3319 12.2246 -2.6887 -1.2556 -3.5703 61.2284
#
#
#
# Elastic Compliance Matrix: (Units=1/GPa)
#
#
# Indices 1 2 3 4 5 6 
#
# 1 0.006869 -0.004151 -0.002477 -0.000499 -0.003752 0.002323
# 2 -0.004151 0.015165 0.005705 0.008051 -0.002982 -0.003893
# 3 -0.002477 0.005705 0.022651 0.006221 -0.004929 -0.000965
# 4 -0.000499 0.008051 0.006221 0.038168 -0.011418 -0.001350
# 5 -0.003752 -0.002982 -0.004929 -0.011418 0.043051 0.001655
# 6 0.002323 -0.003893 -0.000965 -0.001350 0.001655 0.017756
#
#
# Mechanical properties :
#
#
# Convention : Reuss Voigt Hill
#
# Bulk Modulus (GPa) = 23.34411 50.40128 36.87269
# Shear Modulus (GPa) = 31.29195 43.90126 37.59660
#
# Velocity S-wave (km/s) = 3.59706 4.26059 3.94281
# Velocity P-wave (km/s) = 5.18693 6.71147 5.99783
#
# Compressibility (1/GPa) = 0.04283737
#
# Stress axis : x y z
#
# Youngs Moduli (GPa) = 145.57552 65.94319 44.14898
#
# Poissons Ratio (x) = 0.27372 0.10937
# Poissons Ratio (y) = 0.60426 -0.25185
# Poissons Ratio (z) = 0.36064 -0.37618
#
# Static dielectric constant tensor:
#      x y z
#    x 1.900330 -0.008270 0.024840 
#    y -0.008270 1.902420 0.059070 
#    z 0.024840 0.059070 1.945850 
# 
# From -- ./inp_files/72499.got.cif
#   From: 2010.05.17/outbox.cif.g08.bks.cpg/sg2_37_cif.got.tgz:72499.got - 2010.06.03 11:33:40.
