data_PCOD9024053
_publ_section_title
;
Structure prediction by ZEFSAII (Michael W. Deem and Ramdas Pophale) SiO2 
 PCOD9024053
Probable space group: P -1
;
_chemical_formula_sum "Si O2"
_cell_formula_units_Z 16
_cell_length_a 12.556956
_cell_length_b 17.551206
_cell_length_c 12.901142
_cell_angle_alpha 31.735393
_cell_angle_beta 51.724255
_cell_angle_gamma 29.039589
_cell_volume 634.412351
_symmetry_space_group_name_H-M "P -1"
_symmetry_group_IT_number 2
_symmetry_cell_setting 'triclinic'
loop_
_space_group_symop_operation_xyz
x,y,z
-x,-y,-z
loop_
_atom_site_type_symbol
_atom_site_label
_atom_site_fract_x
_atom_site_fract_y
_atom_site_fract_z
Si Si1 0.068228 0.285681 0.149284
Si Si2 0.666045 0.996093 0.899766
Si Si3 0.172771 0.551762 0.483239
Si Si4 0.360991 0.246423 0.526901
Si Si5 0.578897 0.549981 0.142964
Si Si6 0.649378 0.429114 0.898479
Si Si7 0.862631 0.984037 0.989662
Si Si8 0.329046 0.043422 0.617683
O O1 0.855865 0.358459 0.219052
O O2 0.125547 0.221900 0.063585
O O3 0.341762 0.007131 0.349213
O O4 0.000000 0.500000 0.000000
O O5 0.455730 0.309359 0.636564
O O6 0.500000 0.000000 0.000000
O O7 0.777721 0.941261 0.006230
O O8 0.225805 0.380143 0.563399
O O9 0.028574 0.793603 0.213190
O O10 0.966533 0.706872 0.517698
O O11 0.297434 0.447846 0.268203
O O12 0.310770 0.140814 0.626214
O O13 0.528818 0.443957 0.239261
O O14 0.393752 0.721227 0.153802
O O15 0.470101 0.767500 0.874313
O O16 0.926899 0.111139 0.086726
O O17 0.500000 0.500000 0.000000
O O18 0.500000 0.000000 0.500000
#
# Coordination Sequence:
#
# PCOD9024053 Si02
#       8
#     2   2   2   2   2   2   2   2
#     4  11  22  41  62  96 139 166 221 281 332 393
#     4  11  24  35  65  97 128 178 219 269 336 396
#     4   9  23  39  61  90 134 167 219 262 331 390
#     4  10  22  40  63  88 129 178 209 268 336 383
#     4  11  23  40  65  93 132 178 214 274 333 389
#     4  11  23  42  67  93 129 175 228 265 330 406
#     4  10  23  44  65  92 133 175 220 270 335 393
#     4  11  22  35  62  93 127 168 217 271 326 378
#
# _framework density 25.220191
#
# number of rings (size 3 to 8) (size 9 to 14) (size 15 to 20)
#    0.000    1.500    1.250    3.000   10.500    1.500 
#    0.000    1.250    0.000   10.500    0.000    0.000 
#    0.000    0.000    0.000    0.000    0.000    0.000 
#
# Total GULP energy -89287.167787 kJ/mol
# GULP energy per Si atom -5580.447987 kJ/mol
# Density = 2.516279 g / cm^3
# Si number density = 25.220191 Si / 1000 Ang^3
#
#
#
# Elastic Constant Matrix: (Units=GPa)
#
#
# Indices 1 2 3 4 5 6 
#
# 1 109.8376 27.0374 13.0428 -8.6644 -5.6288 -6.7737
# 2 27.0374 192.1130 19.3576 -17.1921 12.1151 -10.9477
# 3 13.0428 19.3576 73.7895 -8.1903 1.6111 -0.0056
# 4 -8.6644 -17.1921 -8.1903 39.6346 -3.7625 5.0959
# 5 -5.6288 12.1151 1.6111 -3.7625 27.5468 -4.2801
# 6 -6.7737 -10.9477 -0.0056 5.0959 -4.2801 46.1308
#
#
#
# Elastic Compliance Matrix: (Units=1/GPa)
#
#
# Indices 1 2 3 4 5 6 
#
# 1 0.009922 -0.001250 -0.001328 0.001478 0.003056 0.001280
# 2 -0.001250 0.005838 -0.001068 0.001709 -0.002405 0.000790
# 3 -0.001328 -0.001068 0.014328 0.002259 -0.000446 -0.000738
# 4 0.001478 0.001709 0.002259 0.027303 0.002816 -0.002132
# 5 0.003056 -0.002405 -0.000446 0.002816 0.038888 0.003175
# 6 0.001280 0.000790 -0.000738 -0.002132 0.003175 0.022583
#
#
# Mechanical properties :
#
#
# Convention : Reuss Voigt Hill
#
# Bulk Modulus (GPa) = 43.87098 54.95731 49.41414
# Shear Modulus (GPa) = 37.38215 43.74924 40.56570
#
# Velocity S-wave (km/s) = 3.85415 4.16948 4.01491
# Velocity P-wave (km/s) = 6.10237 6.70953 6.41314
#
# Compressibility (1/GPa) = 0.02279411
#
# Stress axis : x y z
#
# Youngs Moduli (GPa) = 100.78697 171.27936 69.79518
#
# Poissons Ratio (x) = 0.21410 0.09272
# Poissons Ratio (y) = 0.12599 0.07457
# Poissons Ratio (z) = 0.13389 0.18301
#
# Static dielectric constant tensor:
#      x y z
#    x 2.008990 0.030060 -0.021900 
#    y 0.030060 2.055550 0.032040 
#    z -0.021900 0.032040 2.168720 
# 
# From -- ./inp_files/523434.got.cif
#   From: 2010.05.17/outbox.cif.g08.bks.cpg/sg2_262_cif.got.tgz:523434.got - 2010.06.03 11:33:40.
