data_PCOD9024324
_publ_section_title
;
Structure prediction by ZEFSAII (Michael W. Deem and Ramdas Pophale) SiO2 
 PCOD9024324
Probable space group: P -1
;
_chemical_formula_sum "Si O2"
_cell_formula_units_Z 15
_cell_length_a 21.622890
_cell_length_b 7.552447
_cell_length_c 15.703178
_cell_angle_alpha 138.952075
_cell_angle_beta 22.002730
_cell_angle_gamma 133.673364
_cell_volume 630.529266
_symmetry_space_group_name_H-M "P -1"
_symmetry_group_IT_number 2
_symmetry_cell_setting 'triclinic'
loop_
_space_group_symop_operation_xyz
x,y,z
-x,-y,-z
loop_
_atom_site_type_symbol
_atom_site_label
_atom_site_fract_x
_atom_site_fract_y
_atom_site_fract_z
Si Si1 0.469135 0.813446 0.262581
Si Si2 0.422539 0.127477 0.273477
Si Si3 0.299709 0.666021 0.181498
Si Si4 0.000000 0.500000 0.500000
Si Si5 0.175840 0.042743 0.840308
Si Si6 0.173949 0.940795 0.105082
Si Si7 0.180210 0.595926 0.816799
Si Si8 0.782068 0.380352 0.913115
O O1 0.429508 0.870567 0.235380
O O2 0.323168 0.946407 0.553262
O O3 0.639737 0.964034 0.109402
O O4 0.529827 0.511052 0.100849
O O5 0.306762 0.358228 0.544502
O O6 0.597639 0.267151 0.094471
O O7 0.338427 0.979069 0.247912
O O8 0.167352 0.544010 0.370181
O O9 0.173649 0.588018 0.232531
O O10 0.950435 0.835673 0.691291
O O11 0.201537 0.338944 0.956135
O O12 0.198854 0.845646 0.820408
O O13 0.000000 0.000000 0.000000
O O14 0.185107 0.676138 0.937184
O O15 0.133812 0.846769 0.217494
O O16 0.000000 0.500000 0.000000
#
# Coordination Sequence:
#
# PCOD9024324 Si02
#       8
#     2   2   2   1   2   2   2   2
#     4  10  22  41  66  93 128 169 215 267 321 385
#     4  11  23  41  65  93 131 174 217 265 322 387
#     4  11  23  41  64  95 131 173 218 264 323 384
#     4  10  22  40  64  92 130 172 216 264 318 378
#     4  12  25  42  67  97 127 166 217 274 331 386
#     4  10  22  42  65  95 129 170 215 265 324 382
#     4  12  24  41  65  93 129 166 214 272 329 388
#     4  11  24  42  65  95 128 168 219 269 322 388
#
# _framework density 23.789538
#
# number of rings (size 3 to 8) (size 9 to 14) (size 15 to 20)
#    0.000    1.067    0.000    7.200    0.000    5.333 
#    0.000    1.333    0.000    0.000    0.000    0.000 
#    0.000    0.000    0.000    0.000    0.000    0.000 
#
# Total GULP energy -83601.867486 kJ/mol
# GULP energy per Si atom -5573.457832 kJ/mol
# Density = 2.373539 g / cm^3
# Si number density = 23.789538 Si / 1000 Ang^3
#
#
#
# Elastic Constant Matrix: (Units=GPa)
#
#
# Indices 1 2 3 4 5 6 
#
# 1 90.1559 33.0624 39.7927 14.0909 4.4416 -10.4120
# 2 33.0624 125.6359 46.5555 9.0855 10.5572 15.4751
# 3 39.7927 46.5555 158.0681 6.0315 5.3674 10.7651
# 4 14.0909 9.0855 6.0315 40.5423 1.2952 1.6046
# 5 4.4416 10.5572 5.3674 1.2952 28.6762 3.2732
# 6 -10.4120 15.4751 10.7651 1.6046 3.2732 55.9428
#
#
#
# Elastic Compliance Matrix: (Units=1/GPa)
#
#
# Indices 1 2 3 4 5 6 
#
# 1 0.014639 -0.002915 -0.002928 -0.004138 -0.000947 0.004268
# 2 -0.002915 0.010049 -0.001921 -0.000762 -0.002537 -0.002782
# 3 -0.002928 -0.001921 0.007722 0.000363 -0.000129 -0.001502
# 4 -0.004138 -0.000762 0.000363 0.026281 -0.000177 -0.001373
# 5 -0.000947 -0.002537 -0.000129 -0.000177 0.036163 -0.001560
# 6 0.004268 -0.002782 -0.001502 -0.001373 -0.001560 0.019859
#
#
# Mechanical properties :
#
#
# Convention : Reuss Voigt Hill
#
# Bulk Modulus (GPa) = 59.22853 68.07567 63.65210
# Shear Modulus (GPa) = 36.80023 41.99554 39.39788
#
# Velocity S-wave (km/s) = 3.93734 4.20610 4.07394
# Velocity P-wave (km/s) = 6.75434 7.22954 6.99598
#
# Compressibility (1/GPa) = 0.01688375
#
# Stress axis : x y z
#
# Youngs Moduli (GPa) = 68.30964 99.50756 129.49765
#
# Poissons Ratio (x) = 0.29002 0.37911
# Poissons Ratio (y) = 0.19909 0.24882
# Poissons Ratio (z) = 0.19998 0.19120
#
# Static dielectric constant tensor:
#      x y z
#    x 2.016670 -0.093790 0.028160 
#    y -0.093790 2.020840 -0.084510 
#    z 0.028160 -0.084510 1.875410 
# 
# From -- ./inp_files/343593.got.cif
#   From: 2010.05.17/outbox.cif.g08.bks.cpg/sg2_172_cif.got.tgz:343593.got - 2010.06.03 11:33:40.
