data_PCOD9024270
_publ_section_title
;
Structure prediction by ZEFSAII (Michael W. Deem and Ramdas Pophale) SiO2 
 PCOD9024270
Probable space group: P -1
;
_chemical_formula_sum "Si O2"
_cell_formula_units_Z 14
_cell_length_a 8.251220
_cell_length_b 17.178514
_cell_length_c 8.228005
_cell_angle_alpha 64.421250
_cell_angle_beta 126.360328
_cell_angle_gamma 141.563050
_cell_volume 582.615271
_symmetry_space_group_name_H-M "P -1"
_symmetry_group_IT_number 2
_symmetry_cell_setting 'triclinic'
loop_
_space_group_symop_operation_xyz
x,y,z
-x,-y,-z
loop_
_atom_site_type_symbol
_atom_site_label
_atom_site_fract_x
_atom_site_fract_y
_atom_site_fract_z
Si Si1 0.160733 0.131718 0.117350
Si Si2 0.874420 0.028448 0.520782
Si Si3 0.009191 0.526870 0.249537
Si Si4 0.248390 0.259320 0.757587
Si Si5 0.478655 0.357822 0.334120
Si Si6 0.669732 0.062146 0.719454
Si Si7 0.197918 0.446059 0.209689
O O1 0.214313 0.057196 0.297889
O O2 0.245278 0.228256 0.215720
O O3 0.335905 0.214338 0.984267
O O4 0.827018 0.037852 0.941360
O O5 0.597916 0.981671 0.306199
O O6 0.000000 0.000000 0.500000
O O7 0.110436 0.169932 0.599918
O O8 0.726864 0.460388 0.252860
O O9 0.311150 0.631504 0.431687
O O10 0.032044 0.433673 0.280903
O O11 0.989556 0.581061 0.031775
O O12 0.504361 0.404718 0.752172
O O13 0.956434 0.208654 0.714872
O O14 0.313517 0.385402 0.300859
O O15 0.500000 0.000000 0.500000
#
# Coordination Sequence:
#
# PCOD9024270 Si02
#       7
#     2   2   2   2   2   2   2
#     4  10  22  40  64  89 126 165 209 252 314 384
#     4  11  23  40  65  92 124 157 208 268 308 375
#     4  10  23  39  65  94 127 172 214 253 318 376
#     4   9  21  42  60  89 124 166 203 252 313 373
#     4  11  23  41  64  96 130 169 209 261 317 377
#     4   8  19  39  62  84 116 168 201 240 316 366
#     4  11  22  43  64  93 135 163 213 265 307 379
#
# _framework density 24.029578999999998
#
# number of rings (size 3 to 8) (size 9 to 14) (size 15 to 20)
#    0.857    1.143    1.429    1.286    2.000    4.000 
#    2.571    0.000    0.000    0.000    0.000    0.000 
#    0.000    0.000    0.000    0.000    0.000    0.000 
#
# Total GULP energy -78006.318192 kJ/mol
# GULP energy per Si atom -5571.879871 kJ/mol
# Density = 2.397489 g / cm^3
# Si number density = 24.029579 Si / 1000 Ang^3
#
#
#
# Elastic Constant Matrix: (Units=GPa)
#
#
# Indices 1 2 3 4 5 6 
#
# 1 85.9498 14.1984 26.6749 2.6808 8.3970 -14.5235
# 2 14.1984 86.6604 25.4078 8.2558 3.2649 -12.3878
# 3 26.6749 25.4078 129.2155 6.4720 7.6073 -12.0759
# 4 2.6808 8.2558 6.4720 28.2437 -3.8903 -0.0717
# 5 8.3970 3.2649 7.6073 -3.8903 35.1204 -2.4549
# 6 -14.5235 -12.3878 -12.0759 -0.0717 -2.4549 26.6070
#
#
#
# Elastic Compliance Matrix: (Units=1/GPa)
#
#
# Indices 1 2 3 4 5 6 
#
# 1 0.013630 -0.000614 -0.001933 -0.000996 -0.002471 0.006046
# 2 -0.000614 0.013231 -0.001796 -0.003487 -0.000736 0.004933
# 3 -0.001933 -0.001796 0.008829 -0.001490 -0.001309 0.001991
# 4 -0.000996 -0.003487 -0.001490 0.037528 0.004882 -0.002292
# 5 -0.002471 -0.000736 -0.001309 0.004882 0.029992 0.000495
# 6 0.006046 0.004933 0.001991 -0.002292 0.000495 0.044124
#
#
# Mechanical properties :
#
#
# Convention : Reuss Voigt Hill
#
# Bulk Modulus (GPa) = 37.03033 48.26532 42.64783
# Shear Modulus (GPa) = 30.29909 33.69719 31.99814
#
# Velocity S-wave (km/s) = 3.55478 3.74882 3.65309
# Velocity P-wave (km/s) = 5.68264 6.23439 5.96490
#
# Compressibility (1/GPa) = 0.02700489
#
# Stress axis : x y z
#
# Youngs Moduli (GPa) = 73.36712 75.57729 113.26431
#
# Poissons Ratio (x) = 0.04642 0.21889
# Poissons Ratio (y) = 0.04507 0.20342
# Poissons Ratio (z) = 0.14179 0.13574
#
# Static dielectric constant tensor:
#      x y z
#    x 2.668940 -0.099090 0.156080 
#    y -0.099090 1.961400 -0.112070 
#    z 0.156080 -0.112070 2.092260 
# 
# From -- ./inp_files/217514.got.cif
#   From: 2010.05.17/outbox.cif.g08.bks.cpg/sg2_109_cif.got.tgz:217514.got - 2010.06.03 11:33:40.
