data_PCOD9024648
_publ_section_title
;
Structure prediction by ZEFSAII (Michael W. Deem and Ramdas Pophale) SiO2 
 PCOD9024648
Probable space group: P -1
;
_chemical_formula_sum "Si O2"
_cell_formula_units_Z 16
_cell_length_a 11.921453
_cell_length_b 11.086682
_cell_length_c 11.895141
_cell_angle_alpha 122.038714
_cell_angle_beta 109.301133
_cell_angle_gamma 117.536593
_cell_volume 759.640085
_symmetry_space_group_name_H-M "P -1"
_symmetry_group_IT_number 2
_symmetry_cell_setting 'triclinic'
loop_
_space_group_symop_operation_xyz
x,y,z
-x,-y,-z
loop_
_atom_site_type_symbol
_atom_site_label
_atom_site_fract_x
_atom_site_fract_y
_atom_site_fract_z
Si Si1 0.600207 0.355307 0.965925
Si Si2 0.776382 0.199993 0.450885
Si Si3 0.955520 0.480047 0.106757
Si Si4 0.683884 0.416593 0.454015
Si Si5 0.783029 0.045151 0.966355
Si Si6 0.318475 0.347345 0.279659
Si Si7 0.394080 0.373792 0.058914
Si Si8 0.045509 0.841996 0.675413
O O1 0.572691 0.448476 0.907352
O O2 0.432474 0.076330 0.760902
O O3 0.803633 0.464980 0.073106
O O4 0.547164 0.397705 0.080885
O O5 0.766714 0.337667 0.448669
O O6 0.925934 0.239920 0.456051
O O7 0.848113 0.297477 0.648388
O O8 0.865398 0.250429 0.019317
O O9 0.000000 0.500000 0.000000
O O10 0.733334 0.540753 0.650940
O O11 0.815900 0.637425 0.523690
O O12 0.455430 0.181634 0.232046
O O13 0.827407 0.925060 0.881065
O O14 0.855782 0.123156 0.158136
O O15 0.500000 0.500000 0.500000
O O16 0.386830 0.396082 0.199239
O O17 0.176718 0.105071 0.822997
#
# Coordination Sequence:
#
# PCOD9024648 Si02
#       8
#     2   2   2   2   2   2   2   2
#     4  10  23  46  67  88 131 168 214 263 306 379
#     4  11  24  41  62  98 126 168 213 254 326 372
#     4  12  27  41  62  96 129 169 214 259 315 382
#     4  11  21  37  65  94 129 165 197 264 318 373
#     4  10  22  42  60  95 127 159 211 257 321 370
#     4   9  21  37  60  94 123 158 209 254 312 373
#     4   9  21  43  67  92 123 175 210 255 321 365
#     4  10  22  40  65  96 126 157 213 264 310 379
#
# _framework density 21.062605000000001
#
# number of rings (size 3 to 8) (size 9 to 14) (size 15 to 20)
#    0.000    1.750    2.500    0.375    1.750   10.000 
#    0.000    8.125    0.000    0.000    0.000    0.000 
#    0.000    0.000    0.000    0.000    0.000    0.000 
#
# Total GULP energy -89274.802689 kJ/mol
# GULP energy per Si atom -5579.675168 kJ/mol
# Density = 2.101467 g / cm^3
# Si number density = 21.062605 Si / 1000 Ang^3
#
#
#
# Elastic Constant Matrix: (Units=GPa)
#
#
# Indices 1 2 3 4 5 6 
#
# 1 61.0512 -0.4639 14.0854 10.2726 -5.4340 4.0607
# 2 -0.4639 56.8802 6.3913 3.6120 -20.5877 6.8039
# 3 14.0854 6.3913 67.2332 -7.3937 -16.7341 3.1028
# 4 10.2726 3.6120 -7.3937 26.5782 1.3988 -5.0916
# 5 -5.4340 -20.5877 -16.7341 1.3988 34.1459 2.4825
# 6 4.0607 6.8039 3.1028 -5.0916 2.4825 23.8819
#
#
#
# Elastic Compliance Matrix: (Units=1/GPa)
#
#
# Indices 1 2 3 4 5 6 
#
# 1 0.020091 0.003668 -0.004419 -0.010990 0.004178 -0.006664
# 2 0.003668 0.025822 0.000866 -0.007844 0.017742 -0.011609
# 3 -0.004419 0.000866 0.018646 0.006016 0.008824 -0.001553
# 4 -0.010990 -0.007844 0.006016 0.047667 -0.006512 0.014161
# 5 0.004178 0.017742 0.008824 -0.006512 0.046192 -0.013101
# 6 -0.006664 -0.011609 -0.001553 0.014161 -0.013101 0.050896
#
#
# Mechanical properties :
#
#
# Convention : Reuss Voigt Hill
#
# Bulk Modulus (GPa) = 15.43466 25.02112 20.22789
# Shear Modulus (GPa) = 21.67484 27.93130 24.80307
#
# Velocity S-wave (km/s) = 3.21139 3.64553 3.43532
# Velocity P-wave (km/s) = 4.59288 5.44289 5.03585
#
# Compressibility (1/GPa) = 0.06478923
#
# Stress axis : x y z
#
# Youngs Moduli (GPa) = 49.77267 38.72671 53.62957
#
# Poissons Ratio (x) = -0.14203 0.23699
# Poissons Ratio (y) = -0.18254 -0.04645
# Poissons Ratio (z) = 0.21994 -0.03355
#
# Static dielectric constant tensor:
#      x y z
#    x 1.870760 0.020170 0.013500 
#    y 0.020170 1.732330 0.014220 
#    z 0.013500 0.014220 1.753010 
# 
# From -- ./inp_files/428944.got.cif
#   From: 2010.05.17/outbox.cif.g08.bks.cpg/sg2_215_cif.got.tgz:428944.got - 2010.06.03 11:33:40.
