data_PCOD9024568
_publ_section_title
;
Structure prediction by ZEFSAII (Michael W. Deem and Ramdas Pophale) SiO2 
 PCOD9024568
Probable space group: P -1
;
_chemical_formula_sum "Si O2"
_cell_formula_units_Z 16
_cell_length_a 15.260156
_cell_length_b 8.571156
_cell_length_c 11.373017
_cell_angle_alpha 86.336547
_cell_angle_beta 105.767612
_cell_angle_gamma 146.450462
_cell_volume 753.309857
_symmetry_space_group_name_H-M "P -1"
_symmetry_group_IT_number 2
_symmetry_cell_setting 'triclinic'
loop_
_space_group_symop_operation_xyz
x,y,z
-x,-y,-z
loop_
_atom_site_type_symbol
_atom_site_label
_atom_site_fract_x
_atom_site_fract_y
_atom_site_fract_z
Si Si1 0.653951 0.737184 0.320674
Si Si2 0.234743 0.755624 0.030891
Si Si3 0.315194 0.323406 0.349163
Si Si4 0.954951 0.579955 0.562181
Si Si5 0.191824 0.334721 0.079009
Si Si6 0.888954 0.280210 0.776441
Si Si7 0.796530 0.662558 0.454258
Si Si8 0.500527 0.672022 0.044768
O O1 0.516148 0.573990 0.382043
O O2 0.670367 0.570674 0.320923
O O3 0.593814 0.768706 0.196799
O O4 0.856286 0.066684 0.387869
O O5 0.222299 0.563060 0.084053
O O6 0.213354 0.833273 0.134487
O O7 0.080247 0.539001 0.888634
O O8 0.401329 0.057039 0.008376
O O9 0.255025 0.345517 0.219449
O O10 0.270152 0.356006 0.447632
O O11 0.198258 0.995995 0.306278
O O12 0.900246 0.434748 0.677144
O O13 0.810105 0.493535 0.470349
O O14 0.000000 0.500000 0.500000
O O15 0.307830 0.442733 0.009815
O O16 0.000000 0.000000 0.000000
O O17 0.000000 0.000000 0.500000
O O18 0.500000 0.500000 0.000000
#
# Coordination Sequence:
#
# PCOD9024568 Si02
#       8
#     2   2   2   2   2   2   2   2
#     4  10  22  42  63  91 129 170 216 268 324 390
#     4  11  22  40  61  95 136 169 217 268 322 387
#     4  11  22  42  65  94 130 173 217 267 332 387
#     4  11  23  44  67  96 128 169 220 273 333 384
#     4  11  23  39  63  95 128 172 221 263 326 391
#     4  11  22  38  66  93 129 171 211 269 329 382
#     4  10  22  40  65  93 122 166 217 270 321 394
#     4  11  24  42  65  95 133 174 215 270 327 386
#
# _framework density 21.239601
#
# number of rings (size 3 to 8) (size 9 to 14) (size 15 to 20)
#    0.000    1.250    2.500    4.500    1.750    2.000 
#    2.250    5.000    0.000    0.000    0.000    0.000 
#    0.000    0.000    0.000    0.000    0.000    0.000 
#
# Total GULP energy -89163.663900 kJ/mol
# GULP energy per Si atom -5572.728994 kJ/mol
# Density = 2.119126 g / cm^3
# Si number density = 21.239601 Si / 1000 Ang^3
#
#
#
# Elastic Constant Matrix: (Units=GPa)
#
#
# Indices 1 2 3 4 5 6 
#
# 1 103.2675 39.1734 18.0778 -0.7402 12.2287 0.3034
# 2 39.1734 126.7933 34.2492 -17.4973 10.4376 13.8109
# 3 18.0778 34.2492 31.1936 -13.8752 11.3632 2.5729
# 4 -0.7402 -17.4973 -13.8752 25.6862 -5.4278 1.7844
# 5 12.2287 10.4376 11.3632 -5.4278 39.4804 -4.1168
# 6 0.3034 13.8109 2.5729 1.7844 -4.1168 40.2832
#
#
#
# Elastic Compliance Matrix: (Units=1/GPa)
#
#
# Indices 1 2 3 4 5 6 
#
# 1 0.011912 -0.002910 -0.005341 -0.005022 -0.001941 0.001273
# 2 -0.002910 0.012382 -0.010493 0.003081 0.000694 -0.003619
# 3 -0.005341 -0.010493 0.061121 0.023734 -0.010146 -0.002354
# 4 -0.005022 0.003081 0.023734 0.054225 0.000859 -0.004849
# 5 -0.001941 0.000694 -0.010146 0.000859 0.029136 0.003364
# 6 0.001273 -0.003619 -0.002354 -0.004849 0.003364 0.026764
#
#
# Mechanical properties :
#
#
# Convention : Reuss Voigt Hill
#
# Bulk Modulus (GPa) = 20.86420 49.36170 35.11295
# Shear Modulus (GPa) = 20.08001 32.40690 26.24345
#
# Velocity S-wave (km/s) = 3.07808 3.91036 3.51891
# Velocity P-wave (km/s) = 4.74103 6.60899 5.75135
#
# Compressibility (1/GPa) = 0.04792898
#
# Stress axis : x y z
#
# Youngs Moduli (GPa) = 83.94587 80.76020 16.36095
#
# Poissons Ratio (x) = 0.23499 0.08738
# Poissons Ratio (y) = 0.24426 0.17167
# Poissons Ratio (z) = 0.44835 0.84741
#
# Static dielectric constant tensor:
#      x y z
#    x 1.823630 -0.046960 0.018560 
#    y -0.046960 1.793910 -0.074360 
#    z 0.018560 -0.074360 1.837860 
# 
# From -- ./inp_files/447366.got.cif
#   From: 2010.05.17/outbox.cif.g08.bks.cpg/sg2_224_cif.got.tgz:447366.got - 2010.06.03 11:33:40.
