data_PCOD9024143
_publ_section_title
;
Structure prediction by ZEFSAII (Michael W. Deem and Ramdas Pophale) SiO2 
 PCOD9024143
Probable space group: P -1
;
_chemical_formula_sum "Si O2"
_cell_formula_units_Z 14
_cell_length_a 6.004911
_cell_length_b 14.762884
_cell_length_c 15.446663
_cell_angle_alpha 150.946436
_cell_angle_beta 116.619581
_cell_angle_gamma 64.914844
_cell_volume 592.856396
_symmetry_space_group_name_H-M "P -1"
_symmetry_group_IT_number 2
_symmetry_cell_setting 'triclinic'
loop_
_space_group_symop_operation_xyz
x,y,z
-x,-y,-z
loop_
_atom_site_type_symbol
_atom_site_label
_atom_site_fract_x
_atom_site_fract_y
_atom_site_fract_z
Si Si1 0.085255 0.166647 0.097185
Si Si2 0.967863 0.229289 0.684585
Si Si3 0.504566 0.191212 0.319382
Si Si4 0.062948 0.190547 0.470734
Si Si5 0.383476 0.450996 0.030751
Si Si6 0.204127 0.485426 0.600478
Si Si7 0.750247 0.112428 0.857605
O O1 0.361456 0.199024 0.208054
O O2 0.856863 0.316252 0.204736
O O3 0.030093 0.137889 0.963399
O O4 0.000000 0.000000 0.000000
O O5 0.034654 0.262682 0.623558
O O6 0.714837 0.359924 0.775960
O O7 0.160018 0.318419 0.858076
O O8 0.000000 0.000000 0.500000
O O9 0.794439 0.156811 0.355348
O O10 0.448254 0.398637 0.523612
O O11 0.373374 0.036853 0.225404
O O12 0.160476 0.343250 0.551227
O O13 0.228083 0.994615 0.320666
O O14 0.500000 0.500000 0.000000
O O15 0.588971 0.307410 0.990033
O O16 0.000000 0.500000 0.500000
#
# Coordination Sequence:
#
# PCOD9024143 Si02
#       7
#     2   2   2   2   2   2   2
#     4   9  19  37  59  89 129 171 214 267 325 388
#     4  11  26  47  69 104 139 173 232 289 343 414
#     4   9  20  39  62  91 130 175 217 272 328 393
#     4  11  23  39  67  97 127 177 225 268 340 397
#     4  11  26  45  72  99 136 179 226 286 353 407
#     4   9  20  38  60  89 131 167 223 265 322 392
#     4  10  22  40  63  94 131 171 219 274 334 402
#
# _framework density 23.614488999999999
#
# number of rings (size 3 to 8) (size 9 to 14) (size 15 to 20)
#    0.000    2.000    0.000    2.571    4.000    7.429 
#    0.000    0.000    0.000    0.000    0.000    0.000 
#    0.000    0.000    0.000    0.000    0.000    0.000 
#
# Total GULP energy -77989.883441 kJ/mol
# GULP energy per Si atom -5570.705960 kJ/mol
# Density = 2.356074 g / cm^3
# Si number density = 23.614489 Si / 1000 Ang^3
#
#
#
# Elastic Constant Matrix: (Units=GPa)
#
#
# Indices 1 2 3 4 5 6 
#
# 1 25.1318 12.7394 19.9546 -0.8692 -16.9345 -9.3748
# 2 12.7394 111.7938 43.8284 -0.3404 -16.3052 -7.9536
# 3 19.9546 43.8284 117.1119 4.4296 -33.0229 3.5059
# 4 -0.8692 -0.3404 4.4296 41.4989 -3.1698 5.0104
# 5 -16.9345 -16.3052 -33.0229 -3.1698 47.1257 -5.0672
# 6 -9.3748 -7.9536 3.5059 5.0104 -5.0672 22.8016
#
#
#
# Elastic Compliance Matrix: (Units=1/GPa)
#
#
# Indices 1 2 3 4 5 6 
#
# 1 0.078646 0.000677 -0.006976 -0.000291 0.027878 0.039903
# 2 0.000677 0.011024 -0.003858 0.000043 0.001909 0.005132
# 3 -0.006976 -0.003858 0.012583 -0.000576 0.004395 -0.005046
# 4 -0.000291 0.000043 -0.000576 0.024844 0.000603 -0.005341
# 5 0.027878 0.001909 0.004395 0.000603 0.037122 0.019569
# 6 0.039903 0.005132 -0.005046 -0.005341 0.019569 0.068351
#
#
# Mechanical properties :
#
#
# Convention : Reuss Voigt Hill
#
# Bulk Modulus (GPa) = 12.20426 45.23135 28.71781
# Shear Modulus (GPa) = 17.84450 34.11958 25.98204
#
# Velocity S-wave (km/s) = 2.75191 3.80525 3.32061
# Velocity P-wave (km/s) = 3.90854 6.20502 5.18550
#
# Compressibility (1/GPa) = 0.08193859
#
# Stress axis : x y z
#
# Youngs Moduli (GPa) = 12.71520 90.71084 79.46968
#
# Poissons Ratio (x) = -0.06141 0.55441
# Poissons Ratio (y) = -0.00861 0.30660
# Poissons Ratio (z) = 0.08871 0.34997
#
# Static dielectric constant tensor:
#      x y z
#    x 1.893660 -0.074580 -0.013950 
#    y -0.074580 1.870050 0.044740 
#    z -0.013950 0.044740 2.081550 
# 
# From -- ./inp_files/52349.got.cif
#   From: 2010.05.17/outbox.cif.g08.bks.cpg/sg2_27_cif.got.tgz:52349.got - 2010.06.03 11:33:40.
