data_PCOD9024301
_publ_section_title
;
Structure prediction by ZEFSAII (Michael W. Deem and Ramdas Pophale) SiO2 
 PCOD9024301
Probable space group: P -1
;
_chemical_formula_sum "Si O2"
_cell_formula_units_Z 16
_cell_length_a 11.116926
_cell_length_b 19.306406
_cell_length_c 12.912601
_cell_angle_alpha 17.978383
_cell_angle_beta 120.066293
_cell_angle_gamma 121.421551
_cell_volume 729.835510
_symmetry_space_group_name_H-M "P -1"
_symmetry_group_IT_number 2
_symmetry_cell_setting 'triclinic'
loop_
_space_group_symop_operation_xyz
x,y,z
-x,-y,-z
loop_
_atom_site_type_symbol
_atom_site_label
_atom_site_fract_x
_atom_site_fract_y
_atom_site_fract_z
Si Si1 0.452156 0.212799 0.117169
Si Si2 0.671433 0.085733 0.830763
Si Si3 0.534495 0.608929 0.748891
Si Si4 0.218347 0.218666 0.855151
Si Si5 0.224830 0.221629 0.524319
Si Si6 0.926584 0.127171 0.201723
Si Si7 0.945846 0.411071 0.493300
Si Si8 0.711263 0.398555 0.818980
O O1 0.500000 0.000000 0.500000
O O2 0.466045 0.421612 0.904182
O O3 0.294904 0.177304 0.053657
O O4 0.564596 0.293093 0.959457
O O5 0.530200 0.162082 0.622054
O O6 0.784593 0.308215 0.585131
O O7 0.746846 0.977203 0.924766
O O8 0.671855 0.914521 0.170574
O O9 0.696392 0.660667 0.709815
O O10 0.500000 0.500000 0.000000
O O11 0.296056 0.448428 0.504280
O O12 0.054102 0.239454 0.755692
O O13 0.204287 0.423103 0.311210
O O14 0.107612 0.026215 0.699717
O O15 0.788862 0.198471 0.095219
O O16 0.000000 0.000000 0.500000
O O17 0.024325 0.369540 0.878020
O O18 0.000000 0.500000 0.500000
#
# Coordination Sequence:
#
# PCOD9024301 Si02
#       8
#     2   2   2   2   2   2   2   2
#     4  11  23  40  61  94 127 162 206 262 323 366
#     4  11  22  41  66  92 126 165 211 265 312 377
#     4  11  25  40  64  95 128 163 209 265 315 380
#     4  10  22  40  64  91 123 167 207 262 314 374
#     4  10  23  44  64  94 127 166 216 258 320 371
#     4  11  25  41  67  92 129 172 209 260 316 377
#     4  11  22  41  62  93 124 164 216 253 311 382
#     4   9  23  42  64  91 126 164 216 259 309 383
#
# _framework density 21.922747999999999
#
# number of rings (size 3 to 8) (size 9 to 14) (size 15 to 20)
#    0.000    1.500    1.250    2.625    7.000    1.500 
#    0.000    0.000    0.000    0.000    0.000    0.000 
#    0.000    0.000    0.000    0.000    0.000    0.000 
#
# Total GULP energy -89279.000014 kJ/mol
# GULP energy per Si atom -5579.937501 kJ/mol
# Density = 2.187285 g / cm^3
# Si number density = 21.922748 Si / 1000 Ang^3
#
#
#
# Elastic Constant Matrix: (Units=GPa)
#
#
# Indices 1 2 3 4 5 6 
#
# 1 38.9725 -7.8543 2.9447 -0.4453 -6.6062 -12.7127
# 2 -7.8543 47.0919 18.2412 0.0536 5.9217 -2.0877
# 3 2.9447 18.2412 66.7127 9.9223 17.3127 -1.3061
# 4 -0.4453 0.0536 9.9223 35.6339 -8.1869 -1.1523
# 5 -6.6062 5.9217 17.3127 -8.1869 30.6110 -1.0149
# 6 -12.7127 -2.0877 -1.3061 -1.1523 -1.0149 26.4865
#
#
#
# Elastic Compliance Matrix: (Units=1/GPa)
#
#
# Indices 1 2 3 4 5 6 
#
# 1 0.036132 0.008212 -0.007720 0.006129 0.012824 0.018367
# 2 0.008212 0.025807 -0.008461 0.003208 0.002616 0.005798
# 3 -0.007720 -0.008461 0.023296 -0.010416 -0.016133 -0.004295
# 4 0.006129 0.003208 -0.010416 0.034886 0.016083 0.004815
# 5 0.012824 0.002616 -0.016133 0.016083 0.048625 0.008129
# 6 0.018367 0.005798 -0.004295 0.004815 0.008129 0.047337
#
#
# Mechanical properties :
#
#
# Convention : Reuss Voigt Hill
#
# Bulk Modulus (GPa) = 14.43101 19.93781 17.18441
# Shear Modulus (GPa) = 19.59864 27.84265 23.72064
#
# Velocity S-wave (km/s) = 2.99320 3.56762 3.29296
# Velocity P-wave (km/s) = 4.30612 5.10734 4.72374
#
# Compressibility (1/GPa) = 0.06929520
#
# Stress axis : x y z
#
# Youngs Moduli (GPa) = 27.67610 38.74981 42.92642
#
# Poissons Ratio (x) = -0.31819 0.33139
# Poissons Ratio (y) = -0.22726 0.36321
# Poissons Ratio (z) = 0.21366 0.32787
#
# Static dielectric constant tensor:
#      x y z
#    x 1.837650 -0.021090 0.006620 
#    y -0.021090 1.796490 0.003210 
#    z 0.006620 0.003210 1.873190 
# 
# From -- ./inp_files/201469.got.cif
#   From: 2010.05.17/outbox.cif.g08.bks.cpg/sg2_101_cif.got.tgz:201469.got - 2010.06.03 11:33:40.
