data_PCOD9024413
_publ_section_title
;
Structure prediction by ZEFSAII (Michael W. Deem and Ramdas Pophale) SiO2 
 PCOD9024413
Probable space group: P -1
;
_chemical_formula_sum "Si O2"
_cell_formula_units_Z 16
_cell_length_a 12.883443
_cell_length_b 12.570632
_cell_length_c 7.987327
_cell_angle_alpha 83.652933
_cell_angle_beta 114.224181
_cell_angle_gamma 143.656984
_cell_volume 638.578283
_symmetry_space_group_name_H-M "P -1"
_symmetry_group_IT_number 2
_symmetry_cell_setting 'triclinic'
loop_
_space_group_symop_operation_xyz
x,y,z
-x,-y,-z
loop_
_atom_site_type_symbol
_atom_site_label
_atom_site_fract_x
_atom_site_fract_y
_atom_site_fract_z
Si Si1 0.745728 0.233366 0.162020
Si Si2 0.146254 0.601111 0.241284
Si Si3 0.789046 0.922849 0.552589
Si Si4 0.432234 0.998005 0.236313
Si Si5 0.789739 0.634825 0.211630
Si Si6 0.528385 0.769876 0.077809
Si Si7 0.124080 0.074207 0.892858
Si Si8 0.589144 0.346794 0.429934
O O1 0.641255 0.107262 0.281988
O O2 0.977486 0.457259 0.300390
O O3 0.721303 0.132831 0.007643
O O4 0.000000 0.500000 0.000000
O O5 0.268564 0.585941 0.336174
O O6 0.304779 0.824441 0.309895
O O7 0.660028 0.850411 0.316705
O O8 0.619655 0.770341 0.611387
O O9 0.936534 0.933436 0.655692
O O10 0.957344 0.151116 0.661285
O O11 0.516005 0.177068 0.325308
O O12 0.600351 0.220732 0.019716
O O13 0.710762 0.521756 0.354809
O O14 0.736947 0.713991 0.107445
O O15 0.666545 0.464572 0.029783
O O16 0.710094 0.888829 0.035824
O O17 0.000000 0.000000 0.000000
#
# Coordination Sequence:
#
# PCOD9024413 Si02
#       8
#     2   2   2   2   2   2   2   2
#     4  10  23  41  65 100 140 185 246 281 361 412
#     4  10  23  39  62  97 137 187 240 284 347 419
#     4  10  26  43  73 109 144 185 242 287 366 428
#     4  10  22  40  64  95 139 186 236 289 336 422
#     4  10  26  45  72 109 145 185 242 294 366 434
#     4  12  22  49  74 104 150 187 236 307 356 430
#     4  10  24  49  78 107 144 186 240 300 368 436
#     4  12  23  46  69 103 152 187 241 297 359 425
#
# _framework density 25.05566
#
# number of rings (size 3 to 8) (size 9 to 14) (size 15 to 20)
#    0.750    0.750    1.250    3.375    1.750    4.500 
#    2.250    1.250    0.000    0.000    0.000    0.000 
#    0.000    0.000    0.000    0.000    0.000    0.000 
#
# Total GULP energy -89098.237520 kJ/mol
# GULP energy per Si atom -5568.639845 kJ/mol
# Density = 2.499863 g / cm^3
# Si number density = 25.055660 Si / 1000 Ang^3
#
#
#
# Elastic Constant Matrix: (Units=GPa)
#
#
# Indices 1 2 3 4 5 6 
#
# 1 68.0503 13.5091 22.0757 -1.9680 18.7686 -7.0845
# 2 13.5091 187.2998 21.4993 1.3091 7.1920 11.0186
# 3 22.0757 21.4993 116.2637 10.9922 10.9257 1.2378
# 4 -1.9680 1.3091 10.9922 39.9645 7.5046 3.1365
# 5 18.7686 7.1920 10.9257 7.5046 35.3351 -0.7125
# 6 -7.0845 11.0186 1.2378 3.1365 -0.7125 36.4144
#
#
#
# Elastic Compliance Matrix: (Units=1/GPa)
#
#
# Indices 1 2 3 4 5 6 
#
# 1 0.018921 -0.000900 -0.002871 0.003273 -0.009602 0.003581
# 2 -0.000900 0.005627 -0.000825 0.000240 -0.000501 -0.001880
# 3 -0.002871 -0.000825 0.009618 -0.002587 -0.000740 -0.000427
# 4 0.003273 0.000240 -0.002587 0.027313 -0.006825 -0.001834
# 5 -0.009602 -0.000501 -0.000740 -0.006825 0.035172 -0.000415
# 6 0.003581 -0.001880 -0.000427 -0.001834 -0.000415 0.028892
#
#
# Mechanical properties :
#
#
# Convention : Reuss Voigt Hill
#
# Bulk Modulus (GPa) = 40.04465 53.97579 47.01022
# Shear Modulus (GPa) = 34.95050 43.31145 39.13098
#
# Velocity S-wave (km/s) = 3.73891 4.16217 3.95620
# Velocity P-wave (km/s) = 5.88695 6.68485 6.29855
#
# Compressibility (1/GPa) = 0.02497213
#
# Stress axis : x y z
#
# Youngs Moduli (GPa) = 52.85164 177.71997 103.97569
#
# Poissons Ratio (x) = 0.15994 0.29856
# Poissons Ratio (y) = 0.04756 0.08580
# Poissons Ratio (z) = 0.15176 0.14666
#
# Static dielectric constant tensor:
#      x y z
#    x 2.117780 0.001550 -0.071130 
#    y 0.001550 2.125860 -0.047190 
#    z -0.071130 -0.047190 2.149370 
# 
# From -- ./inp_files/313028.got.cif
#   From: 2010.05.17/outbox.cif.g08.bks.cpg/sg2_157_cif.got.tgz:313028.got - 2010.06.03 11:33:40.
