data_PCOD9024334
_publ_section_title
;
Structure prediction by ZEFSAII (Michael W. Deem and Ramdas Pophale) SiO2 
 PCOD9024334
Probable space group: P -1
;
_chemical_formula_sum "Si O2"
_cell_formula_units_Z 14
_cell_length_a 17.412485
_cell_length_b 8.139864
_cell_length_c 7.575655
_cell_angle_alpha 123.294767
_cell_angle_beta 72.579899
_cell_angle_gamma 135.636515
_cell_volume 619.523901
_symmetry_space_group_name_H-M "P -1"
_symmetry_group_IT_number 2
_symmetry_cell_setting 'triclinic'
loop_
_space_group_symop_operation_xyz
x,y,z
-x,-y,-z
loop_
_atom_site_type_symbol
_atom_site_label
_atom_site_fract_x
_atom_site_fract_y
_atom_site_fract_z
Si Si1 0.891343 0.932290 0.090629
Si Si2 0.211566 0.499157 0.618441
Si Si3 0.414901 0.402135 0.658347
Si Si4 0.670635 0.356655 0.995254
Si Si5 0.033618 0.537428 0.797987
Si Si6 0.836311 0.979625 0.521120
Si Si7 0.395445 0.952465 0.488792
O O1 0.900174 0.163619 0.139500
O O2 0.896336 0.962324 0.314662
O O3 0.772276 0.627767 0.974557
O O4 0.000000 0.000000 0.000000
O O5 0.277598 0.620027 0.835348
O O6 0.106983 0.467322 0.680647
O O7 0.292417 0.709709 0.534308
O O8 0.174708 0.209933 0.436649
O O9 0.500000 0.500000 0.500000
O O10 0.417547 0.618956 0.879687
O O11 0.289180 0.184090 0.540268
O O12 0.421545 0.223543 0.671662
O O13 0.624637 0.118639 0.749659
O O14 0.910584 0.298768 0.662906
O O15 0.000000 0.500000 0.000000
O O16 0.500000 0.000000 0.500000
#
# Coordination Sequence:
#
# PCOD9024334 Si02
#       7
#     2   2   2   2   2   2   2
#     4  10  22  40  64  92 133 177 215 268 335 387
#     4  10  23  44  65  98 137 172 222 276 335 396
#     4  10  23  46  69  97 134 178 222 277 340 392
#     4  10  25  46  67 100 137 174 221 279 337 399
#     4  12  24  37  63 103 130 174 224 267 336 401
#     4  10  23  41  64  94 133 172 218 274 329 397
#     4  12  26  44  74 100 128 179 229 277 338 398
#
# _framework density 22.597996999999999
#
# number of rings (size 3 to 8) (size 9 to 14) (size 15 to 20)
#    0.000    1.714    0.000    6.000    8.000    2.857 
#    0.000    0.000    0.000    0.000    0.000    0.000 
#    0.000    0.000    0.000    0.000    0.000    0.000 
#
# Total GULP energy -78129.778502 kJ/mol
# GULP energy per Si atom -5580.698464 kJ/mol
# Density = 2.254656 g / cm^3
# Si number density = 22.597997 Si / 1000 Ang^3
#
#
#
# Elastic Constant Matrix: (Units=GPa)
#
#
# Indices 1 2 3 4 5 6 
#
# 1 85.6556 7.5057 2.6088 -6.7959 -26.2601 1.2796
# 2 7.5057 93.2627 9.4600 -30.3920 -10.4092 -1.2603
# 3 2.6088 9.4600 66.0748 -12.7920 1.7838 12.8189
# 4 -6.7959 -30.3920 -12.7920 34.7724 6.9977 -12.2288
# 5 -26.2601 -10.4092 1.7838 6.9977 33.1390 -4.1548
# 6 1.2796 -1.2603 12.8189 -12.2288 -4.1548 44.0164
#
#
#
# Elastic Compliance Matrix: (Units=1/GPa)
#
#
# Indices 1 2 3 4 5 6 
#
# 1 0.015562 0.000663 -0.001088 0.001192 0.012522 0.001396
# 2 0.000663 0.016070 -0.000454 0.015184 0.003027 0.005077
# 3 -0.001088 -0.000454 0.017057 0.004995 -0.003465 -0.003888
# 4 0.001192 0.015184 0.004995 0.049095 -0.003384 0.012266
# 5 0.012522 0.003027 -0.003465 -0.003384 0.042427 0.003796
# 6 0.001396 0.005077 -0.003888 0.012266 0.003796 0.027722
#
#
# Mechanical properties :
#
#
# Convention : Reuss Voigt Hill
#
# Bulk Modulus (GPa) = 21.30757 31.57136 26.43947
# Shear Modulus (GPa) = 26.97820 37.41348 32.19584
#
# Velocity S-wave (km/s) = 3.45893 4.07333 3.77864
# Velocity P-wave (km/s) = 5.04001 6.01032 5.54643
#
# Compressibility (1/GPa) = 0.04693168
#
# Stress axis : x y z
#
# Youngs Moduli (GPa) = 64.25742 62.22861 58.62596
#
# Poissons Ratio (x) = -0.04124 0.06376
# Poissons Ratio (y) = -0.04258 0.02662
# Poissons Ratio (z) = 0.06988 0.02825
#
# Static dielectric constant tensor:
#      x y z
#    x 1.824240 -0.030380 0.027890 
#    y -0.030380 1.809940 0.006910 
#    z 0.027890 0.006910 1.839120 
# 
# From -- ./inp_files/226436.got.cif
#   From: 2010.05.17/outbox.cif.g08.bks.cpg/sg2_114_cif.got.tgz:226436.got - 2010.06.03 11:33:40.
