data_PCOD9024238
_publ_section_title
;
Structure prediction by ZEFSAII (Michael W. Deem and Ramdas Pophale) SiO2 
 PCOD9024238
Probable space group: P -1
;
_chemical_formula_sum "Si O2"
_cell_formula_units_Z 16
_cell_length_a 12.964287
_cell_length_b 8.422830
_cell_length_c 15.981362
_cell_angle_alpha 67.824170
_cell_angle_beta 131.646400
_cell_angle_gamma 143.598019
_cell_volume 723.484579
_symmetry_space_group_name_H-M "P -1"
_symmetry_group_IT_number 2
_symmetry_cell_setting 'triclinic'
loop_
_space_group_symop_operation_xyz
x,y,z
-x,-y,-z
loop_
_atom_site_type_symbol
_atom_site_label
_atom_site_fract_x
_atom_site_fract_y
_atom_site_fract_z
Si Si1 0.487339 0.171864 0.635007
Si Si2 0.326353 0.677338 0.942228
Si Si3 0.742446 0.885385 0.156760
Si Si4 0.023838 0.478737 0.113801
Si Si5 0.431519 0.134517 0.434440
Si Si6 0.230755 0.573311 0.570663
Si Si7 0.895415 0.659371 0.266461
Si Si8 0.140385 0.972993 0.612620
O O1 0.715925 0.306839 0.763589
O O2 0.529852 0.304354 0.541613
O O3 0.307733 0.841426 0.581144
O O4 0.368048 0.171181 0.639972
O O5 0.265742 0.618289 0.823478
O O6 0.090725 0.480473 0.903401
O O7 0.500000 0.000000 0.000000
O O8 0.470369 0.651006 0.046842
O O9 0.807356 0.967892 0.273206
O O10 0.878059 0.165507 0.122547
O O11 0.821461 0.780943 0.187462
O O12 0.000000 0.500000 0.000000
O O13 0.556168 0.314327 0.380562
O O14 0.500000 0.000000 0.500000
O O15 0.160418 0.895314 0.337476
O O16 0.146101 0.411144 0.643961
O O17 0.030280 0.354599 0.437324
O O18 0.000000 0.000000 0.500000
#
# Coordination Sequence:
#
# PCOD9024238 Si02
#       8
#     2   2   2   2   2   2   2   2
#     4  11  23  40  68  98 138 180 231 288 339 407
#     4  10  24  44  71  96 129 181 231 285 336 410
#     4  11  25  45  70  97 140 185 225 289 348 409
#     4  11  25  46  68 100 134 178 239 288 342 411
#     4  10  22  40  64 105 137 181 226 280 340 405
#     4  11  24  39  71  98 139 179 227 278 341 407
#     4  12  24  46  68 106 141 179 231 285 350 409
#     4  12  23  42  65 104 140 179 225 275 354 411
#
# _framework density 22.115189999999998
#
# number of rings (size 3 to 8) (size 9 to 14) (size 15 to 20)
#    0.000    1.000    2.500    3.750    8.750    1.000 
#    2.250    3.125    0.000    0.000    0.000    0.000 
#    0.000    0.000    0.000    0.000    0.000    0.000 
#
# Total GULP energy -89453.438631 kJ/mol
# GULP energy per Si atom -5590.839914 kJ/mol
# Density = 2.206486 g / cm^3
# Si number density = 22.115190 Si / 1000 Ang^3
#
#
#
# Elastic Constant Matrix: (Units=GPa)
#
#
# Indices 1 2 3 4 5 6 
#
# 1 159.6190 52.3708 77.9613 7.0386 13.6025 30.0741
# 2 52.3708 43.3398 31.8100 -1.0139 1.2188 16.4886
# 3 77.9613 31.8100 153.6793 16.2114 1.0549 14.7847
# 4 7.0386 -1.0139 16.2114 33.6443 4.6201 -2.0869
# 5 13.6025 1.2188 1.0549 4.6201 62.4243 1.8582
# 6 30.0741 16.4886 14.7847 -2.0869 1.8582 37.4177
#
#
#
# Elastic Compliance Matrix: (Units=1/GPa)
#
#
# Indices 1 2 3 4 5 6 
#
# 1 0.012642 -0.011161 -0.003601 -0.001167 -0.002277 -0.003772
# 2 -0.011161 0.041652 -0.002616 0.004122 0.001602 -0.008199
# 3 -0.003601 -0.002616 0.009271 -0.003918 0.000966 0.000118
# 4 -0.001167 0.004122 -0.003918 0.032447 -0.002239 0.002590
# 5 -0.002277 0.001602 0.000966 -0.002239 0.016640 -0.000208
# 6 -0.003772 -0.008199 0.000118 0.002590 -0.000208 0.033478
#
#
# Mechanical properties :
#
#
# Convention : Reuss Voigt Hill
#
# Bulk Modulus (GPa) = 34.71454 75.65803 55.18629
# Shear Modulus (GPa) = 26.24803 39.66367 32.95585
#
# Velocity S-wave (km/s) = 3.44885 4.23957 3.86449
# Velocity P-wave (km/s) = 5.62055 7.63220 6.70228
#
# Compressibility (1/GPa) = 0.02880637
#
# Stress axis : x y z
#
# Youngs Moduli (GPa) = 79.10056 24.00855 107.86402
#
# Poissons Ratio (x) = 0.26797 0.38847
# Poissons Ratio (y) = 0.88288 0.28221
# Poissons Ratio (z) = 0.28488 0.06281
#
# Static dielectric constant tensor:
#      x y z
#    x 1.857880 0.003350 0.022290 
#    y 0.003350 1.897860 -0.011780 
#    z 0.022290 -0.011780 1.816270 
# 
# From -- ./inp_files/515427.got.cif
#   From: 2010.05.17/outbox.cif.g08.bks.cpg/sg2_258_cif.got.tgz:515427.got - 2010.06.03 11:33:40.
