data_PCOD9024700
_publ_section_title
;
Structure prediction by ZEFSAII (Michael W. Deem and Ramdas Pophale) SiO2 
 PCOD9024700
Probable space group: P -1
;
_chemical_formula_sum "Si O2"
_cell_formula_units_Z 16
_cell_length_a 12.458376
_cell_length_b 19.643461
_cell_length_c 7.519689
_cell_angle_alpha 60.565469
_cell_angle_beta 94.530418
_cell_angle_gamma 147.319566
_cell_volume 607.988807
_symmetry_space_group_name_H-M "P -1"
_symmetry_group_IT_number 2
_symmetry_cell_setting 'triclinic'
loop_
_space_group_symop_operation_xyz
x,y,z
-x,-y,-z
loop_
_atom_site_type_symbol
_atom_site_label
_atom_site_fract_x
_atom_site_fract_y
_atom_site_fract_z
Si Si1 0.231978 0.048475 0.364694
Si Si2 0.944535 0.702713 0.893894
Si Si3 0.288834 0.841589 0.514092
Si Si4 0.633581 0.708386 0.785911
Si Si5 0.175081 0.622815 0.584840
Si Si6 0.203620 0.754299 0.103611
Si Si7 0.662965 0.859818 0.135725
Si Si8 0.308007 0.296480 0.785253
O O1 0.135096 0.906129 0.632716
O O2 0.932165 0.892394 0.495032
O O3 0.405344 0.224324 0.284166
O O4 0.355902 0.119353 0.094820
O O5 0.006887 0.693305 0.735176
O O6 0.614190 0.495729 0.098819
O O7 0.040460 0.721814 0.058090
O O8 0.261890 0.731846 0.622586
O O9 0.500000 0.000000 0.500000
O O10 0.463830 0.003640 0.174377
O O11 0.653385 0.692122 0.012723
O O12 0.108203 0.650505 0.406555
O O13 0.427922 0.743539 0.374473
O O14 0.910740 0.388307 0.864940
O O15 0.617680 0.735986 0.261875
O O16 0.976441 0.086349 0.963647
O O17 0.500000 0.500000 0.500000
#
# Coordination Sequence:
#
# PCOD9024700 Si02
#       8
#     2   2   2   2   2   2   2   2
#     4  10  22  42  63  93 133 169 224 278 327 400
#     4  11  23  40  65  94 130 174 220 270 329 394
#     4  10  24  43  65  96 129 172 226 276 331 396
#     4  10  23  40  65  96 131 177 217 270 338 396
#     4  11  24  45  67  96 140 175 223 283 333 404
#     4  10  25  42  65  97 129 176 226 271 333 396
#     4  10  23  41  66  96 132 178 218 275 342 393
#     4  10  22  40  65  99 134 173 226 272 330 407
#
# _framework density 26.316274
#
# number of rings (size 3 to 8) (size 9 to 14) (size 15 to 20)
#    0.000    1.750    0.000    2.250    0.000   17.000 
#    0.000    0.000    0.000    0.000    0.000    0.000 
#    0.000    0.000    0.000    0.000    0.000    0.000 
#
# Total GULP energy -89648.097076 kJ/mol
# GULP energy per Si atom -5603.006067 kJ/mol
# Density = 2.625638 g / cm^3
# Si number density = 26.316274 Si / 1000 Ang^3
#
#
#
# Elastic Constant Matrix: (Units=GPa)
#
#
# Indices 1 2 3 4 5 6 
#
# 1 123.1442 46.2720 43.3648 -14.1999 12.9945 -21.0208
# 2 46.2720 93.1910 40.1090 -12.1170 13.7025 -8.6235
# 3 43.3648 40.1090 124.6199 -8.7983 24.5187 -3.0995
# 4 -14.1999 -12.1170 -8.7983 57.2261 -5.7143 9.5803
# 5 12.9945 13.7025 24.5187 -5.7143 57.7913 -0.9113
# 6 -21.0208 -8.6235 -3.0995 9.5803 -0.9113 46.7027
#
#
#
# Elastic Compliance Matrix: (Units=1/GPa)
#
#
# Indices 1 2 3 4 5 6 
#
# 1 0.011308 -0.004041 -0.002391 0.000871 -0.000421 0.003998
# 2 -0.004041 0.014360 -0.002885 0.001427 -0.001126 0.000327
# 3 -0.002391 -0.002885 0.010403 0.000250 -0.003184 -0.001032
# 4 0.000871 0.001427 0.000250 0.018672 0.001156 -0.003135
# 5 -0.000421 -0.001126 -0.003184 0.001156 0.019123 -0.000473
# 6 0.003998 0.000327 -0.001032 -0.003135 -0.000473 0.023837
#
#
# Mechanical properties :
#
#
# Convention : Reuss Voigt Hill
#
# Bulk Modulus (GPa) = 57.34539 66.71630 62.03085
# Shear Modulus (GPa) = 40.93341 46.42464 43.67903
#
# Velocity S-wave (km/s) = 3.94819 4.20468 4.07845
# Velocity P-wave (km/s) = 6.52858 6.99852 6.76763
#
# Compressibility (1/GPa) = 0.01743819
#
# Stress axis : x y z
#
# Youngs Moduli (GPa) = 88.43213 69.63709 96.12328
#
# Poissons Ratio (x) = 0.28138 0.22980
# Poissons Ratio (y) = 0.35733 0.27735
# Poissons Ratio (z) = 0.21141 0.20093
#
# Static dielectric constant tensor:
#      x y z
#    x 2.157440 -0.018970 -0.063880 
#    y -0.018970 2.103060 0.053510 
#    z -0.063880 0.053510 2.126330 
# 
# From -- ./inp_files/281689.got.cif
#   From: 2010.05.17/outbox.cif.g08.bks.cpg/sg2_141_cif.got.tgz:281689.got - 2010.06.03 11:33:40.
