data_PCOD9024430
_publ_section_title
;
Structure prediction by ZEFSAII (Michael W. Deem and Ramdas Pophale) SiO2 
 PCOD9024430
Probable space group: P -1
;
_chemical_formula_sum "Si O2"
_cell_formula_units_Z 16
_cell_length_a 25.291013
_cell_length_b 9.434368
_cell_length_c 21.731577
_cell_angle_alpha 35.622541
_cell_angle_beta 18.449658
_cell_angle_gamma 26.780616
_cell_volume 718.085186
_symmetry_space_group_name_H-M "P -1"
_symmetry_group_IT_number 2
_symmetry_cell_setting 'triclinic'
loop_
_space_group_symop_operation_xyz
x,y,z
-x,-y,-z
loop_
_atom_site_type_symbol
_atom_site_label
_atom_site_fract_x
_atom_site_fract_y
_atom_site_fract_z
Si Si1 0.942772 0.198559 0.932604
Si Si2 0.481407 0.838247 0.177681
Si Si3 0.723704 0.333979 0.349056
Si Si4 0.470459 0.456295 0.235808
Si Si5 0.949474 0.962252 0.355557
Si Si6 0.850409 0.551430 0.319562
Si Si7 0.777029 0.780688 0.183959
Si Si8 0.462007 0.412244 0.007199
O O1 0.032459 0.382897 0.784693
O O2 0.677714 0.484960 0.115602
O O3 0.081054 0.917648 0.827221
O O4 0.000000 0.000000 0.000000
O O5 0.480126 0.727480 0.149998
O O6 0.233107 0.017497 0.412386
O O7 0.546371 0.054168 0.039275
O O8 0.500000 0.500000 0.500000
O O9 0.646750 0.665530 0.347654
O O10 0.825268 0.097652 0.379334
O O11 0.318338 0.443185 0.454079
O O12 0.696581 0.097833 0.126339
O O13 0.423968 0.519463 0.192950
O O14 0.202239 0.630209 0.197174
O O15 0.976232 0.209632 0.266850
O O16 0.775316 0.778657 0.261115
O O17 0.000000 0.500000 0.000000
O O18 0.500000 0.500000 0.000000
#
# Coordination Sequence:
#
# PCOD9024430 Si02
#       8
#     2   2   2   2   2   2   2   2
#     4  12  23  39  64 100 135 171 219 278 339 406
#     4  11  24  43  67  94 130 175 224 280 341 402
#     4  11  23  38  63  99 133 168 213 268 336 407
#     4  11  23  42  64  90 128 175 220 274 335 400
#     4  10  23  45  68  94 132 175 223 281 341 402
#     4  10  22  40  64  96 132 171 217 272 339 407
#     4  11  21  38  63  92 129 170 212 266 334 403
#     4  12  26  45  68  97 130 179 235 285 336 397
#
# _framework density 22.281478
#
# number of rings (size 3 to 8) (size 9 to 14) (size 15 to 20)
#    0.000    1.000    0.000    7.875    0.000    5.000 
#    0.000    6.875    0.000    0.000    0.000    0.000 
#    0.000    0.000    0.000    0.000    0.000    0.000 
#
# Total GULP energy -89078.505059 kJ/mol
# GULP energy per Si atom -5567.406566 kJ/mol
# Density = 2.223076 g / cm^3
# Si number density = 22.281478 Si / 1000 Ang^3
#
#
#
# Elastic Constant Matrix: (Units=GPa)
#
#
# Indices 1 2 3 4 5 6 
#
# 1 138.6202 29.3596 22.8355 -7.7515 14.7354 5.0911
# 2 29.3596 103.0624 16.5044 -2.6666 14.4256 -2.9906
# 3 22.8355 16.5044 57.0884 8.2110 1.5908 -4.1112
# 4 -7.7515 -2.6666 8.2110 34.7624 -0.7483 -6.4272
# 5 14.7354 14.4256 1.5908 -0.7483 43.1289 -1.6485
# 6 5.0911 -2.9906 -4.1112 -6.4272 -1.6485 33.0667
#
#
#
# Elastic Compliance Matrix: (Units=1/GPa)
#
#
# Indices 1 2 3 4 5 6 
#
# 1 0.008517 -0.001561 -0.003324 0.002229 -0.002285 -0.001546
# 2 -0.001561 0.011044 -0.002589 0.001232 -0.003005 0.001007
# 3 -0.003324 -0.002589 0.020471 -0.005410 0.001223 0.001832
# 4 0.002229 0.001232 -0.005410 0.031598 -0.000226 0.005226
# 5 -0.002285 -0.003005 0.001223 -0.000226 0.024978 0.001433
# 6 -0.001546 0.001007 0.001832 0.005226 0.001433 0.031886
#
#
# Mechanical properties :
#
#
# Convention : Reuss Voigt Hill
#
# Bulk Modulus (GPa) = 39.86768 48.46334 44.16551
# Shear Modulus (GPa) = 32.93762 37.52969 35.23366
#
# Velocity S-wave (km/s) = 3.84897 4.10853 3.98087
# Velocity P-wave (km/s) = 6.13876 6.65616 6.40269
#
# Compressibility (1/GPa) = 0.02508297
#
# Stress axis : x y z
#
# Youngs Moduli (GPa) = 117.41895 90.54694 48.85032
#
# Poissons Ratio (x) = 0.14136 0.16236
# Poissons Ratio (y) = 0.18331 0.12649
# Poissons Ratio (z) = 0.39025 0.23446
#
# Static dielectric constant tensor:
#      x y z
#    x 1.838710 0.029440 0.013260 
#    y 0.029440 1.843620 0.023540 
#    z 0.013260 0.023540 1.926190 
# 
# From -- ./inp_files/245360.got.cif
#   From: 2010.05.17/outbox.cif.g08.bks.cpg/sg2_123_cif.got.tgz:245360.got - 2010.06.03 11:33:40.
