data_PCOD9024606
_publ_section_title
;
Structure prediction by ZEFSAII (Michael W. Deem and Ramdas Pophale) SiO2 
 PCOD9024606
Probable space group: P -1
;
_chemical_formula_sum "Si O2"
_cell_formula_units_Z 16
_cell_length_a 18.993762
_cell_length_b 25.995945
_cell_length_c 4.966247
_cell_angle_alpha 64.451071
_cell_angle_beta 114.603253
_cell_angle_gamma 161.530695
_cell_volume 700.642081
_symmetry_space_group_name_H-M "P -1"
_symmetry_group_IT_number 2
_symmetry_cell_setting 'triclinic'
loop_
_space_group_symop_operation_xyz
x,y,z
-x,-y,-z
loop_
_atom_site_type_symbol
_atom_site_label
_atom_site_fract_x
_atom_site_fract_y
_atom_site_fract_z
Si Si1 0.729939 0.108363 0.579212
Si Si2 0.294985 0.744805 0.898137
Si Si3 0.762961 0.689226 0.483471
Si Si4 0.491975 0.655074 0.633262
Si Si5 0.169808 0.743563 0.090923
Si Si6 0.217127 0.165777 0.799072
Si Si7 0.817842 0.459282 0.803681
Si Si8 0.857023 0.686071 0.149587
O O1 0.728774 0.143012 0.225732
O O2 0.924442 0.196922 0.687928
O O3 0.794146 0.197530 0.713506
O O4 0.501759 0.919280 0.704460
O O5 0.313222 0.689815 0.023727
O O6 0.279511 0.758241 0.151775
O O7 0.050657 0.596014 0.734442
O O8 0.500000 0.500000 0.500000
O O9 0.811550 0.787232 0.414495
O O10 0.835804 0.726170 0.214039
O O11 0.862269 0.711312 0.795496
O O12 0.698069 0.802583 0.418420
O O13 0.327492 0.594912 0.461396
O O14 0.348876 0.498741 0.705477
O O15 0.584083 0.710900 0.953725
O O16 0.915663 0.557295 0.007004
O O17 0.000000 0.000000 0.000000
#
# Coordination Sequence:
#
# PCOD9024606 Si02
#       8
#     2   2   2   2   2   2   2   2
#     4  12  23  40  68 100 138 173 226 279 326 383
#     4   9  21  44  64 100 139 179 220 277 330 394
#     4  12  23  43  69  95 129 169 218 275 327 392
#     4  12  23  44  71  95 133 173 223 274 325 406
#     4  10  22  40  65  94 131 182 225 267 325 392
#     4  12  28  45  68  98 133 173 215 273 345 400
#     4   9  22  42  70  97 135 181 225 264 339 396
#     4  12  23  39  71 104 126 172 227 271 322 395
#
# _framework density 22.836196000000001
#
# number of rings (size 3 to 8) (size 9 to 14) (size 15 to 20)
#    0.750    0.250    3.750    3.000    1.750    2.000 
#    0.000    6.250    0.000    0.000    0.000    0.000 
#    0.000    0.000    0.000    0.000    0.000    0.000 
#
# Total GULP energy -89427.298123 kJ/mol
# GULP energy per Si atom -5589.206133 kJ/mol
# Density = 2.278422 g / cm^3
# Si number density = 22.836196 Si / 1000 Ang^3
#
#
#
# Elastic Constant Matrix: (Units=GPa)
#
#
# Indices 1 2 3 4 5 6 
#
# 1 54.1116 23.3399 25.8802 -8.4428 9.7319 -9.8807
# 2 23.3399 63.5346 12.1391 -11.5660 13.7610 -0.0294
# 3 25.8802 12.1391 82.1587 -2.1781 8.1752 -8.5722
# 4 -8.4428 -11.5660 -2.1781 34.9933 -3.2956 4.0847
# 5 9.7319 13.7610 8.1752 -3.2956 41.8813 -6.6232
# 6 -9.8807 -0.0294 -8.5722 4.0847 -6.6232 23.7518
#
#
#
# Elastic Compliance Matrix: (Units=1/GPa)
#
#
# Indices 1 2 3 4 5 6 
#
# 1 0.027036 -0.008094 -0.006302 0.002403 -0.000891 0.008301
# 2 -0.008094 0.020907 -0.000480 0.005106 -0.005427 -0.005906
# 3 -0.006302 -0.000480 0.014556 -0.001159 -0.000902 0.002579
# 4 0.002403 0.005106 -0.001159 0.031312 -0.000318 -0.004886
# 5 -0.000891 -0.005427 -0.000902 -0.000318 0.027111 0.006912
# 6 0.008301 -0.005906 0.002579 -0.004886 0.006912 0.049246
#
#
# Mechanical properties :
#
#
# Convention : Reuss Voigt Hill
#
# Bulk Modulus (GPa) = 30.53754 35.83593 33.18673
# Shear Modulus (GPa) = 23.71502 29.35500 26.53501
#
# Velocity S-wave (km/s) = 3.22605 3.58922 3.41247
# Velocity P-wave (km/s) = 5.22283 5.73614 5.48549
#
# Compressibility (1/GPa) = 0.03274659
#
# Stress axis : x y z
#
# Youngs Moduli (GPa) = 36.98707 47.83162 68.70088
#
# Poissons Ratio (x) = 0.38713 0.43297
# Poissons Ratio (y) = 0.29936 0.03300
# Poissons Ratio (z) = 0.23310 0.02297
#
# Static dielectric constant tensor:
#      x y z
#    x 1.839930 0.015400 -0.029370 
#    y 0.015400 1.835790 0.006840 
#    z -0.029370 0.006840 1.886510 
# 
# From -- ./inp_files/112773.got.cif
#   From: 2010.05.17/outbox.cif.g08.bks.cpg/sg2_57_cif.got.tgz:112773.got - 2010.06.03 11:33:40.
