data_PCOD9024313
_publ_section_title
;
Structure prediction by ZEFSAII (Michael W. Deem and Ramdas Pophale) SiO2 
 PCOD9024313
Probable space group: P -1
;
_chemical_formula_sum "Si O2"
_cell_formula_units_Z 14
_cell_length_a 14.798565
_cell_length_b 14.334699
_cell_length_c 14.585495
_cell_angle_alpha 38.682825
_cell_angle_beta 161.082750
_cell_angle_gamma 141.633298
_cell_volume 610.866541
_symmetry_space_group_name_H-M "P -1"
_symmetry_group_IT_number 2
_symmetry_cell_setting 'triclinic'
loop_
_space_group_symop_operation_xyz
x,y,z
-x,-y,-z
loop_
_atom_site_type_symbol
_atom_site_label
_atom_site_fract_x
_atom_site_fract_y
_atom_site_fract_z
Si Si1 0.582367 0.414997 0.233067
Si Si2 0.839615 0.060822 0.959252
Si Si3 0.999233 0.402857 0.787788
Si Si4 0.776142 0.807867 0.601038
Si Si5 0.802645 0.482244 0.915558
Si Si6 0.323679 0.908040 0.484966
Si Si7 0.348941 0.849188 0.023474
O O1 0.162664 0.514766 0.505353
O O2 0.684511 0.267627 0.406363
O O3 0.500000 0.500000 0.000000
O O4 0.300849 0.384762 0.049664
O O5 0.033538 0.104542 0.201945
O O6 0.023275 0.956185 0.163127
O O7 0.834423 0.227145 0.783768
O O8 0.517288 0.962920 0.718464
O O9 0.039673 0.490141 0.856644
O O10 0.667055 0.630191 0.661795
O O11 0.502277 0.859342 0.261536
O O12 0.009757 0.828827 0.726977
O O13 0.612625 0.311045 0.860197
O O14 0.000000 0.500000 0.000000
O O15 0.500000 0.000000 0.500000
O O16 0.500000 0.000000 0.000000
#
# Coordination Sequence:
#
# PCOD9024313 Si02
#       7
#     2   2   2   2   2   2   2
#     4  12  26  43  61  92 134 173 209 255 317 384
#     4  11  21  38  66  96 116 160 219 268 306 363
#     4  11  22  42  67  94 127 166 216 264 313 378
#     4  10  22  40  64  92 125 163 215 259 311 386
#     4   9  22  42  71  96 124 168 217 267 320 380
#     4  12  21  39  66  89 124 159 213 264 316 359
#     4  11  22  41  62  92 132 165 200 261 327 381
#
# _framework density 22.918264000000001
#
# number of rings (size 3 to 8) (size 9 to 14) (size 15 to 20)
#    0.000    1.143    2.857    3.429    0.000    8.000 
#    7.714    0.000    0.000    0.000    0.000    0.000 
#    0.000    0.000    0.000    0.000    0.000    0.000 
#
# Total GULP energy -78213.952600 kJ/mol
# GULP energy per Si atom -5586.710900 kJ/mol
# Density = 2.286610 g / cm^3
# Si number density = 22.918264 Si / 1000 Ang^3
#
#
#
# Elastic Constant Matrix: (Units=GPa)
#
#
# Indices 1 2 3 4 5 6 
#
# 1 87.3385 48.8794 35.0077 -5.4363 -24.2184 -21.0172
# 2 48.8794 105.4445 22.9688 -0.9327 -22.0645 -4.3034
# 3 35.0077 22.9688 126.7986 1.3436 -16.2684 -7.6715
# 4 -5.4363 -0.9327 1.3436 32.1177 5.0804 -8.5702
# 5 -24.2184 -22.0645 -16.2684 5.0804 44.0997 9.9917
# 6 -21.0172 -4.3034 -7.6715 -8.5702 9.9917 30.2008
#
#
#
# Elastic Compliance Matrix: (Units=1/GPa)
#
#
# Indices 1 2 3 4 5 6 
#
# 1 0.022149 -0.008308 -0.003472 0.007106 0.002623 0.014497
# 2 -0.008308 0.013934 -0.000031 -0.003290 0.004162 -0.006115
# 3 -0.003472 -0.000031 0.009034 -0.001578 0.001862 -0.001190
# 4 0.007106 -0.003290 -0.001578 0.037876 -0.006538 0.016987
# 5 0.002623 0.004162 0.001862 -0.006538 0.029625 -0.008765
# 6 0.014497 -0.006115 -0.001190 0.016987 -0.008765 0.049747
#
#
# Mechanical properties :
#
#
# Convention : Reuss Voigt Hill
#
# Bulk Modulus (GPa) = 46.52198 59.25484 52.88841
# Shear Modulus (GPa) = 25.88643 35.46537 30.67590
#
# Velocity S-wave (km/s) = 3.36447 3.93806 3.66251
# Velocity P-wave (km/s) = 5.95281 6.82559 6.40409
#
# Compressibility (1/GPa) = 0.02149522
#
# Stress axis : x y z
#
# Youngs Moduli (GPa) = 45.14885 71.76786 110.68816
#
# Poissons Ratio (x) = 0.59622 0.38430
# Poissons Ratio (y) = 0.37508 0.00348
# Poissons Ratio (z) = 0.15675 0.00226
#
# Static dielectric constant tensor:
#      x y z
#    x 1.973020 -0.054950 -0.008890 
#    y -0.054950 1.860190 0.002500 
#    z -0.008890 0.002500 1.869780 
# 
# From -- ./inp_files/534294.got.cif
#   From: 2010.05.17/outbox.cif.g08.bks.cpg/sg2_268_cif.got.tgz:534294.got - 2010.06.03 11:33:40.
