data_PCOD9024374
_publ_section_title
;
Structure prediction by ZEFSAII (Michael W. Deem and Ramdas Pophale) SiO2 
 PCOD9024374
Probable space group: P -1
;
_chemical_formula_sum "Si O2"
_cell_formula_units_Z 14
_cell_length_a 9.528840
_cell_length_b 14.735325
_cell_length_c 12.199637
_cell_angle_alpha 151.326024
_cell_angle_beta 125.793036
_cell_angle_gamma 52.070441
_cell_volume 643.591026
_symmetry_space_group_name_H-M "P -1"
_symmetry_group_IT_number 2
_symmetry_cell_setting 'triclinic'
loop_
_space_group_symop_operation_xyz
x,y,z
-x,-y,-z
loop_
_atom_site_type_symbol
_atom_site_label
_atom_site_fract_x
_atom_site_fract_y
_atom_site_fract_z
Si Si1 0.975991 0.123216 0.469885
Si Si2 0.732674 0.676230 0.130900
Si Si3 0.258123 0.771470 0.333592
Si Si4 0.908167 0.001465 0.080907
Si Si5 0.880001 0.418283 0.272890
Si Si6 0.619506 0.171047 0.979194
Si Si7 0.358277 0.201958 0.544943
O O1 0.076467 0.276174 0.730028
O O2 0.792813 0.158251 0.490796
O O3 0.108899 0.915743 0.344160
O O4 0.950545 0.132759 0.338119
O O5 0.594293 0.749281 0.045817
O O6 0.638618 0.797102 0.322120
O O7 0.746976 0.450753 0.917018
O O8 0.452163 0.786291 0.403319
O O9 0.982374 0.778218 0.918471
O O10 0.700646 0.081867 0.037550
O O11 0.000000 0.000000 0.000000
O O12 0.788054 0.598704 0.344717
O O13 0.000000 0.500000 0.500000
O O14 0.717574 0.339122 0.167256
O O15 0.679256 0.990362 0.729314
#
# Coordination Sequence:
#
# PCOD9024374 Si02
#       7
#     2   2   2   2   2   2   2
#     4  11  25  45  65  93 132 172 210 265 318 382
#     4  12  23  39  71  96 125 168 220 265 311 372
#     4  11  25  43  66  94 131 169 216 260 322 378
#     4  10  22  40  64  94 129 164 208 261 321 369
#     4  11  22  37  62  94 130 158 210 265 314 374
#     4  11  23  38  61  95 132 162 204 270 320 367
#     4  12  23  39  67  98 127 167 215 271 311 371
#
# _framework density 21.752943999999999
#
# number of rings (size 3 to 8) (size 9 to 14) (size 15 to 20)
#    0.000    0.857    4.286    3.857    6.000    0.000 
#    0.000    1.429    0.000    0.000    0.000    0.000 
#    0.000    0.000    0.000    0.000    0.000    0.000 
#
# Total GULP energy -78204.039327 kJ/mol
# GULP energy per Si atom -5586.002809 kJ/mol
# Density = 2.170343 g / cm^3
# Si number density = 21.752944 Si / 1000 Ang^3
#
#
#
# Elastic Constant Matrix: (Units=GPa)
#
#
# Indices 1 2 3 4 5 6 
#
# 1 75.7831 8.9359 10.7438 -15.4708 0.0721 -0.4751
# 2 8.9359 76.3981 32.9222 -15.4329 3.8494 0.1314
# 3 10.7438 32.9222 106.1921 -0.4298 12.6467 -0.3539
# 4 -15.4708 -15.4329 -0.4298 41.3617 6.7120 5.8183
# 5 0.0721 3.8494 12.6467 6.7120 17.5625 -5.0840
# 6 -0.4751 0.1314 -0.3539 5.8183 -5.0840 17.0355
#
#
#
# Elastic Compliance Matrix: (Units=1/GPa)
#
#
# Indices 1 2 3 4 5 6 
#
# 1 0.014610 0.000213 -0.001253 0.006248 -0.002298 -0.002440
# 2 0.000213 0.016862 -0.004706 0.007623 -0.004422 -0.004145
# 3 -0.001253 -0.004706 0.011935 -0.000547 -0.007906 -0.001923
# 4 0.006248 0.007623 -0.000547 0.035080 -0.019864 -0.017805
# 5 -0.002298 -0.004422 -0.007906 -0.019864 0.080024 0.030472
# 6 -0.002440 -0.004145 -0.001923 -0.017805 0.030472 0.073800
#
#
# Mechanical properties :
#
#
# Convention : Reuss Voigt Hill
#
# Bulk Modulus (GPa) = 31.33198 40.39745 35.86471
# Shear Modulus (GPa) = 19.65080 28.91003 24.28042
#
# Velocity S-wave (km/s) = 3.00886 3.64952 3.34457
# Velocity P-wave (km/s) = 5.14838 6.03076 5.60695
#
# Compressibility (1/GPa) = 0.03191627
#
# Stress axis : x y z
#
# Youngs Moduli (GPa) = 68.44440 59.30509 83.78387
#
# Poissons Ratio (x) = -0.01265 0.10502
# Poissons Ratio (y) = -0.01460 0.39425
# Poissons Ratio (z) = 0.08579 0.27907
#
# Static dielectric constant tensor:
#      x y z
#    x 1.824430 -0.039050 0.036920 
#    y -0.039050 1.856640 -0.007280 
#    z 0.036920 -0.007280 1.801780 
# 
# From -- ./inp_files/345026.got.cif
#   From: 2010.05.17/outbox.cif.g08.bks.cpg/sg2_173_cif.got.tgz:345026.got - 2010.06.03 11:33:40.
