data_PCOD9024743
_publ_section_title
;
Structure prediction by ZEFSAII (Michael W. Deem and Ramdas Pophale) SiO2 
 PCOD9024743
Probable space group: P -1
;
_chemical_formula_sum "Si O2"
_cell_formula_units_Z 16
_cell_length_a 11.060857
_cell_length_b 5.026089
_cell_length_c 15.747102
_cell_angle_alpha 92.219670
_cell_angle_beta 118.432468
_cell_angle_gamma 59.346745
_cell_volume 637.724298
_symmetry_space_group_name_H-M "P -1"
_symmetry_group_IT_number 2
_symmetry_cell_setting 'triclinic'
loop_
_space_group_symop_operation_xyz
x,y,z
-x,-y,-z
loop_
_atom_site_type_symbol
_atom_site_label
_atom_site_fract_x
_atom_site_fract_y
_atom_site_fract_z
Si Si1 0.754549 0.865444 0.763977
Si Si2 0.082258 0.533421 0.357812
Si Si3 0.765344 0.237238 0.091109
Si Si4 0.414595 0.486267 0.689332
Si Si5 0.246801 0.354854 0.765563
Si Si6 0.516304 0.716813 0.888943
Si Si7 0.144084 0.964580 0.486676
Si Si8 0.923489 0.213342 0.892556
O O1 0.826188 0.667346 0.698525
O O2 0.805229 0.598696 0.851892
O O3 0.559131 0.139349 0.699083
O O4 0.836465 0.060605 0.814804
O O5 0.146278 0.751985 0.407566
O O6 0.880962 0.748951 0.284857
O O7 0.113156 0.287206 0.440634
O O8 0.826710 0.377711 0.183641
O O9 0.618157 0.241374 0.087199
O O10 0.689733 0.480445 0.988855
O O11 0.910492 0.890447 0.104862
O O12 0.270369 0.470575 0.685708
O O13 0.492087 0.583316 0.791821
O O14 0.319367 0.762616 0.591505
O O15 0.438799 0.089308 0.851542
O O16 0.000000 0.000000 0.500000
O O17 0.000000 0.000000 0.000000
#
# Coordination Sequence:
#
# PCOD9024743 Si02
#       8
#     2   2   2   2   2   2   2   2
#     4  12  28  48  70 104 143 191 236 289 355 425
#     4  12  26  46  76 101 143 185 238 291 358 424
#     4  10  22  40  66 102 134 188 234 292 341 433
#     4  11  27  42  70 101 141 182 234 298 354 416
#     4  11  22  41  70  99 136 186 226 296 352 420
#     4  10  22  41  67 100 141 178 240 286 361 406
#     4  12  26  47  74 111 135 182 241 299 358 420
#     4  12  26  46  71 102 146 193 241 284 349 422
#
# _framework density 25.089209
#
# number of rings (size 3 to 8) (size 9 to 14) (size 15 to 20)
#    0.000    0.750    2.500    4.125    7.000    1.000 
#    0.000    0.000    0.000    0.000    0.000    0.000 
#    0.000    0.000    0.000    0.000    0.000    0.000 
#
# Total GULP energy -89615.525076 kJ/mol
# GULP energy per Si atom -5600.970317 kJ/mol
# Density = 2.503210 g / cm^3
# Si number density = 25.089209 Si / 1000 Ang^3
#
#
#
# Elastic Constant Matrix: (Units=GPa)
#
#
# Indices 1 2 3 4 5 6 
#
# 1 52.0073 12.9750 20.4281 -2.9691 1.7661 -8.6672
# 2 12.9750 93.3017 34.8622 -28.4979 5.8622 -16.3440
# 3 20.4281 34.8622 113.3354 -30.3163 -4.2420 -12.1824
# 4 -2.9691 -28.4979 -30.3163 55.2777 8.6986 -0.3612
# 5 1.7661 5.8622 -4.2420 8.6986 25.8773 -3.9648
# 6 -8.6672 -16.3440 -12.1824 -0.3612 -3.9648 48.1726
#
#
#
# Elastic Compliance Matrix: (Units=1/GPa)
#
#
# Indices 1 2 3 4 5 6 
#
# 1 0.021351 -0.001655 -0.003521 -0.001496 -0.000802 0.002312
# 2 -0.001655 0.015025 -0.002142 0.007378 -0.005531 0.003858
# 3 -0.003521 -0.002142 0.011665 0.004919 0.001249 0.001729
# 4 -0.001496 0.007378 0.004919 0.025953 -0.009038 0.002929
# 5 -0.000802 -0.005531 0.001249 -0.009038 0.043471 0.001805
# 6 0.002312 0.003858 0.001729 0.002929 0.001805 0.023092
#
#
# Mechanical properties :
#
#
# Convention : Reuss Voigt Hill
#
# Bulk Modulus (GPa) = 29.93535 43.90834 36.92184
# Shear Modulus (GPa) = 30.06077 38.55746 34.30911
#
# Velocity S-wave (km/s) = 3.46519 3.92448 3.70196
# Velocity P-wave (km/s) = 5.28844 6.17043 5.74638
#
# Compressibility (1/GPa) = 0.03340533
#
# Stress axis : x y z
#
# Youngs Moduli (GPa) = 46.83579 66.55358 85.72357
#
# Poissons Ratio (x) = 0.11015 0.30184
# Poissons Ratio (y) = 0.07752 0.18364
# Poissons Ratio (z) = 0.16491 0.14257
#
# Static dielectric constant tensor:
#      x y z
#    x 1.977230 -0.010260 -0.034890 
#    y -0.010260 1.995900 -0.039520 
#    z -0.034890 -0.039520 2.047160 
# 
# From -- ./inp_files/100527.got.cif
#   From: 2010.05.17/outbox.cif.g08.bks.cpg/sg2_51_cif.got.tgz:100527.got - 2010.06.03 11:33:40.
