data_PCOD9024759
_publ_section_title
;
Structure prediction by ZEFSAII (Michael W. Deem and Ramdas Pophale) SiO2 
 PCOD9024759
Probable space group: P -1
;
_chemical_formula_sum "Si O2"
_cell_formula_units_Z 16
_cell_length_a 11.947916
_cell_length_b 16.843629
_cell_length_c 8.566390
_cell_angle_alpha 47.500660
_cell_angle_beta 141.235181
_cell_angle_gamma 142.429562
_cell_volume 650.629799
_symmetry_space_group_name_H-M "P -1"
_symmetry_group_IT_number 2
_symmetry_cell_setting 'triclinic'
loop_
_space_group_symop_operation_xyz
x,y,z
-x,-y,-z
loop_
_atom_site_type_symbol
_atom_site_label
_atom_site_fract_x
_atom_site_fract_y
_atom_site_fract_z
Si Si1 0.011990 0.223540 0.887905
Si Si2 0.082843 0.045419 0.856665
Si Si3 0.205197 0.644345 0.475340
Si Si4 0.134967 0.705352 0.973598
Si Si5 0.184771 0.978110 0.667949
Si Si6 0.691204 0.600828 0.727431
Si Si7 0.433995 0.380672 0.968624
Si Si8 0.473860 0.236872 0.817972
O O1 0.177376 0.273023 0.856055
O O2 0.834501 0.252918 0.630355
O O3 0.165107 0.314994 0.076786
O O4 0.907093 0.076366 0.021454
O O5 0.882450 0.036368 0.566698
O O6 0.315695 0.172908 0.882243
O O7 0.000000 0.000000 0.000000
O O8 0.000000 0.500000 0.500000
O O9 0.425732 0.668823 0.745398
O O10 0.196452 0.659343 0.258892
O O11 0.871981 0.612776 0.793869
O O12 0.180393 0.848955 0.862931
O O13 0.269490 0.700666 0.982672
O O14 0.396055 0.112758 0.781159
O O15 0.000000 0.000000 0.500000
O O16 0.520965 0.454352 0.800553
O O17 0.583699 0.671103 0.451140
O O18 0.500000 0.500000 0.000000
#
# Coordination Sequence:
#
# PCOD9024759 Si02
#       8
#     2   2   2   2   2   2   2   2
#     4  10  20  34  52  79 119 145 184 227 284 327
#     4  11  23  41  59  78 113 155 194 237 281 333
#     4  11  18  28  50  89 124 140 175 230 285 332
#     4  11  19  29  52  84 115 144 177 225 285 340
#     4  10  18  35  54  80 111 143 183 236 280 327
#     4  10  17  31  53  87 117 139 177 229 282 343
#     4  10  18  29  50  83 121 147 173 224 291 333
#     4  11  20  34  59  83 111 145 186 234 289 330
#
# _framework density 24.591556000000001
#
# number of rings (size 3 to 8) (size 9 to 14) (size 15 to 20)
#    0.000    1.500    7.500    4.125    0.000    0.000 
#    0.000    0.625    0.000    0.750    0.000    2.625 
#    0.000    0.000    0.000    0.000    0.000    0.000 
#
# Total GULP energy -89381.966267 kJ/mol
# GULP energy per Si atom -5586.372892 kJ/mol
# Density = 2.453558 g / cm^3
# Si number density = 24.591556 Si / 1000 Ang^3
#
#
#
# Elastic Constant Matrix: (Units=GPa)
#
#
# Indices 1 2 3 4 5 6 
#
# 1 114.7138 19.6198 56.9002 0.3924 13.6466 36.8823
# 2 19.6198 81.4939 38.1675 -29.8902 6.4367 9.7972
# 3 56.9002 38.1675 129.6375 -35.9656 15.3242 9.4369
# 4 0.3924 -29.8902 -35.9656 37.4227 -1.6337 -2.2998
# 5 13.6466 6.4367 15.3242 -1.6337 46.8644 4.0608
# 6 36.8823 9.7972 9.4369 -2.2998 4.0608 36.7366
#
#
#
# Elastic Compliance Matrix: (Units=1/GPa)
#
#
# Indices 1 2 3 4 5 6 
#
# 1 0.020157 -0.002752 -0.010384 -0.013514 -0.001045 -0.017566
# 2 -0.002752 0.018557 0.000070 0.014797 -0.001155 -0.001150
# 3 -0.010384 0.000070 0.016559 0.016428 -0.002474 0.007455
# 4 -0.013514 0.014797 0.016428 0.054928 -0.002343 0.009099
# 5 -0.001045 -0.001155 -0.002474 -0.002343 0.022585 -0.000650
# 6 -0.017566 -0.001150 0.007455 0.009099 -0.000650 0.043890
#
#
# Mechanical properties :
#
#
# Convention : Reuss Voigt Hill
#
# Bulk Modulus (GPa) = 34.31684 61.69113 48.00398
# Shear Modulus (GPa) = 23.52705 38.28193 30.90449
#
# Velocity S-wave (km/s) = 3.09643 3.94980 3.54886
# Velocity P-wave (km/s) = 5.17387 6.77805 6.02955
#
# Compressibility (1/GPa) = 0.02914022
#
# Stress axis : x y z
#
# Youngs Moduli (GPa) = 49.61047 53.88684 60.39157
#
# Poissons Ratio (x) = 0.14829 0.62711
# Poissons Ratio (y) = 0.13652 -0.00420
# Poissons Ratio (z) = 0.51516 -0.00375
#
# Static dielectric constant tensor:
#      x y z
#    x 2.677780 -0.165660 -0.177120 
#    y -0.165660 2.116310 0.109510 
#    z -0.177120 0.109510 1.964420 
# 
# From -- ./inp_files/282813.got.cif
#   From: 2010.05.17/outbox.cif.g08.bks.cpg/sg2_142_cif.got.tgz:282813.got - 2010.06.03 11:33:40.
