data_PCOD9024573
_publ_section_title
;
Structure prediction by ZEFSAII (Michael W. Deem and Ramdas Pophale) SiO2 
 PCOD9024573
Probable space group: P -1
;
_chemical_formula_sum "Si O2"
_cell_formula_units_Z 14
_cell_length_a 11.500261
_cell_length_b 12.800197
_cell_length_c 17.160068
_cell_angle_alpha 153.155162
_cell_angle_beta 133.273226
_cell_angle_gamma 66.312702
_cell_volume 639.350599
_symmetry_space_group_name_H-M "P -1"
_symmetry_group_IT_number 2
_symmetry_cell_setting 'triclinic'
loop_
_space_group_symop_operation_xyz
x,y,z
-x,-y,-z
loop_
_atom_site_type_symbol
_atom_site_label
_atom_site_fract_x
_atom_site_fract_y
_atom_site_fract_z
Si Si1 0.617441 0.225900 0.932446
Si Si2 0.816086 0.405928 0.711094
Si Si3 0.839431 0.649149 0.169682
Si Si4 0.814225 0.203383 0.297247
Si Si5 0.995065 0.250788 0.130880
Si Si6 0.626377 0.573321 0.861240
Si Si7 0.259654 0.495223 0.655660
O O1 0.377282 0.940852 0.627337
O O2 0.699698 0.453941 0.049965
O O3 0.668225 0.393493 0.149056
O O4 0.761288 0.129397 0.932939
O O5 0.880189 0.607919 0.798234
O O6 0.734566 0.493845 0.800604
O O7 0.016092 0.436105 0.842792
O O8 0.697793 0.583333 0.987761
O O9 0.000000 0.000000 0.500000
O O10 0.899529 0.473491 0.576261
O O11 0.695682 0.237771 0.199328
O O12 0.011402 0.259524 0.385137
O O13 0.701168 0.899111 0.089608
O O14 0.000000 0.000000 0.000000
O O15 0.378590 0.373769 0.604091
#
# Coordination Sequence:
#
# PCOD9024573 Si02
#       7
#     2   2   2   2   2   2   2
#     4  10  23  43  65  95 127 171 220 263 320 390
#     4  11  26  41  64 100 131 168 218 269 329 383
#     4  11  24  46  69  93 129 172 221 270 320 384
#     4  10  23  42  65  94 131 169 218 266 318 387
#     4  10  23  42  66  93 133 172 215 269 324 381
#     4  12  25  40  67  96 131 171 214 269 323 386
#     4  10  22  40  65  93 126 170 217 260 319 380
#
# _framework density 21.897219
#
# number of rings (size 3 to 8) (size 9 to 14) (size 15 to 20)
#    0.000    1.429    0.000    5.143    8.000    5.714 
#    0.000    0.000    0.000    0.000    0.000    0.000 
#    0.000    0.000    0.000    0.000    0.000    0.000 
#
# Total GULP energy -78332.774140 kJ/mol
# GULP energy per Si atom -5595.198153 kJ/mol
# Density = 2.184738 g / cm^3
# Si number density = 21.897219 Si / 1000 Ang^3
#
#
#
# Elastic Constant Matrix: (Units=GPa)
#
#
# Indices 1 2 3 4 5 6 
#
# 1 115.0971 75.7970 18.3728 -19.1737 -0.9146 -3.3818
# 2 75.7970 156.8867 25.8849 -8.7105 22.1691 7.1337
# 3 18.3728 25.8849 36.6676 -1.0904 11.2912 -6.5530
# 4 -19.1737 -8.7105 -1.0904 24.3230 -3.8314 -0.2082
# 5 -0.9146 22.1691 11.2912 -3.8314 32.9217 1.2841
# 6 -3.3818 7.1337 -6.5530 -0.2082 1.2841 34.1592
#
#
#
# Elastic Compliance Matrix: (Units=1/GPa)
#
#
# Indices 1 2 3 4 5 6 
#
# 1 0.016778 -0.008024 -0.004702 0.011537 0.008740 0.002176
# 2 -0.008024 0.011714 -0.002680 -0.003455 -0.007457 -0.003495
# 3 -0.004702 -0.002680 0.036290 -0.004806 -0.011623 0.007463
# 4 0.011537 -0.003455 -0.004806 0.050357 0.010122 0.000868
# 5 0.008740 -0.007457 -0.011623 0.010122 0.040854 -0.001281
# 6 0.002176 -0.003495 0.007463 0.000868 -0.001281 0.031705
#
#
# Mechanical properties :
#
#
# Convention : Reuss Voigt Hill
#
# Bulk Modulus (GPa) = 29.43696 60.97341 45.20519
# Shear Modulus (GPa) = 21.75502 30.85388 26.30445
#
# Velocity S-wave (km/s) = 3.15541 3.75778 3.46969
# Velocity P-wave (km/s) = 5.17184 6.83620 6.06142
#
# Compressibility (1/GPa) = 0.03397090
#
# Stress axis : x y z
#
# Youngs Moduli (GPa) = 59.60114 85.37136 27.55611
#
# Poissons Ratio (x) = 0.68499 0.12957
# Poissons Ratio (y) = 0.47822 0.07384
# Poissons Ratio (z) = 0.28024 0.22877
#
# Static dielectric constant tensor:
#      x y z
#    x 1.822350 -0.012890 0.025820 
#    y -0.012890 1.765370 0.009090 
#    z 0.025820 0.009090 1.801780 
# 
# From -- ./inp_files/255780.got.cif
#   From: 2010.05.17/outbox.cif.g08.bks.cpg/sg2_128_cif.got.tgz:255780.got - 2010.06.03 11:33:40.
