data_PCOD9024988
_publ_section_title
;
Structure prediction by ZEFSAII (Michael W. Deem and Ramdas Pophale) SiO2 
 PCOD9024988
Probable space group: P -1
;
_chemical_formula_sum "Si O2"
_cell_formula_units_Z 16
_cell_length_a 9.046993
_cell_length_b 20.316677
_cell_length_c 21.567963
_cell_angle_alpha 19.773474
_cell_angle_beta 147.722609
_cell_angle_gamma 150.708113
_cell_volume 648.778339
_symmetry_space_group_name_H-M "P -1"
_symmetry_group_IT_number 2
_symmetry_cell_setting 'triclinic'
loop_
_space_group_symop_operation_xyz
x,y,z
-x,-y,-z
loop_
_atom_site_type_symbol
_atom_site_label
_atom_site_fract_x
_atom_site_fract_y
_atom_site_fract_z
Si Si1 0.735672 0.181121 0.131881
Si Si2 0.160191 0.244344 0.118128
Si Si3 0.130827 0.314520 0.274365
Si Si4 0.141867 0.371564 0.472804
Si Si5 0.837766 0.013709 0.100792
Si Si6 0.182907 0.525439 0.630061
Si Si7 0.049634 0.841265 0.217727
Si Si8 0.792068 0.296201 0.288398
O O1 0.877454 0.124831 0.170493
O O2 0.941348 0.202826 0.245806
O O3 0.394509 0.004772 0.179680
O O4 0.771681 0.426547 0.921094
O O5 0.438248 0.179215 0.287383
O O6 0.230585 0.491857 0.936441
O O7 0.070652 0.224958 0.030923
O O8 0.461847 0.317430 0.387355
O O9 0.926433 0.215170 0.350617
O O10 0.500000 0.500000 0.500000
O O11 0.087444 0.148980 0.684019
O O12 0.955865 0.483349 0.343898
O O13 0.028992 0.345076 0.385587
O O14 0.891892 0.961218 0.096597
O O15 0.500000 0.000000 0.000000
O O16 0.025376 0.646813 0.426236
O O17 0.109205 0.294028 0.779611
#
# Coordination Sequence:
#
# PCOD9024988 Si02
#       8
#     2   2   2   2   2   2   2   2
#     4  10  22  40  66  99 130 172 225 268 332 395
#     4  10  22  41  66  97 133 173 221 274 327 399
#     4  10  22  40  67  96 131 174 220 273 327 399
#     4  11  25  41  66  96 131 177 219 269 336 395
#     4  11  25  42  66  96 134 170 221 276 330 397
#     4  10  24  42  65  93 132 173 218 271 330 395
#     4  10  24  43  65  94 132 172 219 271 332 394
#     4  10  22  41  68  95 133 177 219 270 334 396
#
# _framework density 24.661733999999999
#
# number of rings (size 3 to 8) (size 9 to 14) (size 15 to 20)
#    0.000    1.750    0.000    2.250   10.500    5.500 
#    0.000    0.000    0.000    0.000    0.000    0.000 
#    0.000    0.000    0.000    0.000    0.000    0.000 
#
# Total GULP energy -89409.638965 kJ/mol
# GULP energy per Si atom -5588.102435 kJ/mol
# Density = 2.460560 g / cm^3
# Si number density = 24.661734 Si / 1000 Ang^3
#
#
#
# Elastic Constant Matrix: (Units=GPa)
#
#
# Indices 1 2 3 4 5 6 
#
# 1 153.0766 33.5436 54.2213 12.9854 26.6146 -1.3412
# 2 33.5436 107.3496 32.1502 12.5184 17.9644 4.8837
# 3 54.2213 32.1502 58.3555 11.3507 6.8271 -16.7160
# 4 12.9854 12.5184 11.3507 40.1345 1.9949 -4.4992
# 5 26.6146 17.9644 6.8271 1.9949 41.5630 9.7081
# 6 -1.3412 4.8837 -16.7160 -4.4992 9.7081 35.3697
#
#
#
# Elastic Compliance Matrix: (Units=1/GPa)
#
#
# Indices 1 2 3 4 5 6 
#
# 1 0.011203 0.000971 -0.011309 -0.000923 -0.004791 -0.003857
# 2 0.000971 0.012606 -0.008462 -0.002252 -0.003391 -0.005059
# 3 -0.011309 -0.008462 0.037931 -0.002414 0.000530 0.018214
# 4 -0.000923 -0.002252 -0.002414 0.026880 0.000079 0.002533
# 5 -0.004791 -0.003391 0.000530 0.000079 0.030318 -0.007774
# 6 -0.003857 -0.005059 0.018214 0.002533 -0.007774 0.039889
#
#
# Mechanical properties :
#
#
# Convention : Reuss Voigt Hill
#
# Bulk Modulus (GPa) = 41.42405 62.06798 51.74601
# Shear Modulus (GPa) = 24.45282 36.67120 30.56201
#
# Velocity S-wave (km/s) = 3.15227 3.86031 3.52411
# Velocity P-wave (km/s) = 5.48475 6.71503 6.13083
#
# Compressibility (1/GPa) = 0.02414057
#
# Stress axis : x y z
#
# Youngs Moduli (GPa) = 89.26008 79.32479 26.36347
#
# Poissons Ratio (x) = -0.07704 0.29815
# Poissons Ratio (y) = -0.08669 0.22309
# Poissons Ratio (z) = 1.00946 0.67126
#
# Static dielectric constant tensor:
#      x y z
#    x 1.958010 -0.010800 0.029790 
#    y -0.010800 2.014730 -0.111570 
#    z 0.029790 -0.111570 2.078490 
# 
# From -- ./inp_files/608649.got.cif
#   From: 2010.05.17/outbox.cif.g08.bks.cpg/sg2_305_cif.got.tgz:608649.got - 2010.06.03 11:33:40.
