data_PCOD9024618
_publ_section_title
;
Structure prediction by ZEFSAII (Michael W. Deem and Ramdas Pophale) SiO2 
 PCOD9024618
Probable space group: P -1
;
_chemical_formula_sum "Si O2"
_cell_formula_units_Z 14
_cell_length_a 13.839178
_cell_length_b 13.111174
_cell_length_c 13.758277
_cell_angle_alpha 29.266362
_cell_angle_beta 30.309316
_cell_angle_gamma 36.888028
_cell_volume 604.776443
_symmetry_space_group_name_H-M "P -1"
_symmetry_group_IT_number 2
_symmetry_cell_setting 'triclinic'
loop_
_space_group_symop_operation_xyz
x,y,z
-x,-y,-z
loop_
_atom_site_type_symbol
_atom_site_label
_atom_site_fract_x
_atom_site_fract_y
_atom_site_fract_z
Si Si1 0.578785 0.887327 0.834030
Si Si2 0.171336 0.363324 0.402875
Si Si3 0.931480 0.695119 0.824327
Si Si4 0.841379 0.946974 0.879166
Si Si5 0.896706 0.416445 0.434125
Si Si6 0.791281 0.100671 0.303653
Si Si7 0.452031 0.466337 0.226886
O O1 0.722122 0.759172 0.898017
O O2 0.699973 0.020252 0.549740
O O3 0.500242 0.702746 0.995820
O O4 0.387860 0.044988 0.912451
O O5 0.358298 0.420275 0.244518
O O6 0.000000 0.500000 0.500000
O O7 0.096761 0.434080 0.300368
O O8 0.181994 0.110242 0.610402
O O9 0.913876 0.888998 0.755046
O O10 0.081495 0.621622 0.667473
O O11 0.000000 0.500000 0.000000
O O12 0.006115 0.820685 0.913119
O O13 0.867377 0.182507 0.686002
O O14 0.708121 0.558904 0.528189
O O15 0.637063 0.287818 0.237347
#
# Coordination Sequence:
#
# PCOD9024618 Si02
#       7
#     2   2   2   2   2   2   2
#     4  11  24  42  64  96 123 170 210 252 316 376
#     4   9  18  39  68  89 125 167 203 253 318 367
#     4  12  23  39  63  93 124 164 213 259 308 372
#     4  10  22  42  63  86 128 167 205 257 313 367
#     4   9  20  40  63  88 124 168 203 257 315 363
#     4  11  22  42  67  92 129 164 207 259 311 367
#     4  10  22  40  65  95 126 163 211 257 307 375
#
# _framework density 23.149049999999999
#
# number of rings (size 3 to 8) (size 9 to 14) (size 15 to 20)
#    0.000    1.714    2.857    3.000    2.000    0.571 
#    0.000    2.143    0.000    7.714    0.000    0.000 
#    0.000    0.000    0.000    0.000    0.000    0.000 
#
# Total GULP energy -78029.729123 kJ/mol
# GULP energy per Si atom -5573.552080 kJ/mol
# Density = 2.309636 g / cm^3
# Si number density = 23.149050 Si / 1000 Ang^3
#
#
#
# Elastic Constant Matrix: (Units=GPa)
#
#
# Indices 1 2 3 4 5 6 
#
# 1 109.1503 32.8282 9.7885 -2.3667 -13.2822 -1.5295
# 2 32.8282 135.0135 32.2909 18.2772 -6.0794 0.1751
# 3 9.7885 32.2909 56.0607 18.4037 -2.6044 -9.3818
# 4 -2.3667 18.2772 18.4037 39.9060 -1.8684 0.7610
# 5 -13.2822 -6.0794 -2.6044 -1.8684 26.5623 -3.2638
# 6 -1.5295 0.1751 -9.3818 0.7610 -3.2638 48.9207
#
#
#
# Elastic Compliance Matrix: (Units=1/GPa)
#
#
# Indices 1 2 3 4 5 6 
#
# 1 0.010642 -0.002474 -0.000921 0.002409 0.004890 0.000454
# 2 -0.002474 0.009378 -0.004312 -0.002427 0.000207 -0.000886
# 3 -0.000921 -0.004312 0.024424 -0.009395 0.000886 0.004876
# 4 0.002409 -0.002427 -0.009395 0.030762 0.001635 -0.002087
# 5 0.004890 0.000207 0.000886 0.001635 0.040712 0.003013
# 6 0.000454 -0.000886 0.004876 -0.002087 0.003013 0.021627
#
#
# Mechanical properties :
#
#
# Convention : Reuss Voigt Hill
#
# Bulk Modulus (GPa) = 34.44684 50.00442 42.22563
# Shear Modulus (GPa) = 30.74351 38.09894 34.42122
#
# Velocity S-wave (km/s) = 3.64822 4.06126 3.86027
# Velocity P-wave (km/s) = 5.71479 6.60604 6.17651
#
# Compressibility (1/GPa) = 0.02903024
#
# Stress axis : x y z
#
# Youngs Moduli (GPa) = 93.96757 106.62705 40.94408
#
# Poissons Ratio (x) = 0.26378 0.03771
# Poissons Ratio (y) = 0.23246 0.17655
# Poissons Ratio (z) = 0.08654 0.45978
#
# Static dielectric constant tensor:
#      x y z
#    x 1.882000 -0.020410 -0.021520 
#    y -0.020410 1.946920 0.044070 
#    z -0.021520 0.044070 1.928780 
# 
# From -- ./inp_files/206185.got.cif
#   From: 2010.05.17/outbox.cif.g08.bks.cpg/sg2_104_cif.got.tgz:206185.got - 2010.06.03 11:33:40.
