data_PCOD9024831
_publ_section_title
;
Structure prediction by ZEFSAII (Michael W. Deem and Ramdas Pophale) SiO2 
 PCOD9024831
Probable space group: P -1
;
_chemical_formula_sum "Si O2"
_cell_formula_units_Z 14
_cell_length_a 15.820734
_cell_length_b 7.530339
_cell_length_c 6.865108
_cell_angle_alpha 67.422106
_cell_angle_beta 52.082390
_cell_angle_gamma 54.922424
_cell_volume 527.431367
_symmetry_space_group_name_H-M "P -1"
_symmetry_group_IT_number 2
_symmetry_cell_setting 'triclinic'
loop_
_space_group_symop_operation_xyz
x,y,z
-x,-y,-z
loop_
_atom_site_type_symbol
_atom_site_label
_atom_site_fract_x
_atom_site_fract_y
_atom_site_fract_z
Si Si1 0.582896 0.739801 0.233524
Si Si2 0.991601 0.740873 0.909859
Si Si3 0.932075 0.381431 0.537412
Si Si4 0.400568 0.863451 0.122430
Si Si5 0.230188 0.159710 0.576303
Si Si6 0.198337 0.670815 0.910738
Si Si7 0.385557 0.804055 0.757004
O O1 0.509771 0.701455 0.172192
O O2 0.725397 0.591240 0.089319
O O3 0.521307 0.709424 0.527159
O O4 0.554226 0.984741 0.122164
O O5 0.981714 0.784008 0.676754
O O6 0.112144 0.739904 0.818826
O O7 0.000000 0.500000 0.000000
O O8 0.884896 0.861929 0.164782
O O9 0.817948 0.586921 0.511501
O O10 0.000000 0.500000 0.500000
O O11 0.886315 0.268416 0.806397
O O12 0.293251 0.019264 0.353491
O O13 0.366022 0.767140 0.024847
O O14 0.324296 0.057133 0.664012
O O15 0.307897 0.724925 0.765106
#
# Coordination Sequence:
#
# PCOD9024831 Si02
#       7
#     2   2   2   2   2   2   2
#     4  10  23  42  65  93 130 170 224 257 309 394
#     4  10  23  40  67  96 126 167 213 265 313 384
#     4  11  22  40  65  97 121 169 220 255 310 385
#     4  10  22  42  67  95 128 172 216 263 317 375
#     4  10  22  40  66  92 131 165 212 262 312 393
#     4  12  24  42  67  97 131 169 214 266 323 373
#     4  11  26  40  65  99 133 168 208 271 329 366
#
# _framework density 26.543737
#
# number of rings (size 3 to 8) (size 9 to 14) (size 15 to 20)
#    0.000    1.429    4.286    0.857    6.000    4.571 
#    0.000    1.429    0.000    0.000    0.000    0.000 
#    0.000    0.000    0.000    0.000    0.000    0.000 
#
# Total GULP energy -78279.214458 kJ/mol
# GULP energy per Si atom -5591.372461 kJ/mol
# Density = 2.648332 g / cm^3
# Si number density = 26.543737 Si / 1000 Ang^3
#
#
#
# Elastic Constant Matrix: (Units=GPa)
#
#
# Indices 1 2 3 4 5 6 
#
# 1 101.1973 5.2454 42.4276 20.2228 5.5452 3.2198
# 2 5.2454 42.0306 6.8745 7.6223 4.0420 3.5613
# 3 42.4276 6.8745 187.3156 19.9958 8.6512 8.9391
# 4 20.2228 7.6223 19.9958 43.7982 5.1377 -5.0091
# 5 5.5452 4.0420 8.6512 5.1377 44.4870 -5.4200
# 6 3.2198 3.5613 8.9391 -5.0091 -5.4200 41.8826
#
#
#
# Elastic Compliance Matrix: (Units=1/GPa)
#
#
# Indices 1 2 3 4 5 6 
#
# 1 0.011732 -0.000157 -0.002093 -0.004479 -0.000653 -0.001062
# 2 -0.000157 0.025062 -0.000195 -0.004284 -0.002073 -0.002858
# 3 -0.002093 -0.000195 0.006129 -0.001863 -0.000877 -0.001467
# 4 -0.004479 -0.004284 -0.001863 0.027128 -0.001314 0.004181
# 5 -0.000653 -0.002073 -0.000877 -0.001314 0.023472 0.003294
# 6 -0.001062 -0.002858 -0.001467 0.004181 0.003294 0.025440
#
#
# Mechanical properties :
#
#
# Convention : Reuss Voigt Hill
#
# Bulk Modulus (GPa) = 26.29176 48.84870 37.57023
# Shear Modulus (GPa) = 36.62196 44.43329 40.52762
#
# Velocity S-wave (km/s) = 3.71844 4.09585 3.91170
# Velocity P-wave (km/s) = 5.32563 6.38835 5.88104
#
# Compressibility (1/GPa) = 0.03803474
#
# Stress axis : x y z
#
# Youngs Moduli (GPa) = 85.23845 39.90092 163.15646
#
# Poissons Ratio (x) = 0.00625 0.34141
# Poissons Ratio (y) = 0.01336 0.03179
# Poissons Ratio (z) = 0.17836 0.00777
#
# Static dielectric constant tensor:
#      x y z
#    x 2.133650 0.028620 0.049830 
#    y 0.028620 2.327190 0.024370 
#    z 0.049830 0.024370 2.072650 
# 
# From -- ./inp_files/90256.got.cif
#   From: 2010.05.17/outbox.cif.g08.bks.cpg/sg2_46_cif.got.tgz:90256.got - 2010.06.03 11:33:40.
