data_PCOD9024900
_publ_section_title
;
Structure prediction by ZEFSAII (Michael W. Deem and Ramdas Pophale) SiO2 
 PCOD9024900
Probable space group: P -1
;
_chemical_formula_sum "Si O2"
_cell_formula_units_Z 12
_cell_length_a 7.987376
_cell_length_b 9.358798
_cell_length_c 8.366541
_cell_angle_alpha 116.158581
_cell_angle_beta 84.296640
_cell_angle_gamma 80.690980
_cell_volume 543.584432
_symmetry_space_group_name_H-M "P -1"
_symmetry_group_IT_number 2
_symmetry_cell_setting 'triclinic'
loop_
_space_group_symop_operation_xyz
x,y,z
-x,-y,-z
loop_
_atom_site_type_symbol
_atom_site_label
_atom_site_fract_x
_atom_site_fract_y
_atom_site_fract_z
Si Si1 0.397000 0.334756 0.982843
Si Si2 0.107231 0.991037 0.214261
Si Si3 0.921050 0.343634 0.429271
Si Si4 0.273784 0.003760 0.874643
Si Si5 0.272294 0.676266 0.237952
Si Si6 0.408433 0.653683 0.693353
O O1 0.256247 0.507026 0.069272
O O2 0.499485 0.355076 0.148023
O O3 0.330327 0.170987 0.923985
O O4 0.529557 0.320334 0.816386
O O5 0.168312 0.848741 0.264616
O O6 0.917168 0.977117 0.169432
O O7 0.071987 0.181688 0.355447
O O8 0.245229 0.970614 0.048013
O O9 0.792444 0.340530 0.586857
O O10 0.797357 0.344117 0.286885
O O11 0.000000 0.500000 0.500000
O O12 0.402905 0.837652 0.718939
O O13 0.500000 0.500000 0.500000
#
# Coordination Sequence:
#
# PCOD9024900 Si02
#       6
#     2   2   2   2   2   2
#     4  11  23  42  67  92 129 169 208 262 319 369
#     4  10  22  40  66  95 130 161 218 258 305 384
#     4  11  24  43  65  93 128 171 209 261 320 372
#     4  10  22  42  67  95 123 173 210 254 320 375
#     4  11  23  41  62  96 129 162 215 265 307 375
#     4  11  22  41  66  94 126 164 217 255 307 388
#
# _framework density 22.075688
#
# number of rings (size 3 to 8) (size 9 to 14) (size 15 to 20)
#    0.000    1.333    3.333    2.000    0.000    0.667 
#    6.000    3.333    0.000    0.000    0.000    0.000 
#    0.000    0.000    0.000    0.000    0.000    0.000 
#
# Total GULP energy -66980.870471 kJ/mol
# GULP energy per Si atom -5581.739206 kJ/mol
# Density = 2.202544 g / cm^3
# Si number density = 22.075688 Si / 1000 Ang^3
#
#
#
# Elastic Constant Matrix: (Units=GPa)
#
#
# Indices 1 2 3 4 5 6 
#
# 1 34.0146 57.3501 23.7981 20.4604 1.2943 13.6644
# 2 57.3501 192.5294 57.5646 46.7545 4.3424 21.4266
# 3 23.7981 57.5646 95.7082 29.6676 -21.2362 14.9756
# 4 20.4604 46.7545 29.6676 48.3921 3.5311 -6.7007
# 5 1.2943 4.3424 -21.2362 3.5311 28.3901 15.1152
# 6 13.6644 21.4266 14.9756 -6.7007 15.1152 44.4074
#
#
#
# Elastic Compliance Matrix: (Units=1/GPa)
#
#
# Indices 1 2 3 4 5 6 
#
# 1 0.085087 -0.017131 0.015209 -0.037112 0.036620 -0.041109
# 2 -0.017131 0.011443 -0.004312 -0.000309 -0.005829 0.003142
# 3 0.015209 -0.004312 0.037961 -0.034804 0.053355 -0.038813
# 4 -0.037112 -0.000309 -0.034804 0.070175 -0.062372 0.055124
# 5 0.036620 -0.005829 0.053355 -0.062372 0.123606 -0.077932
# 6 -0.041109 0.003142 -0.038813 0.055124 -0.077932 0.081585
#
#
# Mechanical properties :
#
#
# Convention : Reuss Voigt Hill
#
# Bulk Modulus (GPa) = 8.19529 66.63087 37.41308
# Shear Modulus (GPa) = 10.79912 36.47386 23.63649
#
# Velocity S-wave (km/s) = 2.21415 4.06916 3.27571
# Velocity P-wave (km/s) = 3.20266 7.23366 5.59388
#
# Compressibility (1/GPa) = 0.12202126
#
# Stress axis : x y z
#
# Youngs Moduli (GPa) = 11.75267 87.38912 26.34307
#
# Poissons Ratio (x) = 1.49708 -0.40064
# Poissons Ratio (y) = 0.20134 0.11359
# Poissons Ratio (z) = -0.17874 0.37683
#
# Static dielectric constant tensor:
#      x y z
#    x 1.835230 -0.062800 0.007470 
#    y -0.062800 1.836280 0.030850 
#    z 0.007470 0.030850 1.896310 
# 
# From -- ./inp_files/148189.got.cif
#   From: 2010.05.17/outbox.cif.g08.bks.cpg/sg2_75_cif.got.tgz:148189.got - 2010.06.03 11:33:40.
