data_PCOD9024770
_publ_section_title
;
Structure prediction by ZEFSAII (Michael W. Deem and Ramdas Pophale) SiO2 
 PCOD9024770
Probable space group: P -1
;
_chemical_formula_sum "Si O2"
_cell_formula_units_Z 16
_cell_length_a 14.629400
_cell_length_b 12.173234
_cell_length_c 9.339979
_cell_angle_alpha 49.793029
_cell_angle_beta 134.033570
_cell_angle_gamma 140.156710
_cell_volume 743.212035
_symmetry_space_group_name_H-M "P -1"
_symmetry_group_IT_number 2
_symmetry_cell_setting 'triclinic'
loop_
_space_group_symop_operation_xyz
x,y,z
-x,-y,-z
loop_
_atom_site_type_symbol
_atom_site_label
_atom_site_fract_x
_atom_site_fract_y
_atom_site_fract_z
Si Si1 0.668823 0.697381 0.387377
Si Si2 0.158493 0.966254 0.880018
Si Si3 0.745900 0.926397 0.782358
Si Si4 0.655407 0.175423 0.452158
Si Si5 0.640809 0.159328 0.927359
Si Si6 0.402796 0.655631 0.528174
Si Si7 0.820541 0.742795 0.808087
Si Si8 0.349648 0.640795 0.988948
O O1 0.656832 0.534737 0.435090
O O2 0.693433 0.694870 0.586153
O O3 0.514065 0.685793 0.187406
O O4 0.810422 0.883605 0.321480
O O5 0.978684 0.811166 0.839694
O O6 0.254210 0.892904 0.986801
O O7 0.222318 0.056549 0.029033
O O8 0.569840 0.752469 0.707102
O O9 0.846546 0.893307 0.815355
O O10 0.761065 0.104524 0.606192
O O11 0.707244 0.329901 0.492935
O O12 0.500000 0.000000 0.500000
O O13 0.624182 0.239366 0.218471
O O14 0.574373 0.220237 0.682645
O O15 0.727610 0.317216 0.003509
O O16 0.500000 0.000000 0.000000
O O17 0.758134 0.567830 0.978974
#
# Coordination Sequence:
#
# PCOD9024770 Si02
#       8
#     2   2   2   2   2   2   2   2
#     4  12  24  45  69 101 134 180 229 287 330 395
#     4  12  28  45  69  98 142 185 222 275 348 409
#     4  11  23  44  70  96 139 176 222 279 338 407
#     4  10  22  40  66 106 135 170 223 287 337 388
#     4  12  23  42  70 102 132 177 231 285 336 397
#     4  11  22  41  70 102 135 166 233 294 327 391
#     4  12  27  47  65 102 143 182 224 274 344 412
#     4  12  24  42  73 102 131 180 231 282 338 394
#
# _framework density 21.528176999999999
#
# number of rings (size 3 to 8) (size 9 to 14) (size 15 to 20)
#    0.000    0.500    5.000    4.875    3.500    1.500 
#    0.000    0.625    0.000    0.000    0.000    0.000 
#    0.000    0.000    0.000    0.000    0.000    0.000 
#
# Total GULP energy -89475.707078 kJ/mol
# GULP energy per Si atom -5592.231692 kJ/mol
# Density = 2.147918 g / cm^3
# Si number density = 21.528177 Si / 1000 Ang^3
#
#
#
# Elastic Constant Matrix: (Units=GPa)
#
#
# Indices 1 2 3 4 5 6 
#
# 1 125.9660 36.4288 19.8146 -8.4391 4.1537 -29.4021
# 2 36.4288 60.3245 26.5613 -14.7700 5.2810 -17.5353
# 3 19.8146 26.5613 95.2788 -16.0049 -24.6623 -9.7015
# 4 -8.4391 -14.7700 -16.0049 28.1073 -7.6803 -5.0469
# 5 4.1537 5.2810 -24.6623 -7.6803 29.2079 0.1991
# 6 -29.4021 -17.5353 -9.7015 -5.0469 0.1991 53.0112
#
#
#
# Elastic Compliance Matrix: (Units=1/GPa)
#
#
# Indices 1 2 3 4 5 6 
#
# 1 0.010419 -0.004482 -0.000550 0.000983 -0.000906 0.004293
# 2 -0.004482 0.026418 -0.006499 0.007804 -0.007614 0.005835
# 3 -0.000550 -0.006499 0.021341 0.015453 0.023317 0.002835
# 4 0.000983 0.007804 0.015453 0.058114 0.026701 0.011387
# 5 -0.000906 -0.007614 0.023317 0.026701 0.062428 0.003554
# 6 0.004293 0.005835 0.002835 0.011387 0.003554 0.024765
#
#
# Mechanical properties :
#
#
# Convention : Reuss Voigt Hill
#
# Bulk Modulus (GPa) = 28.47513 49.68652 39.08083
# Shear Modulus (GPa) = 20.98628 35.31626 28.15127
#
# Velocity S-wave (km/s) = 3.12561 4.05466 3.62006
# Velocity P-wave (km/s) = 5.12655 6.71195 5.97209
#
# Compressibility (1/GPa) = 0.03511836
#
# Stress axis : x y z
#
# Youngs Moduli (GPa) = 95.97874 37.85253 46.85752
#
# Poissons Ratio (x) = 0.16965 0.02575
# Poissons Ratio (y) = 0.43017 0.30451
# Poissons Ratio (z) = 0.05275 0.24599
#
# Static dielectric constant tensor:
#      x y z
#    x 1.849270 -0.022300 0.028140 
#    y -0.022300 1.806500 0.018000 
#    z 0.028140 0.018000 1.779730 
# 
# From -- ./inp_files/306603.got.cif
#   From: 2010.05.17/outbox.cif.g08.bks.cpg/sg2_154_cif.got.tgz:306603.got - 2010.06.03 11:33:40.
