data_PCOD9024832
_publ_section_title
;
Structure prediction by ZEFSAII (Michael W. Deem and Ramdas Pophale) SiO2 
 PCOD9024832
Probable space group: P -1
;
_chemical_formula_sum "Si O2"
_cell_formula_units_Z 16
_cell_length_a 11.847953
_cell_length_b 20.894692
_cell_length_c 8.504909
_cell_angle_alpha 32.614170
_cell_angle_beta 129.501845
_cell_angle_gamma 139.274630
_cell_volume 740.369751
_symmetry_space_group_name_H-M "P -1"
_symmetry_group_IT_number 2
_symmetry_cell_setting 'triclinic'
loop_
_space_group_symop_operation_xyz
x,y,z
-x,-y,-z
loop_
_atom_site_type_symbol
_atom_site_label
_atom_site_fract_x
_atom_site_fract_y
_atom_site_fract_z
Si Si1 0.367857 0.517344 0.241347
Si Si2 0.026228 0.411975 0.370339
Si Si3 0.620364 0.808991 0.704468
Si Si4 0.886700 0.294610 0.178242
Si Si5 0.701722 0.925177 0.207871
Si Si6 0.053364 0.202830 0.045279
Si Si7 0.435848 0.955814 0.710995
Si Si8 0.835688 0.748281 0.594854
O O1 0.500000 0.500000 0.500000
O O2 0.203813 0.476164 0.292608
O O3 0.305195 0.405680 0.274566
O O4 0.466874 0.672877 0.936007
O O5 0.876052 0.311914 0.320242
O O6 0.034500 0.322915 0.701415
O O7 0.014176 0.545008 0.128020
O O8 0.597731 0.814872 0.484170
O O9 0.796079 0.808845 0.881265
O O10 0.633005 0.947752 0.491585
O O11 0.716537 0.205751 0.109422
O O12 0.993939 0.219632 0.412492
O O13 0.767581 0.851968 0.298667
O O14 0.583783 0.970126 0.925488
O O15 0.871898 0.056561 0.165552
O O16 0.111910 0.239281 0.201910
O O17 0.500000 0.000000 0.500000
#
# Coordination Sequence:
#
# PCOD9024832 Si02
#       8
#     2   2   2   2   2   2   2   2
#     4  11  23  42  65  96 129 165 216 267 320 382
#     4  10  22  40  66  92 131 170 209 272 320 374
#     4  11  24  43  66  91 133 171 208 272 323 377
#     4  10  22  42  61  92 131 167 216 262 318 387
#     4  11  25  42  66  96 133 169 217 267 318 385
#     4  11  22  43  67  93 128 172 216 263 322 386
#     4  12  25  39  66  98 129 172 219 266 318 385
#     4  10  24  41  66  92 126 171 213 263 320 389
#
# _framework density 21.610821999999999
#
# number of rings (size 3 to 8) (size 9 to 14) (size 15 to 20)
#    0.000    1.250    1.250    4.875    3.500    5.500 
#    0.000    3.125    0.000    0.000    0.000    0.000 
#    0.000    0.000    0.000    0.000    0.000    0.000 
#
# Total GULP energy -89423.042045 kJ/mol
# GULP energy per Si atom -5588.940128 kJ/mol
# Density = 2.156164 g / cm^3
# Si number density = 21.610822 Si / 1000 Ang^3
#
#
#
# Elastic Constant Matrix: (Units=GPa)
#
#
# Indices 1 2 3 4 5 6 
#
# 1 45.7780 15.7413 -6.9682 -10.2917 8.9736 -2.8277
# 2 15.7413 132.2639 24.2940 -5.8829 9.3667 0.1622
# 3 -6.9682 24.2940 79.3770 -2.5789 3.3062 1.7871
# 4 -10.2917 -5.8829 -2.5789 33.2756 2.4159 6.9366
# 5 8.9736 9.3667 3.3062 2.4159 32.8805 -7.3554
# 6 -2.8277 0.1622 1.7871 6.9366 -7.3554 22.6223
#
#
#
# Elastic Compliance Matrix: (Units=1/GPa)
#
#
# Indices 1 2 3 4 5 6 
#
# 1 0.026982 -0.002950 0.003964 0.009220 -0.008134 -0.002391
# 2 -0.002950 0.008568 -0.002769 0.000705 -0.001622 -0.000955
# 3 0.003964 -0.002769 0.014018 0.002432 -0.002351 -0.002102
# 4 0.009220 0.000705 0.002432 0.036556 -0.008564 -0.013038
# 5 -0.008134 -0.001622 -0.002351 -0.008564 0.037061 0.013856
# 6 -0.002391 -0.000955 -0.002102 -0.013038 0.013856 0.052581
#
#
# Mechanical properties :
#
#
# Convention : Reuss Voigt Hill
#
# Bulk Modulus (GPa) = 21.71259 35.95033 28.83146
# Shear Modulus (GPa) = 25.68982 32.71247 29.20114
#
# Velocity S-wave (km/s) = 3.45156 3.89486 3.67989
# Velocity P-wave (km/s) = 5.09444 6.07438 5.60586
#
# Compressibility (1/GPa) = 0.04605623
#
# Stress axis : x y z
#
# Youngs Moduli (GPa) = 37.06180 116.71578 71.33736
#
# Poissons Ratio (x) = 0.34434 -0.28277
# Poissons Ratio (y) = 0.10934 0.19755
# Poissons Ratio (z) = -0.14690 0.32322
#
# Static dielectric constant tensor:
#      x y z
#    x 1.848260 0.015910 0.003510 
#    y 0.015910 1.799710 -0.019460 
#    z 0.003510 -0.019460 1.768870 
# 
# From -- ./inp_files/282652.got.cif
#   From: 2010.05.17/outbox.cif.g08.bks.cpg/sg2_142_cif.got.tgz:282652.got - 2010.06.03 11:33:40.
