data_PCOD9024691
_publ_section_title
;
Structure prediction by ZEFSAII (Michael W. Deem and Ramdas Pophale) SiO2 
 PCOD9024691
Probable space group: P -1
;
_chemical_formula_sum "Si O2"
_cell_formula_units_Z 10
_cell_length_a 11.582148
_cell_length_b 8.110672
_cell_length_c 14.588543
_cell_angle_alpha 43.639789
_cell_angle_beta 150.410988
_cell_angle_gamma 144.447546
_cell_volume 392.830080
_symmetry_space_group_name_H-M "P -1"
_symmetry_group_IT_number 2
_symmetry_cell_setting 'triclinic'
loop_
_space_group_symop_operation_xyz
x,y,z
-x,-y,-z
loop_
_atom_site_type_symbol
_atom_site_label
_atom_site_fract_x
_atom_site_fract_y
_atom_site_fract_z
Si Si1 0.824766 0.630753 0.862913
Si Si2 0.797234 0.790866 0.589465
Si Si3 0.280761 0.707995 0.713478
Si Si4 0.724797 0.282320 0.097563
Si Si5 0.634928 0.308246 0.424289
O O1 0.903492 0.854748 0.743805
O O2 0.497763 0.529103 0.686508
O O3 0.854004 0.579182 0.011879
O O4 0.000000 0.500000 0.000000
O O5 0.500000 0.500000 0.500000
O O6 0.017753 0.757948 0.698809
O O7 0.742763 0.020763 0.422136
O O8 0.404751 0.720578 0.893044
O O9 0.422151 0.704017 0.719139
O O10 0.961862 0.451649 0.600086
O O11 0.500000 0.000000 0.000000
O O12 0.500000 0.000000 0.500000
#
# Coordination Sequence:
#
# PCOD9024691 Si02
#       5
#     2   2   2   2   2
#     4  10  22  40  65  98 140 180 228 295 352 406
#     4  11  21  40  70  99 137 188 243 289 345 424
#     4  11  24  41  74 102 135 196 241 283 358 431
#     4  11  23  40  64 105 146 174 233 304 357 414
#     4  11  23  46  72  99 145 190 240 291 347 436
#
# _framework density 25.456298
#
# number of rings (size 3 to 8) (size 9 to 14) (size 15 to 20)
#    0.000    1.200    2.000    4.200    0.000    0.800 
#    0.000    1.000    0.000    0.000    0.000    0.000 
#    0.000    0.000    0.000    0.000    0.000    0.000 
#
# Total GULP energy -55701.385624 kJ/mol
# GULP energy per Si atom -5570.138562 kJ/mol
# Density = 2.539836 g / cm^3
# Si number density = 25.456298 Si / 1000 Ang^3
#
#
#
# Elastic Constant Matrix: (Units=GPa)
#
#
# Indices 1 2 3 4 5 6 
#
# 1 196.7250 19.5794 48.8581 0.2535 -23.4027 19.5470
# 2 19.5794 114.4222 18.9942 0.6511 -0.4993 18.6910
# 3 48.8581 18.9942 77.3091 -3.4050 3.7777 0.9679
# 4 0.2535 0.6511 -3.4050 37.1606 19.6350 -7.4253
# 5 -23.4027 -0.4993 3.7777 19.6350 78.4363 -9.6866
# 6 19.5470 18.6910 0.9679 -7.4253 -9.6866 27.8004
#
#
#
# Elastic Compliance Matrix: (Units=1/GPa)
#
#
# Indices 1 2 3 4 5 6 
#
# 1 0.006984 0.000414 -0.004690 -0.002730 0.002388 -0.004922
# 2 0.000414 0.010411 -0.002799 -0.001909 -0.000155 -0.007757
# 3 -0.004690 -0.002799 0.016831 0.003961 -0.002635 0.004733
# 4 -0.002730 -0.001909 0.003961 0.033526 -0.008282 0.009134
# 5 0.002388 -0.000155 -0.002635 -0.008282 0.015888 0.001841
# 6 -0.004922 -0.007757 0.004733 0.009134 0.001841 0.047563
#
#
# Mechanical properties :
#
#
# Convention : Reuss Voigt Hill
#
# Bulk Modulus (GPa) = 49.81482 62.59110 56.20296
# Shear Modulus (GPa) = 32.88492 48.74778 40.81635
#
# Velocity S-wave (km/s) = 3.59809 4.38077 4.00858
# Velocity P-wave (km/s) = 6.07230 7.08726 6.59932
#
# Compressibility (1/GPa) = 0.02007435
#
# Stress axis : x y z
#
# Youngs Moduli (GPa) = 143.19196 96.05558 59.41440
#
# Poissons Ratio (x) = -0.03973 0.27868
# Poissons Ratio (y) = -0.05923 0.16628
# Poissons Ratio (z) = 0.67163 0.26882
#
# Static dielectric constant tensor:
#      x y z
#    x 2.069880 -0.048160 -0.105710 
#    y -0.048160 1.958980 0.074070 
#    z -0.105710 0.074070 2.020640 
# 
# From -- ./inp_files/29270.got.cif
#   From: 2010.05.17/outbox.cif.g08.bks.cpg/sg2_15_cif.got.tgz:29270.got - 2010.06.03 11:33:40.
