data_PCOD9024261
_publ_section_title
;
Structure prediction by ZEFSAII (Michael W. Deem and Ramdas Pophale) SiO2 
 PCOD9024261
Probable space group: P -1
;
_chemical_formula_sum "Si O2"
_cell_formula_units_Z 10
_cell_length_a 7.167388
_cell_length_b 7.303677
_cell_length_c 9.283779
_cell_angle_alpha 110.334643
_cell_angle_beta 81.686105
_cell_angle_gamma 59.935891
_cell_volume 362.712391
_symmetry_space_group_name_H-M "P -1"
_symmetry_group_IT_number 2
_symmetry_cell_setting 'triclinic'
loop_
_space_group_symop_operation_xyz
x,y,z
-x,-y,-z
loop_
_atom_site_type_symbol
_atom_site_label
_atom_site_fract_x
_atom_site_fract_y
_atom_site_fract_z
Si Si1 0.983206 0.759321 0.813415
Si Si2 0.504719 0.410715 0.248907
Si Si3 0.916933 0.129636 0.701442
Si Si4 0.622602 0.725259 0.373621
Si Si5 0.684082 0.910970 0.165079
O O1 0.213054 0.732796 0.850824
O O2 0.115368 0.485649 0.664302
O O3 0.880778 0.960173 0.757633
O O4 0.799472 0.819419 0.971972
O O5 0.304773 0.588394 0.207090
O O6 0.479381 0.622105 0.407720
O O7 0.488470 0.201603 0.252109
O O8 0.000000 0.000000 0.500000
O O9 0.120810 0.121247 0.757787
O O10 0.500000 0.000000 0.500000
O O11 0.622502 0.747330 0.205081
#
# Coordination Sequence:
#
# PCOD9024261 Si02
#       5
#     2   2   2   2   2
#     4   9  23  41  64  89 128 160 206 250 311 362
#     4   9  22  39  63  88 126 154 212 244 308 355
#     4  11  22  38  65  96 122 161 208 253 307 364
#     4  10  22  40  64  88 127 165 202 250 310 363
#     4  11  22  43  66  89 125 167 199 256 309 362
#
# _framework density 27.570053999999999
#
# number of rings (size 3 to 8) (size 9 to 14) (size 15 to 20)
#    1.200    0.800    0.000    4.200    2.800    5.600 
#    3.600    3.000    0.000    0.000    0.000    0.000 
#    0.000    0.000    0.000    0.000    0.000    0.000 
#
# Total GULP energy -55850.181218 kJ/mol
# GULP energy per Si atom -5585.018122 kJ/mol
# Density = 2.750730 g / cm^3
# Si number density = 27.570054 Si / 1000 Ang^3
#
#
#
# Elastic Constant Matrix: (Units=GPa)
#
#
# Indices 1 2 3 4 5 6 
#
# 1 70.0014 56.2777 14.9832 -8.1328 6.9496 -7.7902
# 2 56.2777 281.1262 22.7222 -4.9317 -10.8078 -9.8592
# 3 14.9832 22.7222 80.8020 -20.7349 3.8976 -10.8209
# 4 -8.1328 -4.9317 -20.7349 51.4715 11.7196 -9.4995
# 5 6.9496 -10.8078 3.8976 11.7196 30.9009 2.3934
# 6 -7.7902 -9.8592 -10.8209 -9.4995 2.3934 56.5642
#
#
#
# Elastic Compliance Matrix: (Units=1/GPa)
#
#
# Indices 1 2 3 4 5 6 
#
# 1 0.019172 -0.003906 -0.000463 0.004765 -0.007659 0.002995
# 2 -0.003906 0.004513 -0.001103 -0.001409 0.003157 -0.000333
# 3 -0.000463 -0.001103 0.015767 0.008295 -0.005757 0.004397
# 4 0.004765 -0.001409 0.008295 0.027855 -0.013737 0.007257
# 5 -0.007659 0.003157 -0.005757 -0.013737 0.041564 -0.005672
# 6 0.002995 -0.000333 0.004397 0.007257 -0.005672 0.020333
#
#
# Mechanical properties :
#
#
# Convention : Reuss Voigt Hill
#
# Bulk Modulus (GPa) = 35.07905 68.87733 51.97819
# Shear Modulus (GPa) = 33.41058 50.31709 41.86384
#
# Velocity S-wave (km/s) = 3.48493 4.27671 3.90096
# Velocity P-wave (km/s) = 5.37998 7.03021 6.25972
#
# Compressibility (1/GPa) = 0.02850705
#
# Stress axis : x y z
#
# Youngs Moduli (GPa) = 52.15806 221.56876 63.42255
#
# Poissons Ratio (x) = 0.86554 0.02938
# Poissons Ratio (y) = 0.20375 0.06997
# Poissons Ratio (z) = 0.02416 0.24445
#
# Static dielectric constant tensor:
#      x y z
#    x 2.340970 0.013260 0.035710 
#    y 0.013260 2.169970 0.019980 
#    z 0.035710 0.019980 2.308270 
# 
# From -- ./inp_files/18098.got.cif
#   From: 2010.05.17/outbox.cif.g08.bks.cpg/sg2_10_cif.got.tgz:18098.got - 2010.06.03 11:33:40.
