data_PCOD9024697
_publ_section_title
;
Structure prediction by ZEFSAII (Michael W. Deem and Ramdas Pophale) SiO2 
 PCOD9024697
Probable space group: P -1
;
_chemical_formula_sum "Si O2"
_cell_formula_units_Z 16
_cell_length_a 25.566620
_cell_length_b 9.033176
_cell_length_c 5.711499
_cell_angle_alpha 105.628877
_cell_angle_beta 76.860496
_cell_angle_gamma 143.379424
_cell_volume 757.602299
_symmetry_space_group_name_H-M "P -1"
_symmetry_group_IT_number 2
_symmetry_cell_setting 'triclinic'
loop_
_space_group_symop_operation_xyz
x,y,z
-x,-y,-z
loop_
_atom_site_type_symbol
_atom_site_label
_atom_site_fract_x
_atom_site_fract_y
_atom_site_fract_z
Si Si1 0.215497 0.490663 0.384883
Si Si2 0.240216 0.927909 0.878443
Si Si3 0.856527 0.150316 0.440300
Si Si4 0.985988 0.602826 0.868460
Si Si5 0.282195 0.299388 0.288541
Si Si6 0.548020 0.502440 0.760275
Si Si7 0.625061 0.906869 0.492691
Si Si8 0.144453 0.434993 0.938319
O O1 0.257718 0.417717 0.318285
O O2 0.164262 0.399239 0.649363
O O3 0.299311 0.796138 0.425830
O O4 0.160695 0.389048 0.153798
O O5 0.334482 0.111741 0.754705
O O6 0.170289 0.774158 0.675695
O O7 0.215937 0.735867 0.991944
O O8 0.235576 0.084426 0.056794
O O9 0.913970 0.363863 0.669237
O O10 0.922132 0.177558 0.266518
O O11 0.767402 0.869057 0.497253
O O12 0.947454 0.679062 0.020533
O O13 0.000000 0.500000 0.000000
O O14 0.383786 0.479786 0.245700
O O15 0.606873 0.758909 0.669122
O O16 0.470050 0.257541 0.573317
O O17 0.500000 0.500000 0.000000
#
# Coordination Sequence:
#
# PCOD9024697 Si02
#       8
#     2   2   2   2   2   2   2   2
#     4  11  28  43  69  95 146 184 214 268 345 410
#     4  11  20  39  72  91 134 171 232 278 315 402
#     4  11  22  37  66 102 130 168 227 282 335 376
#     4  11  21  37  69 104 126 166 231 293 323 384
#     4  12  24  42  65  97 136 179 222 270 338 407
#     4  11  22  39  69  98 125 170 230 287 322 387
#     4  10  22  40  65  99 129 173 224 277 335 386
#     4  11  23  45  67 102 130 180 226 272 331 397
#
# _framework density 21.119257999999999
#
# number of rings (size 3 to 8) (size 9 to 14) (size 15 to 20)
#    0.000    1.000    5.000    2.250    5.250    0.500 
#    0.000    1.875    0.000    0.000    0.000    0.000 
#    0.000    0.000    0.000    0.000    0.000    0.000 
#
# Total GULP energy -89214.906744 kJ/mol
# GULP energy per Si atom -5575.931672 kJ/mol
# Density = 2.107119 g / cm^3
# Si number density = 21.119258 Si / 1000 Ang^3
#
#
#
# Elastic Constant Matrix: (Units=GPa)
#
#
# Indices 1 2 3 4 5 6 
#
# 1 173.3727 20.7142 68.4036 -6.6326 -8.7299 8.3814
# 2 20.7142 26.8785 13.5827 -14.9429 -11.7486 9.3305
# 3 68.4036 13.5827 99.9090 -13.7618 -6.6190 -0.1220
# 4 -6.6326 -14.9429 -13.7618 30.5716 15.2682 -4.2163
# 5 -8.7299 -11.7486 -6.6190 15.2682 43.4279 1.9652
# 6 8.3814 9.3305 -0.1220 -4.2163 1.9652 33.5328
#
#
#
# Elastic Compliance Matrix: (Units=1/GPa)
#
#
# Indices 1 2 3 4 5 6 
#
# 1 0.008551 -0.004985 -0.005634 -0.003738 0.000884 -0.001292
# 2 -0.004985 0.063045 -0.001455 0.022974 0.008384 -0.013904
# 3 -0.005634 -0.001455 0.014772 0.005803 -0.001436 0.002681
# 4 -0.003738 0.022974 0.005803 0.051988 -0.012011 0.001803
# 5 0.000884 0.008384 -0.001436 -0.012011 0.029739 -0.005812
# 6 -0.001292 -0.013904 0.002681 0.001803 -0.005812 0.034590
#
#
# Mechanical properties :
#
#
# Convention : Reuss Voigt Hill
#
# Bulk Modulus (GPa) = 16.07230 56.17348 36.12289
# Shear Modulus (GPa) = 20.19598 34.67045 27.43322
#
# Velocity S-wave (km/s) = 3.09574 4.05613 3.60803
# Velocity P-wave (km/s) = 4.51718 6.97081 5.87354
#
# Compressibility (1/GPa) = 0.06221886
#
# Stress axis : x y z
#
# Youngs Moduli (GPa) = 116.95171 15.86164 67.69596
#
# Poissons Ratio (x) = 0.07907 0.38142
# Poissons Ratio (y) = 0.58303 0.09849
# Poissons Ratio (z) = 0.65894 0.02308
#
# Static dielectric constant tensor:
#      x y z
#    x 1.779950 0.024220 -0.005450 
#    y 0.024220 1.759880 -0.008380 
#    z -0.005450 -0.008380 1.878200 
# 
# From -- ./inp_files/44578.got.cif
#   From: 2010.05.17/outbox.cif.g08.bks.cpg/sg2_23_cif.got.tgz:44578.got - 2010.06.03 11:33:40.
