data_PCOD9024084
_publ_section_title
;
Structure prediction by ZEFSAII (Michael W. Deem and Ramdas Pophale) SiO2 
 PCOD9024084
Probable space group: P -1
;
_chemical_formula_sum "Si O2"
_cell_formula_units_Z 14
_cell_length_a 6.915038
_cell_length_b 18.139760
_cell_length_c 9.047390
_cell_angle_alpha 129.959265
_cell_angle_beta 49.945829
_cell_angle_gamma 134.112454
_cell_volume 583.401246
_symmetry_space_group_name_H-M "P -1"
_symmetry_group_IT_number 2
_symmetry_cell_setting 'triclinic'
loop_
_space_group_symop_operation_xyz
x,y,z
-x,-y,-z
loop_
_atom_site_type_symbol
_atom_site_label
_atom_site_fract_x
_atom_site_fract_y
_atom_site_fract_z
Si Si1 0.272103 0.892903 0.886197
Si Si2 0.844224 0.073021 0.337554
Si Si3 0.738365 0.513882 0.015808
Si Si4 0.507304 0.803883 0.862995
Si Si5 0.833970 0.903171 0.330875
Si Si6 0.639552 0.432179 0.272254
Si Si7 0.983311 0.765576 0.274948
O O1 0.290160 0.914231 0.731868
O O2 0.366446 0.803906 0.774311
O O3 0.980622 0.870104 0.080540
O O4 0.500000 0.000000 0.000000
O O5 0.168795 0.096741 0.160329
O O6 0.934990 0.175664 0.533309
O O7 0.701701 0.963756 0.369428
O O8 0.609536 0.430327 0.107069
O O9 0.859589 0.636377 0.179475
O O10 0.500000 0.500000 0.000000
O O11 0.013891 0.511923 0.805631
O O12 0.499807 0.690068 0.753620
O O13 0.283739 0.812523 0.096897
O O14 0.771114 0.799592 0.334167
O O15 0.000000 0.000000 0.500000
O O16 0.500000 0.500000 0.500000
#
# Coordination Sequence:
#
# PCOD9024084 Si02
#       7
#     2   2   2   2   2   2   2
#     4  11  22  39  59  91 129 164 214 260 316 388
#     4  11  21  40  65  89 130 172 205 268 325 380
#     4  10  22  43  67  96 135 172 216 285 336 388
#     4  10  22  40  63  91 127 168 213 267 323 394
#     4   9  19  37  61  88 124 167 208 258 319 391
#     4  10  22  42  67  96 131 171 224 275 332 397
#     4   9  21  41  62  94 128 164 223 261 323 401
#
# _framework density 23.997208000000001
#
# number of rings (size 3 to 8) (size 9 to 14) (size 15 to 20)
#    0.000    2.000    1.429    1.286    0.000    4.000 
#    2.571   12.143    0.000    0.000    0.000    0.000 
#    0.000    0.000    0.000    0.000    0.000    0.000 
#
# Total GULP energy -78157.002584 kJ/mol
# GULP energy per Si atom -5582.643042 kJ/mol
# Density = 2.394259 g / cm^3
# Si number density = 23.997208 Si / 1000 Ang^3
#
#
#
# Elastic Constant Matrix: (Units=GPa)
#
#
# Indices 1 2 3 4 5 6 
#
# 1 161.8139 53.3113 47.6530 -7.0265 16.4416 -46.0608
# 2 53.3113 104.1092 64.3982 9.7771 1.6288 -44.4214
# 3 47.6530 64.3982 116.5735 -18.6715 2.7073 -17.1918
# 4 -7.0265 9.7771 -18.6715 39.7501 -11.3941 -5.7876
# 5 16.4416 1.6288 2.7073 -11.3941 34.9681 -2.0399
# 6 -46.0608 -44.4214 -17.1918 -5.7876 -2.0399 45.0154
#
#
#
# Elastic Compliance Matrix: (Units=1/GPa)
#
#
# Indices 1 2 3 4 5 6 
#
# 1 0.009962 0.001008 -0.003002 0.000470 -0.003766 0.009931
# 2 0.001008 0.028954 -0.014908 -0.011606 -0.003151 0.022275
# 3 -0.003002 -0.014908 0.018476 0.011625 0.003935 -0.009053
# 4 0.000470 -0.011606 0.011625 0.036593 0.011267 -0.001318
# 5 -0.003766 -0.003151 0.003935 0.011267 0.033737 -0.002483
# 6 0.009931 0.022275 -0.009053 -0.001318 -0.002483 0.050618
#
#
# Mechanical properties :
#
#
# Convention : Reuss Voigt Hill
#
# Bulk Modulus (GPa) = 42.39293 79.24683 60.81988
# Shear Modulus (GPa) = 22.72672 38.42231 30.57452
#
# Velocity S-wave (km/s) = 3.08077 4.00574 3.57331
# Velocity P-wave (km/s) = 5.50990 7.38171 6.51339
#
# Compressibility (1/GPa) = 0.02358884
#
# Stress axis : x y z
#
# Youngs Moduli (GPa) = 100.38323 34.53738 54.12421
#
# Poissons Ratio (x) = -0.03480 0.16246
# Poissons Ratio (y) = -0.10116 0.80686
# Poissons Ratio (z) = 0.30131 0.51487
#
# Static dielectric constant tensor:
#      x y z
#    x 1.994570 -0.002810 -0.110030 
#    y -0.002810 1.946650 -0.025380 
#    z -0.110030 -0.025380 1.978210 
# 
# From -- ./inp_files/139318.got.cif
#   From: 2010.05.17/outbox.cif.g08.bks.cpg/sg2_70_cif.got.tgz:139318.got - 2010.06.03 11:33:40.
