data_PCOD9024968
_publ_section_title
;
Structure prediction by ZEFSAII (Michael W. Deem and Ramdas Pophale) SiO2 
 PCOD9024968
Probable space group: P -1
;
_chemical_formula_sum "Si O2"
_cell_formula_units_Z 12
_cell_length_a 10.529568
_cell_length_b 17.924890
_cell_length_c 12.755532
_cell_angle_alpha 157.660770
_cell_angle_beta 143.268006
_cell_angle_gamma 30.495840
_cell_volume 464.249668
_symmetry_space_group_name_H-M "P -1"
_symmetry_group_IT_number 2
_symmetry_cell_setting 'triclinic'
loop_
_space_group_symop_operation_xyz
x,y,z
-x,-y,-z
loop_
_atom_site_type_symbol
_atom_site_label
_atom_site_fract_x
_atom_site_fract_y
_atom_site_fract_z
Si Si1 0.153461 0.769030 0.173870
Si Si2 0.656742 0.274356 0.539268
Si Si3 0.384187 0.034751 0.583465
Si Si4 0.169349 0.035297 0.076013
Si Si5 0.883414 0.535814 0.611679
Si Si6 0.155485 0.662234 0.447550
O O1 0.289127 0.646758 0.212966
O O2 0.333806 0.833127 0.317973
O O3 0.892707 0.012311 0.342851
O O4 0.067759 0.624961 0.865930
O O5 0.395832 0.286279 0.382440
O O6 0.650078 0.430208 0.640084
O O7 0.563038 0.043283 0.799071
O O8 0.500000 0.000000 0.500000
O O9 0.106029 0.254852 0.674644
O O10 0.016470 0.312417 0.334833
O O11 0.175129 0.881427 0.783946
O O12 0.000000 0.000000 0.000000
O O13 0.841727 0.468610 0.615858
#
# Coordination Sequence:
#
# PCOD9024968 Si02
#       6
#     2   2   2   2   2   2
#     4  10  25  41  65  98 131 176 219 269 336 380
#     4  10  23  45  64  94 139 175 215 269 329 393
#     4  11  21  43  66  88 133 176 215 267 323 395
#     4  10  22  40  66  98 129 171 216 265 330 383
#     4  11  22  40  68 103 132 167 223 273 322 387
#     4  10  23  42  71  98 130 179 218 261 331 392
#
# _framework density 25.848161000000001
#
# number of rings (size 3 to 8) (size 9 to 14) (size 15 to 20)
#    0.000    1.667    3.333    1.000    0.000   12.000 
#    0.000    5.833    0.000    3.000    0.000    0.000 
#    0.000    0.000    0.000    0.000    0.000    0.000 
#
# Total GULP energy -67199.645690 kJ/mol
# GULP energy per Si atom -5599.970474 kJ/mol
# Density = 2.578933 g / cm^3
# Si number density = 25.848161 Si / 1000 Ang^3
#
#
#
# Elastic Constant Matrix: (Units=GPa)
#
#
# Indices 1 2 3 4 5 6 
#
# 1 120.6616 42.3168 60.3365 -20.5787 3.4698 15.9674
# 2 42.3168 122.7982 52.6367 -44.0517 4.2624 -3.0476
# 3 60.3365 52.6367 175.2186 -29.6541 18.7559 8.1903
# 4 -20.5787 -44.0517 -29.6541 50.6745 -3.6887 3.9542
# 5 3.4698 4.2624 18.7559 -3.6887 30.4517 -15.3795
# 6 15.9674 -3.0476 8.1903 3.9542 -15.3795 43.8154
#
#
#
# Elastic Compliance Matrix: (Units=1/GPa)
#
#
# Indices 1 2 3 4 5 6 
#
# 1 0.011252 -0.002390 -0.002594 0.001213 -0.001420 -0.004389
# 2 -0.002390 0.013062 -0.001781 0.009316 0.001594 0.001831
# 3 -0.002594 -0.001781 0.008230 0.002024 -0.005753 -0.002919
# 4 0.001213 0.009316 0.002024 0.029702 -0.000646 -0.003080
# 5 -0.001420 0.001594 -0.005753 -0.000646 0.045134 0.017604
# 6 -0.004389 0.001831 -0.002919 -0.003080 0.017604 0.031553
#
#
# Mechanical properties :
#
#
# Convention : Reuss Voigt Hill
#
# Bulk Modulus (GPa) = 52.59143 81.02870 66.81007
# Shear Modulus (GPa) = 31.48608 42.54755 37.01682
#
# Velocity S-wave (km/s) = 3.49394 4.06156 3.78840
# Velocity P-wave (km/s) = 6.05535 7.30829 6.71112
#
# Compressibility (1/GPa) = 0.01901451
#
# Stress axis : x y z
#
# Youngs Moduli (GPa) = 88.87697 76.55655 121.50427
#
# Poissons Ratio (x) = 0.18297 0.31520
# Poissons Ratio (y) = 0.21242 0.21635
# Poissons Ratio (z) = 0.23056 0.13632
#
# Static dielectric constant tensor:
#      x y z
#    x 1.798720 0.017230 -0.057170 
#    y 0.017230 2.044080 0.072860 
#    z -0.057170 0.072860 1.997900 
# 
# From -- ./inp_files/524158.got.cif
#   From: 2010.05.17/outbox.cif.g08.bks.cpg/sg2_263_cif.got.tgz:524158.got - 2010.06.03 11:33:40.
