data_PCOD9024304
_publ_section_title
;
Structure prediction by ZEFSAII (Michael W. Deem and Ramdas Pophale) SiO2 
 PCOD9024304
Probable space group: P -1
;
_chemical_formula_sum "Si O2"
_cell_formula_units_Z 15
_cell_length_a 23.410878
_cell_length_b 11.617676
_cell_length_c 8.041723
_cell_angle_alpha 39.324965
_cell_angle_beta 141.580691
_cell_angle_gamma 149.417990
_cell_volume 656.672810
_symmetry_space_group_name_H-M "P -1"
_symmetry_group_IT_number 2
_symmetry_cell_setting 'triclinic'
loop_
_space_group_symop_operation_xyz
x,y,z
-x,-y,-z
loop_
_atom_site_type_symbol
_atom_site_label
_atom_site_fract_x
_atom_site_fract_y
_atom_site_fract_z
Si Si1 0.841169 0.852075 0.379963
Si Si2 0.195484 0.884719 0.248432
Si Si3 0.520709 0.761354 0.416179
Si Si4 0.971424 0.822117 0.278285
Si Si5 0.405485 0.319194 0.843493
Si Si6 0.495594 0.094272 0.148981
Si Si7 0.226695 0.551290 0.536299
Si Si8 0.000000 0.500000 0.500000
O O1 0.724205 0.776350 0.294061
O O2 0.821760 0.619263 0.542078
O O3 0.954289 0.026609 0.559558
O O4 0.846196 0.985104 0.080261
O O5 0.189091 0.712087 0.292249
O O6 0.113276 0.731230 0.388668
O O7 0.336665 0.077478 0.404040
O O8 0.451735 0.487742 0.599945
O O9 0.503613 0.817653 0.131215
O O10 0.469896 0.849561 0.330762
O O11 0.832672 0.621224 0.243640
O O12 0.011862 0.679253 0.462484
O O13 0.000000 0.000000 0.000000
O O14 0.411352 0.112114 0.050729
O O15 0.500000 0.500000 0.000000
O O16 0.630061 0.281539 0.317846
#
# Coordination Sequence:
#
# PCOD9024304 Si02
#       8
#     2   2   2   2   2   2   2   1
#     4  12  25  41  65  95 131 168 211 261 322 378
#     4  10  22  42  65  93 129 169 213 265 313 375
#     4  10  22  40  64  92 131 170 209 257 314 373
#     4  11  26  43  66  93 124 166 215 267 318 379
#     4  12  23  38  62  99 129 166 206 258 317 379
#     4  10  22  40  64  91 127 170 212 259 311 371
#     4  10  22  42  63  89 126 170 212 258 317 372
#     4  10  24  44  68  94 122 162 218 264 314 374
#
# _framework density 22.842424999999999
#
# number of rings (size 3 to 8) (size 9 to 14) (size 15 to 20)
#    0.000    1.333    2.667    1.600    3.733    4.800 
#    0.000    0.000    0.000    0.000    0.000    0.000 
#    0.000    0.000    0.000    0.000    0.000    0.000 
#
# Total GULP energy -83681.391831 kJ/mol
# GULP energy per Si atom -5578.759455 kJ/mol
# Density = 2.279043 g / cm^3
# Si number density = 22.842425 Si / 1000 Ang^3
#
#
#
# Elastic Constant Matrix: (Units=GPa)
#
#
# Indices 1 2 3 4 5 6 
#
# 1 119.4090 25.7347 2.1292 -5.8141 29.1703 -4.9762
# 2 25.7347 61.0270 9.2757 -11.4947 18.1375 -7.0378
# 3 2.1292 9.2757 52.9641 -3.5747 1.9059 -3.0754
# 4 -5.8141 -11.4947 -3.5747 20.6422 -0.6872 -4.1104
# 5 29.1703 18.1375 1.9059 -0.6872 31.0055 -9.5015
# 6 -4.9762 -7.0378 -3.0754 -4.1104 -9.5015 54.4782
#
#
#
# Elastic Compliance Matrix: (Units=1/GPa)
#
#
# Indices 1 2 3 4 5 6 
#
# 1 0.011156 -0.001578 0.000261 0.001837 -0.009774 -0.000736
# 2 -0.001578 0.023228 -0.002698 0.011982 -0.011162 0.001662
# 3 0.000261 -0.002698 0.019531 0.002175 0.000495 0.001028
# 4 0.001837 0.011982 0.002175 0.056818 -0.006058 0.005069
# 5 -0.009774 -0.011162 0.000495 -0.006058 0.049617 0.005890
# 6 -0.000736 0.001662 0.001028 0.005069 0.005890 0.019971
#
#
# Mechanical properties :
#
#
# Convention : Reuss Voigt Hill
#
# Bulk Modulus (GPa) = 21.79354 34.18658 27.99006
# Shear Modulus (GPa) = 24.55221 34.30922 29.43071
#
# Velocity S-wave (km/s) = 3.28205 3.87976 3.59336
# Velocity P-wave (km/s) = 4.89122 5.92189 5.43106
#
# Compressibility (1/GPa) = 0.04588516
#
# Stress axis : x y z
#
# Youngs Moduli (GPa) = 89.63411 43.05202 51.19977
#
# Poissons Ratio (x) = 0.06796 -0.01336
# Poissons Ratio (y) = 0.14148 0.13812
# Poissons Ratio (z) = -0.02338 0.11614
#
# Static dielectric constant tensor:
#      x y z
#    x 1.888940 -0.007600 0.011120 
#    y -0.007600 1.804340 -0.031720 
#    z 0.011120 -0.031720 1.846960 
# 
# From -- ./inp_files/352911.got.cif
#   From: 2010.05.17/outbox.cif.g08.bks.cpg/sg2_177_cif.got.tgz:352911.got - 2010.06.03 11:33:40.
