data_PCOD9024928
_publ_section_title
;
Structure prediction by ZEFSAII (Michael W. Deem and Ramdas Pophale) SiO2 
 PCOD9024928
Probable space group: P -1
;
_chemical_formula_sum "Si O2"
_cell_formula_units_Z 16
_cell_length_a 18.578223
_cell_length_b 9.171123
_cell_length_c 6.966674
_cell_angle_alpha 65.238556
_cell_angle_beta 125.570335
_cell_angle_gamma 131.496464
_cell_volume 722.075908
_symmetry_space_group_name_H-M "P -1"
_symmetry_group_IT_number 2
_symmetry_cell_setting 'triclinic'
loop_
_space_group_symop_operation_xyz
x,y,z
-x,-y,-z
loop_
_atom_site_type_symbol
_atom_site_label
_atom_site_fract_x
_atom_site_fract_y
_atom_site_fract_z
Si Si1 0.793952 0.141168 0.246788
Si Si2 0.761181 0.487057 0.444228
Si Si3 0.901511 0.109673 0.784615
Si Si4 0.382455 0.803590 0.935990
Si Si5 0.461908 0.543298 0.225714
Si Si6 0.115839 0.235481 0.872563
Si Si7 0.898745 0.514612 0.985960
Si Si8 0.661754 0.714695 0.174677
O O1 0.824094 0.132061 0.518229
O O2 0.693780 0.159908 0.080468
O O3 0.758644 0.939044 0.208416
O O4 0.886757 0.333725 0.175727
O O5 0.676855 0.288848 0.308983
O O6 0.838964 0.652329 0.317111
O O7 0.832694 0.464056 0.717629
O O8 0.697183 0.574895 0.380372
O O9 0.977436 0.300193 0.928455
O O10 0.986000 0.114497 0.760067
O O11 0.853409 0.912712 0.937546
O O12 0.400368 0.642344 0.127490
O O13 0.500000 0.000000 0.000000
O O14 0.500000 0.500000 0.500000
O O15 0.566795 0.683690 0.179458
O O16 0.385840 0.360653 0.069603
O O17 0.150952 0.400146 0.996562
#
# Coordination Sequence:
#
# PCOD9024928 Si02
#       8
#     2   2   2   2   2   2   2   2
#     4  12  22  42  66  94 140 166 214 272 326 381
#     4  11  23  42  69  95 132 173 219 262 320 400
#     4   9  21  42  68  93 131 175 213 268 324 384
#     4  11  23  43  64  93 131 170 211 271 327 380
#     4  10  23  44  67  89 125 173 222 271 316 379
#     4   9  20  43  67  93 131 168 219 261 325 377
#     4  10  22  40  66  96 129 172 211 266 326 378
#     4  10  24  40  63  97 127 167 221 264 318 390
#
# _framework density 22.158332999999999
#
# number of rings (size 3 to 8) (size 9 to 14) (size 15 to 20)
#    0.750    1.000    2.500    1.125    1.750    3.500 
#    2.250    2.500    0.000    0.000    0.000    0.000 
#    0.000    0.000    0.000    0.000    0.000    0.000 
#
# Total GULP energy -89372.754424 kJ/mol
# GULP energy per Si atom -5585.797152 kJ/mol
# Density = 2.210790 g / cm^3
# Si number density = 22.158333 Si / 1000 Ang^3
#
#
#
# Elastic Constant Matrix: (Units=GPa)
#
#
# Indices 1 2 3 4 5 6 
#
# 1 65.2238 -11.2328 -6.2473 -9.2420 8.0332 -7.1460
# 2 -11.2328 127.9592 32.9349 4.5579 -2.2821 -2.7448
# 3 -6.2473 32.9349 116.9231 -0.2692 17.2566 -12.7551
# 4 -9.2420 4.5579 -0.2692 18.2607 2.1591 0.7752
# 5 8.0332 -2.2821 17.2566 2.1591 18.5952 -5.1594
# 6 -7.1460 -2.7448 -12.7551 0.7752 -5.1594 24.4506
#
#
#
# Elastic Compliance Matrix: (Units=1/GPa)
#
#
# Indices 1 2 3 4 5 6 
#
# 1 0.019062 0.000410 0.003046 0.010697 -0.010991 0.004548
# 2 0.000410 0.008803 -0.003021 -0.002544 0.004137 0.000486
# 3 0.003046 -0.003021 0.011777 0.003706 -0.011919 0.004062
# 4 0.010697 -0.002544 0.003706 0.062759 -0.015813 -0.000552
# 5 -0.010991 0.004137 -0.011919 -0.015813 0.073909 0.007131
# 6 0.004548 0.000486 0.004062 -0.000552 0.007131 0.045924
#
#
# Mechanical properties :
#
#
# Convention : Reuss Voigt Hill
#
# Bulk Modulus (GPa) = 24.68437 37.89064 31.28750
# Shear Modulus (GPa) = 21.28840 31.90474 26.59657
#
# Velocity S-wave (km/s) = 3.10294 3.79866 3.46829
# Velocity P-wave (km/s) = 4.89917 6.03132 5.49448
#
# Compressibility (1/GPa) = 0.04051146
#
# Stress axis : x y z
#
# Youngs Moduli (GPa) = 52.46091 113.59172 84.90918
#
# Poissons Ratio (x) = -0.04655 -0.25863
# Poissons Ratio (y) = -0.02150 0.25654
# Poissons Ratio (z) = -0.15979 0.34320
#
# Static dielectric constant tensor:
#      x y z
#    x 1.867010 0.012000 0.006420 
#    y 0.012000 1.842600 0.013390 
#    z 0.006420 0.013390 1.762230 
# 
# From -- ./inp_files/106559.got.cif
#   From: 2010.05.17/outbox.cif.g08.bks.cpg/sg2_54_cif.got.tgz:106559.got - 2010.06.03 11:33:40.
