data_PCOD9024468
_publ_section_title
;
Structure prediction by ZEFSAII (Michael W. Deem and Ramdas Pophale) SiO2 
 PCOD9024468
Probable space group: P -1
;
_chemical_formula_sum "Si O2"
_cell_formula_units_Z 15
_cell_length_a 6.386047
_cell_length_b 13.206540
_cell_length_c 8.757521
_cell_angle_alpha 92.728109
_cell_angle_beta 108.852953
_cell_angle_gamma 97.745779
_cell_volume 689.306526
_symmetry_space_group_name_H-M "P -1"
_symmetry_group_IT_number 2
_symmetry_cell_setting 'triclinic'
loop_
_space_group_symop_operation_xyz
x,y,z
-x,-y,-z
loop_
_atom_site_type_symbol
_atom_site_label
_atom_site_fract_x
_atom_site_fract_y
_atom_site_fract_z
Si Si1 0.887380 0.700106 0.318851
Si Si2 0.508816 0.428425 0.352996
Si Si3 0.976286 0.895022 0.580855
Si Si4 0.000000 0.500000 0.500000
Si Si5 0.615654 0.111326 0.087388
Si Si6 0.412197 0.569205 0.112211
Si Si7 0.099104 0.730480 0.034917
Si Si8 0.306326 0.210355 0.244538
O O1 0.623789 0.652933 0.225674
O O2 0.928523 0.799269 0.445804
O O3 0.993595 0.610460 0.420831
O O4 0.005469 0.727257 0.184804
O O5 0.500000 0.500000 0.500000
O O6 0.339443 0.479547 0.211551
O O7 0.446112 0.309722 0.363148
O O8 0.761273 0.452212 0.355012
O O9 0.194848 0.894103 0.738964
O O10 0.776155 0.876401 0.657264
O O11 0.000000 0.000000 0.500000
O O12 0.438829 0.170935 0.133751
O O13 0.717329 0.172927 0.966202
O O14 0.500000 0.000000 0.000000
O O15 0.214625 0.630516 0.029142
O O16 0.500000 0.500000 0.000000
O O17 0.900858 0.744017 0.873710
#
# Coordination Sequence:
#
# PCOD9024468 Si02
#       8
#     2   2   2   1   2   2   2   2
#     4  11  24  43  70 104 146 187 242 302 364 436
#     4  11  22  39  65  96 137 178 226 281 356 422
#     4  11  28  46  73 107 145 187 247 306 374 430
#     4  10  22  40  64  98 140 178 224 288 356 418
#     4  11  27  48  72  99 140 193 245 305 364 433
#     4  11  24  40  65 104 143 186 234 288 356 432
#     4  11  25  43  71 101 143 186 242 295 359 431
#     4  11  25  47  71 102 143 189 243 299 365 438
#
# _framework density 21.761001
#
# number of rings (size 3 to 8) (size 9 to 14) (size 15 to 20)
#    0.000    1.067    0.000    5.600    5.600   11.200 
#    0.000    0.000    0.000    0.000    0.000    0.000 
#    0.000    0.000    0.000    0.000    0.000    0.000 
#
# Total GULP energy -83536.996752 kJ/mol
# GULP energy per Si atom -5569.133117 kJ/mol
# Density = 2.171147 g / cm^3
# Si number density = 21.761001 Si / 1000 Ang^3
#
#
#
# Elastic Constant Matrix: (Units=GPa)
#
#
# Indices 1 2 3 4 5 6 
#
# 1 75.4464 38.0581 15.1545 -3.8594 3.6905 10.4556
# 2 38.0581 136.6372 37.7564 -12.8341 -1.0674 27.2621
# 3 15.1545 37.7564 74.2398 -4.5009 -6.9877 2.4029
# 4 -3.8594 -12.8341 -4.5009 56.1003 0.8153 0.5770
# 5 3.6905 -1.0674 -6.9877 0.8153 34.9619 -5.9354
# 6 10.4556 27.2621 2.4029 0.5770 -5.9354 31.0362
#
#
#
# Elastic Compliance Matrix: (Units=1/GPa)
#
#
# Indices 1 2 3 4 5 6 
#
# 1 0.015816 -0.003413 -0.001632 0.000241 -0.002564 -0.002698
# 2 -0.003413 0.011647 -0.004978 0.002151 -0.001873 -0.009093
# 3 -0.001632 -0.004978 0.016574 -0.000026 0.004084 0.004421
# 4 0.000241 0.002151 -0.000026 0.018369 -0.000812 -0.002465
# 5 -0.002564 -0.001873 0.004084 -0.000812 0.031034 0.008143
# 6 -0.002698 -0.009093 0.004421 -0.002465 0.008143 0.042378
#
#
# Mechanical properties :
#
#
# Convention : Reuss Voigt Hill
#
# Bulk Modulus (GPa) = 41.68329 52.02905 46.85617
# Shear Modulus (GPa) = 30.51385 37.44330 33.97857
#
# Velocity S-wave (km/s) = 3.74869 4.15258 3.95580
# Velocity P-wave (km/s) = 6.15902 6.85224 6.51486
#
# Compressibility (1/GPa) = 0.02399043
#
# Stress axis : x y z
#
# Youngs Moduli (GPa) = 63.22836 85.86181 60.33403
#
# Poissons Ratio (x) = 0.29307 0.09846
# Poissons Ratio (y) = 0.21582 0.30034
# Poissons Ratio (z) = 0.10318 0.42742
#
# Static dielectric constant tensor:
#      x y z
#    x 1.891000 0.029730 -0.038510 
#    y 0.029730 1.747540 -0.006630 
#    z -0.038510 -0.006630 1.843970 
# 
# From -- ./inp_files/131676.got.cif
#   From: 2010.05.17/outbox.cif.g08.bks.cpg/sg2_66_cif.got.tgz:131676.got - 2010.06.03 11:33:40.
