data_PCOD9024109
_publ_section_title
;
Structure prediction by ZEFSAII (Michael W. Deem and Ramdas Pophale) SiO2 
 PCOD9024109
Probable space group: P -1
;
_chemical_formula_sum "Si O2"
_cell_formula_units_Z 14
_cell_length_a 11.820576
_cell_length_b 12.173639
_cell_length_c 12.935124
_cell_angle_alpha 50.122598
_cell_angle_beta 50.672981
_cell_angle_gamma 93.275800
_cell_volume 690.447987
_symmetry_space_group_name_H-M "P -1"
_symmetry_group_IT_number 2
_symmetry_cell_setting 'triclinic'
loop_
_space_group_symop_operation_xyz
x,y,z
-x,-y,-z
loop_
_atom_site_type_symbol
_atom_site_label
_atom_site_fract_x
_atom_site_fract_y
_atom_site_fract_z
Si Si1 0.367890 0.260923 0.768517
Si Si2 0.714835 0.278673 0.054846
Si Si3 0.140958 0.173240 0.168139
Si Si4 0.366728 0.251965 0.199523
Si Si5 0.821177 0.468188 0.324474
Si Si6 0.340416 0.635601 0.749282
Si Si7 0.796082 0.025929 0.148212
O O1 0.500000 0.500000 0.500000
O O2 0.187816 0.056416 0.913418
O O3 0.581257 0.309558 0.619342
O O4 0.247176 0.201774 0.981566
O O5 0.552179 0.267127 0.099982
O O6 0.670212 0.260426 0.214575
O O7 0.670112 0.082881 0.162557
O O8 0.997981 0.506855 0.746501
O O9 0.264344 0.184230 0.184264
O O10 0.210395 0.392905 0.006918
O O11 0.862312 0.943281 0.478424
O O12 0.500000 0.500000 0.000000
O O13 0.773505 0.405850 0.268743
O O14 0.967121 0.730740 0.088002
O O15 0.612348 0.809952 0.460870
#
# Coordination Sequence:
#
# PCOD9024109 Si02
#       7
#     2   2   2   2   2   2   2
#     4  11  21  43  63  96 136 164 212 259 325 396
#     4  10  22  40  63  92 135 165 220 261 314 391
#     4  11  25  41  68  96 124 171 217 267 315 379
#     4  11  25  47  65  92 124 176 224 263 312 369
#     4   9  22  36  61  98 128 166 200 261 334 369
#     4  11  19  38  64  98 132 162 206 275 326 376
#     4   9  22  37  60 101 128 169 201 263 333 376
#
# _framework density 20.276691
#
# number of rings (size 3 to 8) (size 9 to 14) (size 15 to 20)
#    0.857    0.857    4.286    0.857    2.000    4.000 
#    0.000    1.429    0.000    0.000    0.000    0.000 
#    0.000    0.000    0.000    0.000    0.000    0.000 
#
# Total GULP energy -78078.708041 kJ/mol
# GULP energy per Si atom -5577.050574 kJ/mol
# Density = 2.023054 g / cm^3
# Si number density = 20.276691 Si / 1000 Ang^3
#
#
#
# Elastic Constant Matrix: (Units=GPa)
#
#
# Indices 1 2 3 4 5 6 
#
# 1 122.6663 23.0247 38.6576 6.9367 -26.0659 -3.1260
# 2 23.0247 95.1510 4.5777 9.4587 6.0720 1.8097
# 3 38.6576 4.5777 92.0058 5.7823 -8.3936 -0.9352
# 4 6.9367 9.4587 5.7823 39.4425 1.3567 -0.3582
# 5 -26.0659 6.0720 -8.3936 1.3567 29.8949 -3.7638
# 6 -3.1260 1.8097 -0.9352 -0.3582 -3.7638 21.8109
#
#
#
# Elastic Compliance Matrix: (Units=1/GPa)
#
#
# Indices 1 2 3 4 5 6 
#
# 1 0.012594 -0.003525 -0.003993 -0.001132 0.011109 0.003825
# 2 -0.003525 0.011956 0.000487 -0.002149 -0.005579 -0.002474
# 3 -0.003993 0.000487 0.012601 -0.001263 0.000003 -0.000093
# 4 -0.001132 -0.002149 -0.001263 0.026325 -0.002095 0.000033
# 5 0.011109 -0.005579 0.000003 -0.002095 0.045611 0.009892
# 6 0.003825 -0.002474 -0.000093 0.000033 0.009892 0.048306
#
#
# Mechanical properties :
#
#
# Convention : Reuss Voigt Hill
#
# Bulk Modulus (GPa) = 43.30842 49.14924 46.22883
# Shear Modulus (GPa) = 27.90957 34.46720 31.18838
#
# Velocity S-wave (km/s) = 3.71406 4.12739 3.92617
# Velocity P-wave (km/s) = 6.30852 6.85607 6.58798
#
# Compressibility (1/GPa) = 0.02309020
#
# Stress axis : x y z
#
# Youngs Moduli (GPa) = 79.40236 83.64172 79.35870
#
# Poissons Ratio (x) = 0.29480 0.31686
# Poissons Ratio (y) = 0.27986 -0.03865
# Poissons Ratio (z) = 0.31704 -0.04074
#
# Static dielectric constant tensor:
#      x y z
#    x 1.765410 -0.011460 -0.042300 
#    y -0.011460 1.716590 -0.014300 
#    z -0.042300 -0.014300 1.747290 
# 
# From -- ./inp_files/427725.got.cif
#   From: 2010.05.17/outbox.cif.g08.bks.cpg/sg2_214_cif.got.tgz:427725.got - 2010.06.03 11:33:40.
