data_PCOD9024108
_publ_section_title
;
Structure prediction by ZEFSAII (Michael W. Deem and Ramdas Pophale) SiO2 
 PCOD9024108
Probable space group: P -1
;
_chemical_formula_sum "Si O2"
_cell_formula_units_Z 14
_cell_length_a 10.855740
_cell_length_b 11.108621
_cell_length_c 12.918368
_cell_angle_alpha 138.233353
_cell_angle_beta 34.792145
_cell_angle_gamma 141.383210
_cell_volume 530.495046
_symmetry_space_group_name_H-M "P -1"
_symmetry_group_IT_number 2
_symmetry_cell_setting 'triclinic'
loop_
_space_group_symop_operation_xyz
x,y,z
-x,-y,-z
loop_
_atom_site_type_symbol
_atom_site_label
_atom_site_fract_x
_atom_site_fract_y
_atom_site_fract_z
Si Si1 0.224879 0.455642 0.149409
Si Si2 0.150386 0.804860 0.350541
Si Si3 0.775773 0.705870 0.183411
Si Si4 0.045282 0.066983 0.129624
Si Si5 0.632685 0.530751 0.539106
Si Si6 0.632947 0.168730 0.228484
Si Si7 0.241055 0.801692 0.051920
O O1 0.165804 0.365884 0.014032
O O2 0.500000 0.500000 0.000000
O O3 0.206197 0.663579 0.299338
O O4 0.104154 0.298442 0.225881
O O5 0.351163 0.034665 0.361078
O O6 0.190439 0.739006 0.164761
O O7 0.867953 0.745314 0.520138
O O8 0.541001 0.529062 0.280471
O O9 0.978406 0.768699 0.173237
O O10 0.811142 0.928685 0.269287
O O11 0.255817 0.994787 0.963489
O O12 0.000000 0.000000 0.000000
O O13 0.500000 0.500000 0.500000
O O14 0.720905 0.351444 0.365979
O O15 0.697988 0.287687 0.150427
O O16 0.500000 0.000000 0.000000
#
# Coordination Sequence:
#
# PCOD9024108 Si02
#       7
#     2   2   2   2   2   2   2
#     4  11  22  41  71  94 122 166 232 277 303 376
#     4  11  22  41  66  95 131 166 220 268 326 378
#     4  10  22  41  63  97 130 170 211 269 333 384
#     4   9  18  40  66  89 117 164 223 266 310 360
#     4  12  25  41  61  97 143 171 204 257 341 409
#     4  10  22  40  63  92 133 167 213 269 322 378
#     4   9  19  38  65  97 120 165 220 273 321 372
#
# _framework density 26.390443000000001
#
# number of rings (size 3 to 8) (size 9 to 14) (size 15 to 20)
#    0.000    1.714    2.857    2.571    2.000    1.714 
#    2.571    7.143    0.000    0.000    0.000    0.000 
#    0.000    0.000    0.000    0.000    0.000    0.000 
#
# Total GULP energy -77949.725999 kJ/mol
# GULP energy per Si atom -5567.837571 kJ/mol
# Density = 2.633038 g / cm^3
# Si number density = 26.390443 Si / 1000 Ang^3
#
#
#
# Elastic Constant Matrix: (Units=GPa)
#
#
# Indices 1 2 3 4 5 6 
#
# 1 74.5838 15.2674 12.2717 -4.7571 -6.2004 -10.5037
# 2 15.2674 104.0182 23.8452 -43.0442 7.3975 -29.7608
# 3 12.2717 23.8452 96.6681 -31.4102 10.5714 -16.3347
# 4 -4.7571 -43.0442 -31.4102 58.9848 -0.7570 2.9852
# 5 -6.2004 7.3975 10.5714 -0.7570 24.5025 -12.3864
# 6 -10.5037 -29.7608 -16.3347 2.9852 -12.3864 44.0048
#
#
#
# Elastic Compliance Matrix: (Units=1/GPa)
#
#
# Indices 1 2 3 4 5 6 
#
# 1 0.015132 -0.001650 -0.002022 -0.001163 0.007096 0.003822
# 2 -0.001650 0.018587 0.002252 0.014021 -0.000548 0.011908
# 3 -0.002022 0.002252 0.014144 0.008731 -0.004831 0.004339
# 4 -0.001163 0.014021 0.008731 0.031222 -0.002458 0.009636
# 5 0.007096 -0.000548 -0.004831 -0.002458 0.052032 0.014342
# 6 0.003822 0.011908 0.004339 0.009636 0.014342 0.036684
#
#
# Mechanical properties :
#
#
# Convention : Reuss Voigt Hill
#
# Bulk Modulus (GPa) = 22.20998 42.00432 32.10715
# Shear Modulus (GPa) = 26.93258 40.42412 33.67835
#
# Velocity S-wave (km/s) = 3.19806 3.91803 3.57621
# Velocity P-wave (km/s) = 4.69797 6.03482 5.40786
#
# Compressibility (1/GPa) = 0.04502480
#
# Stress axis : x y z
#
# Youngs Moduli (GPa) = 66.08465 53.79971 70.70054
#
# Poissons Ratio (x) = 0.08876 0.14295
# Poissons Ratio (y) = 0.10903 -0.15924
# Poissons Ratio (z) = 0.13362 -0.12117
#
# Static dielectric constant tensor:
#      x y z
#    x 2.231530 -0.027380 -0.176170 
#    y -0.027380 2.267350 0.121960 
#    z -0.176170 0.121960 2.268950 
# 
# From -- ./inp_files/428171.got.cif
#   From: 2010.05.17/outbox.cif.g08.bks.cpg/sg2_215_cif.got.tgz:428171.got - 2010.06.03 11:33:40.
