data_PCOD9024299
_publ_section_title
;
Structure prediction by ZEFSAII (Michael W. Deem and Ramdas Pophale) SiO2 
 PCOD9024299
Probable space group: P -1
;
_chemical_formula_sum "Si O2"
_cell_formula_units_Z 16
_cell_length_a 9.437210
_cell_length_b 10.839982
_cell_length_c 11.705579
_cell_angle_alpha 52.983061
_cell_angle_beta 121.456447
_cell_angle_gamma 96.728996
_cell_volume 780.751523
_symmetry_space_group_name_H-M "P -1"
_symmetry_group_IT_number 2
_symmetry_cell_setting 'triclinic'
loop_
_space_group_symop_operation_xyz
x,y,z
-x,-y,-z
loop_
_atom_site_type_symbol
_atom_site_label
_atom_site_fract_x
_atom_site_fract_y
_atom_site_fract_z
Si Si1 0.230813 0.518419 0.284447
Si Si2 0.054545 0.661357 0.704670
Si Si3 0.638257 0.074823 0.078519
Si Si4 0.823573 0.107436 0.919378
Si Si5 0.529312 0.220774 0.572646
Si Si6 0.303854 0.714850 0.621059
Si Si7 0.259823 0.041978 0.557919
Si Si8 0.365440 0.573250 0.064195
O O1 0.192397 0.702677 0.202771
O O2 0.399598 0.383999 0.481203
O O3 0.278459 0.522032 0.168865
O O4 0.064702 0.456837 0.270075
O O5 0.130882 0.667687 0.606743
O O6 0.931602 0.834970 0.595829
O O7 0.219085 0.613461 0.883931
O O8 0.696996 0.992909 0.270617
O O9 0.795884 0.058822 0.064352
O O10 0.575343 0.267925 0.968701
O O11 0.500000 0.000000 0.000000
O O12 0.654381 0.101926 0.780181
O O13 0.000000 0.000000 0.000000
O O14 0.650857 0.261313 0.504046
O O15 0.394965 0.131842 0.516138
O O16 0.469608 0.574798 0.813065
O O17 0.282415 0.879597 0.588836
#
# Coordination Sequence:
#
# PCOD9024299 Si02
#       8
#     2   2   2   2   2   2   2   2
#     4   9  22  41  61  86 122 166 202 246 308 367
#     4  11  22  37  62  91 125 155 203 251 304 360
#     4  11  23  42  65  89 123 165 208 244 305 364
#     4  11  24  39  63  89 123 163 207 255 298 361
#     4  10  22  42  61  87 125 165 201 247 309 365
#     4  11  23  38  63  95 125 153 204 253 309 358
#     4  11  23  40  64  92 123 164 200 254 305 364
#     4  10  22  40  64  91 122 164 197 255 308 360
#
# _framework density 20.493075999999999
#
# number of rings (size 3 to 8) (size 9 to 14) (size 15 to 20)
#    0.000    1.500    2.500    1.875    1.750    3.000 
#    0.000    0.625    0.000    0.000    0.000    0.000 
#    0.000    0.000    0.000    0.000    0.000    0.000 
#
# Total GULP energy -89357.574981 kJ/mol
# GULP energy per Si atom -5584.848436 kJ/mol
# Density = 2.044643 g / cm^3
# Si number density = 20.493076 Si / 1000 Ang^3
#
#
#
# Elastic Constant Matrix: (Units=GPa)
#
#
# Indices 1 2 3 4 5 6 
#
# 1 129.5188 38.1219 26.9013 -15.9609 9.6021 -1.5075
# 2 38.1219 45.8865 7.9301 -9.0284 17.9578 -0.1077
# 3 26.9013 7.9301 62.2313 -8.2918 6.4852 -13.4159
# 4 -15.9609 -9.0284 -8.2918 26.1664 -7.5839 2.8293
# 5 9.6021 17.9578 6.4852 -7.5839 28.1504 -6.8351
# 6 -1.5075 -0.1077 -13.4159 2.8293 -6.8351 33.8389
#
#
#
# Elastic Compliance Matrix: (Units=1/GPa)
#
#
# Indices 1 2 3 4 5 6 
#
# 1 0.011536 -0.009793 -0.003779 0.003690 0.004054 -0.000505
# 2 -0.009793 0.038834 0.000841 0.001734 -0.022282 -0.004625
# 3 -0.003779 0.000841 0.019671 0.003096 -0.001214 0.007129
# 4 0.003690 0.001734 0.003096 0.044664 0.008820 -0.000556
# 5 0.004054 -0.022282 -0.001214 0.008820 0.053358 0.009669
# 6 -0.000505 -0.004625 0.007129 -0.000556 0.009669 0.034341
#
#
# Mechanical properties :
#
#
# Convention : Reuss Voigt Hill
#
# Bulk Modulus (GPa) = 22.43167 42.61592 32.52379
# Shear Modulus (GPa) = 20.59931 28.61003 24.60467
#
# Velocity S-wave (km/s) = 3.17390 3.74047 3.46877
# Velocity P-wave (km/s) = 4.93977 6.28453 5.65228
#
# Compressibility (1/GPa) = 0.04457984
#
# Stress axis : x y z
#
# Youngs Moduli (GPa) = 86.68151 25.75054 50.83529
#
# Poissons Ratio (x) = 0.25218 0.19209
# Poissons Ratio (y) = 0.84888 -0.04274
# Poissons Ratio (z) = 0.32754 -0.02165
#
# Static dielectric constant tensor:
#      x y z
#    x 1.726690 0.016960 -0.033760 
#    y 0.016960 1.729000 0.004130 
#    z -0.033760 0.004130 1.746590 
# 
# From -- ./inp_files/178821.got.cif
#   From: 2010.05.17/outbox.cif.g08.bks.cpg/sg2_90_cif.got.tgz:178821.got - 2010.06.03 11:33:40.
