data_PCOD9024642
_publ_section_title
;
Structure prediction by ZEFSAII (Michael W. Deem and Ramdas Pophale) SiO2 
 PCOD9024642
Probable space group: P -1
;
_chemical_formula_sum "Si O2"
_cell_formula_units_Z 14
_cell_length_a 13.221940
_cell_length_b 15.446929
_cell_length_c 7.022091
_cell_angle_alpha 67.113872
_cell_angle_beta 96.973344
_cell_angle_gamma 42.087444
_cell_volume 662.198092
_symmetry_space_group_name_H-M "P -1"
_symmetry_group_IT_number 2
_symmetry_cell_setting 'triclinic'
loop_
_space_group_symop_operation_xyz
x,y,z
-x,-y,-z
loop_
_atom_site_type_symbol
_atom_site_label
_atom_site_fract_x
_atom_site_fract_y
_atom_site_fract_z
Si Si1 0.109132 0.137334 0.039103
Si Si2 0.238793 0.309364 0.185049
Si Si3 0.759562 0.480310 0.926320
Si Si4 0.554484 0.979376 0.815891
Si Si5 0.979003 0.044261 0.179409
Si Si6 0.133771 0.726680 0.503662
Si Si7 0.452746 0.529198 0.188785
O O1 0.014165 0.194943 0.758745
O O2 0.315766 0.028467 0.163393
O O3 0.109357 0.035858 0.231807
O O4 0.951876 0.324848 0.963860
O O5 0.310837 0.209650 0.086492
O O6 0.351762 0.154658 0.497500
O O7 0.309287 0.360353 0.183841
O O8 0.000000 0.500000 0.000000
O O9 0.825895 0.377836 0.227492
O O10 0.595472 0.542469 0.737225
O O11 0.500000 0.000000 0.000000
O O12 0.049498 0.892605 0.426432
O O13 0.749536 0.253898 0.993363
O O14 0.000000 0.000000 0.000000
O O15 0.347180 0.586487 0.574792
O O16 0.500000 0.500000 0.000000
#
# Coordination Sequence:
#
# PCOD9024642 Si02
#       7
#     2   2   2   2   2   2   2
#     4  10  22  41  65  98 128 173 218 266 331 386
#     4  11  25  48  70  96 131 171 223 283 332 394
#     4  10  22  41  67  96 131 175 214 265 330 389
#     4  11  27  47  70  99 129 171 226 279 335 397
#     4   9  20  38  58  91 131 170 207 255 313 383
#     4  10  22  40  65  95 139 169 214 270 315 395
#     4   9  20  38  58  95 128 171 215 251 315 384
#
# _framework density 21.141711000000001
#
# number of rings (size 3 to 8) (size 9 to 14) (size 15 to 20)
#    0.000    2.000    1.429    0.000    4.000   12.000 
#   15.429    0.000    0.000    0.000    0.000    0.000 
#    0.000    0.000    0.000    0.000    0.000    0.000 
#
# Total GULP energy -78212.824495 kJ/mol
# GULP energy per Si atom -5586.630321 kJ/mol
# Density = 2.109359 g / cm^3
# Si number density = 21.141711 Si / 1000 Ang^3
#
#
#
# Elastic Constant Matrix: (Units=GPa)
#
#
# Indices 1 2 3 4 5 6 
#
# 1 74.2642 51.0142 10.8940 -18.6500 7.4934 4.5929
# 2 51.0142 148.3518 47.3061 -17.9382 -3.6115 0.3986
# 3 10.8940 47.3061 58.1756 -11.2741 8.6922 -1.2469
# 4 -18.6500 -17.9382 -11.2741 39.1203 -1.7690 -2.8060
# 5 7.4934 -3.6115 8.6922 -1.7690 40.5091 -8.7033
# 6 4.5929 0.3986 -1.2469 -2.8060 -8.7033 38.4130
#
#
#
# Elastic Compliance Matrix: (Units=1/GPa)
#
#
# Indices 1 2 3 4 5 6 
#
# 1 0.020814 -0.007950 0.004776 0.007165 -0.005931 -0.003071
# 2 -0.007950 0.012578 -0.009529 -0.000429 0.004962 0.001604
# 3 0.004776 -0.009529 0.026091 0.005030 -0.007308 -0.000914
# 4 0.007165 -0.000429 0.005030 0.030289 -0.000834 0.001335
# 5 -0.005931 0.004962 -0.007308 -0.000834 0.029258 0.006989
# 6 -0.003071 0.001604 -0.000914 0.001335 0.006989 0.028035
#
#
# Mechanical properties :
#
#
# Convention : Reuss Voigt Hill
#
# Bulk Modulus (GPa) = 29.34650 55.46890 42.40770
# Shear Modulus (GPa) = 27.19907 35.04697 31.12302
#
# Velocity S-wave (km/s) = 3.59069 4.07592 3.84098
# Velocity P-wave (km/s) = 5.57689 6.96021 6.30659
#
# Compressibility (1/GPa) = 0.03407562
#
# Stress axis : x y z
#
# Youngs Moduli (GPa) = 48.04554 79.50548 38.32725
#
# Poissons Ratio (x) = 0.63206 -0.18304
# Poissons Ratio (y) = 0.38196 0.36523
# Poissons Ratio (z) = -0.22946 0.75763
#
# Static dielectric constant tensor:
#      x y z
#    x 1.784430 0.010670 0.011040 
#    y 0.010670 1.779590 0.035410 
#    z 0.011040 0.035410 1.830910 
# 
# From -- ./inp_files/269799.got.cif
#   From: 2010.05.17/outbox.cif.g08.bks.cpg/sg2_135_cif.got.tgz:269799.got - 2010.06.03 11:33:40.
