data_PCOD9024874
_publ_section_title
;
Structure prediction by ZEFSAII (Michael W. Deem and Ramdas Pophale) SiO2 
 PCOD9024874
Probable space group: P -1
;
_chemical_formula_sum "Si O2"
_cell_formula_units_Z 13
_cell_length_a 8.606765
_cell_length_b 10.740410
_cell_length_c 10.185257
_cell_angle_alpha 87.016345
_cell_angle_beta 116.395706
_cell_angle_gamma 139.076889
_cell_volume 483.493865
_symmetry_space_group_name_H-M "P -1"
_symmetry_group_IT_number 2
_symmetry_cell_setting 'triclinic'
loop_
_space_group_symop_operation_xyz
x,y,z
-x,-y,-z
loop_
_atom_site_type_symbol
_atom_site_label
_atom_site_fract_x
_atom_site_fract_y
_atom_site_fract_z
Si Si1 0.841060 0.748879 0.488433
Si Si2 0.123926 0.436370 0.006297
Si Si3 0.459074 0.326769 0.253180
Si Si4 0.953475 0.411871 0.673164
Si Si5 0.271596 0.069315 0.419647
Si Si6 0.155619 0.800979 0.834655
Si Si7 0.500000 0.500000 0.000000
O O1 0.560637 0.491086 0.386683
O O2 0.716945 0.811384 0.475510
O O3 0.074813 0.847717 0.685648
O O4 0.019131 0.840412 0.410973
O O5 0.464943 0.601694 0.088793
O O6 0.996650 0.340559 0.816094
O O7 0.000000 0.500000 0.000000
O O8 0.012825 0.280177 0.086481
O O9 0.230233 0.103330 0.257631
O O10 0.787607 0.455539 0.343941
O O11 0.391179 0.342224 0.084906
O O12 0.599982 0.201182 0.524465
O O13 0.041329 0.600466 0.749691
O O14 0.500000 0.000000 0.000000
#
# Coordination Sequence:
#
# PCOD9024874 Si02
#       7
#     2   2   2   2   2   2   1
#     4  11  25  40  68  99 126 178 215 268 326 391
#     4   9  20  37  63  91 125 172 214 266 322 383
#     4  11  23  44  65  96 131 171 215 273 332 383
#     4  10  22  41  67  95 127 177 214 269 331 388
#     4  11  23  42  65  98 133 167 222 267 323 397
#     4  11  22  41  65  98 132 172 222 267 328 397
#     4  10  22  40  66  94 128 174 220 264 334 398
#
# _framework density 26.887620999999999
#
# number of rings (size 3 to 8) (size 9 to 14) (size 15 to 20)
#    0.000    1.538    1.538    2.769    4.308    0.615 
#   13.846    0.769    0.000    0.000    0.000    0.000 
#    0.000    0.000    0.000    0.000    0.000    0.000 
#
# Total GULP energy -72401.306301 kJ/mol
# GULP energy per Si atom -5569.331254 kJ/mol
# Density = 2.682642 g / cm^3
# Si number density = 26.887621 Si / 1000 Ang^3
#
#
#
# Elastic Constant Matrix: (Units=GPa)
#
#
# Indices 1 2 3 4 5 6 
#
# 1 127.4147 34.0845 6.9503 -1.1230 -18.1449 42.6333
# 2 34.0845 146.0409 66.9388 -37.9803 -2.1632 38.4518
# 3 6.9503 66.9388 132.3533 -23.4040 11.2577 20.6496
# 4 -1.1230 -37.9803 -23.4040 59.5322 12.6156 -15.8211
# 5 -18.1449 -2.1632 11.2577 12.6156 31.3555 -6.2050
# 6 42.6333 38.4518 20.6496 -15.8211 -6.2050 49.7788
#
#
#
# Elastic Compliance Matrix: (Units=1/GPa)
#
#
# Indices 1 2 3 4 5 6 
#
# 1 0.012715 -0.001483 0.000260 -0.004896 0.007048 -0.010529
# 2 -0.001483 0.011476 -0.004041 0.004797 -0.001451 -0.004575
# 3 0.000260 -0.004041 0.010662 0.002337 -0.005179 -0.001427
# 4 -0.004896 0.004797 0.002337 0.024828 -0.012164 0.005894
# 5 0.007048 -0.001451 -0.005179 -0.012164 0.042357 -0.001354
# 6 -0.010529 -0.004575 -0.001427 0.005894 -0.001354 0.034936
#
#
# Mechanical properties :
#
#
# Convention : Reuss Voigt Hill
#
# Bulk Modulus (GPa) = 41.11128 69.08404 55.09766
# Shear Modulus (GPa) = 32.13142 47.98899 40.06021
#
# Velocity S-wave (km/s) = 3.46067 4.22927 3.86413
# Velocity P-wave (km/s) = 5.59388 7.04261 6.35963
#
# Compressibility (1/GPa) = 0.02432422
#
# Stress axis : x y z
#
# Youngs Moduli (GPa) = 78.64935 87.13695 93.79135
#
# Poissons Ratio (x) = 0.12925 -0.02438
# Poissons Ratio (y) = 0.11666 0.37901
# Poissons Ratio (z) = -0.02044 0.35212
#
# Static dielectric constant tensor:
#      x y z
#    x -0.570180 -1.480520 -2.207670 
#    y -1.480520 1.373650 -1.240580 
#    z -2.207670 -1.240580 0.262900 
# 
# From -- ./inp_files/387426.got.cif
#   From: 2010.05.17/outbox.cif.g08.bks.cpg/sg2_194_cif.got.tgz:387426.got - 2010.06.03 11:33:40.
