data_PCOD9024000
_publ_section_title
;
Structure prediction by ZEFSAII (Michael W. Deem and Ramdas Pophale) SiO2 
 PCOD9024000
Probable space group: P -1
;
_chemical_formula_sum "Si O2"
_cell_formula_units_Z 16
_cell_length_a 5.096621
_cell_length_b 6.722169
_cell_length_c 29.197990
_cell_angle_alpha 137.275700
_cell_angle_beta 71.110463
_cell_angle_gamma 101.985446
_cell_volume 641.436307
_symmetry_space_group_name_H-M "P -1"
_symmetry_group_IT_number 2
_symmetry_cell_setting 'triclinic'
loop_
_space_group_symop_operation_xyz
x,y,z
-x,-y,-z
loop_
_atom_site_type_symbol
_atom_site_label
_atom_site_fract_x
_atom_site_fract_y
_atom_site_fract_z
Si Si1 0.594874 0.189025 0.081853
Si Si2 0.874738 0.951444 0.807163
Si Si3 0.160879 0.607299 0.660817
Si Si4 0.016850 0.585678 0.567292
Si Si5 0.669413 0.360085 0.210575
Si Si6 0.628973 0.167864 0.562328
Si Si7 0.182479 0.376161 0.059017
Si Si8 0.707618 0.140244 0.645953
O O1 0.643673 0.323463 0.151426
O O2 0.321538 0.295336 0.087338
O O3 0.866564 0.283804 0.054987
O O4 0.628915 0.833762 0.020463
O O5 0.568391 0.854872 0.795648
O O6 0.059813 0.901406 0.742446
O O7 0.039445 0.741127 0.799539
O O8 0.837638 0.275446 0.883861
O O9 0.447613 0.459215 0.636658
O O10 0.218609 0.639958 0.608673
O O11 0.936666 0.367063 0.651234
O O12 0.897725 0.296509 0.547738
O O13 0.000000 0.500000 0.500000
O O14 0.846505 0.898236 0.629674
O O15 0.546113 0.678079 0.286231
O O16 0.621263 0.980611 0.576868
O O17 0.500000 0.000000 0.500000
#
# Coordination Sequence:
#
# PCOD9024000 Si02
#       8
#     2   2   2   2   2   2   2   2
#     4  10  22  40  62  95 129 167 212 256 316 369
#     4  11  23  41  65  92 127 166 212 259 321 372
#     4  10  23  41  59  87 124 160 204 264 316 375
#     4  11  24  40  61  92 117 162 214 252 323 386
#     4  11  23  41  64  94 124 167 213 260 314 379
#     4  11  22  40  63  85 123 159 200 265 317 372
#     4  10  22  40  63  92 132 168 206 263 311 375
#     4  10  23  41  59  87 126 158 206 265 314 377
#
# _framework density 24.944020999999999
#
# number of rings (size 3 to 8) (size 9 to 14) (size 15 to 20)
#    0.000    1.500    1.250    3.000    1.750    7.000 
#    0.000    0.000    0.000    0.000    0.000    0.000 
#    0.000    0.000    0.000    0.000    0.000    0.000 
#
# Total GULP energy -89226.378978 kJ/mol
# GULP energy per Si atom -5576.648686 kJ/mol
# Density = 2.488725 g / cm^3
# Si number density = 24.944021 Si / 1000 Ang^3
#
#
#
# Elastic Constant Matrix: (Units=GPa)
#
#
# Indices 1 2 3 4 5 6 
#
# 1 66.9423 15.6762 2.3101 -1.1222 3.6686 -22.8629
# 2 15.6762 78.5766 27.4646 3.4824 -9.3456 -23.8064
# 3 2.3101 27.4646 101.3911 -2.4939 -1.6139 -13.1581
# 4 -1.1222 3.4824 -2.4939 51.8052 -10.7422 2.8537
# 5 3.6686 -9.3456 -1.6139 -10.7422 34.8628 2.5908
# 6 -22.8629 -23.8064 -13.1581 2.8537 2.5908 38.7952
#
#
#
# Elastic Compliance Matrix: (Units=1/GPa)
#
#
# Indices 1 2 3 4 5 6 
#
# 1 0.019206 -0.001230 0.001287 -0.000758 -0.003363 0.011281
# 2 -0.001230 0.017256 -0.003511 -0.001072 0.003630 0.008510
# 3 0.001287 -0.003511 0.011096 0.000550 -0.000569 0.002365
# 4 -0.000758 -0.001072 0.000550 0.020885 0.006468 -0.002886
# 5 -0.003363 0.003630 -0.000569 0.006468 0.032169 -0.002571
# 6 0.011281 0.008510 0.002365 -0.002886 -0.002571 0.038833
#
#
# Mechanical properties :
#
#
# Convention : Reuss Voigt Hill
#
# Bulk Modulus (GPa) = 24.59928 37.53465 31.06696
# Shear Modulus (GPa) = 31.26903 38.52325 34.89614
#
# Velocity S-wave (km/s) = 3.54442 3.93413 3.74435
# Velocity P-wave (km/s) = 5.16079 5.97635 5.58348
#
# Compressibility (1/GPa) = 0.04065160
#
# Stress axis : x y z
#
# Youngs Moduli (GPa) = 52.06636 57.94927 90.12388
#
# Poissons Ratio (x) = 0.07130 -0.11603
# Poissons Ratio (y) = 0.06406 0.31639
# Poissons Ratio (z) = -0.06703 0.20343
#
# Static dielectric constant tensor:
#      x y z
#    x 2.099730 0.061910 0.040930 
#    y 0.061910 1.960830 -0.011410 
#    z 0.040930 -0.011410 2.084150 
# 
# From -- ./inp_files/10716.got.cif
#   From: 2010.05.17/outbox.cif.g08.bks.cpg/sg2_6_cif.got.tgz:10716.got - 2010.06.03 11:33:40.
