data_PCOD9024433
_publ_section_title
;
Structure prediction by ZEFSAII (Michael W. Deem and Ramdas Pophale) SiO2 
 PCOD9024433
Probable space group: P -1
;
_chemical_formula_sum "Si O2"
_cell_formula_units_Z 16
_cell_length_a 23.182658
_cell_length_b 6.608075
_cell_length_c 8.841991
_cell_angle_alpha 48.384087
_cell_angle_beta 136.101689
_cell_angle_gamma 125.065399
_cell_volume 690.027467
_symmetry_space_group_name_H-M "P -1"
_symmetry_group_IT_number 2
_symmetry_cell_setting 'triclinic'
loop_
_space_group_symop_operation_xyz
x,y,z
-x,-y,-z
loop_
_atom_site_type_symbol
_atom_site_label
_atom_site_fract_x
_atom_site_fract_y
_atom_site_fract_z
Si Si1 0.149814 0.106653 0.110380
Si Si2 0.920855 0.460826 0.090814
Si Si3 0.210750 0.095767 0.891471
Si Si4 0.386563 0.216286 0.004104
Si Si5 0.586523 0.214217 0.091307
Si Si6 0.097036 0.454398 0.333347
Si Si7 0.425433 0.665445 0.313376
Si Si8 0.682343 0.772094 0.470771
O O1 0.219943 0.199635 0.325242
O O2 0.115242 0.784376 0.223467
O O3 0.081990 0.302515 0.909498
O O4 0.194441 0.148491 0.010684
O O5 0.008688 0.349937 0.304117
O O6 0.843505 0.207437 0.094582
O O7 0.914062 0.587024 0.847086
O O8 0.308150 0.120153 0.017358
O O9 0.170797 0.314889 0.609080
O O10 0.428435 0.526116 0.971608
O O11 0.345173 0.219133 0.758703
O O12 0.446538 0.988614 0.234361
O O13 0.650959 0.030530 0.365819
O O14 0.621810 0.334587 0.936290
O O15 0.500000 0.000000 0.000000
O O16 0.500000 0.500000 0.500000
O O17 0.368254 0.502538 0.413850
#
# Coordination Sequence:
#
# PCOD9024433 Si02
#       8
#     2   2   2   2   2   2   2   2
#     4  11  23  39  65  94 133 172 223 268 322 386
#     4  10  22  40  64  96 136 174 221 269 322 384
#     4  11  23  41  63  98 129 173 221 268 324 387
#     4  11  26  42  69  93 130 173 217 269 335 390
#     4  11  24  46  65  97 130 162 215 270 326 399
#     4  10  22  40  64  96 135 177 218 270 323 380
#     4  11  24  45  66  98 128 164 214 269 329 396
#     4  11  24  43  66  93 129 171 217 272 327 393
#
# _framework density 23.187481999999999
#
# number of rings (size 3 to 8) (size 9 to 14) (size 15 to 20)
#    0.000    1.250    1.250    3.750    0.000   11.000 
#    0.000    0.000    0.000    0.000    0.000    0.000 
#    0.000    0.000    0.000    0.000    0.000    0.000 
#
# Total GULP energy -89524.662429 kJ/mol
# GULP energy per Si atom -5595.291402 kJ/mol
# Density = 2.313471 g / cm^3
# Si number density = 23.187482 Si / 1000 Ang^3
#
#
#
# Elastic Constant Matrix: (Units=GPa)
#
#
# Indices 1 2 3 4 5 6 
#
# 1 98.1788 41.6990 12.5273 -16.7768 4.6260 -3.9093
# 2 41.6990 115.8332 25.5164 -28.5945 0.6167 -15.7621
# 3 12.5273 25.5164 62.9393 -21.2017 3.4938 -12.3582
# 4 -16.7768 -28.5945 -21.2017 35.5617 -5.7853 7.0042
# 5 4.6260 0.6167 3.4938 -5.7853 41.4974 -4.0241
# 6 -3.9093 -15.7621 -12.3582 7.0042 -4.0241 37.4493
#
#
#
# Elastic Compliance Matrix: (Units=1/GPa)
#
#
# Indices 1 2 3 4 5 6 
#
# 1 0.012310 -0.003882 -0.000125 0.002639 -0.001033 -0.000995
# 2 -0.003882 0.012505 -0.001381 0.007027 0.001660 0.003267
# 3 -0.000125 -0.001381 0.020827 0.010417 0.000155 0.004347
# 4 0.002639 0.007027 0.010417 0.042103 0.004525 -0.000718
# 5 -0.001033 0.001660 0.000155 0.004525 0.025047 0.002487
# 6 -0.000995 0.003267 0.004347 -0.000718 0.002487 0.029810
#
#
# Mechanical properties :
#
#
# Convention : Reuss Voigt Hill
#
# Bulk Modulus (GPa) = 28.68131 48.49297 38.58714
# Shear Modulus (GPa) = 30.30272 36.04893 33.17583
#
# Velocity S-wave (km/s) = 3.61897 3.94721 3.78665
# Velocity P-wave (km/s) = 5.46432 6.46009 5.98296
#
# Compressibility (1/GPa) = 0.03486591
#
# Stress axis : x y z
#
# Youngs Moduli (GPa) = 81.23166 79.96636 48.01484
#
# Poissons Ratio (x) = 0.31047 0.00601
# Poissons Ratio (y) = 0.31538 0.06629
# Poissons Ratio (z) = 0.01018 0.11040
#
# Static dielectric constant tensor:
#      x y z
#    x 1.892680 -0.020270 0.028940 
#    y -0.020270 1.884640 -0.007140 
#    z 0.028940 -0.007140 1.863090 
# 
# From -- ./inp_files/138925.got.cif
#   From: 2010.05.17/outbox.cif.g08.bks.cpg/sg2_70_cif.got.tgz:138925.got - 2010.06.03 11:33:40.
