data_PCOD9024529
_publ_section_title
;
Structure prediction by ZEFSAII (Michael W. Deem and Ramdas Pophale) SiO2 
 PCOD9024529
Probable space group: P -1
;
_chemical_formula_sum "Si O2"
_cell_formula_units_Z 16
_cell_length_a 9.164200
_cell_length_b 9.441182
_cell_length_c 16.565411
_cell_angle_alpha 113.076219
_cell_angle_beta 47.055259
_cell_angle_gamma 81.067175
_cell_volume 751.839327
_symmetry_space_group_name_H-M "P -1"
_symmetry_group_IT_number 2
_symmetry_cell_setting 'triclinic'
loop_
_space_group_symop_operation_xyz
x,y,z
-x,-y,-z
loop_
_atom_site_type_symbol
_atom_site_label
_atom_site_fract_x
_atom_site_fract_y
_atom_site_fract_z
Si Si1 0.063193 0.828920 0.378956
Si Si2 0.339958 0.197813 0.549647
Si Si3 0.170603 0.563870 0.792500
Si Si4 0.334210 0.989833 0.883767
Si Si5 0.727722 0.135479 0.956363
Si Si6 0.621612 0.513977 0.124763
Si Si7 0.717277 0.202755 0.293200
Si Si8 0.576766 0.160751 0.849751
O O1 0.318842 0.621577 0.268240
O O2 0.163935 0.868357 0.269534
O O3 0.840410 0.820262 0.441818
O O4 0.000000 0.000000 0.500000
O O5 0.176927 0.395649 0.709854
O O6 0.519736 0.218743 0.431486
O O7 0.500000 0.000000 0.500000
O O8 0.280561 0.493144 0.825469
O O9 0.333737 0.606105 0.685367
O O10 0.900645 0.782689 0.954098
O O11 0.572121 0.989068 0.781954
O O12 0.262396 0.922545 0.819404
O O13 0.379215 0.863519 0.916473
O O14 0.543016 0.181334 0.962752
O O15 0.764058 0.300519 0.985518
O O16 0.005658 0.923650 0.796857
O O17 0.620874 0.652242 0.091329
#
# Coordination Sequence:
#
# PCOD9024529 Si02
#       8
#     2   2   2   2   2   2   2   2
#     4  10  23  44  61  91 133 169 213 264 324 381
#     4  12  26  42  71  95 128 175 223 266 318 390
#     4  11  23  44  64 101 131 168 220 267 323 385
#     4  11  22  40  70  95 133 171 215 265 325 394
#     4  11  20  42  63  98 128 167 213 271 326 379
#     4  10  22  40  65  88 137 163 209 272 324 372
#     4  11  23  44  68  94 133 174 213 267 325 389
#     4  10  24  36  64  93 127 167 214 266 320 376
#
# _framework density 21.281141999999999
#
# number of rings (size 3 to 8) (size 9 to 14) (size 15 to 20)
#    0.750    0.500    2.500    4.125    3.500    1.500 
#    0.000    0.625    0.000    0.000    0.000    0.000 
#    0.000    0.000    0.000    0.000    0.000    0.000 
#
# Total GULP energy -89278.385628 kJ/mol
# GULP energy per Si atom -5579.899102 kJ/mol
# Density = 2.123271 g / cm^3
# Si number density = 21.281142 Si / 1000 Ang^3
#
#
#
# Elastic Constant Matrix: (Units=GPa)
#
#
# Indices 1 2 3 4 5 6 
#
# 1 110.0411 44.1321 19.1245 3.1547 18.6022 -8.2996
# 2 44.1321 93.6217 12.6594 -5.9461 10.9234 -0.6093
# 3 19.1245 12.6594 53.3912 8.0087 12.3679 -2.2467
# 4 3.1547 -5.9461 8.0087 25.3475 11.5440 7.3835
# 5 18.6022 10.9234 12.3679 11.5440 27.6663 -2.5375
# 6 -8.2996 -0.6093 -2.2467 7.3835 -2.5375 42.6220
#
#
#
# Elastic Compliance Matrix: (Units=1/GPa)
#
#
# Indices 1 2 3 4 5 6 
#
# 1 0.012481 -0.005019 -0.001937 -0.000321 -0.005227 0.002001
# 2 -0.005019 0.014295 -0.001688 0.007423 -0.004836 -0.002436
# 3 -0.001937 -0.001688 0.021923 -0.004856 -0.005690 0.001257
# 4 -0.000321 0.007423 -0.004856 0.057955 -0.025807 -0.011788
# 5 -0.005227 -0.004836 -0.005690 -0.025807 0.055466 0.006386
# 6 0.002001 -0.002436 0.001257 -0.011788 0.006386 0.026305
#
#
# Mechanical properties :
#
#
# Convention : Reuss Voigt Hill
#
# Bulk Modulus (GPa) = 31.83555 45.43179 38.63367
# Shear Modulus (GPa) = 23.12851 31.20303 27.16577
#
# Velocity S-wave (km/s) = 3.30025 3.83329 3.57672
# Velocity P-wave (km/s) = 5.43270 6.40210 5.93722
#
# Compressibility (1/GPa) = 0.03141143
#
# Stress axis : x y z
#
# Youngs Moduli (GPa) = 80.12372 69.95392 45.61386
#
# Poissons Ratio (x) = 0.35109 0.08837
# Poissons Ratio (y) = 0.40213 0.07697
# Poissons Ratio (z) = 0.15524 0.11805
#
# Static dielectric constant tensor:
#      x y z
#    x 1.773250 0.001830 -0.023830 
#    y 0.001830 1.799830 -0.035700 
#    z -0.023830 -0.035700 1.842480 
# 
# From -- ./inp_files/557428.got.cif
#   From: 2010.05.17/outbox.cif.g08.bks.cpg/sg2_279_cif.got.tgz:557428.got - 2010.06.03 11:33:40.
