data_PCOD9024366
_publ_section_title
;
Structure prediction by ZEFSAII (Michael W. Deem and Ramdas Pophale) SiO2 
 PCOD9024366
Probable space group: P -1
;
_chemical_formula_sum "Si O2"
_cell_formula_units_Z 14
_cell_length_a 13.987335
_cell_length_b 6.775848
_cell_length_c 12.461734
_cell_angle_alpha 46.271832
_cell_angle_beta 44.543827
_cell_angle_gamma 56.370715
_cell_volume 594.300894
_symmetry_space_group_name_H-M "P -1"
_symmetry_group_IT_number 2
_symmetry_cell_setting 'triclinic'
loop_
_space_group_symop_operation_xyz
x,y,z
-x,-y,-z
loop_
_atom_site_type_symbol
_atom_site_label
_atom_site_fract_x
_atom_site_fract_y
_atom_site_fract_z
Si Si1 0.582814 0.092409 0.561937
Si Si2 0.807976 0.857805 0.776350
Si Si3 0.354700 0.400656 0.153497
Si Si4 0.764462 0.352259 0.468097
Si Si5 0.997621 0.792027 0.836113
Si Si6 0.112637 0.708818 0.144842
Si Si7 0.706430 0.990940 0.273651
O O1 0.654725 0.811389 0.663926
O O2 0.648901 0.129463 0.378502
O O3 0.618980 0.311122 0.540773
O O4 0.425886 0.040355 0.685108
O O5 0.669968 0.745126 0.886729
O O6 0.855485 0.843268 0.864631
O O7 0.796626 0.154226 0.618933
O O8 0.917494 0.604007 0.735513
O O9 0.500000 0.500000 0.000000
O O10 0.231559 0.642843 0.163547
O O11 0.768004 0.674053 0.362723
O O12 0.875765 0.232982 0.336129
O O13 0.000000 0.500000 0.000000
O O14 0.998910 0.053153 0.814130
O O15 0.188422 0.833544 0.936525
#
# Coordination Sequence:
#
# PCOD9024366 Si02
#       7
#     2   2   2   2   2   2   2
#     4  10  22  40  64  94 124 165 204 253 318 366
#     4   9  24  41  62  91 124 163 211 251 311 366
#     4   9  18  42  66  88 126 161 204 252 308 374
#     4  11  24  41  62  92 127 163 209 257 303 371
#     4  12  25  42  63  93 126 164 214 257 305 367
#     4  10  23  41  65  90 126 163 208 255 307 372
#     4  11  22  39  66  93 128 159 206 259 311 365
#
# _framework density 23.557091
#
# number of rings (size 3 to 8) (size 9 to 14) (size 15 to 20)
#    0.857    0.857    2.857    0.857    4.000    2.286 
#    0.000    0.714    0.000    0.000    0.000    0.000 
#    0.000    0.000    0.000    0.000    0.000    0.000 
#
# Total GULP energy -78107.276665 kJ/mol
# GULP energy per Si atom -5579.091190 kJ/mol
# Density = 2.350347 g / cm^3
# Si number density = 23.557091 Si / 1000 Ang^3
#
#
#
# Elastic Constant Matrix: (Units=GPa)
#
#
# Indices 1 2 3 4 5 6 
#
# 1 132.4113 11.3478 34.8683 -21.4076 15.0918 7.0720
# 2 11.3478 85.9610 -4.5576 -27.6610 12.7683 -9.3245
# 3 34.8683 -4.5576 48.9185 -19.9600 17.8909 -3.3466
# 4 -21.4076 -27.6610 -19.9600 36.1858 -12.5897 6.7661
# 5 15.0918 12.7683 17.8909 -12.5897 37.5545 -9.8741
# 6 7.0720 -9.3245 -3.3466 6.7661 -9.8741 26.2052
#
#
#
# Elastic Compliance Matrix: (Units=1/GPa)
#
#
# Indices 1 2 3 4 5 6 
#
# 1 0.010077 -0.001474 -0.006516 0.001767 -0.001159 -0.004969
# 2 -0.001474 0.019553 0.012591 0.018815 -0.005180 0.002153
# 3 -0.006516 0.012591 0.040678 0.023598 -0.013016 0.000436
# 4 0.001767 0.018815 0.023598 0.056879 -0.000794 -0.005754
# 5 -0.001159 -0.005180 -0.013016 -0.000794 0.037743 0.011234
# 6 -0.004969 0.002153 0.000436 -0.005754 0.011234 0.046042
#
#
# Mechanical properties :
#
#
# Convention : Reuss Voigt Hill
#
# Bulk Modulus (GPa) = 12.57686 38.95641 25.76664
# Shear Modulus (GPa) = 21.90363 35.03127 28.46745
#
# Velocity S-wave (km/s) = 3.05259 3.86045 3.48004
# Velocity P-wave (km/s) = 4.21602 6.03686 5.20666
#
# Compressibility (1/GPa) = 0.07951109
#
# Stress axis : x y z
#
# Youngs Moduli (GPa) = 99.23128 51.14401 24.58322
#
# Poissons Ratio (x) = 0.07539 0.16017
# Poissons Ratio (y) = 0.14627 -0.30953
# Poissons Ratio (z) = 0.64655 -0.64396
#
# Static dielectric constant tensor:
#      x y z
#    x 2.020830 0.022930 -0.036840 
#    y 0.022930 1.976870 0.005020 
#    z -0.036840 0.005020 1.876200 
# 
# From -- ./inp_files/441549.got.cif
#   From: 2010.05.17/outbox.cif.g08.bks.cpg/sg2_221_cif.got.tgz:441549.got - 2010.06.03 11:33:40.
