data_PCOD9024163
_publ_section_title
;
Structure prediction by ZEFSAII (Michael W. Deem and Ramdas Pophale) SiO2 
 PCOD9024163
Probable space group: P -1
;
_chemical_formula_sum "Si O2"
_cell_formula_units_Z 16
_cell_length_a 14.756792
_cell_length_b 11.554455
_cell_length_c 17.274675
_cell_angle_alpha 144.742513
_cell_angle_beta 33.389478
_cell_angle_gamma 152.860070
_cell_volume 706.979296
_symmetry_space_group_name_H-M "P -1"
_symmetry_group_IT_number 2
_symmetry_cell_setting 'triclinic'
loop_
_space_group_symop_operation_xyz
x,y,z
-x,-y,-z
loop_
_atom_site_type_symbol
_atom_site_label
_atom_site_fract_x
_atom_site_fract_y
_atom_site_fract_z
Si Si1 0.144659 0.546724 0.543310
Si Si2 0.589628 0.033012 0.038931
Si Si3 0.190387 0.392214 0.776731
Si Si4 0.542435 0.817718 0.662226
Si Si5 0.000223 0.966968 0.572219
Si Si6 0.270848 0.597938 0.313929
Si Si7 0.721151 0.107142 0.213489
Si Si8 0.885285 0.980821 0.889309
O O1 0.290882 0.675138 0.432112
O O2 0.160461 0.331898 0.446980
O O3 0.903891 0.397030 0.599412
O O4 0.185696 0.734785 0.686175
O O5 0.780537 0.350549 0.086652
O O6 0.409411 0.964249 0.191979
O O7 0.693097 0.914172 0.933680
O O8 0.500000 0.000000 0.000000
O O9 0.430016 0.560208 0.656862
O O10 0.113065 0.209789 0.807762
O O11 0.008011 0.181825 0.729539
O O12 0.759608 0.929311 0.526944
O O13 0.362095 0.764405 0.704758
O O14 0.000000 0.000000 0.500000
O O15 0.504516 0.805586 0.221165
O O16 0.165430 0.293111 0.215908
O O17 0.868382 0.092135 0.042214
#
# Coordination Sequence:
#
# PCOD9024163 Si02
#       8
#     2   2   2   2   2   2   2   2
#     4  11  25  44  71  98 133 179 226 279 340 388
#     4   9  22  39  60  92 133 172 213 266 335 399
#     4  10  22  40  63  95 134 173 213 279 334 400
#     4   9  22  40  62  94 134 170 213 280 334 388
#     4  12  23  40  69 100 133 173 227 279 340 406
#     4  11  24  48  66  98 137 173 233 276 328 404
#     4  11  23  45  69  95 135 177 224 281 332 396
#     4  11  23  43  67  95 135 178 222 274 335 402
#
# _framework density 22.631497
#
# number of rings (size 3 to 8) (size 9 to 14) (size 15 to 20)
#    0.750    0.750    2.500    2.250    1.750    1.500 
#    4.500    0.000    0.000    0.000    0.000    0.000 
#    0.000    0.000    0.000    0.000    0.000    0.000 
#
# Total GULP energy -89187.951807 kJ/mol
# GULP energy per Si atom -5574.246988 kJ/mol
# Density = 2.257999 g / cm^3
# Si number density = 22.631497 Si / 1000 Ang^3
#
#
#
# Elastic Constant Matrix: (Units=GPa)
#
#
# Indices 1 2 3 4 5 6 
#
# 1 78.2417 14.7267 29.7207 17.5044 22.1665 -18.2936
# 2 14.7267 92.9881 24.0500 -10.1917 3.0985 -33.5927
# 3 29.7207 24.0500 89.6785 6.0882 31.9331 -4.6244
# 4 17.5044 -10.1917 6.0882 33.5971 -5.9071 0.4441
# 5 22.1665 3.0985 31.9331 -5.9071 38.4456 3.0381
# 6 -18.2936 -33.5927 -4.6244 0.4441 3.0381 26.4625
#
#
#
# Elastic Compliance Matrix: (Units=1/GPa)
#
#
# Indices 1 2 3 4 5 6 
#
# 1 0.028817 0.004613 -0.000422 -0.017714 -0.021609 0.028482
# 2 0.004613 0.024095 -0.006256 0.005403 -0.001161 0.032725
# 3 -0.000422 -0.006256 0.019087 -0.007928 -0.016094 -0.002917
# 4 -0.017714 0.005403 -0.007928 0.046483 0.024323 -0.010345
# 5 -0.021609 -0.001161 -0.016094 0.024323 0.057744 -0.026262
# 6 0.028482 0.032725 -0.002917 -0.010345 -0.026262 0.101701
#
#
# Mechanical properties :
#
#
# Convention : Reuss Voigt Hill
#
# Bulk Modulus (GPa) = 14.73418 44.21147 29.47282
# Shear Modulus (GPa) = 16.41069 32.52843 24.46956
#
# Velocity S-wave (km/s) = 2.69574 3.79530 3.29175
# Velocity P-wave (km/s) = 4.02665 6.22764 5.24392
#
# Compressibility (1/GPa) = 0.06786940
#
# Stress axis : x y z
#
# Youngs Moduli (GPa) = 34.70146 41.50287 52.39103
#
# Poissons Ratio (x) = -0.19145 0.02208
# Poissons Ratio (y) = -0.16008 0.32778
# Poissons Ratio (z) = 0.01463 0.25966
#
# Static dielectric constant tensor:
#      x y z
#    x 1.865450 0.025750 0.004260 
#    y 0.025750 1.898950 0.031960 
#    z 0.004260 0.031960 1.977810 
# 
# From -- ./inp_files/532023.got.cif
#   From: 2010.05.17/outbox.cif.g08.bks.cpg/sg2_267_cif.got.tgz:532023.got - 2010.06.03 11:33:40.
