data_PCOD9024121
_publ_section_title
;
Structure prediction by ZEFSAII (Michael W. Deem and Ramdas Pophale) SiO2 
 PCOD9024121
Probable space group: P -1
;
_chemical_formula_sum "Si O2"
_cell_formula_units_Z 16
_cell_length_a 7.191109
_cell_length_b 13.251728
_cell_length_c 14.491444
_cell_angle_alpha 41.452784
_cell_angle_beta 58.702715
_cell_angle_gamma 80.246445
_cell_volume 719.701764
_symmetry_space_group_name_H-M "P -1"
_symmetry_group_IT_number 2
_symmetry_cell_setting 'triclinic'
loop_
_space_group_symop_operation_xyz
x,y,z
-x,-y,-z
loop_
_atom_site_type_symbol
_atom_site_label
_atom_site_fract_x
_atom_site_fract_y
_atom_site_fract_z
Si Si1 0.526605 0.828757 0.923160
Si Si2 0.683987 0.261706 0.267243
Si Si3 0.105079 0.653425 0.436646
Si Si4 0.936511 0.851901 0.222641
Si Si5 0.265523 0.009470 0.432326
Si Si6 0.392926 0.095244 0.858018
Si Si7 0.007688 0.391931 0.782930
Si Si8 0.834317 0.629743 0.043576
O O1 0.626421 0.938945 0.731985
O O2 0.485717 0.948607 0.926922
O O3 0.268635 0.689042 0.066955
O O4 0.697127 0.742619 0.971533
O O5 0.435229 0.152947 0.358638
O O6 0.708704 0.444450 0.163222
O O7 0.724701 0.158375 0.413650
O O8 0.900843 0.289963 0.121307
O O9 0.972887 0.775066 0.362125
O O10 0.382978 0.745316 0.281799
O O11 0.000000 0.500000 0.500000
O O12 0.070940 0.574038 0.600519
O O13 0.948786 0.722415 0.229771
O O14 0.702973 0.878876 0.236165
O O15 0.158435 0.023072 0.029700
O O16 0.000000 0.000000 0.500000
O O17 0.152106 0.387275 0.838750
#
# Coordination Sequence:
#
# PCOD9024121 Si02
#       8
#     2   2   2   2   2   2   2   2
#     4  11  24  41  64  97 134 170 223 266 323 392
#     4  10  24  42  69  93 130 170 218 265 332 389
#     4  10  22  40  63  93 128 171 221 268 327 384
#     4   9  21  42  67  91 127 178 217 267 326 381
#     4  11  22  44  69  97 128 172 217 273 324 390
#     4  10  22  40  67  95 128 172 217 273 319 391
#     4  10  23  40  61  95 136 169 218 271 320 390
#     4  11  23  43  65  97 130 175 212 272 326 387
#
# _framework density 22.231431000000001
#
# number of rings (size 3 to 8) (size 9 to 14) (size 15 to 20)
#    0.000    1.750    2.500    0.375    1.750   10.500 
#    0.000    0.000    0.000    0.000    0.000    0.000 
#    0.000    0.000    0.000    0.000    0.000    0.000 
#
# Total GULP energy -89477.196661 kJ/mol
# GULP energy per Si atom -5592.324791 kJ/mol
# Density = 2.218083 g / cm^3
# Si number density = 22.231431 Si / 1000 Ang^3
#
#
#
# Elastic Constant Matrix: (Units=GPa)
#
#
# Indices 1 2 3 4 5 6 
#
# 1 155.5233 41.3905 55.7691 -18.9655 9.8602 -4.8768
# 2 41.3905 42.3213 26.9359 -5.1733 -2.0003 -7.5261
# 3 55.7691 26.9359 131.0735 -14.6017 19.1228 -0.2798
# 4 -18.9655 -5.1733 -14.6017 29.3339 11.1603 1.8532
# 5 9.8602 -2.0003 19.1228 11.1603 54.3818 -2.6446
# 6 -4.8768 -7.5261 -0.2798 1.8532 -2.6446 24.7531
#
#
#
# Elastic Compliance Matrix: (Units=1/GPa)
#
#
# Indices 1 2 3 4 5 6 
#
# 1 0.010041 -0.008572 -0.001511 0.005367 -0.002771 -0.001343
# 2 -0.008572 0.037033 -0.005390 -0.004757 0.006300 0.010539
# 3 -0.001511 -0.005390 0.010702 0.005453 -0.004941 -0.002752
# 4 0.005367 -0.004757 0.005453 0.044483 -0.012437 -0.004986
# 5 -0.002771 0.006300 -0.004941 -0.012437 0.023644 0.004771
# 6 -0.001343 0.010539 -0.002752 -0.004986 0.004771 0.044191
#
#
# Mechanical properties :
#
#
# Convention : Reuss Voigt Hill
#
# Bulk Modulus (GPa) = 37.27137 64.12326 50.69731
# Shear Modulus (GPa) = 23.81119 35.34862 29.57990
#
# Velocity S-wave (km/s) = 3.27626 3.99184 3.65162
# Velocity P-wave (km/s) = 5.57794 7.08185 6.37440
#
# Compressibility (1/GPa) = 0.02683024
#
# Stress axis : x y z
#
# Youngs Moduli (GPa) = 99.58781 27.00262 93.43707
#
# Poissons Ratio (x) = 0.23148 0.14122
# Poissons Ratio (y) = 0.85370 0.50360
# Poissons Ratio (z) = 0.15052 0.14554
#
# Static dielectric constant tensor:
#      x y z
#    x 1.844590 0.012420 0.027410 
#    y 0.012420 1.829240 0.011930 
#    z 0.027410 0.011930 1.827310 
# 
# From -- ./inp_files/484225.got.cif
#   From: 2010.05.17/outbox.cif.g08.bks.cpg/sg2_243_cif.got.tgz:484225.got - 2010.06.03 11:33:40.
