data_PCOD9024979
_publ_section_title
;
Structure prediction by ZEFSAII (Michael W. Deem and Ramdas Pophale) SiO2 
 PCOD9024979
Probable space group: P -1
;
_chemical_formula_sum "Si O2"
_cell_formula_units_Z 14
_cell_length_a 23.843229
_cell_length_b 15.481518
_cell_length_c 6.591360
_cell_angle_alpha 103.265352
_cell_angle_beta 111.367288
_cell_angle_gamma 17.977887
_cell_volume 638.684635
_symmetry_space_group_name_H-M "P -1"
_symmetry_group_IT_number 2
_symmetry_cell_setting 'triclinic'
loop_
_space_group_symop_operation_xyz
x,y,z
-x,-y,-z
loop_
_atom_site_type_symbol
_atom_site_label
_atom_site_fract_x
_atom_site_fract_y
_atom_site_fract_z
Si Si1 0.614672 0.229434 0.726599
Si Si2 0.951284 0.417976 0.885758
Si Si3 0.113348 0.342133 0.774691
Si Si4 0.863041 0.375841 0.557350
Si Si5 0.239046 0.874799 0.479566
Si Si6 0.445918 0.331267 0.855396
Si Si7 0.882338 0.090160 0.020222
O O1 0.433327 0.558239 0.684574
O O2 0.690391 0.133970 0.542106
O O3 0.519105 0.273024 0.707864
O O4 0.822406 0.946920 0.981434
O O5 0.983129 0.454948 0.796920
O O6 0.799514 0.556407 0.681592
O O7 0.895173 0.546356 0.087515
O O8 0.000000 0.500000 0.500000
O O9 0.351059 0.977026 0.912915
O O10 0.686558 0.568793 0.317583
O O11 0.038048 0.157990 0.507029
O O12 0.966848 0.166434 0.752124
O O13 0.192828 0.874769 0.227395
O O14 0.303229 0.602152 0.933849
O O15 0.000000 0.000000 0.000000
#
# Coordination Sequence:
#
# PCOD9024979 Si02
#       7
#     2   2   2   2   2   2   2
#     4  10  22  40  66  98 138 180 229 270 339 400
#     4  10  24  44  68  98 135 177 230 290 337 398
#     4  10  25  48  70  95 130 181 236 291 338 396
#     4  12  24  44  68 104 144 176 224 281 345 418
#     4  11  23  37  66 103 139 183 224 274 336 418
#     4  11  24  44  70  99 140 186 222 285 343 404
#     4  12  23  40  66 104 144 182 216 272 350 410
#
# _framework density 21.920052999999999
#
# number of rings (size 3 to 8) (size 9 to 14) (size 15 to 20)
#    0.000    1.143    4.286    1.286    4.000    5.143 
#    2.571    0.714    0.000    0.000    0.000    0.000 
#    0.000    0.000    0.000    0.000    0.000    0.000 
#
# Total GULP energy -78260.898933 kJ/mol
# GULP energy per Si atom -5590.064209 kJ/mol
# Density = 2.187016 g / cm^3
# Si number density = 21.920053 Si / 1000 Ang^3
#
#
#
# Elastic Constant Matrix: (Units=GPa)
#
#
# Indices 1 2 3 4 5 6 
#
# 1 112.1900 46.3311 45.5386 12.1913 -9.0765 -11.8613
# 2 46.3311 51.3692 49.0069 2.2329 4.2838 8.3122
# 3 45.5386 49.0069 124.3806 10.7431 0.7275 14.9474
# 4 12.1913 2.2329 10.7431 27.6363 9.4869 2.6529
# 5 -9.0765 4.2838 0.7275 9.4869 35.1188 11.4543
# 6 -11.8613 8.3122 14.9474 2.6529 11.4543 31.9949
#
#
#
# Elastic Compliance Matrix: (Units=1/GPa)
#
#
# Indices 1 2 3 4 5 6 
#
# 1 0.020048 -0.020117 0.000150 -0.010715 0.006942 0.010992
# 2 -0.020117 0.052255 -0.012972 0.014749 -0.011329 -0.012140
# 3 0.000150 -0.012972 0.014050 -0.005514 0.004182 -0.004178
# 4 -0.010715 0.014749 -0.005514 0.047768 -0.016260 -0.003368
# 5 0.006942 -0.011329 0.004182 -0.016260 0.038897 -0.009014
# 6 0.010992 -0.012140 -0.004178 -0.003368 -0.009014 0.043942
#
#
# Mechanical properties :
#
#
# Convention : Reuss Voigt Hill
#
# Bulk Modulus (GPa) = 48.84080 63.29922 56.07001
# Shear Modulus (GPa) = 17.26144 28.75421 23.00783
#
# Velocity S-wave (km/s) = 2.80924 3.62577 3.24331
# Velocity P-wave (km/s) = 5.73168 6.81677 6.29764
#
# Compressibility (1/GPa) = 0.02047468
#
# Stress axis : x y z
#
# Youngs Moduli (GPa) = 49.87936 19.13707 71.17429
#
# Poissons Ratio (x) = 0.38498 -0.01068
# Poissons Ratio (y) = 1.00342 0.92329
# Poissons Ratio (z) = -0.00748 0.24825
#
# Static dielectric constant tensor:
#      x y z
#    x 1.829460 0.009530 0.002410 
#    y 0.009530 1.831380 0.032600 
#    z 0.002410 0.032600 1.794150 
# 
# From -- ./inp_files/124341.got.cif
#   From: 2010.05.17/outbox.cif.g08.bks.cpg/sg2_63_cif.got.tgz:124341.got - 2010.06.03 11:33:40.
