data_PCOD9024133
_publ_section_title
;
Structure prediction by ZEFSAII (Michael W. Deem and Ramdas Pophale) SiO2 
 PCOD9024133
Probable space group: P -1
;
_chemical_formula_sum "Si O2"
_cell_formula_units_Z 14
_cell_length_a 15.780736
_cell_length_b 15.711518
_cell_length_c 25.523024
_cell_angle_alpha 162.285742
_cell_angle_beta 160.412255
_cell_angle_gamma 28.572837
_cell_volume 633.916756
_symmetry_space_group_name_H-M "P -1"
_symmetry_group_IT_number 2
_symmetry_cell_setting 'triclinic'
loop_
_space_group_symop_operation_xyz
x,y,z
-x,-y,-z
loop_
_atom_site_type_symbol
_atom_site_label
_atom_site_fract_x
_atom_site_fract_y
_atom_site_fract_z
Si Si1 0.882333 0.724570 0.349765
Si Si2 0.910954 0.100868 0.824058
Si Si3 0.380924 0.189460 0.083170
Si Si4 0.523878 0.402977 0.710077
Si Si5 0.643566 0.205051 0.968674
Si Si6 0.197163 0.354884 0.244135
Si Si7 0.391696 0.082912 0.863660
O O1 0.611096 0.797617 0.216332
O O2 0.021972 0.549832 0.285912
O O3 0.820469 0.510577 0.237737
O O4 0.083781 0.019632 0.646446
O O5 0.718803 0.259442 0.773404
O O6 0.740918 0.814801 0.579792
O O7 0.107000 0.043461 0.860024
O O8 0.064431 0.275914 0.063784
O O9 0.370579 0.475841 0.213578
O O10 0.553284 0.203639 0.244021
O O11 0.500000 0.000000 0.000000
O O12 0.492482 0.662012 0.881224
O O13 0.528393 0.155844 0.931154
O O14 0.790376 0.942093 0.892952
O O15 0.500000 0.500000 0.500000
#
# Coordination Sequence:
#
# PCOD9024133 Si02
#       7
#     2   2   2   2   2   2   2
#     4  11  25  43  67 101 133 173 227 269 334 393
#     4  11  23  45  64  97 134 169 219 268 328 395
#     4  10  22  40  63  94 124 170 216 263 320 387
#     4  10  25  41  68  95 130 176 213 272 329 384
#     4  11  24  43  67 100 132 177 221 274 332 390
#     4  12  24  44  71  98 136 177 218 275 333 389
#     4  11  22  42  67  95 131 172 215 274 328 389
#
# _framework density 22.084918999999999
#
# number of rings (size 3 to 8) (size 9 to 14) (size 15 to 20)
#    0.000    1.143    2.857    2.143    4.000    4.571 
#    2.571    2.857    0.000    0.000    0.000    0.000 
#    0.000    0.000    0.000    0.000    0.000    0.000 
#
# Total GULP energy -78120.040654 kJ/mol
# GULP energy per Si atom -5580.002904 kJ/mol
# Density = 2.203465 g / cm^3
# Si number density = 22.084919 Si / 1000 Ang^3
#
#
#
# Elastic Constant Matrix: (Units=GPa)
#
#
# Indices 1 2 3 4 5 6 
#
# 1 89.6965 19.3341 51.2346 6.7171 27.1681 40.7006
# 2 19.3341 80.2604 0.3277 -10.7494 -1.7362 -0.9127
# 3 51.2346 0.3277 132.0029 15.3140 32.4631 44.1888
# 4 6.7171 -10.7494 15.3140 46.5687 19.6106 39.6455
# 5 27.1681 -1.7362 32.4631 19.6106 45.7178 27.4524
# 6 40.7006 -0.9127 44.1888 39.6455 27.4524 75.9061
#
#
#
# Elastic Compliance Matrix: (Units=1/GPa)
#
#
# Indices 1 2 3 4 5 6 
#
# 1 0.020924 -0.003893 -0.003460 0.010690 -0.007412 -0.012155
# 2 -0.003893 0.013868 0.001003 0.003431 0.000932 -0.000458
# 3 -0.003460 0.001003 0.011159 0.002678 -0.004291 -0.004476
# 4 0.010690 0.003431 0.002678 0.049307 -0.012081 -0.028634
# 5 -0.007412 0.000932 -0.004291 -0.012081 0.034312 0.000384
# 6 -0.012155 -0.000458 -0.004476 -0.028634 0.000384 0.037108
#
#
# Mechanical properties :
#
#
# Convention : Reuss Voigt Hill
#
# Bulk Modulus (GPa) = 30.07523 49.30584 39.69053
# Shear Modulus (GPa) = 26.25206 49.04275 37.64740
#
# Velocity S-wave (km/s) = 3.45147 4.71748 4.13324
# Velocity P-wave (km/s) = 5.43425 7.21435 6.38663
#
# Compressibility (1/GPa) = 0.03324996
#
# Stress axis : x y z
#
# Youngs Moduli (GPa) = 47.79182 72.11049 89.61474
#
# Poissons Ratio (x) = 0.28073 0.31008
# Poissons Ratio (y) = 0.18606 -0.08988
# Poissons Ratio (z) = 0.16537 -0.07233
#
# Static dielectric constant tensor:
#      x y z
#    x 1.774660 0.036270 -0.005860 
#    y 0.036270 1.954000 0.001890 
#    z -0.005860 0.001890 1.833000 
# 
# From -- ./inp_files/278455.got.cif
#   From: 2010.05.17/outbox.cif.g08.bks.cpg/sg2_140_cif.got.tgz:278455.got - 2010.06.03 11:33:40.
