data_PCOD9024314
_publ_section_title
;
Structure prediction by ZEFSAII (Michael W. Deem and Ramdas Pophale) SiO2 
 PCOD9024314
Probable space group: P -1
;
_chemical_formula_sum "Si O2"
_cell_formula_units_Z 14
_cell_length_a 11.719357
_cell_length_b 6.760170
_cell_length_c 7.367738
_cell_angle_alpha 78.566473
_cell_angle_beta 100.564054
_cell_angle_gamma 102.865742
_cell_volume 551.811416
_symmetry_space_group_name_H-M "P -1"
_symmetry_group_IT_number 2
_symmetry_cell_setting 'triclinic'
loop_
_space_group_symop_operation_xyz
x,y,z
-x,-y,-z
loop_
_atom_site_type_symbol
_atom_site_label
_atom_site_fract_x
_atom_site_fract_y
_atom_site_fract_z
Si Si1 0.295078 0.576563 0.606188
Si Si2 0.443630 0.868660 0.827593
Si Si3 0.922491 0.768159 0.044139
Si Si4 0.223739 0.968593 0.883064
Si Si5 0.052335 0.629627 0.692014
Si Si6 0.680925 0.048243 0.693819
Si Si7 0.823077 0.748844 0.627742
O O1 0.373683 0.631588 0.803956
O O2 0.161015 0.607747 0.599038
O O3 0.277747 0.382938 0.501958
O O4 0.349765 0.761981 0.455200
O O5 0.328200 0.974727 0.767596
O O6 0.557564 0.895997 0.727139
O O7 0.500000 0.000000 0.000000
O O8 0.983230 0.596511 0.186678
O O9 0.817369 0.816877 0.135101
O O10 0.857602 0.680685 0.853900
O O11 0.000000 0.000000 0.000000
O O12 0.115516 0.794264 0.824854
O O13 0.265204 0.897594 0.101686
O O14 0.947362 0.736374 0.569018
O O15 0.778660 0.954304 0.630073
#
# Coordination Sequence:
#
# PCOD9024314 Si02
#       7
#     2   2   2   2   2   2   2
#     4  11  24  39  62  91 129 166 198 261 311 367
#     4   9  20  43  67  89 120 162 214 258 304 362
#     4  11  22  38  65  92 122 168 209 250 301 366
#     4   9  20  39  65  92 122 167 203 261 299 358
#     4  11  23  39  60  94 131 162 208 248 310 368
#     4  10  22  40  64  92 125 165 212 246 313 362
#     4  11  24  38  61  94 128 166 202 254 306 369
#
# _framework density 25.370987
#
# number of rings (size 3 to 8) (size 9 to 14) (size 15 to 20)
#    0.000    1.714    1.429    2.143    4.000    3.429 
#    0.000    2.857    0.000   15.429    0.000    0.000 
#    0.000    0.000    0.000    0.000    0.000    0.000 
#
# Total GULP energy -77942.311959 kJ/mol
# GULP energy per Si atom -5567.307997 kJ/mol
# Density = 2.531324 g / cm^3
# Si number density = 25.370987 Si / 1000 Ang^3
#
#
#
# Elastic Constant Matrix: (Units=GPa)
#
#
# Indices 1 2 3 4 5 6 
#
# 1 76.7653 25.0143 5.6858 7.6498 9.6022 21.1032
# 2 25.0143 86.5671 37.7169 31.5935 9.9371 11.0177
# 3 5.6858 37.7169 110.6384 32.8634 28.4969 11.5264
# 4 7.6498 31.5935 32.8634 44.7994 6.2542 7.2906
# 5 9.6022 9.9371 28.4969 6.2542 27.8967 12.9059
# 6 21.1032 11.0177 11.5264 7.2906 12.9059 29.8699
#
#
#
# Elastic Compliance Matrix: (Units=1/GPa)
#
#
# Indices 1 2 3 4 5 6 
#
# 1 0.017520 -0.004659 0.001962 0.000849 -0.001485 -0.010982
# 2 -0.004659 0.017630 -0.003133 -0.009431 0.000625 0.000030
# 3 0.001962 -0.003133 0.016122 -0.008176 -0.015165 0.002096
# 4 0.000849 -0.009431 -0.008176 0.034814 0.005941 -0.005031
# 5 -0.001485 0.000625 -0.015165 0.005941 0.059840 -0.020635
# 6 -0.010982 0.000030 0.002096 -0.005031 -0.020635 0.050561
#
#
# Mechanical properties :
#
#
# Convention : Reuss Voigt Hill
#
# Bulk Modulus (GPa) = 25.24570 45.64497 35.44533
# Shear Modulus (GPa) = 22.58854 34.21679 28.40266
#
# Velocity S-wave (km/s) = 2.98708 3.67639 3.34951
# Velocity P-wave (km/s) = 4.67644 6.00427 5.38146
#
# Compressibility (1/GPa) = 0.03961071
#
# Stress axis : x y z
#
# Youngs Moduli (GPa) = 57.07837 56.72296 62.02749
#
# Poissons Ratio (x) = 0.26428 -0.12172
# Poissons Ratio (y) = 0.26594 0.19436
# Poissons Ratio (z) = -0.11201 0.17774
#
# Static dielectric constant tensor:
#      x y z
#    x 2.072920 0.036110 -0.049410 
#    y 0.036110 1.993750 0.035090 
#    z -0.049410 0.035090 2.152920 
# 
# From -- ./inp_files/229781.got.cif
#   From: 2010.05.17/outbox.cif.g08.bks.cpg/sg2_115_cif.got.tgz:229781.got - 2010.06.03 11:33:40.
