data_PCOD9024991
_publ_section_title
;
Structure prediction by ZEFSAII (Michael W. Deem and Ramdas Pophale) SiO2 
 PCOD9024991
Probable space group: P -1
;
_chemical_formula_sum "Si O2"
_cell_formula_units_Z 16
_cell_length_a 6.877056
_cell_length_b 5.244291
_cell_length_c 24.059913
_cell_angle_alpha 65.413665
_cell_angle_beta 75.983014
_cell_angle_gamma 71.370076
_cell_volume 741.671127
_symmetry_space_group_name_H-M "P -1"
_symmetry_group_IT_number 2
_symmetry_cell_setting 'triclinic'
loop_
_space_group_symop_operation_xyz
x,y,z
-x,-y,-z
loop_
_atom_site_type_symbol
_atom_site_label
_atom_site_fract_x
_atom_site_fract_y
_atom_site_fract_z
Si Si1 0.304169 0.377546 0.543743
Si Si2 0.306489 0.075040 0.239208
Si Si3 0.494229 0.693735 0.082629
Si Si4 0.636316 0.156827 0.620261
Si Si5 0.846391 0.232372 0.816618
Si Si6 0.295704 0.892554 0.853078
Si Si7 0.243180 0.899966 0.987029
Si Si8 0.832531 0.711779 0.551640
O O1 0.500000 0.500000 0.500000
O O2 0.254043 0.182759 0.513788
O O3 0.081624 0.603585 0.544638
O O4 0.397690 0.234774 0.608061
O O5 0.335773 0.996710 0.308570
O O6 0.204995 0.418824 0.208221
O O7 0.528030 0.995787 0.200229
O O8 0.178026 0.884471 0.232589
O O9 0.318411 0.861696 0.122239
O O10 0.635864 0.448760 0.134096
O O11 0.660600 0.832603 0.028471
O O12 0.346439 0.647039 0.045786
O O13 0.756607 0.943667 0.583548
O O14 0.733526 0.435841 0.592575
O O15 0.073385 0.078276 0.835524
O O16 0.304742 0.863248 0.921835
O O17 0.000000 0.000000 0.000000
#
# Coordination Sequence:
#
# PCOD9024991 Si02
#       8
#     2   2   2   2   2   2   2   2
#     4   9  21  40  67  99 132 170 207 261 321 372
#     4  11  26  43  64  91 127 170 221 262 308 377
#     4  10  23  39  61  94 122 155 207 261 319 394
#     4  11  23  41  63  94 130 172 214 263 312 372
#     4  11  24  44  65  89 124 167 215 263 318 373
#     4  11  24  41  65  87 128 166 210 263 325 376
#     4  11  21  39  63  95 122 160 202 265 328 387
#     4  10  22  40  66  99 132 164 212 262 316 376
#
# _framework density 21.572904000000001
#
# number of rings (size 3 to 8) (size 9 to 14) (size 15 to 20)
#    0.000    1.500    2.500    1.500    1.750    9.000 
#    0.000    0.000    0.000    0.000    0.000    0.000 
#    0.000    0.000    0.000    0.000    0.000    0.000 
#
# Total GULP energy -89198.220837 kJ/mol
# GULP energy per Si atom -5574.888802 kJ/mol
# Density = 2.152380 g / cm^3
# Si number density = 21.572904 Si / 1000 Ang^3
#
#
#
# Elastic Constant Matrix: (Units=GPa)
#
#
# Indices 1 2 3 4 5 6 
#
# 1 140.5711 57.2838 44.8157 -5.5873 19.1814 -36.2025
# 2 57.2838 91.4766 30.4278 9.7347 9.7212 -12.6180
# 3 44.8157 30.4278 105.6358 7.3913 31.3439 -10.0258
# 4 -5.5873 9.7347 7.3913 29.0391 4.8661 7.3655
# 5 19.1814 9.7212 31.3439 4.8661 33.1022 -5.3898
# 6 -36.2025 -12.6180 -10.0258 7.3655 -5.3898 36.3029
#
#
#
# Elastic Compliance Matrix: (Units=1/GPa)
#
#
# Indices 1 2 3 4 5 6 
#
# 1 0.013386 -0.006364 -0.002433 0.003370 -0.002548 0.009403
# 2 -0.006364 0.016122 -0.002014 -0.006504 0.001865 0.000297
# 3 -0.002433 -0.002014 0.014598 -0.001409 -0.011703 -0.000547
# 4 0.003370 -0.006504 -0.001409 0.040791 -0.006084 -0.008468
# 5 -0.002548 0.001865 -0.011703 -0.006084 0.043533 0.002572
# 6 0.009403 0.000297 -0.000547 -0.008468 0.002572 0.038976
#
#
# Mechanical properties :
#
#
# Convention : Reuss Voigt Hill
#
# Bulk Modulus (GPa) = 44.47589 66.97088 55.72339
# Shear Modulus (GPa) = 25.44221 33.36593 29.40407
#
# Velocity S-wave (km/s) = 3.43791 3.93703 3.69590
# Velocity P-wave (km/s) = 6.03492 7.19571 6.64073
#
# Compressibility (1/GPa) = 0.02248409
#
# Stress axis : x y z
#
# Youngs Moduli (GPa) = 74.70259 62.02715 68.50216
#
# Poissons Ratio (x) = 0.39475 0.16668
# Poissons Ratio (y) = 0.47542 0.13795
# Poissons Ratio (z) = 0.18177 0.12491
#
# Static dielectric constant tensor:
#      x y z
#    x 1.795530 0.085540 0.019880 
#    y 0.085540 1.977210 -0.040230 
#    z 0.019880 -0.040230 1.839360 
# 
# From -- ./inp_files/12440.got.cif
#   From: 2010.05.17/outbox.cif.g08.bks.cpg/sg2_7_cif.got.tgz:12440.got - 2010.06.03 11:33:40.
