data_PCOD9024368
_publ_section_title
;
Structure prediction by ZEFSAII (Michael W. Deem and Ramdas Pophale) SiO2 
 PCOD9024368
Probable space group: P -1
;
_chemical_formula_sum "Si O2"
_cell_formula_units_Z 15
_cell_length_a 13.144744
_cell_length_b 9.961550
_cell_length_c 9.779157
_cell_angle_alpha 89.441511
_cell_angle_beta 146.492754
_cell_angle_gamma 86.714905
_cell_volume 701.874990
_symmetry_space_group_name_H-M "P -1"
_symmetry_group_IT_number 2
_symmetry_cell_setting 'triclinic'
loop_
_space_group_symop_operation_xyz
x,y,z
-x,-y,-z
loop_
_atom_site_type_symbol
_atom_site_label
_atom_site_fract_x
_atom_site_fract_y
_atom_site_fract_z
Si Si1 0.057054 0.302086 0.285424
Si Si2 0.500000 0.000000 0.500000
Si Si3 0.744199 0.512589 0.880928
Si Si4 0.278321 0.728196 0.592207
Si Si5 0.992994 0.840406 0.484042
Si Si6 0.366628 0.448613 0.553123
Si Si7 0.864852 0.138622 0.843365
Si Si8 0.653489 0.805870 0.906281
O O1 0.036818 0.221441 0.400982
O O2 0.269687 0.319292 0.489781
O O3 0.942838 0.451391 0.160054
O O4 0.955563 0.233119 0.050329
O O5 0.341192 0.894272 0.350330
O O6 0.621220 0.929992 0.764888
O O7 0.585494 0.430377 0.768393
O O8 0.725967 0.504522 0.697004
O O9 0.692850 0.667519 0.864636
O O10 0.324503 0.569362 0.613185
O O11 0.149233 0.794010 0.322917
O O12 0.469837 0.792538 0.789630
O O13 0.176801 0.765687 0.619159
O O14 0.823059 0.816387 0.196445
O O15 0.000000 0.000000 0.500000
O O16 0.000000 0.000000 0.000000
#
# Coordination Sequence:
#
# PCOD9024368 Si02
#       8
#     2   1   2   2   2   2   2   2
#     4  12  25  39  67  99 130 175 217 266 335 387
#     4  10  22  40  64  94 124 170 220 270 318 372
#     4  10  22  41  67 104 134 162 213 280 332 384
#     4  10  22  43  65  90 130 168 216 270 325 378
#     4  12  27  46  61  93 138 179 217 268 323 394
#     4  10  22  40  67 101 134 161 213 278 330 388
#     4  11  23  38  63  94 122 170 222 271 319 380
#     4  10  23  42  68  95 131 172 219 270 325 387
#
# _framework density 21.371326
#
# number of rings (size 3 to 8) (size 9 to 14) (size 15 to 20)
#    0.000    1.333    1.333    3.600    5.600    3.733 
#    0.000    2.667    0.000    0.000    0.000    0.000 
#    0.000    0.000    0.000    0.000    0.000    0.000 
#
# Total GULP energy -83676.982164 kJ/mol
# GULP energy per Si atom -5578.465478 kJ/mol
# Density = 2.132268 g / cm^3
# Si number density = 21.371326 Si / 1000 Ang^3
#
#
#
# Elastic Constant Matrix: (Units=GPa)
#
#
# Indices 1 2 3 4 5 6 
#
# 1 101.9787 34.4008 3.4245 18.6877 7.4136 12.9320
# 2 34.4008 31.5670 -3.2605 12.9090 1.6844 6.6467
# 3 3.4245 -3.2605 28.8590 7.1365 13.3222 -0.5051
# 4 18.6877 12.9090 7.1365 29.3523 3.7808 3.6508
# 5 7.4136 1.6844 13.3222 3.7808 16.1302 2.0628
# 6 12.9320 6.6467 -0.5051 3.6508 2.0628 31.9973
#
#
#
# Elastic Compliance Matrix: (Units=1/GPa)
#
#
# Indices 1 2 3 4 5 6 
#
# 1 0.016388 -0.016451 -0.001708 -0.001976 -0.003585 -0.002776
# 2 -0.016451 0.060035 0.016990 -0.018669 -0.007993 -0.002908
# 3 -0.001708 0.016990 0.064138 -0.015857 -0.050660 0.003249
# 4 -0.001976 -0.018669 -0.015857 0.046889 0.005124 -0.001254
# 5 -0.003585 -0.007993 -0.050660 0.005124 0.105769 -0.005094
# 6 -0.002776 -0.002908 0.003249 -0.001254 -0.005094 0.033502
#
#
# Mechanical properties :
#
#
# Convention : Reuss Voigt Hill
#
# Bulk Modulus (GPa) = 7.23476 25.72604 16.48040
# Shear Modulus (GPa) = 13.32859 24.01862 18.67361
#
# Velocity S-wave (km/s) = 2.50004 3.35606 2.95917
# Velocity P-wave (km/s) = 3.42436 5.20397 4.40497
#
# Compressibility (1/GPa) = 0.13822166
#
# Stress axis : x y z
#
# Youngs Moduli (GPa) = 61.02130 16.65692 15.59137
#
# Poissons Ratio (x) = 0.27403 0.02664
# Poissons Ratio (y) = 1.00389 -0.26490
# Poissons Ratio (z) = 0.10425 -0.28301
#
# Static dielectric constant tensor:
#      x y z
#    x 1.822500 -0.047090 0.034440 
#    y -0.047090 1.852740 -0.006740 
#    z 0.034440 -0.006740 1.733230 
# 
# From -- ./inp_files/244292.got.cif
#   From: 2010.05.17/outbox.cif.g08.bks.cpg/sg2_123_cif.got.tgz:244292.got - 2010.06.03 11:33:40.
