data_PCOD9024251
_publ_section_title
;
Structure prediction by ZEFSAII (Michael W. Deem and Ramdas Pophale) SiO2 
 PCOD9024251
Probable space group: P -1
;
_chemical_formula_sum "Si O2"
_cell_formula_units_Z 16
_cell_length_a 5.703107
_cell_length_b 5.996361
_cell_length_c 23.499593
_cell_angle_alpha 99.349828
_cell_angle_beta 55.133908
_cell_angle_gamma 106.571572
_cell_volume 631.988066
_symmetry_space_group_name_H-M "P -1"
_symmetry_group_IT_number 2
_symmetry_cell_setting 'triclinic'
loop_
_space_group_symop_operation_xyz
x,y,z
-x,-y,-z
loop_
_atom_site_type_symbol
_atom_site_label
_atom_site_fract_x
_atom_site_fract_y
_atom_site_fract_z
Si Si1 0.864147 0.356909 0.232804
Si Si2 0.638183 0.645990 0.540935
Si Si3 0.738415 0.655701 0.170781
Si Si4 0.197668 0.628119 0.401730
Si Si5 0.197629 0.104886 0.087679
Si Si6 0.120477 0.791451 0.650913
Si Si7 0.316301 0.918893 0.284017
Si Si8 0.173944 0.705645 0.944350
O O1 0.808863 0.589282 0.222281
O O2 0.947582 0.347393 0.286262
O O3 0.088238 0.266748 0.156747
O O4 0.557438 0.162807 0.262704
O O5 0.500000 0.500000 0.500000
O O6 0.577356 0.460046 0.592953
O O7 0.463346 0.838050 0.589097
O O8 0.977819 0.717735 0.479104
O O9 0.457649 0.767114 0.214316
O O10 0.696323 0.424226 0.130049
O O11 0.017775 0.844815 0.116266
O O12 0.293505 0.797958 0.343283
O O13 0.034774 0.382614 0.384155
O O14 0.547071 0.146694 0.052574
O O15 0.059718 0.173642 0.050201
O O16 0.988308 0.014953 0.683768
O O17 0.000000 0.500000 0.000000
#
# Coordination Sequence:
#
# PCOD9024251 Si02
#       8
#     2   2   2   2   2   2   2   2
#     4  10  24  42  61  95 134 174 226 288 346 414
#     4   9  20  40  60  89 123 174 220 279 348 414
#     4  10  24  46  68 102 146 185 237 295 350 427
#     4  10  22  40  64  86 128 171 223 283 346 419
#     4  10  25  43  74 107 144 193 242 285 368 422
#     4  11  22  38  64  90 129 166 226 286 343 421
#     4  11  23  39  62  97 125 174 227 283 356 416
#     4  11  25  48  74 110 150 189 241 299 349 425
#
# _framework density 25.316934
#
# number of rings (size 3 to 8) (size 9 to 14) (size 15 to 20)
#    0.000    1.750    0.000    2.625    7.000    7.500 
#    2.250    8.750    0.000    0.000    0.000    0.000 
#    0.000    0.000    0.000    0.000    0.000    0.000 
#
# Total GULP energy -89566.160672 kJ/mol
# GULP energy per Si atom -5597.885042 kJ/mol
# Density = 2.525931 g / cm^3
# Si number density = 25.316934 Si / 1000 Ang^3
#
#
#
# Elastic Constant Matrix: (Units=GPa)
#
#
# Indices 1 2 3 4 5 6 
#
# 1 153.1309 61.6137 61.6172 1.2767 2.3670 -18.9556
# 2 61.6137 89.1303 36.0666 -7.0578 -5.1631 -15.1031
# 3 61.6172 36.0666 111.5872 -5.8282 2.9000 -22.0305
# 4 1.2767 -7.0578 -5.8282 59.9627 -7.4837 -1.0054
# 5 2.3670 -5.1631 2.9000 -7.4837 54.8313 2.2137
# 6 -18.9556 -15.1031 -22.0305 -1.0054 2.2137 40.8872
#
#
#
# Elastic Compliance Matrix: (Units=1/GPa)
#
#
# Indices 1 2 3 4 5 6 
#
# 1 0.010510 -0.005758 -0.003853 -0.001390 -0.001010 0.000690
# 2 -0.005758 0.016580 -0.001620 0.002221 0.002097 0.002523
# 3 -0.003853 -0.001620 0.012566 0.001103 -0.000680 0.004450
# 4 -0.001390 0.002221 0.001103 0.017411 0.002544 0.001060
# 5 -0.001010 0.002097 -0.000680 0.002544 0.018903 -0.001021
# 6 0.000690 0.002523 0.004450 0.001060 -0.001021 0.028189
#
#
# Mechanical properties :
#
#
# Convention : Reuss Voigt Hill
#
# Bulk Modulus (GPa) = 58.15317 74.71593 66.43455
# Shear Modulus (GPa) = 37.77805 44.10627 40.94216
#
# Velocity S-wave (km/s) = 3.86710 4.17845 4.02579
# Velocity P-wave (km/s) = 6.55433 7.27019 6.92152
#
# Compressibility (1/GPa) = 0.01719597
#
# Stress axis : x y z
#
# Youngs Moduli (GPa) = 95.14757 60.31277 79.57740
#
# Poissons Ratio (x) = 0.34728 0.30657
# Poissons Ratio (y) = 0.54786 0.12890
# Poissons Ratio (z) = 0.36656 0.09769
#
# Static dielectric constant tensor:
#      x y z
#    x 2.071370 0.018920 -0.029010 
#    y 0.018920 1.988730 0.038870 
#    z -0.029010 0.038870 1.991530 
# 
# From -- ./inp_files/581157.got.cif
#   From: 2010.05.17/outbox.cif.g08.bks.cpg/sg2_291_cif.got.tgz:581157.got - 2010.06.03 11:33:40.
