data_PCOD9024446
_publ_section_title
;
Structure prediction by ZEFSAII (Michael W. Deem and Ramdas Pophale) SiO2 
 PCOD9024446
Probable space group: P -1
;
_chemical_formula_sum "Si O2"
_cell_formula_units_Z 16
_cell_length_a 16.953781
_cell_length_b 19.986668
_cell_length_c 11.394190
_cell_angle_alpha 148.285685
_cell_angle_beta 41.939061
_cell_angle_gamma 159.554035
_cell_volume 678.552625
_symmetry_space_group_name_H-M "P -1"
_symmetry_group_IT_number 2
_symmetry_cell_setting 'triclinic'
loop_
_space_group_symop_operation_xyz
x,y,z
-x,-y,-z
loop_
_atom_site_type_symbol
_atom_site_label
_atom_site_fract_x
_atom_site_fract_y
_atom_site_fract_z
Si Si1 0.139315 0.238574 0.815728
Si Si2 0.719924 0.741022 0.699024
Si Si3 0.399771 0.768099 0.795971
Si Si4 0.255617 0.630649 0.287604
Si Si5 0.120941 0.529382 0.531541
Si Si6 0.007433 0.757118 0.452308
Si Si7 0.716693 0.979657 0.213460
Si Si8 0.207618 0.031999 0.401609
O O1 0.296837 0.258472 0.667030
O O2 0.242711 0.467753 0.084521
O O3 0.920898 0.993171 0.772145
O O4 0.037245 0.174617 0.704207
O O5 0.500000 0.500000 0.500000
O O6 0.839746 0.725403 0.593915
O O7 0.665002 0.793807 0.938754
O O8 0.291769 0.624849 0.577213
O O9 0.176013 0.533330 0.776788
O O10 0.618384 0.880840 0.746180
O O11 0.500000 0.000000 0.000000
O O12 0.262605 0.696968 0.508814
O O13 0.481751 0.845702 0.276324
O O14 0.019865 0.479084 0.273592
O O15 0.914261 0.235048 0.299363
O O16 0.176175 0.918247 0.620293
O O17 0.154865 0.907392 0.393507
#
# Coordination Sequence:
#
# PCOD9024446 Si02
#       8
#     2   2   2   2   2   2   2   2
#     4  10  22  40  64  97 131 165 221 270 317 377
#     4  11  23  41  65  98 133 172 214 268 323 384
#     4  11  23  42  66  92 127 172 211 265 329 382
#     4  11  22  40  66  91 123 175 212 266 320 381
#     4  10  23  43  60  93 132 160 221 265 315 393
#     4  10  24  42  63  96 134 166 214 267 323 389
#     4  11  23  41  65  94 129 173 212 263 331 380
#     4  10  22  41  63  95 133 166 214 270 322 387
#
# _framework density 23.579601
#
# number of rings (size 3 to 8) (size 9 to 14) (size 15 to 20)
#    0.000    1.500    1.250    3.000    7.000    0.500 
#    0.000    3.125    0.000    0.000    0.000    0.000 
#    0.000    0.000    0.000    0.000    0.000    0.000 
#
# Total GULP energy -89332.738745 kJ/mol
# GULP energy per Si atom -5583.296172 kJ/mol
# Density = 2.352593 g / cm^3
# Si number density = 23.579601 Si / 1000 Ang^3
#
#
#
# Elastic Constant Matrix: (Units=GPa)
#
#
# Indices 1 2 3 4 5 6 
#
# 1 53.6269 -9.5082 -4.4543 3.1292 -7.4779 -6.5930
# 2 -9.5082 76.6687 30.7276 -4.6269 -3.7874 0.3951
# 3 -4.4543 30.7276 78.3722 14.2160 -23.4452 2.9206
# 4 3.1292 -4.6269 14.2160 30.8967 -4.5114 -7.6483
# 5 -7.4779 -3.7874 -23.4452 -4.5114 32.3327 -5.2557
# 6 -6.5930 0.3951 2.9206 -7.6483 -5.2557 37.7070
#
#
#
# Elastic Compliance Matrix: (Units=1/GPa)
#
#
# Indices 1 2 3 4 5 6 
#
# 1 0.020833 0.001765 0.002781 -0.000957 0.007602 0.004274
# 2 0.001765 0.016925 -0.008535 0.006320 -0.002639 0.001706
# 3 0.002781 -0.008535 0.022414 -0.010087 0.014292 -0.001214
# 4 -0.000957 0.006320 -0.010087 0.040251 0.000243 0.008746
# 5 0.007602 -0.002639 0.014292 0.000243 0.043816 0.006406
# 6 0.004274 0.001706 -0.001214 0.008746 0.006406 0.030011
#
#
# Mechanical properties :
#
#
# Convention : Reuss Voigt Hill
#
# Bulk Modulus (GPa) = 19.15960 26.91091 23.03525
# Shear Modulus (GPa) = 25.04687 32.98078 29.01383
#
# Velocity S-wave (km/s) = 3.26272 3.74398 3.51160
# Velocity P-wave (km/s) = 4.72619 5.48884 5.12173
#
# Compressibility (1/GPa) = 0.05219315
#
# Stress axis : x y z
#
# Youngs Moduli (GPa) = 48.00151 59.08449 44.61456
#
# Poissons Ratio (x) = -0.10428 -0.12405
# Poissons Ratio (y) = -0.08472 0.38078
# Poissons Ratio (z) = -0.13347 0.50428
#
# Static dielectric constant tensor:
#      x y z
#    x 1.883370 -0.001520 -0.034270 
#    y -0.001520 1.941100 0.014210 
#    z -0.034270 0.014210 1.953950 
# 
# From -- ./inp_files/405342.got.cif
#   From: 2010.05.17/outbox.cif.g08.bks.cpg/sg2_203_cif.got.tgz:405342.got - 2010.06.03 11:33:40.
