data_PCOD9024740
_publ_section_title
;
Structure prediction by ZEFSAII (Michael W. Deem and Ramdas Pophale) SiO2 
 PCOD9024740
Probable space group: P -1
;
_chemical_formula_sum "Si O2"
_cell_formula_units_Z 16
_cell_length_a 9.576438
_cell_length_b 18.782145
_cell_length_c 11.201845
_cell_angle_alpha 147.333932
_cell_angle_beta 96.723486
_cell_angle_gamma 58.568733
_cell_volume 663.581745
_symmetry_space_group_name_H-M "P -1"
_symmetry_group_IT_number 2
_symmetry_cell_setting 'triclinic'
loop_
_space_group_symop_operation_xyz
x,y,z
-x,-y,-z
loop_
_atom_site_type_symbol
_atom_site_label
_atom_site_fract_x
_atom_site_fract_y
_atom_site_fract_z
Si Si1 0.785090 0.615745 0.221781
Si Si2 0.845160 0.276438 0.191127
Si Si3 0.429607 0.476256 0.840016
Si Si4 0.853396 0.725116 0.862155
Si Si5 0.642240 0.000606 0.444534
Si Si6 0.618621 0.263027 0.325050
Si Si7 0.380019 0.030815 0.148650
Si Si8 0.809167 0.124726 0.756991
O O1 0.768993 0.480516 0.083473
O O2 0.543981 0.796736 0.378596
O O3 0.780223 0.734389 0.488433
O O4 0.000000 0.500000 0.000000
O O5 0.775323 0.264810 0.293092
O O6 0.629993 0.520995 0.459147
O O7 0.060231 0.213467 0.118384
O O8 0.881511 0.124967 0.892387
O O9 0.596301 0.272893 0.480404
O O10 0.500000 0.500000 0.000000
O O11 0.375896 0.634643 0.967768
O O12 0.000000 0.500000 0.500000
O O13 0.594223 0.867929 0.029821
O O14 0.848240 0.786454 0.083464
O O15 0.723294 0.042229 0.612412
O O16 0.500000 0.000000 0.500000
O O17 0.700205 0.058783 0.001704
O O18 0.500000 0.000000 0.000000
O O19 0.000000 0.000000 0.500000
#
# Coordination Sequence:
#
# PCOD9024740 Si02
#       8
#     2   2   2   2   2   2   2   2
#     4  11  26  45  65  96 136 178 227 278 338 402
#     4  10  22  40  66 102 130 172 226 271 341 389
#     4  11  23  45  67  94 137 179 224 275 344 400
#     4  11  23  42  68  97 133 173 222 276 329 404
#     4  11  26  42  67 102 134 174 230 280 334 401
#     4  10  22  41  68  96 133 173 220 280 328 403
#     4  11  23  43  67  93 133 174 220 274 335 397
#     4  11  23  40  70  97 133 175 221 282 335 400
#
# _framework density 24.111571999999999
#
# number of rings (size 3 to 8) (size 9 to 14) (size 15 to 20)
#    0.000    1.250    5.000    0.000    5.250    2.000 
#    2.250    0.625    0.000    0.000    0.000    0.000 
#    0.000    0.000    0.000    0.000    0.000    0.000 
#
# Total GULP energy -89316.415791 kJ/mol
# GULP energy per Si atom -5582.275987 kJ/mol
# Density = 2.405669 g / cm^3
# Si number density = 24.111572 Si / 1000 Ang^3
#
#
#
# Elastic Constant Matrix: (Units=GPa)
#
#
# Indices 1 2 3 4 5 6 
#
# 1 180.8997 20.8710 66.1365 -17.2208 20.6498 23.3757
# 2 20.8710 63.7912 12.9828 -10.4034 4.6115 -0.5680
# 3 66.1365 12.9828 140.1552 -20.4719 17.0702 7.6142
# 4 -17.2208 -10.4034 -20.4719 30.8049 7.1721 -7.7637
# 5 20.6498 4.6115 17.0702 7.1721 44.9674 -6.9753
# 6 23.3757 -0.5680 7.6142 -7.7637 -6.9753 34.4515
#
#
#
# Elastic Compliance Matrix: (Units=1/GPa)
#
#
# Indices 1 2 3 4 5 6 
#
# 1 0.007895 -0.001568 -0.002628 0.001664 -0.003530 -0.005142
# 2 -0.001568 0.017292 0.000093 0.006008 -0.001684 0.002341
# 3 -0.002628 0.000093 0.009601 0.005792 -0.003326 0.000295
# 4 0.001664 0.006008 0.005792 0.042864 -0.009576 0.005411
# 5 -0.003530 -0.001684 -0.003326 -0.009576 0.027843 0.006582
# 6 -0.005142 0.002341 0.000295 0.005411 0.006582 0.035041
#
#
# Mechanical properties :
#
#
# Convention : Reuss Voigt Hill
#
# Bulk Modulus (GPa) = 37.61588 64.98075 51.29831
# Shear Modulus (GPa) = 31.72537 41.03514 36.38026
#
# Velocity S-wave (km/s) = 3.63129 4.12987 3.88858
# Velocity P-wave (km/s) = 5.76336 7.05334 6.44073
#
# Compressibility (1/GPa) = 0.02658452
#
# Stress axis : x y z
#
# Youngs Moduli (GPa) = 126.65543 57.82898 104.15071
#
# Poissons Ratio (x) = 0.09065 0.27372
# Poissons Ratio (y) = 0.19854 -0.00972
# Poissons Ratio (z) = 0.33287 -0.00540
#
# Static dielectric constant tensor:
#      x y z
#    x 2.014640 -0.221260 0.141660 
#    y -0.221260 2.233820 -0.082500 
#    z 0.141660 -0.082500 2.134890 
# 
# From -- ./inp_files/277220.got.cif
#   From: 2010.05.17/outbox.cif.g08.bks.cpg/sg2_139_cif.got.tgz:277220.got - 2010.06.03 11:33:40.
