data_PCOD9024239
_publ_section_title
;
Structure prediction by ZEFSAII (Michael W. Deem and Ramdas Pophale) SiO2 
 PCOD9024239
Probable space group: P -1
;
_chemical_formula_sum "Si O2"
_cell_formula_units_Z 13
_cell_length_a 10.433228
_cell_length_b 11.680682
_cell_length_c 4.978588
_cell_angle_alpha 94.535787
_cell_angle_beta 93.298257
_cell_angle_gamma 51.627651
_cell_volume 474.152146
_symmetry_space_group_name_H-M "P -1"
_symmetry_group_IT_number 2
_symmetry_cell_setting 'triclinic'
loop_
_space_group_symop_operation_xyz
x,y,z
-x,-y,-z
loop_
_atom_site_type_symbol
_atom_site_label
_atom_site_fract_x
_atom_site_fract_y
_atom_site_fract_z
Si Si1 0.000000 0.000000 0.000000
Si Si2 0.058367 0.209979 0.026232
Si Si3 0.684446 0.239315 0.665083
Si Si4 0.668618 0.630365 0.161655
Si Si5 0.364870 0.937669 0.718565
Si Si6 0.704442 0.814492 0.606541
Si Si7 0.789857 0.432734 0.641977
O O1 0.143433 0.896222 0.218415
O O2 0.032132 0.846997 0.857832
O O3 0.221860 0.053413 0.917879
O O4 0.964685 0.305279 0.769462
O O5 0.126139 0.272871 0.231943
O O6 0.524167 0.289002 0.819218
O O7 0.685855 0.374490 0.656400
O O8 0.662237 0.179039 0.379008
O O9 0.702178 0.732683 0.333077
O O10 0.764981 0.489106 0.347447
O O11 0.726754 0.566851 0.860315
O O12 0.332524 0.036697 0.474968
O O13 0.552282 0.862910 0.787803
#
# Coordination Sequence:
#
# PCOD9024239 Si02
#       7
#     1   2   2   2   2   2   2
#     4  10  22  40  64 106 130 170 218 288 356 394
#     4  11  24  40  70  99 143 176 229 290 345 415
#     4  10  22  43  70 100 138 174 232 293 341 412
#     4  11  26  46  68  99 137 191 233 274 336 419
#     4  10  22  42  68 103 130 179 229 289 357 400
#     4  10  23  43  68  98 138 177 232 286 344 412
#     4  11  27  44  69 100 139 189 231 277 342 409
#
# _framework density 27.417359000000001
#
# number of rings (size 3 to 8) (size 9 to 14) (size 15 to 20)
#    0.000    1.538    1.538    1.385    4.308    8.615 
#    0.000    0.000    0.000    0.000    0.000    0.000 
#    0.000    0.000    0.000    0.000    0.000    0.000 
#
# Total GULP energy -72659.223135 kJ/mol
# GULP energy per Si atom -5589.171010 kJ/mol
# Density = 2.735496 g / cm^3
# Si number density = 27.417359 Si / 1000 Ang^3
#
#
#
# Elastic Constant Matrix: (Units=GPa)
#
#
# Indices 1 2 3 4 5 6 
#
# 1 60.0199 6.2137 28.8187 15.9379 25.6675 -0.1830
# 2 6.2137 112.2726 15.0056 -2.8900 15.1161 -1.0572
# 3 28.8187 15.0056 82.1976 -2.5053 27.4613 -6.9490
# 4 15.9379 -2.8900 -2.5053 54.1642 -4.6572 14.9011
# 5 25.6675 15.1161 27.4613 -4.6572 51.5469 5.1066
# 6 -0.1830 -1.0572 -6.9490 14.9011 5.1066 33.2579
#
#
#
# Elastic Compliance Matrix: (Units=1/GPa)
#
#
# Indices 1 2 3 4 5 6 
#
# 1 0.027519 0.000667 -0.005393 -0.011024 -0.012608 0.005921
# 2 0.000667 0.009359 -0.001036 -0.000114 -0.002588 0.000533
# 3 -0.005393 -0.001036 0.016703 0.000638 -0.006258 0.004102
# 4 -0.011024 -0.000114 0.000638 0.026053 0.008821 -0.012959
# 5 -0.012608 -0.002588 -0.006258 0.008821 0.031584 -0.010261
# 6 0.005921 0.000533 0.004102 -0.012959 -0.010261 0.038356
#
#
# Mechanical properties :
#
#
# Convention : Reuss Voigt Hill
#
# Bulk Modulus (GPa) = 23.77782 39.39623 31.58702
# Shear Modulus (GPa) = 28.55225 41.42396 34.98810
#
# Velocity S-wave (km/s) = 3.23056 3.89120 3.57617
# Velocity P-wave (km/s) = 4.75466 5.88123 5.34769
#
# Compressibility (1/GPa) = 0.04205600
#
# Stress axis : x y z
#
# Youngs Moduli (GPa) = 36.33849 106.84939 59.87036
#
# Poissons Ratio (x) = -0.07130 0.32290
# Poissons Ratio (y) = -0.02425 0.06205
# Poissons Ratio (z) = 0.19599 0.11073
#
# Static dielectric constant tensor:
#      x y z
#    x 2.348240 0.019660 -0.031930 
#    y 0.019660 2.155720 0.018630 
#    z -0.031930 0.018630 2.109310 
# 
# From -- ./inp_files/23484.got.cif
#   From: 2010.05.17/outbox.cif.g08.bks.cpg/sg2_12_cif.got.tgz:23484.got - 2010.06.03 11:33:40.
