data_PCOD9024922
_publ_section_title
;
Structure prediction by ZEFSAII (Michael W. Deem and Ramdas Pophale) SiO2 
 PCOD9024922
Probable space group: P -1
;
_chemical_formula_sum "Si O2"
_cell_formula_units_Z 13
_cell_length_a 14.280135
_cell_length_b 8.621449
_cell_length_c 9.428486
_cell_angle_alpha 134.900072
_cell_angle_beta 130.780608
_cell_angle_gamma 45.652284
_cell_volume 557.981478
_symmetry_space_group_name_H-M "P -1"
_symmetry_group_IT_number 2
_symmetry_cell_setting 'triclinic'
loop_
_space_group_symop_operation_xyz
x,y,z
-x,-y,-z
loop_
_atom_site_type_symbol
_atom_site_label
_atom_site_fract_x
_atom_site_fract_y
_atom_site_fract_z
Si Si1 0.954091 0.332952 0.041504
Si Si2 0.306650 0.266721 0.038394
Si Si3 0.500000 0.500000 0.500000
Si Si4 0.183547 0.391111 0.453601
Si Si5 0.672918 0.946889 0.391209
Si Si6 0.387480 0.987176 0.203590
Si Si7 0.184228 0.798594 0.915308
O O1 0.868922 0.275472 0.043134
O O2 0.038713 0.463265 0.281806
O O3 0.843514 0.511910 0.937993
O O4 0.071639 0.071808 0.939689
O O5 0.422722 0.353347 0.247471
O O6 0.341750 0.036852 0.026903
O O7 0.304599 0.184493 0.822588
O O8 0.378878 0.766866 0.495587
O O9 0.200865 0.193369 0.467290
O O10 0.303061 0.248061 0.365383
O O11 0.196527 0.611545 0.684021
O O12 0.547750 0.910631 0.318726
O O13 0.329052 0.808017 0.090815
#
# Coordination Sequence:
#
# PCOD9024922 Si02
#       7
#     2   2   1   2   2   2   2
#     4  10  23  42  68  95 128 169 223 256 315 389
#     4  11  24  45  66  93 133 173 212 265 315 389
#     4  10  24  38  64  90 124 168 214 248 320 368
#     4  11  23  40  68  98 128 167 215 268 317 378
#     4  11  24  43  67  95 130 172 214 263 317 389
#     4  10  24  41  60  99 132 164 217 267 317 371
#     4  10  22  40  66  96 127 168 212 263 320 370
#
# _framework density 23.298265000000001
#
# number of rings (size 3 to 8) (size 9 to 14) (size 15 to 20)
#    0.000    1.538    1.538    2.769    6.462    8.000 
#    0.000    1.538    0.000    0.000    0.000    0.000 
#    0.000    0.000    0.000    0.000    0.000    0.000 
#
# Total GULP energy -72479.849339 kJ/mol
# GULP energy per Si atom -5575.373026 kJ/mol
# Density = 2.324524 g / cm^3
# Si number density = 23.298265 Si / 1000 Ang^3
#
#
#
# Elastic Constant Matrix: (Units=GPa)
#
#
# Indices 1 2 3 4 5 6 
#
# 1 59.9540 -14.9562 16.2403 8.7617 -2.4806 -6.0265
# 2 -14.9562 70.6131 4.8295 -4.5224 3.9053 -7.5816
# 3 16.2403 4.8295 72.1360 10.6856 -4.8354 0.9695
# 4 8.7617 -4.5224 10.6856 54.0885 2.5339 2.4039
# 5 -2.4806 3.9053 -4.8354 2.5339 26.3869 -0.6911
# 6 -6.0265 -7.5816 0.9695 2.4039 -0.6911 13.4680
#
#
#
# Elastic Compliance Matrix: (Units=1/GPa)
#
#
# Indices 1 2 3 4 5 6 
#
# 1 0.021370 0.006145 -0.004967 -0.002622 0.000805 0.013888
# 2 0.006145 0.017155 -0.002933 0.000572 -0.002229 0.012402
# 3 -0.004967 -0.002933 0.015808 -0.002508 0.002989 -0.004410
# 4 -0.002622 0.000572 -0.002508 0.019781 -0.002804 -0.004345
# 5 0.000805 -0.002229 0.002989 -0.002804 0.039157 0.001400
# 6 0.013888 0.012402 -0.004410 -0.004345 0.001400 0.088611
#
#
# Mechanical properties :
#
#
# Convention : Reuss Voigt Hill
#
# Bulk Modulus (GPa) = 19.67570 23.88116 21.77843
# Shear Modulus (GPa) = 22.48876 31.89463 27.19170
#
# Velocity S-wave (km/s) = 3.11023 3.70397 3.42001
# Velocity P-wave (km/s) = 4.62185 5.34462 4.99632
#
# Compressibility (1/GPa) = 0.05082410
#
# Stress axis : x y z
#
# Youngs Moduli (GPa) = 46.79406 58.29154 63.25757
#
# Poissons Ratio (x) = -0.35819 0.31420
# Poissons Ratio (y) = -0.28754 0.18551
# Poissons Ratio (z) = 0.23242 0.17095
#
# Static dielectric constant tensor:
#      x y z
#    x 1.897280 -0.007840 -0.018620 
#    y -0.007840 1.892960 -0.013670 
#    z -0.018620 -0.013670 1.834910 
# 
# From -- ./inp_files/194995.got.cif
#   From: 2010.05.17/outbox.cif.g08.bks.cpg/sg2_98_cif.got.tgz:194995.got - 2010.06.03 11:33:40.
