data_PCOD9024644
_publ_section_title
;
Structure prediction by ZEFSAII (Michael W. Deem and Ramdas Pophale) SiO2 
 PCOD9024644
Probable space group: P -1
;
_chemical_formula_sum "Si O2"
_cell_formula_units_Z 12
_cell_length_a 11.988301
_cell_length_b 8.613023
_cell_length_c 8.130496
_cell_angle_alpha 72.125257
_cell_angle_beta 145.807500
_cell_angle_gamma 105.808034
_cell_volume 448.745608
_symmetry_space_group_name_H-M "P -1"
_symmetry_group_IT_number 2
_symmetry_cell_setting 'triclinic'
loop_
_space_group_symop_operation_xyz
x,y,z
-x,-y,-z
loop_
_atom_site_type_symbol
_atom_site_label
_atom_site_fract_x
_atom_site_fract_y
_atom_site_fract_z
Si Si1 0.811903 0.522447 0.881330
Si Si2 0.607437 0.780129 0.391886
Si Si3 0.667741 0.836746 0.784342
Si Si4 0.568983 0.688399 0.037965
Si Si5 0.036851 0.664148 0.589478
Si Si6 0.965527 0.016204 0.650769
O O1 0.640619 0.585200 0.528779
O O2 0.796203 0.680344 0.930864
O O3 0.826645 0.370585 0.073797
O O4 0.000000 0.500000 0.000000
O O5 0.538565 0.857169 0.455040
O O6 0.501639 0.783001 0.087593
O O7 0.815145 0.883169 0.585421
O O8 0.537125 0.777757 0.798259
O O9 0.831947 0.969221 0.002658
O O10 0.809143 0.696900 0.350272
O O11 0.500000 0.500000 0.000000
O O12 0.112051 0.800773 0.509151
O O13 0.000000 0.500000 0.500000
O O14 0.000000 0.000000 0.500000
#
# Coordination Sequence:
#
# PCOD9024644 Si02
#       6
#     2   2   2   2   2   2
#     4  10  17  31  53  83 114 133 182 236 274 319
#     4  10  20  33  53  83 111 145 183 220 284 325
#     4   9  20  32  53  82 111 137 183 226 276 315
#     4  11  21  35  55  81 116 151 184 223 274 336
#     4  11  18  34  55  85 108 139 183 232 275 316
#     4  11  17  31  56  85 116 142 174 234 286 329
#
# _framework density 26.741208
#
# number of rings (size 3 to 8) (size 9 to 14) (size 15 to 20)
#    1.000    0.667    8.333    0.500    0.000    0.667 
#    0.000    0.000    0.000    1.000    0.000   11.667 
#    0.000    0.000    0.000    0.000    0.000    0.000 
#
# Total GULP energy -66898.902762 kJ/mol
# GULP energy per Si atom -5574.908563 kJ/mol
# Density = 2.668034 g / cm^3
# Si number density = 26.741208 Si / 1000 Ang^3
#
#
#
# Elastic Constant Matrix: (Units=GPa)
#
#
# Indices 1 2 3 4 5 6 
#
# 1 122.3799 27.0827 68.9418 3.0931 -34.1299 30.3976
# 2 27.0827 101.9798 29.7061 2.3283 -0.7142 26.9100
# 3 68.9418 29.7061 123.2928 12.7809 -23.7747 -12.4889
# 4 3.0931 2.3283 12.7809 49.7348 -11.0258 -2.3474
# 5 -34.1299 -0.7142 -23.7747 -11.0258 64.7820 -0.7049
# 6 30.3976 26.9100 -12.4889 -2.3474 -0.7049 35.8053
#
#
#
# Elastic Compliance Matrix: (Units=1/GPa)
#
#
# Indices 1 2 3 4 5 6 
#
# 1 0.031206 0.008971 -0.022454 0.003358 0.008428 -0.040681
# 2 0.008971 0.017311 -0.011651 0.000567 0.000469 -0.024643
# 3 -0.022454 -0.011651 0.027187 -0.003791 -0.002223 0.037010
# 4 0.003358 0.000567 -0.003791 0.021591 0.004025 -0.003104
# 5 0.008428 0.000469 -0.002223 0.004025 0.019668 -0.007632
# 6 -0.040681 -0.024643 0.037010 -0.003104 -0.007632 0.093542
#
#
# Mechanical properties :
#
#
# Convention : Reuss Voigt Hill
#
# Bulk Modulus (GPa) = 39.31915 66.56818 52.94366
# Shear Modulus (GPa) = 18.56993 44.85923 31.71458
#
# Velocity S-wave (km/s) = 2.63807 4.10021 3.44754
# Velocity P-wave (km/s) = 4.90048 6.88209 5.97402
#
# Compressibility (1/GPa) = 0.02543290
#
# Stress axis : x y z
#
# Youngs Moduli (GPa) = 32.04554 57.76771 36.78214
#
# Poissons Ratio (x) = -0.51821 0.82592
# Poissons Ratio (y) = -0.28747 0.42857
# Poissons Ratio (z) = 0.71956 0.67308
#
# Static dielectric constant tensor:
#      x y z
#    x 2.180910 -0.080040 -0.031700 
#    y -0.080040 2.293510 -0.056390 
#    z -0.031700 -0.056390 2.116020 
# 
# From -- ./inp_files/247024.got.cif
#   From: 2010.05.17/outbox.cif.g08.bks.cpg/sg2_124_cif.got.tgz:247024.got - 2010.06.03 11:33:40.
