data_PCOD9024683
_publ_section_title
;
Structure prediction by ZEFSAII (Michael W. Deem and Ramdas Pophale) SiO2 
 PCOD9024683
Probable space group: P -1
;
_chemical_formula_sum "Si O2"
_cell_formula_units_Z 14
_cell_length_a 11.613957
_cell_length_b 8.060112
_cell_length_c 18.695693
_cell_angle_alpha 128.036296
_cell_angle_beta 31.793662
_cell_angle_gamma 106.703560
_cell_volume 597.003662
_symmetry_space_group_name_H-M "P -1"
_symmetry_group_IT_number 2
_symmetry_cell_setting 'triclinic'
loop_
_space_group_symop_operation_xyz
x,y,z
-x,-y,-z
loop_
_atom_site_type_symbol
_atom_site_label
_atom_site_fract_x
_atom_site_fract_y
_atom_site_fract_z
Si Si1 0.589876 0.882472 0.147686
Si Si2 0.913319 0.961215 0.450140
Si Si3 0.147731 0.556636 0.997377
Si Si4 0.288741 0.940664 0.577092
Si Si5 0.301093 0.498865 0.308129
Si Si6 0.336326 0.430944 0.430324
Si Si7 0.782192 0.597334 0.825403
O O1 0.806943 0.627335 0.008809
O O2 0.309480 0.967755 0.353896
O O3 0.580803 0.138165 0.235923
O O4 0.628499 0.804872 0.023506
O O5 0.794574 0.980686 0.440011
O O6 0.167932 0.673595 0.249657
O O7 0.930651 0.203354 0.504951
O O8 0.434802 0.503525 0.818630
O O9 0.000000 0.500000 0.000000
O O10 0.968602 0.856433 0.188297
O O11 0.500000 0.000000 0.500000
O O12 0.386519 0.652225 0.465343
O O13 0.249803 0.426706 0.392921
O O14 0.338964 0.343130 0.174844
O O15 0.081641 0.523621 0.638964
#
# Coordination Sequence:
#
# PCOD9024683 Si02
#       7
#     2   2   2   2   2   2   2
#     4  10  22  41  66  97 133 168 216 271 324 381
#     4   9  20  40  62  96 128 170 224 263 316 381
#     4  11  23  44  71  94 126 174 228 267 317 387
#     4  11  22  45  69  91 129 174 220 269 320 388
#     4  10  22  40  65  98 131 177 219 266 319 389
#     4  10  24  42  64 101 134 167 214 266 334 384
#     4  11  21  41  65  96 141 170 212 267 332 386
#
# _framework density 23.450441999999999
#
# number of rings (size 3 to 8) (size 9 to 14) (size 15 to 20)
#    0.000    1.714    1.429    3.429    2.000    2.857 
#   10.286    9.286    0.000    0.000    0.000    0.000 
#    0.000    0.000    0.000    0.000    0.000    0.000 
#
# Total GULP energy -78206.516579 kJ/mol
# GULP energy per Si atom -5586.179756 kJ/mol
# Density = 2.339707 g / cm^3
# Si number density = 23.450442 Si / 1000 Ang^3
#
#
#
# Elastic Constant Matrix: (Units=GPa)
#
#
# Indices 1 2 3 4 5 6 
#
# 1 79.2580 10.9863 5.0695 -3.0851 23.3903 15.7698
# 2 10.9863 108.4471 39.3531 21.8614 9.4056 15.9810
# 3 5.0695 39.3531 121.0188 15.2627 29.7638 12.9117
# 4 -3.0851 21.8614 15.2627 40.7887 -3.7436 5.2612
# 5 23.3903 9.4056 29.7638 -3.7436 35.2859 -1.0522
# 6 15.7698 15.9810 12.9117 5.2612 -1.0522 28.3691
#
#
#
# Elastic Compliance Matrix: (Units=1/GPa)
#
#
# Indices 1 2 3 4 5 6 
#
# 1 0.020662 -0.000268 0.005349 -0.000139 -0.018582 -0.014433
# 2 -0.000268 0.011954 -0.002303 -0.005126 -0.001749 -0.004651
# 3 0.005349 -0.002303 0.013883 -0.003950 -0.015295 -0.007830
# 4 -0.000139 -0.005126 -0.003950 0.029511 0.007909 -0.000417
# 5 -0.018582 -0.001749 -0.015295 0.007909 0.055427 0.018865
# 6 -0.014433 -0.004651 -0.007830 -0.000417 0.018865 0.050233
#
#
# Mechanical properties :
#
#
# Convention : Reuss Voigt Hill
#
# Bulk Modulus (GPa) = 19.20997 46.61573 32.91285
# Shear Modulus (GPa) = 25.84415 37.77642 31.81028
#
# Velocity S-wave (km/s) = 3.32335 4.01796 3.68705
# Velocity P-wave (km/s) = 4.78913 6.43793 5.67374
#
# Compressibility (1/GPa) = 0.05205631
#
# Stress axis : x y z
#
# Youngs Moduli (GPa) = 48.39746 83.65064 72.02889
#
# Poissons Ratio (x) = 0.02240 -0.38530
# Poissons Ratio (y) = 0.01296 0.16591
# Poissons Ratio (z) = -0.25889 0.19267
#
# Static dielectric constant tensor:
#      x y z
#    x 1.918190 0.007510 -0.088010 
#    y 0.007510 1.970710 -0.095530 
#    z -0.088010 -0.095530 2.255750 
# 
# From -- ./inp_files/306291.got.cif
#   From: 2010.05.17/outbox.cif.g08.bks.cpg/sg2_154_cif.got.tgz:306291.got - 2010.06.03 11:33:40.
