data_PCOD9024278
_publ_section_title
;
Structure prediction by ZEFSAII (Michael W. Deem and Ramdas Pophale) SiO2 
 PCOD9024278
Probable space group: P -1
;
_chemical_formula_sum "Si O2"
_cell_formula_units_Z 13
_cell_length_a 15.911759
_cell_length_b 8.459155
_cell_length_c 8.292662
_cell_angle_alpha 128.435354
_cell_angle_beta 71.364938
_cell_angle_gamma 135.031895
_cell_volume 603.138740
_symmetry_space_group_name_H-M "P -1"
_symmetry_group_IT_number 2
_symmetry_cell_setting 'triclinic'
loop_
_space_group_symop_operation_xyz
x,y,z
-x,-y,-z
loop_
_atom_site_type_symbol
_atom_site_label
_atom_site_fract_x
_atom_site_fract_y
_atom_site_fract_z
Si Si1 0.471443 0.005626 0.704446
Si Si2 0.711576 0.578821 0.056081
Si Si3 0.756695 0.069354 0.194087
Si Si4 0.621925 0.553952 0.445983
Si Si5 0.061922 0.366560 0.071078
Si Si6 0.000000 0.500000 0.500000
Si Si7 0.844882 0.110045 0.835405
O O1 0.415703 0.726462 0.651545
O O2 0.500000 0.000000 0.500000
O O3 0.372033 0.025250 0.773359
O O4 0.594247 0.267817 0.880905
O O5 0.734773 0.797339 0.057476
O O6 0.678796 0.627904 0.279300
O O7 0.828407 0.616125 0.007224
O O8 0.856559 0.301507 0.407059
O O9 0.805934 0.187379 0.059310
O O10 0.500000 0.500000 0.500000
O O11 0.729066 0.808936 0.653578
O O12 0.105363 0.663749 0.189427
O O13 0.010981 0.319854 0.252284
O O14 0.955251 0.153838 0.872123
#
# Coordination Sequence:
#
# PCOD9024278 Si02
#       7
#     2   2   2   2   2   1   2
#     4  12  24  40  62  88 122 160 202 250 302 356
#     4  12  24  40  63  90 122 160 204 247 299 358
#     4  11  23  40  62  89 123 159 201 250 298 358
#     4  12  24  40  63  90 123 160 202 249 299 357
#     4  10  22  41  64  90 122 159 199 249 300 359
#     4  10  22  40  64  90 122 156 200 248 300 356
#     4  10  22  41  62  88 122 158 199 247 302 357
#
# _framework density 21.553913000000001
#
# number of rings (size 3 to 8) (size 9 to 14) (size 15 to 20)
#    0.000    0.923    0.000    7.385    0.000    4.308 
#    0.000    0.000    0.000    0.000    0.000    0.000 
#    0.000    0.000    0.000    0.000    0.000    0.000 
#
# Total GULP energy -72475.089110 kJ/mol
# GULP energy per Si atom -5575.006855 kJ/mol
# Density = 2.150486 g / cm^3
# Si number density = 21.553913 Si / 1000 Ang^3
#
#
#
# Elastic Constant Matrix: (Units=GPa)
#
#
# Indices 1 2 3 4 5 6 
#
# 1 167.0032 34.4135 47.0921 14.6382 -1.0558 58.0751
# 2 34.4135 54.7865 17.1260 15.2297 2.2554 23.4701
# 3 47.0921 17.1260 96.1236 22.9830 23.7488 22.6481
# 4 14.6382 15.2297 22.9830 56.1144 14.8440 -3.3679
# 5 -1.0558 2.2554 23.7488 14.8440 28.8903 3.6802
# 6 58.0751 23.4701 22.6481 -3.3679 3.6802 51.2250
#
#
#
# Elastic Compliance Matrix: (Units=1/GPa)
#
#
# Indices 1 2 3 4 5 6 
#
# 1 0.011785 -0.000014 -0.003555 -0.004259 0.007144 -0.012576
# 2 -0.000014 0.026105 -0.000755 -0.008762 0.004679 -0.012524
# 3 -0.003555 -0.000755 0.016340 -0.002535 -0.011926 -0.002159
# 4 -0.004259 -0.008762 -0.002535 0.026431 -0.012574 0.012605
# 5 0.007144 0.004679 -0.011926 -0.012574 0.051988 -0.009532
# 6 -0.012576 -0.012524 -0.002159 0.012605 -0.009532 0.041986
#
#
# Mechanical properties :
#
#
# Convention : Reuss Voigt Hill
#
# Bulk Modulus (GPa) = 21.93742 57.24181 39.58962
# Shear Modulus (GPa) = 25.19193 41.86474 33.52833
#
# Velocity S-wave (km/s) = 3.42246 4.41196 3.94833
# Velocity P-wave (km/s) = 5.08111 7.25045 6.26046
#
# Compressibility (1/GPa) = 0.04558421
#
# Stress axis : x y z
#
# Youngs Moduli (GPa) = 84.85335 38.30641 61.19778
#
# Poissons Ratio (x) = 0.00054 0.21754
# Poissons Ratio (y) = 0.00119 0.04618
# Poissons Ratio (z) = 0.30163 0.02891
#
# Static dielectric constant tensor:
#      x y z
#    x 1.738170 0.030270 0.039760 
#    y 0.030270 1.713860 -0.069240 
#    z 0.039760 -0.069240 1.771470 
# 
# From -- ./inp_files/23061.got.cif
#   From: 2010.05.17/outbox.cif.g08.bks.cpg/sg2_12_cif.got.tgz:23061.got - 2010.06.03 11:33:40.
