data_PCOD9024645
_publ_section_title
;
Structure prediction by ZEFSAII (Michael W. Deem and Ramdas Pophale) SiO2 
 PCOD9024645
Probable space group: P -1
;
_chemical_formula_sum "Si O2"
_cell_formula_units_Z 16
_cell_length_a 27.653421
_cell_length_b 16.811616
_cell_length_c 10.807763
_cell_angle_alpha 144.655586
_cell_angle_beta 157.675984
_cell_angle_gamma 23.081856
_cell_volume 726.897551
_symmetry_space_group_name_H-M "P -1"
_symmetry_group_IT_number 2
_symmetry_cell_setting 'triclinic'
loop_
_space_group_symop_operation_xyz
x,y,z
-x,-y,-z
loop_
_atom_site_type_symbol
_atom_site_label
_atom_site_fract_x
_atom_site_fract_y
_atom_site_fract_z
Si Si1 0.314569 0.815627 0.255055
Si Si2 0.646670 0.499012 0.805363
Si Si3 0.888086 0.109604 0.715330
Si Si4 0.577022 0.813797 0.361754
Si Si5 0.221523 0.096482 0.703183
Si Si6 0.713254 0.875908 0.384889
Si Si7 0.126590 0.466905 0.478193
Si Si8 0.483509 0.584464 0.935524
O O1 0.492242 0.713131 0.636003
O O2 0.398297 0.619187 0.129012
O O3 0.278283 0.996365 0.343301
O O4 0.111146 0.937704 0.988380
O O5 0.500000 0.500000 0.500000
O O6 0.808314 0.301623 0.850311
O O7 0.748388 0.496726 0.152167
O O8 0.740437 0.228021 0.400312
O O9 0.845965 0.004342 0.557267
O O10 0.789772 0.659818 0.611843
O O11 0.500000 0.000000 0.500000
O O12 0.558394 0.680147 0.215837
O O13 0.437045 0.927392 0.053313
O O14 0.198607 0.155724 0.580797
O O15 0.092451 0.305736 0.744103
O O16 0.826671 0.667826 0.465071
O O17 0.500000 0.000000 0.000000
O O18 0.500000 0.500000 0.000000
#
# Coordination Sequence:
#
# PCOD9024645 Si02
#       8
#     2   2   2   2   2   2   2   2
#     4  11  22  40  62  91 130 166 211 263 316 379
#     4  11  20  34  62  92 123 161 201 254 319 384
#     4  10  22  40  65  96 124 167 214 264 323 381
#     4  11  25  45  68  93 128 174 217 271 326 379
#     4  11  23  42  66  95 133 166 214 266 319 392
#     4  12  23  40  64  98 138 175 202 261 330 388
#     4  12  24  41  63  95 134 169 216 258 325 393
#     4  10  24  43  67  93 122 168 225 273 319 374
#
# _framework density 22.011354999999998
#
# number of rings (size 3 to 8) (size 9 to 14) (size 15 to 20)
#    0.000    1.000    2.500    5.625    1.750    2.500 
#    2.250    0.000    0.000    0.000    0.000    0.000 
#    0.000    0.000    0.000    0.000    0.000    0.000 
#
# Total GULP energy -89373.416892 kJ/mol
# GULP energy per Si atom -5585.838556 kJ/mol
# Density = 2.196126 g / cm^3
# Si number density = 22.011355 Si / 1000 Ang^3
#
#
#
# Elastic Constant Matrix: (Units=GPa)
#
#
# Indices 1 2 3 4 5 6 
#
# 1 111.8104 52.1073 22.0758 -0.1517 0.7213 9.4352
# 2 52.1073 145.1944 31.5829 -1.8374 13.2875 -11.7555
# 3 22.0758 31.5829 48.6569 -1.0747 10.3704 0.9663
# 4 -0.1517 -1.8374 -1.0747 48.4187 2.3221 3.8148
# 5 0.7213 13.2875 10.3704 2.3221 22.9216 -0.8612
# 6 9.4352 -11.7555 0.9663 3.8148 -0.8612 45.9882
#
#
#
# Elastic Compliance Matrix: (Units=1/GPa)
#
#
# Indices 1 2 3 4 5 6 
#
# 1 0.011760 -0.004071 -0.003352 -0.000094 0.003392 -0.003312
# 2 -0.004071 0.009782 -0.003769 0.000191 -0.003731 0.003329
# 3 -0.003352 -0.003769 0.026678 0.001002 -0.009923 -0.001105
# 4 -0.000094 0.000191 0.001002 0.020951 -0.002749 -0.001742
# 5 0.003392 -0.003731 -0.009923 -0.002749 0.050441 -0.000269
# 6 -0.003312 0.003329 -0.001105 -0.001742 -0.000269 0.023438
#
#
# Mechanical properties :
#
#
# Convention : Reuss Voigt Hill
#
# Bulk Modulus (GPa) = 38.70584 57.46595 48.08589
# Shear Modulus (GPa) = 28.72794 36.79209 32.76002
#
# Velocity S-wave (km/s) = 3.61659 4.09284 3.86207
# Velocity P-wave (km/s) = 5.92135 6.96414 6.46380
#
# Compressibility (1/GPa) = 0.02583590
#
# Stress axis : x y z
#
# Youngs Moduli (GPa) = 85.03202 102.23355 37.48368
#
# Poissons Ratio (x) = 0.41619 0.12566
# Poissons Ratio (y) = 0.34617 0.14126
# Poissons Ratio (z) = 0.28506 0.38529
#
# Static dielectric constant tensor:
#      x y z
#    x 1.894560 0.041230 -0.014030 
#    y 0.041230 1.876120 0.009630 
#    z -0.014030 0.009630 1.824500 
# 
# From -- ./inp_files/477722.got.cif
#   From: 2010.05.17/outbox.cif.g08.bks.cpg/sg2_239_cif.got.tgz:477722.got - 2010.06.03 11:33:40.
