data_PCOD9024207
_publ_section_title
;
Structure prediction by ZEFSAII (Michael W. Deem and Ramdas Pophale) SiO2 
 PCOD9024207
Probable space group: P -1
;
_chemical_formula_sum "Si O2"
_cell_formula_units_Z 16
_cell_length_a 5.508077
_cell_length_b 24.338555
_cell_length_c 12.131114
_cell_angle_alpha 28.904019
_cell_angle_beta 125.080228
_cell_angle_gamma 114.151839
_cell_volume 624.846456
_symmetry_space_group_name_H-M "P -1"
_symmetry_group_IT_number 2
_symmetry_cell_setting 'triclinic'
loop_
_space_group_symop_operation_xyz
x,y,z
-x,-y,-z
loop_
_atom_site_type_symbol
_atom_site_label
_atom_site_fract_x
_atom_site_fract_y
_atom_site_fract_z
Si Si1 0.968327 0.766116 0.625777
Si Si2 0.721530 0.716343 0.146935
Si Si3 0.130776 0.916472 0.578575
Si Si4 0.617424 0.616627 0.514706
Si Si5 0.958186 0.920391 0.934316
Si Si6 0.646779 0.594908 0.127915
Si Si7 0.218275 0.444020 0.009683
Si Si8 0.646617 0.872532 0.152568
O O1 0.910739 0.841754 0.367503
O O2 0.918313 0.843619 0.587460
O O3 0.740657 0.680692 0.704559
O O4 0.306040 0.680060 0.872558
O O5 0.659804 0.623756 0.381759
O O6 0.795890 0.653720 0.159870
O O7 0.414964 0.818632 0.868551
O O8 0.955905 0.788065 0.127913
O O9 0.000000 0.000000 0.500000
O O10 0.197071 0.994615 0.355358
O O11 0.386855 0.535852 0.624357
O O12 0.595367 0.750279 0.305549
O O13 0.920259 0.542857 0.784490
O O14 0.311682 0.927530 0.018978
O O15 0.764830 0.937303 0.967096
O O16 0.818619 0.587893 0.070939
O O17 0.500000 0.500000 0.000000
#
# Coordination Sequence:
#
# PCOD9024207 Si02
#       8
#     2   2   2   2   2   2   2   2
#     4  10  25  43  68 105 138 187 234 294 349 429
#     4  10  23  42  67  99 136 182 239 288 354 424
#     4  11  24  48  74  99 141 185 239 298 361 416
#     4  10  22  40  63  99 139 185 229 286 351 416
#     4  11  26  46  72 104 137 192 234 302 352 415
#     4  10  22  40  64  99 140 182 232 290 346 426
#     4  11  23  39  67 101 139 183 229 284 354 420
#     4  11  25  46  72 104 144 182 243 287 357 424
#
# _framework density 25.606292
#
# number of rings (size 3 to 8) (size 9 to 14) (size 15 to 20)
#    0.000    1.500    0.000    3.750   10.500    3.500 
#    6.750    0.000    0.000    0.000    0.000    0.000 
#    0.000    0.000    0.000    0.000    0.000    0.000 
#
# Total GULP energy -89567.633465 kJ/mol
# GULP energy per Si atom -5597.977092 kJ/mol
# Density = 2.554801 g / cm^3
# Si number density = 25.606292 Si / 1000 Ang^3
#
#
#
# Elastic Constant Matrix: (Units=GPa)
#
#
# Indices 1 2 3 4 5 6 
#
# 1 92.3871 38.1502 48.1495 6.0625 -14.7112 -1.9274
# 2 38.1502 102.8099 25.5075 -2.1003 -5.1907 -13.2172
# 3 48.1495 25.5075 135.6727 9.1491 -21.5768 -7.2447
# 4 6.0625 -2.1003 9.1491 54.5280 -1.4644 -1.6976
# 5 -14.7112 -5.1907 -21.5768 -1.4644 48.1803 6.4835
# 6 -1.9274 -13.2172 -7.2447 -1.6976 6.4835 41.4664
#
#
#
# Elastic Compliance Matrix: (Units=1/GPa)
#
#
# Indices 1 2 3 4 5 6 
#
# 1 0.015455 -0.004848 -0.004194 -0.001195 0.002552 -0.002008
# 2 -0.004848 0.012129 -0.000585 0.001196 -0.000901 0.003728
# 3 -0.004194 -0.000585 0.009526 -0.001055 0.002782 0.000805
# 4 -0.001195 0.001196 -0.001055 0.018718 -0.000267 0.000949
# 5 0.002552 -0.000901 0.002782 -0.000267 0.023121 -0.003308
# 6 -0.002008 0.003728 0.000805 0.000949 -0.003308 0.025908
#
#
# Mechanical properties :
#
#
# Convention : Reuss Voigt Hill
#
# Bulk Modulus (GPa) = 56.00380 61.60936 58.80658
# Shear Modulus (GPa) = 38.44367 43.43909 40.94138
#
# Velocity S-wave (km/s) = 3.87891 4.12323 4.00294
# Velocity P-wave (km/s) = 6.47919 6.83963 6.66185
#
# Compressibility (1/GPa) = 0.01785593
#
# Stress axis : x y z
#
# Youngs Moduli (GPa) = 64.70522 82.44709 104.98059
#
# Poissons Ratio (x) = 0.39970 0.44029
# Poissons Ratio (y) = 0.31369 0.06138
# Poissons Ratio (z) = 0.27138 0.04820
#
# Static dielectric constant tensor:
#      x y z
#    x 2.010430 0.011440 0.008970 
#    y 0.011440 2.020860 -0.020110 
#    z 0.008970 -0.020110 1.981700 
# 
# From -- ./inp_files/364484.got.cif
#   From: 2010.05.17/outbox.cif.g08.bks.cpg/sg2_183_cif.got.tgz:364484.got - 2010.06.03 11:33:40.
