data_PCOD9024674
_publ_section_title
;
Structure prediction by ZEFSAII (Michael W. Deem and Ramdas Pophale) SiO2 
 PCOD9024674
Probable space group: P -1
;
_chemical_formula_sum "Si O2"
_cell_formula_units_Z 14
_cell_length_a 7.928667
_cell_length_b 9.818368
_cell_length_c 16.197406
_cell_angle_alpha 146.065415
_cell_angle_beta 119.708022
_cell_angle_gamma 81.882325
_cell_volume 507.851326
_symmetry_space_group_name_H-M "P -1"
_symmetry_group_IT_number 2
_symmetry_cell_setting 'triclinic'
loop_
_space_group_symop_operation_xyz
x,y,z
-x,-y,-z
loop_
_atom_site_type_symbol
_atom_site_label
_atom_site_fract_x
_atom_site_fract_y
_atom_site_fract_z
Si Si1 0.689174 0.082362 0.383641
Si Si2 0.252971 0.084150 0.265894
Si Si3 0.477874 0.330453 0.278108
Si Si4 0.831782 0.500352 0.331525
Si Si5 0.417950 0.593218 0.936604
Si Si6 0.904521 0.126576 0.635713
Si Si7 0.741205 0.531010 0.861706
O O1 0.453402 0.051344 0.334629
O O2 0.811451 0.069064 0.489749
O O3 0.902035 0.394592 0.556690
O O4 0.593959 0.853365 0.170090
O O5 0.291395 0.110529 0.189381
O O6 0.340239 0.392411 0.482077
O O7 0.993894 0.819427 0.089201
O O8 0.661646 0.286061 0.252768
O O9 0.353149 0.402170 0.211503
O O10 0.700751 0.348823 0.138952
O O11 0.853101 0.816913 0.500873
O O12 0.567942 0.490039 0.872945
O O13 0.182247 0.369388 0.819286
O O14 0.782531 0.272270 0.723825
#
# Coordination Sequence:
#
# PCOD9024674 Si02
#       7
#     2   2   2   2   2   2   2
#     4  11  21  41  66  96 132 167 212 274 322 380
#     4  11  22  41  69  94 129 169 219 267 329 370
#     4  10  23  43  65  94 128 173 217 270 311 391
#     4  10  24  42  63  94 131 173 216 258 325 388
#     4  10  22  40  65  97 131 165 219 260 324 381
#     4  11  23  43  67  94 135 172 210 266 325 385
#     4  11  22  43  67  99 128 173 215 265 326 385
#
# _framework density 27.567119000000002
#
# number of rings (size 3 to 8) (size 9 to 14) (size 15 to 20)
#    0.000    1.429    2.857    3.000    0.000    5.143 
#    2.571    4.286    0.000    0.000    0.000    0.000 
#    0.000    0.000    0.000    0.000    0.000    0.000 
#
# Total GULP energy -78364.194307 kJ/mol
# GULP energy per Si atom -5597.442450 kJ/mol
# Density = 2.750438 g / cm^3
# Si number density = 27.567119 Si / 1000 Ang^3
#
#
#
# Elastic Constant Matrix: (Units=GPa)
#
#
# Indices 1 2 3 4 5 6 
#
# 1 163.0592 38.2157 67.2404 -8.3445 33.6532 11.9109
# 2 38.2157 104.6890 23.0133 -27.8609 13.6444 -2.1950
# 3 67.2404 23.0133 158.6268 -18.1794 29.3404 -0.7702
# 4 -8.3445 -27.8609 -18.1794 41.3578 3.0439 6.4477
# 5 33.6532 13.6444 29.3404 3.0439 60.4840 -0.7726
# 6 11.9109 -2.1950 -0.7702 6.4477 -0.7726 43.9063
#
#
#
# Elastic Compliance Matrix: (Units=1/GPa)
#
#
# Indices 1 2 3 4 5 6 
#
# 1 0.008601 -0.002316 -0.002841 -0.000474 -0.002893 -0.002480
# 2 -0.002316 0.012873 0.000527 0.008610 -0.002304 -0.000024
# 3 -0.002841 0.000527 0.008359 0.003603 -0.002770 0.000366
# 4 -0.000474 0.008610 0.003603 0.032505 -0.005116 -0.004241
# 5 -0.002893 -0.002304 -0.002770 -0.005116 0.020286 0.001729
# 6 -0.002480 -0.000024 0.000366 -0.004241 0.001729 0.024107
#
#
# Mechanical properties :
#
#
# Convention : Reuss Voigt Hill
#
# Bulk Modulus (GPa) = 48.60982 75.92375 62.26678
# Shear Modulus (GPa) = 40.70031 49.01000 44.85515
#
# Velocity S-wave (km/s) = 3.84657 4.22102 4.03814
# Velocity P-wave (km/s) = 6.11553 7.16640 6.66172
#
# Compressibility (1/GPa) = 0.02057198
#
# Stress axis : x y z
#
# Youngs Moduli (GPa) = 116.26307 77.68241 119.63180
#
# Poissons Ratio (x) = 0.17995 0.33991
# Poissons Ratio (y) = 0.26932 -0.06307
# Poissons Ratio (z) = 0.33033 -0.04095
#
# Static dielectric constant tensor:
#      x y z
#    x 2.192530 -0.056910 -0.087320 
#    y -0.056910 2.267730 0.131180 
#    z -0.087320 0.131180 2.130860 
# 
# From -- ./inp_files/558787.got.cif
#   From: 2010.05.17/outbox.cif.g08.bks.cpg/sg2_280_cif.got.tgz:558787.got - 2010.06.03 11:33:40.
