data_PCOD9024941
_publ_section_title
;
Structure prediction by ZEFSAII (Michael W. Deem and Ramdas Pophale) SiO2 
 PCOD9024941
Probable space group: P -1
;
_chemical_formula_sum "Si O2"
_cell_formula_units_Z 15
_cell_length_a 10.416520
_cell_length_b 10.424209
_cell_length_c 13.464089
_cell_angle_alpha 118.793315
_cell_angle_beta 119.027308
_cell_angle_gamma 25.579455
_cell_volume 548.181559
_symmetry_space_group_name_H-M "P -1"
_symmetry_group_IT_number 2
_symmetry_cell_setting 'triclinic'
loop_
_space_group_symop_operation_xyz
x,y,z
-x,-y,-z
loop_
_atom_site_type_symbol
_atom_site_label
_atom_site_fract_x
_atom_site_fract_y
_atom_site_fract_z
Si Si1 0.795272 0.765446 0.759142
Si Si2 0.393029 0.842170 0.617258
Si Si3 0.871997 0.958017 0.202546
Si Si4 0.359167 0.333700 0.915903
Si Si5 0.128545 0.641728 0.527530
Si Si6 0.500000 0.000000 0.000000
Si Si7 0.564482 0.478136 0.860050
Si Si8 0.379796 0.875707 0.338514
O O1 0.634605 0.751967 0.710788
O O2 0.145620 0.463148 0.797212
O O3 0.677706 0.982339 0.878905
O O4 0.706511 0.904985 0.671599
O O5 0.221817 0.921254 0.675330
O O6 0.590624 0.565087 0.516822
O O7 0.139404 0.151666 0.575123
O O8 0.754398 0.176433 0.158329
O O9 0.706066 0.951679 0.111112
O O10 0.224255 0.649614 0.198959
O O11 0.289467 0.308787 0.981448
O O12 0.340738 0.520104 0.003969
O O13 0.324548 0.367068 0.572481
O O14 0.913326 0.910666 0.626220
O O15 0.564681 0.304268 0.785632
#
# Coordination Sequence:
#
# PCOD9024941 Si02
#       8
#     2   2   2   2   2   1   2   2
#     4  12  25  41  69  99 137 166 218 270 329 388
#     4  11  23  42  65 104 128 160 224 280 332 387
#     4  11  23  40  67  97 133 172 207 277 317 396
#     4  11  24  40  65 106 130 178 202 267 329 396
#     4  10  24  44  69  91 128 175 224 275 334 367
#     4  10  22  40  66  96 140 162 208 252 334 394
#     4  11  25  42  65  94 137 177 221 250 328 389
#     4  11  25  47  65  92 130 182 224 270 311 391
#
# _framework density 27.363199000000002
#
# number of rings (size 3 to 8) (size 9 to 14) (size 15 to 20)
#    0.000    1.067    1.333    4.800    1.867    5.867 
#    0.000   13.333    0.000    0.000    0.000    0.000 
#    0.000    0.000    0.000    0.000    0.000    0.000 
#
# Total GULP energy -83571.153783 kJ/mol
# GULP energy per Si atom -5571.410252 kJ/mol
# Density = 2.730092 g / cm^3
# Si number density = 27.363199 Si / 1000 Ang^3
#
#
#
# Elastic Constant Matrix: (Units=GPa)
#
#
# Indices 1 2 3 4 5 6 
#
# 1 74.1381 12.9485 0.3061 7.1194 1.6052 -5.8477
# 2 12.9485 113.6028 35.7396 -10.1141 1.6350 -7.0027
# 3 0.3061 35.7396 72.9351 9.3700 -12.1283 -4.5865
# 4 7.1194 -10.1141 9.3700 62.6543 -2.1267 -5.6323
# 5 1.6052 1.6350 -12.1283 -2.1267 18.7441 9.5265
# 6 -5.8477 -7.0027 -4.5865 -5.6323 9.5265 31.4353
#
#
#
# Elastic Compliance Matrix: (Units=1/GPa)
#
#
# Indices 1 2 3 4 5 6 
#
# 1 0.014249 -0.001901 0.000950 -0.001899 -0.001991 0.002629
# 2 -0.001901 0.011941 -0.007220 0.003342 -0.007225 0.004041
# 3 0.000950 -0.007220 0.020021 -0.004100 0.014958 -0.003778
# 4 -0.001899 0.003342 -0.004100 0.017575 -0.002698 0.003760
# 5 -0.001991 -0.007225 0.014958 -0.002698 0.075258 -0.023088
# 6 0.002629 0.004041 -0.003778 0.003760 -0.023088 0.040320
#
#
# Mechanical properties :
#
#
# Convention : Reuss Voigt Hill
#
# Bulk Modulus (GPa) = 33.47937 39.85162 36.66549
# Shear Modulus (GPa) = 24.31144 36.67884 30.49514
#
# Velocity S-wave (km/s) = 2.98396 3.66518 3.34197
# Velocity P-wave (km/s) = 4.91261 5.70149 5.32169
#
# Compressibility (1/GPa) = 0.02986914
#
# Stress axis : x y z
#
# Youngs Moduli (GPa) = 70.17844 83.74206 49.94669
#
# Poissons Ratio (x) = 0.15923 -0.04746
# Poissons Ratio (y) = 0.13344 0.36063
# Poissons Ratio (z) = -0.06668 0.60464
#
# Static dielectric constant tensor:
#      x y z
#    x 1.845400 0.094870 -0.003860 
#    y 0.094870 1.975150 0.026260 
#    z -0.003860 0.026260 2.178840 
# 
# From -- ./inp_files/433888.got.cif
#   From: 2010.05.17/outbox.cif.g08.bks.cpg/sg2_217_cif.got.tgz:433888.got - 2010.06.03 11:33:40.
