data_PCOD9024791
_publ_section_title
;
Structure prediction by ZEFSAII (Michael W. Deem and Ramdas Pophale) SiO2 
 PCOD9024791
Probable space group: P -1
;
_chemical_formula_sum "Si O2"
_cell_formula_units_Z 10
_cell_length_a 8.467205
_cell_length_b 9.269531
_cell_length_c 11.945352
_cell_angle_alpha 68.543860
_cell_angle_beta 68.118378
_cell_angle_gamma 126.185804
_cell_volume 437.494220
_symmetry_space_group_name_H-M "P -1"
_symmetry_group_IT_number 2
_symmetry_cell_setting 'triclinic'
loop_
_space_group_symop_operation_xyz
x,y,z
-x,-y,-z
loop_
_atom_site_type_symbol
_atom_site_label
_atom_site_fract_x
_atom_site_fract_y
_atom_site_fract_z
Si Si1 0.832268 0.535204 0.549645
Si Si2 0.511575 0.249780 0.490922
Si Si3 0.541008 0.380009 0.896104
Si Si4 0.908543 0.369151 0.182638
Si Si5 0.887658 0.948901 0.701053
O O1 0.671372 0.449950 0.498729
O O2 0.583077 0.349194 0.769076
O O3 0.000000 0.500000 0.500000
O O4 0.092611 0.867105 0.410567
O O5 0.764088 0.393222 0.291134
O O6 0.348499 0.965571 0.658403
O O7 0.231496 0.137948 0.548306
O O8 0.646085 0.640772 0.799524
O O9 0.792234 0.477011 0.877258
O O10 0.215863 0.116839 0.122987
O O11 0.000000 0.500000 0.000000
#
# Coordination Sequence:
#
# PCOD9024791 Si02
#       5
#     2   2   2   2   2
#     4  12  24  40  67  96 132 162 207 267 316 369
#     4  10  23  42  61  97 124 167 210 255 317 373
#     4  10  23  43  65  97 122 171 214 253 315 376
#     4  10  22  40  66  89 129 167 210 256 313 377
#     4  10  24  42  66  91 132 166 211 256 311 379
#
# _framework density 22.857444000000001
#
# number of rings (size 3 to 8) (size 9 to 14) (size 15 to 20)
#    0.000    1.600    2.000    1.200    2.800    8.000 
#    0.000    0.000    0.000    0.000    0.000    0.000 
#    0.000    0.000    0.000    0.000    0.000    0.000 
#
# Total GULP energy -55985.595922 kJ/mol
# GULP energy per Si atom -5598.559592 kJ/mol
# Density = 2.280542 g / cm^3
# Si number density = 22.857444 Si / 1000 Ang^3
#
#
#
# Elastic Constant Matrix: (Units=GPa)
#
#
# Indices 1 2 3 4 5 6 
#
# 1 74.1633 22.9802 38.1277 1.1131 1.6358 -23.9239
# 2 22.9802 71.5586 41.8331 32.0118 2.9534 -8.5732
# 3 38.1277 41.8331 131.0368 46.2558 9.4929 -10.3666
# 4 1.1131 32.0118 46.2558 41.9924 0.5248 -4.7126
# 5 1.6358 2.9534 9.4929 0.5248 30.4113 5.1194
# 6 -23.9239 -8.5732 -10.3666 -4.7126 5.1194 34.9354
#
#
#
# Elastic Compliance Matrix: (Units=1/GPa)
#
#
# Indices 1 2 3 4 5 6 
#
# 1 0.026360 -0.009294 -0.010369 0.019533 -0.000201 0.015358
# 2 -0.009294 0.025125 0.002295 -0.021653 -0.001920 -0.002157
# 3 -0.010369 0.002295 0.017298 -0.020884 -0.004095 -0.003621
# 4 0.019533 -0.021653 -0.020884 0.063843 0.004825 0.009771
# 5 -0.000201 -0.001920 -0.004095 0.004825 0.035344 -0.006352
# 6 0.015358 -0.002157 -0.003621 0.009771 -0.006352 0.039787
#
#
# Mechanical properties :
#
#
# Convention : Reuss Voigt Hill
#
# Bulk Modulus (GPa) = 29.37030 53.62676 41.49853
# Shear Modulus (GPa) = 19.69750 33.05566 26.37658
#
# Velocity S-wave (km/s) = 2.93875 3.80697 3.40068
# Velocity P-wave (km/s) = 4.93885 6.54495 5.79779
#
# Compressibility (1/GPa) = 0.03404801
#
# Stress axis : x y z
#
# Youngs Moduli (GPa) = 37.93694 39.80161 57.81050
#
# Poissons Ratio (x) = 0.36990 0.59941
# Poissons Ratio (y) = 0.35257 -0.13268
# Poissons Ratio (z) = 0.39335 -0.09135
#
# Static dielectric constant tensor:
#      x y z
#    x 1.855270 -0.021730 0.018240 
#    y -0.021730 1.879680 -0.013060 
#    z 0.018240 -0.013060 1.829730 
# 
# From -- ./inp_files/15889.got.cif
#   From: 2010.05.17/outbox.cif.g08.bks.cpg/sg2_8_cif.got.tgz:15889.got - 2010.06.03 11:33:40.
