data_PCOD9024264
_publ_section_title
;
Structure prediction by ZEFSAII (Michael W. Deem and Ramdas Pophale) SiO2 
 PCOD9024264
Probable space group: P -1
;
_chemical_formula_sum "Si O2"
_cell_formula_units_Z 15
_cell_length_a 14.723056
_cell_length_b 5.298047
_cell_length_c 8.358827
_cell_angle_alpha 97.132240
_cell_angle_beta 97.502174
_cell_angle_gamma 66.505830
_cell_volume 590.979509
_symmetry_space_group_name_H-M "P -1"
_symmetry_group_IT_number 2
_symmetry_cell_setting 'triclinic'
loop_
_space_group_symop_operation_xyz
x,y,z
-x,-y,-z
loop_
_atom_site_type_symbol
_atom_site_label
_atom_site_fract_x
_atom_site_fract_y
_atom_site_fract_z
Si Si1 0.510870 0.201962 0.321107
Si Si2 0.259670 0.771083 0.075315
Si Si3 0.603573 0.562228 0.196516
Si Si4 0.348441 0.035058 0.376354
Si Si5 0.100788 0.698029 0.265648
Si Si6 0.210662 0.475380 0.583316
Si Si7 0.000000 0.500000 0.000000
Si Si8 0.089617 0.813549 0.840756
O O1 0.532490 0.409144 0.222526
O O2 0.568649 0.175727 0.502397
O O3 0.554222 0.893185 0.228043
O O4 0.399120 0.244430 0.345186
O O5 0.312789 0.930261 0.202320
O O6 0.197252 0.679613 0.183328
O O7 0.342885 0.540925 0.969184
O O8 0.171120 0.929714 0.936508
O O9 0.693501 0.465835 0.337958
O O10 0.256225 0.180988 0.485043
O O11 0.140475 0.669919 0.451696
O O12 0.997849 0.966638 0.259569
O O13 0.065783 0.455843 0.180914
O O14 0.148641 0.532110 0.736063
O O15 0.045052 0.717970 0.973659
#
# Coordination Sequence:
#
# PCOD9024264 Si02
#       8
#     2   2   2   2   2   2   1   2
#     4  10  23  45  71  95 143 171 233 270 360 401
#     4  10  22  41  64  98 133 168 232 267 349 389
#     4  10  23  45  67 104 132 184 218 292 331 421
#     4  10  23  41  69  98 128 180 215 289 334 416
#     4  11  23  40  65  92 132 176 221 279 333 407
#     4  10  23  42  65  99 131 173 235 269 343 400
#     4  10  22  40  64  88 128 170 218 274 338 390
#     4  10  23  45  62  95 130 181 216 283 334 406
#
# _framework density 25.381592000000001
#
# number of rings (size 3 to 8) (size 9 to 14) (size 15 to 20)
#    0.000    1.867    0.000    2.800    3.733    8.533 
#   26.400    0.000    0.000    0.000    0.000    0.000 
#    0.000    0.000    0.000    0.000    0.000    0.000 
#
# Total GULP energy -83615.230129 kJ/mol
# GULP energy per Si atom -5574.348675 kJ/mol
# Density = 2.532382 g / cm^3
# Si number density = 25.381592 Si / 1000 Ang^3
#
#
#
# Elastic Constant Matrix: (Units=GPa)
#
#
# Indices 1 2 3 4 5 6 
#
# 1 91.7301 47.4094 32.9159 8.7964 18.1067 -3.8393
# 2 47.4094 78.9631 41.4706 16.0604 2.7922 -10.2997
# 3 32.9159 41.4706 113.5607 31.0565 18.7794 -10.9508
# 4 8.7964 16.0604 31.0565 38.6506 -14.5781 0.7107
# 5 18.1067 2.7922 18.7794 -14.5781 47.6693 -4.3241
# 6 -3.8393 -10.2997 -10.9508 0.7107 -4.3241 40.8688
#
#
#
# Elastic Compliance Matrix: (Units=1/GPa)
#
#
# Indices 1 2 3 4 5 6 
#
# 1 0.017664 -0.010198 0.000453 -0.002875 -0.007307 -0.001512
# 2 -0.010198 0.022056 -0.005281 -0.000886 0.004727 0.003701
# 3 0.000453 -0.005281 0.017018 -0.015851 -0.011200 0.002362
# 4 -0.002875 -0.000886 -0.015851 0.047890 0.021737 -0.003273
# 5 -0.007307 0.004727 -0.011200 0.021737 0.034608 0.000788
# 6 -0.001512 0.003701 0.002362 -0.003273 0.000788 0.026032
#
#
# Mechanical properties :
#
#
# Convention : Reuss Voigt Hill
#
# Bulk Modulus (GPa) = 37.47310 58.64952 48.06131
# Shear Modulus (GPa) = 24.48383 36.26829 30.37606
#
# Velocity S-wave (km/s) = 3.10922 3.78421 3.46320
# Velocity P-wave (km/s) = 5.26171 6.50007 5.91340
#
# Compressibility (1/GPa) = 0.02668581
#
# Stress axis : x y z
#
# Youngs Moduli (GPa) = 56.61150 45.33882 58.76101
#
# Poissons Ratio (x) = 0.46234 -0.02659
# Poissons Ratio (y) = 0.57730 0.31034
# Poissons Ratio (z) = -0.02562 0.23945
#
# Static dielectric constant tensor:
#      x y z
#    x 1.967240 -0.105600 -0.051230 
#    y -0.105600 2.106380 -0.026960 
#    z -0.051230 -0.026960 1.880180 
# 
# From -- ./inp_files/289044.got.cif
#   From: 2010.05.17/outbox.cif.g08.bks.cpg/sg2_145_cif.got.tgz:289044.got - 2010.06.03 11:33:40.
