data_PCOD9024786
_publ_section_title
;
Structure prediction by ZEFSAII (Michael W. Deem and Ramdas Pophale) SiO2 
 PCOD9024786
Probable space group: P -1
;
_chemical_formula_sum "Si O2"
_cell_formula_units_Z 14
_cell_length_a 5.422418
_cell_length_b 5.033155
_cell_length_c 26.037716
_cell_angle_alpha 61.094894
_cell_angle_beta 76.843979
_cell_angle_gamma 62.624862
_cell_volume 552.412368
_symmetry_space_group_name_H-M "P -1"
_symmetry_group_IT_number 2
_symmetry_cell_setting 'triclinic'
loop_
_space_group_symop_operation_xyz
x,y,z
-x,-y,-z
loop_
_atom_site_type_symbol
_atom_site_label
_atom_site_fract_x
_atom_site_fract_y
_atom_site_fract_z
Si Si1 0.198665 0.046781 0.071346
Si Si2 0.368977 0.677917 0.390552
Si Si3 0.115006 0.553408 0.241063
Si Si4 0.360562 0.492003 0.953913
Si Si5 0.237518 0.158350 0.173853
Si Si6 0.015611 0.248283 0.432419
Si Si7 0.561272 0.594745 0.275647
O O1 0.251381 0.190545 0.109294
O O2 0.872573 0.146142 0.079747
O O3 0.432046 0.682131 0.085480
O O4 0.222061 0.234184 0.999933
O O5 0.693230 0.484597 0.411183
O O6 0.393978 0.720476 0.324130
O O7 0.186394 0.458824 0.424072
O O8 0.203921 0.007988 0.400668
O O9 0.885344 0.445020 0.285070
O O10 0.137360 0.461677 0.188846
O O11 0.413135 0.394972 0.270693
O O12 0.052294 0.944051 0.212275
O O13 0.500000 0.500000 0.000000
O O14 0.520759 0.892900 0.209799
O O15 0.000000 0.000000 0.500000
#
# Coordination Sequence:
#
# PCOD9024786 Si02
#       7
#     2   2   2   2   2   2   2
#     4  10  23  41  61  98 120 179 212 288 331 418
#     4  12  26  43  77 102 147 188 235 296 352 415
#     4  10  25  42  67  96 140 177 234 283 336 428
#     4  10  22  40  66  88 131 159 233 266 349 399
#     4  10  26  41  68  95 139 176 230 278 353 408
#     4  12  26  48  72 108 142 190 239 294 350 417
#     4  10  26  43  68 102 139 182 233 281 351 416
#
# _framework density 25.343388000000001
#
# number of rings (size 3 to 8) (size 9 to 14) (size 15 to 20)
#    0.857    0.571    0.000    3.429   10.000    1.143 
#    0.000    0.000    0.000    0.000    0.000    0.000 
#    0.000    0.000    0.000    0.000    0.000    0.000 
#
# Total GULP energy -78153.603689 kJ/mol
# GULP energy per Si atom -5582.400264 kJ/mol
# Density = 2.528571 g / cm^3
# Si number density = 25.343388 Si / 1000 Ang^3
#
#
#
# Elastic Constant Matrix: (Units=GPa)
#
#
# Indices 1 2 3 4 5 6 
#
# 1 151.7427 45.5619 7.6106 8.1978 -3.4276 -24.8731
# 2 45.5619 86.7249 7.9679 27.7884 7.6626 -27.9161
# 3 7.6106 7.9679 108.0116 14.2885 -1.5655 -23.0102
# 4 8.1978 27.7884 14.2885 42.5902 -1.0184 -0.7979
# 5 -3.4276 7.6626 -1.5655 -1.0184 40.0990 -0.9661
# 6 -24.8731 -27.9161 -23.0102 -0.7979 -0.9661 45.6760
#
#
#
# Elastic Compliance Matrix: (Units=1/GPa)
#
#
# Indices 1 2 3 4 5 6 
#
# 1 0.008132 -0.004189 0.000005 0.001240 0.001574 0.001925
# 2 -0.004189 0.022854 0.003304 -0.015081 -0.004666 0.012988
# 3 0.000005 0.003304 0.011419 -0.005847 -0.000149 0.007669
# 4 0.001240 -0.015081 -0.005847 0.034921 0.003386 -0.010806
# 5 0.001574 -0.004666 -0.000149 0.003386 0.026010 -0.001461
# 6 0.001925 0.012988 0.007669 -0.010806 -0.001461 0.034524
#
#
# Mechanical properties :
#
#
# Convention : Reuss Voigt Hill
#
# Bulk Modulus (GPa) = 24.60412 52.08444 38.34428
# Shear Modulus (GPa) = 32.64381 44.69563 38.66972
#
# Velocity S-wave (km/s) = 3.59285 4.20408 3.91043
# Velocity P-wave (km/s) = 5.19045 6.64544 5.96249
#
# Compressibility (1/GPa) = 0.04064359
#
# Stress axis : x y z
#
# Youngs Moduli (GPa) = 122.97316 43.75684 87.57023
#
# Poissons Ratio (x) = 0.18331 -0.00044
# Poissons Ratio (y) = 0.51517 -0.28931
# Poissons Ratio (z) = -0.00061 -0.14456
#
# Static dielectric constant tensor:
#      x y z
#    x 2.111860 0.000430 -0.074740 
#    y 0.000430 2.048680 -0.066130 
#    z -0.074740 -0.066130 2.012520 
# 
# From -- ./inp_files/603213.got.cif
#   From: 2010.05.17/outbox.cif.g08.bks.cpg/sg2_302_cif.got.tgz:603213.got - 2010.06.03 11:33:40.
