data_PCOD9024787
_publ_section_title
;
Structure prediction by ZEFSAII (Michael W. Deem and Ramdas Pophale) SiO2 
 PCOD9024787
Probable space group: P -1
;
_chemical_formula_sum "Si O2"
_cell_formula_units_Z 16
_cell_length_a 13.515463
_cell_length_b 8.636188
_cell_length_c 8.995811
_cell_angle_alpha 125.956536
_cell_angle_beta 110.187730
_cell_angle_gamma 46.194920
_cell_volume 610.011826
_symmetry_space_group_name_H-M "P -1"
_symmetry_group_IT_number 2
_symmetry_cell_setting 'triclinic'
loop_
_space_group_symop_operation_xyz
x,y,z
-x,-y,-z
loop_
_atom_site_type_symbol
_atom_site_label
_atom_site_fract_x
_atom_site_fract_y
_atom_site_fract_z
Si Si1 0.353702 0.704452 0.265327
Si Si2 0.985098 0.553507 0.757970
Si Si3 0.816276 0.045755 0.143376
Si Si4 0.279682 0.266285 0.373530
Si Si5 0.618385 0.595419 0.251871
Si Si6 0.966010 0.944335 0.789709
Si Si7 0.717700 0.879218 0.378385
Si Si8 0.437265 0.884651 0.968147
O O1 0.466677 0.689256 0.215987
O O2 0.193492 0.853696 0.225082
O O3 0.435070 0.410226 0.137709
O O4 0.351540 0.831680 0.488811
O O5 0.872346 0.524081 0.650877
O O6 0.135429 0.299589 0.724932
O O7 0.001493 0.683271 0.701001
O O8 0.914058 0.769135 0.966668
O O9 0.725620 0.295063 0.127429
O O10 0.688410 0.075963 0.161043
O O11 0.929186 0.066419 0.271544
O O12 0.358689 0.350631 0.536953
O O13 0.257516 0.164638 0.452958
O O14 0.359731 0.057877 0.171612
O O15 0.645806 0.753107 0.254517
O O16 0.000000 0.000000 0.000000
O O17 0.500000 0.000000 0.000000
#
# Coordination Sequence:
#
# PCOD9024787 Si02
#       8
#     2   2   2   2   2   2   2   2
#     4  11  22  36  56  88 121 160 191 243 295 352
#     4  10  17  31  53  88 125 161 178 224 289 377
#     4   9  19  35  58  84 113 161 195 228 289 354
#     4   9  19  34  58  86 115 158 194 237 297 348
#     4   9  19  34  51  88 125 153 188 232 291 362
#     4  10  18  33  53  89 120 155 184 225 292 370
#     4  10  19  30  55  90 130 146 189 226 303 365
#     4  10  23  45  62  78 111 158 213 256 284 330
#
# _framework density 26.228999000000002
#
# number of rings (size 3 to 8) (size 9 to 14) (size 15 to 20)
#    0.750    1.500    2.500    0.750    1.750    0.500 
#    9.000    3.125    0.000    3.000    0.000    0.000 
#    0.000    0.000    0.000    0.000    0.000    0.000 
#
# Total GULP energy -89085.689089 kJ/mol
# GULP energy per Si atom -5567.855568 kJ/mol
# Density = 2.616930 g / cm^3
# Si number density = 26.228999 Si / 1000 Ang^3
#
#
#
# Elastic Constant Matrix: (Units=GPa)
#
#
# Indices 1 2 3 4 5 6 
#
# 1 128.8665 67.9546 52.7471 -3.9172 38.2994 -53.4212
# 2 67.9546 109.4914 46.4098 20.5830 5.9579 -52.0263
# 3 52.7471 46.4098 163.1930 26.8962 4.9529 -7.2195
# 4 -3.9172 20.5830 26.8962 38.3869 -5.9909 -6.7353
# 5 38.2994 5.9579 4.9529 -5.9909 46.0679 -4.4163
# 6 -53.4212 -52.0263 -7.2195 -6.7353 -4.4163 46.4038
#
#
#
# Elastic Compliance Matrix: (Units=1/GPa)
#
#
# Indices 1 2 3 4 5 6 
#
# 1 0.037237 -0.000449 -0.012013 0.015881 -0.023655 0.040549
# 2 -0.000449 0.024629 -0.004808 -0.005498 -0.000566 0.025496
# 3 -0.012013 -0.004808 0.011892 -0.009154 0.006406 -0.018089
# 4 0.015881 -0.005498 -0.009154 0.039057 -0.004905 0.015896
# 5 -0.023655 -0.000566 0.006406 -0.004905 0.037821 -0.023982
# 6 0.040549 0.025496 -0.018089 0.015896 -0.023982 0.094026
#
#
# Mechanical properties :
#
#
# Convention : Reuss Voigt Hill
#
# Bulk Modulus (GPa) = 25.49933 81.75267 53.62600
# Shear Modulus (GPa) = 17.10716 41.80102 29.45409
#
# Velocity S-wave (km/s) = 2.55664 3.99644 3.35469
# Velocity P-wave (km/s) = 4.29629 7.24789 5.95777
#
# Compressibility (1/GPa) = 0.03921671
#
# Stress axis : x y z
#
# Youngs Moduli (GPa) = 26.85518 40.60261 84.09021
#
# Poissons Ratio (x) = 0.01825 1.01021
# Poissons Ratio (y) = 0.01207 0.40427
# Poissons Ratio (z) = 0.32262 0.19520
#
# Static dielectric constant tensor:
#      x y z
#    x 2.137850 0.032470 -0.007690 
#    y 0.032470 2.128520 -0.043810 
#    z -0.007690 -0.043810 2.159640 
# 
# From -- ./inp_files/530740.got.cif
#   From: 2010.05.17/outbox.cif.g08.bks.cpg/sg2_266_cif.got.tgz:530740.got - 2010.06.03 11:33:40.
