data_PCOD9024827
_publ_section_title
;
Structure prediction by ZEFSAII (Michael W. Deem and Ramdas Pophale) SiO2 
 PCOD9024827
Probable space group: P -1
;
_chemical_formula_sum "Si O2"
_cell_formula_units_Z 15
_cell_length_a 20.814463
_cell_length_b 4.991800
_cell_length_c 5.971373
_cell_angle_alpha 77.213264
_cell_angle_beta 97.993496
_cell_angle_gamma 118.054413
_cell_volume 533.515565
_symmetry_space_group_name_H-M "P -1"
_symmetry_group_IT_number 2
_symmetry_cell_setting 'triclinic'
loop_
_space_group_symop_operation_xyz
x,y,z
-x,-y,-z
loop_
_atom_site_type_symbol
_atom_site_label
_atom_site_fract_x
_atom_site_fract_y
_atom_site_fract_z
Si Si1 0.028758 0.266501 0.778466
Si Si2 0.450417 0.289269 0.817717
Si Si3 0.500000 0.000000 0.500000
Si Si4 0.705861 0.251076 0.214672
Si Si5 0.758814 0.918455 0.640552
Si Si6 0.366857 0.602378 0.502346
Si Si7 0.158369 0.652910 0.027694
Si Si8 0.891232 0.903780 0.539858
O O1 0.076397 0.183195 0.642623
O O2 0.085471 0.582211 0.865055
O O3 0.954629 0.209840 0.628180
O O4 0.000000 0.000000 0.000000
O O5 0.437727 0.547108 0.609588
O O6 0.488053 0.114529 0.734843
O O7 0.366713 0.030597 0.865948
O O8 0.500000 0.500000 0.000000
O O9 0.415569 0.955656 0.405968
O O10 0.728440 0.138339 0.479125
O O11 0.677863 0.475661 0.273248
O O12 0.777074 0.362662 0.079239
O O13 0.803354 0.038065 0.866689
O O14 0.688274 0.592208 0.677383
O O15 0.816721 0.924088 0.484024
O O16 0.130117 0.380504 0.246830
#
# Coordination Sequence:
#
# PCOD9024827 Si02
#       8
#     2   2   1   2   2   2   2   2
#     4   9  20  40  65  92 129 170 217 264 331 392
#     4  10  23  43  65  98 129 173 218 275 339 403
#     4  10  22  40  66  92 130 168 216 272 328 400
#     4  10  24  43  62  94 132 170 222 270 327 404
#     4  11  23  39  63  93 130 168 217 272 331 388
#     4  10  22  44  62  90 129 170 214 272 330 397
#     4  11  22  39  64  95 127 171 218 270 326 398
#     4  10  22  42  64  92 130 172 213 274 327 389
#
# _framework density 28.115397000000002
#
# number of rings (size 3 to 8) (size 9 to 14) (size 15 to 20)
#    0.000    1.867    0.000    2.800    1.867    6.933 
#    9.600    9.333    0.000    0.000    0.000    0.000 
#    0.000    0.000    0.000    0.000    0.000    0.000 
#
# Total GULP energy -83854.572890 kJ/mol
# GULP energy per Si atom -5590.304859 kJ/mol
# Density = 2.805141 g / cm^3
# Si number density = 28.115397 Si / 1000 Ang^3
#
#
#
# Elastic Constant Matrix: (Units=GPa)
#
#
# Indices 1 2 3 4 5 6 
#
# 1 161.2444 51.0538 64.7833 21.5435 -16.5836 34.5030
# 2 51.0538 140.3602 66.9640 41.7471 9.0607 50.7722
# 3 64.7833 66.9640 119.1774 34.8728 3.0036 35.4415
# 4 21.5435 41.7471 34.8728 66.5323 20.2230 15.9818
# 5 -16.5836 9.0607 3.0036 20.2230 58.0654 8.0722
# 6 34.5030 50.7722 35.4415 15.9818 8.0722 70.7718
#
#
#
# Elastic Compliance Matrix: (Units=1/GPa)
#
#
# Indices 1 2 3 4 5 6 
#
# 1 0.008803 -0.000586 -0.003541 -0.001153 0.003501 -0.002236
# 2 -0.000586 0.012521 -0.003667 -0.004461 0.000443 -0.005904
# 3 -0.003541 -0.003667 0.013954 -0.003515 0.000324 -0.001874
# 4 -0.001153 -0.004461 -0.003515 0.021921 -0.007281 0.001403
# 5 0.003501 0.000443 0.000324 -0.007281 0.021082 -0.002947
# 6 -0.002236 -0.005904 -0.001874 0.001403 -0.002947 0.020413
#
#
# Mechanical properties :
#
#
# Convention : Reuss Voigt Hill
#
# Bulk Modulus (GPa) = 50.79040 87.37601 69.08321
# Shear Modulus (GPa) = 41.37494 54.93928 48.15711
#
# Velocity S-wave (km/s) = 3.84032 4.42527 4.14313
# Velocity P-wave (km/s) = 6.14559 7.56676 6.89290
#
# Compressibility (1/GPa) = 0.01968876
#
# Stress axis : x y z
#
# Youngs Moduli (GPa) = 113.59723 79.86606 71.66552
#
# Poissons Ratio (x) = 0.04683 0.25380
# Poissons Ratio (y) = 0.06661 0.26277
# Poissons Ratio (z) = 0.40229 0.29284
#
# Static dielectric constant tensor:
#      x y z
#    x 2.170250 0.067880 -0.019560 
#    y 0.067880 4.356800 -0.417560 
#    z -0.019560 -0.417560 2.346950 
# 
# From -- ./inp_files/9523.got.cif
#   From: 2010.05.17/outbox.cif.g08.bks.cpg/sg2_5_cif.got.tgz:9523.got - 2010.06.03 11:33:40.
