data_PCOD9024833
_publ_section_title
;
Structure prediction by ZEFSAII (Michael W. Deem and Ramdas Pophale) SiO2 
 PCOD9024833
Probable space group: P -1
;
_chemical_formula_sum "Si O2"
_cell_formula_units_Z 15
_cell_length_a 15.294103
_cell_length_b 6.881316
_cell_length_c 13.518538
_cell_angle_alpha 89.784360
_cell_angle_beta 132.431089
_cell_angle_gamma 54.676267
_cell_volume 648.112013
_symmetry_space_group_name_H-M "P -1"
_symmetry_group_IT_number 2
_symmetry_cell_setting 'triclinic'
loop_
_space_group_symop_operation_xyz
x,y,z
-x,-y,-z
loop_
_atom_site_type_symbol
_atom_site_label
_atom_site_fract_x
_atom_site_fract_y
_atom_site_fract_z
Si Si1 0.241936 0.987196 0.592173
Si Si2 0.000000 0.500000 0.500000
Si Si3 0.749252 0.193402 0.072478
Si Si4 0.237661 0.215777 0.249710
Si Si5 0.149687 0.667907 0.493602
Si Si6 0.102118 0.051928 0.027315
Si Si7 0.558204 0.992561 0.387892
Si Si8 0.429249 0.876873 0.927785
O O1 0.229405 0.775812 0.585960
O O2 0.254671 0.072919 0.713100
O O3 0.409367 0.863520 0.656757
O O4 0.048565 0.352398 0.419736
O O5 0.910324 0.391085 0.461846
O O6 0.648951 0.123725 0.033691
O O7 0.778374 0.160730 0.977677
O O8 0.602793 0.537083 0.008767
O O9 0.958823 0.945273 0.281801
O O10 0.358734 0.061484 0.441909
O O11 0.047707 0.587099 0.122764
O O12 0.345925 0.190927 0.244464
O O13 0.214305 0.025635 0.197067
O O14 0.315939 0.343493 0.561063
O O15 0.000000 0.000000 0.000000
O O16 0.500000 0.000000 0.000000
#
# Coordination Sequence:
#
# PCOD9024833 Si02
#       8
#     2   1   2   2   2   2   2   2
#     4  11  25  40  70  98 129 180 222 281 339 405
#     4  10  22  40  66  92 132 170 220 270 336 396
#     4  11  26  45  67 101 135 178 228 284 330 411
#     4  10  24  46  66  99 134 178 228 275 340 400
#     4  11  23  43  67  99 133 174 225 275 336 402
#     4  11  26  44  71  97 136 182 226 278 339 402
#     4  10  24  42  68  98 135 174 221 284 336 398
#     4  11  28  45  69  99 138 180 223 281 344 402
#
# _framework density 23.144148000000001
#
# number of rings (size 3 to 8) (size 9 to 14) (size 15 to 20)
#    0.000    1.333    2.667    0.400    9.333    3.200 
#    0.000    2.667    0.000    0.000    0.000    0.000 
#    0.000    0.000    0.000    0.000    0.000    0.000 
#
# Total GULP energy -83727.120878 kJ/mol
# GULP energy per Si atom -5581.808059 kJ/mol
# Density = 2.309147 g / cm^3
# Si number density = 23.144148 Si / 1000 Ang^3
#
#
#
# Elastic Constant Matrix: (Units=GPa)
#
#
# Indices 1 2 3 4 5 6 
#
# 1 170.8155 84.5430 22.4758 33.2830 23.0058 5.2926
# 2 84.5430 142.6949 54.3939 19.0853 23.8259 13.4857
# 3 22.4758 54.3939 64.1022 9.5542 11.7762 3.7437
# 4 33.2830 19.0853 9.5542 48.4986 5.8317 19.9037
# 5 23.0058 23.8259 11.7762 5.8317 28.6096 5.1166
# 6 5.2926 13.4857 3.7437 19.9037 5.1166 46.6853
#
#
#
# Elastic Compliance Matrix: (Units=1/GPa)
#
#
# Indices 1 2 3 4 5 6 
#
# 1 0.009949 -0.005896 0.002885 -0.005991 -0.003646 0.003297
# 2 -0.005896 0.014974 -0.010112 0.001899 -0.003367 -0.003287
# 3 0.002885 -0.010112 0.024187 -0.003347 -0.003615 0.002478
# 4 -0.005991 0.001899 -0.003347 0.029599 0.000781 -0.012306
# 5 -0.003646 -0.003367 -0.003615 0.000781 0.042613 -0.003327
# 6 0.003297 -0.003287 0.002478 -0.012306 -0.003327 0.027408
#
#
# Mechanical properties :
#
#
# Convention : Reuss Voigt Hill
#
# Bulk Modulus (GPa) = 43.73534 77.82646 60.78090
# Shear Modulus (GPa) = 27.38259 39.17203 33.27731
#
# Velocity S-wave (km/s) = 3.44340 4.11849 3.79598
# Velocity P-wave (km/s) = 5.89468 7.50439 6.74771
#
# Compressibility (1/GPa) = 0.02286481
#
# Stress axis : x y z
#
# Youngs Moduli (GPa) = 100.51428 66.78127 41.34369
#
# Poissons Ratio (x) = 0.39371 -0.11926
# Poissons Ratio (y) = 0.59259 0.41806
# Poissons Ratio (z) = -0.28994 0.67528
#
# Static dielectric constant tensor:
#      x y z
#    x 1.871410 -0.008040 0.003670 
#    y -0.008040 1.959600 -0.138400 
#    z 0.003670 -0.138400 2.054120 
# 
# From -- ./inp_files/54785.got.cif
#   From: 2010.05.17/outbox.cif.g08.bks.cpg/sg2_28_cif.got.tgz:54785.got - 2010.06.03 11:33:40.
