data_PCOD9024438
_publ_section_title
;
Structure prediction by ZEFSAII (Michael W. Deem and Ramdas Pophale) SiO2 
 PCOD9024438
Probable space group: P -1
;
_chemical_formula_sum "Si O2"
_cell_formula_units_Z 15
_cell_length_a 26.876385
_cell_length_b 11.646229
_cell_length_c 5.371033
_cell_angle_alpha 45.855311
_cell_angle_beta 47.068285
_cell_angle_gamma 31.743768
_cell_volume 616.882740
_symmetry_space_group_name_H-M "P -1"
_symmetry_group_IT_number 2
_symmetry_cell_setting 'triclinic'
loop_
_space_group_symop_operation_xyz
x,y,z
-x,-y,-z
loop_
_atom_site_type_symbol
_atom_site_label
_atom_site_fract_x
_atom_site_fract_y
_atom_site_fract_z
Si Si1 0.541464 0.586070 0.364017
Si Si2 0.692102 0.187743 0.789842
Si Si3 0.870045 0.987612 0.235043
Si Si4 0.012959 0.289458 0.247819
Si Si5 0.314449 0.494002 0.380639
Si Si6 0.188066 0.554550 0.358028
Si Si7 0.630901 0.948336 0.560327
Si Si8 0.500000 0.000000 0.500000
O O1 0.500000 0.500000 0.500000
O O2 0.588981 0.430596 0.681039
O O3 0.455856 0.863081 0.236053
O O4 0.629908 0.525619 0.020370
O O5 0.728035 0.273960 0.705086
O O6 0.774478 0.037331 0.525487
O O7 0.673145 0.051446 0.188204
O O8 0.939710 0.846558 0.448208
O O9 0.922852 0.859536 0.989185
O O10 0.835906 0.228894 0.983571
O O11 0.908258 0.386006 0.416998
O O12 0.000000 0.500000 0.000000
O O13 0.229867 0.517599 0.548958
O O14 0.406288 0.257107 0.556519
O O15 0.278131 0.314181 0.280723
O O16 0.576736 0.961297 0.489545
#
# Coordination Sequence:
#
# PCOD9024438 Si02
#       8
#     2   2   2   2   2   2   2   1
#     4  12  23  40  71 102 147 196 260 305 375 439
#     4  12  24  45  73 105 149 202 255 313 379 453
#     4  12  27  51  81 114 154 198 250 320 391 466
#     4  12  28  54  84 115 149 197 256 319 392 466
#     4  11  23  43  66 104 148 198 258 307 381 448
#     4  11  26  47  75 112 151 197 248 321 389 461
#     4  11  24  44  71 107 150 201 258 311 378 453
#     4  10  22  40  64  96 146 196 244 314 368 450
#
# _framework density 24.315805000000001
#
# number of rings (size 3 to 8) (size 9 to 14) (size 15 to 20)
#    0.000    0.533    4.000    4.000    0.000    5.333 
#    0.000    5.333    0.000    0.000    0.000    0.000 
#    0.000    0.000    0.000    0.000    0.000    0.000 
#
# Total GULP energy -83756.730762 kJ/mol
# GULP energy per Si atom -5583.782051 kJ/mol
# Density = 2.426046 g / cm^3
# Si number density = 24.315805 Si / 1000 Ang^3
#
#
#
# Elastic Constant Matrix: (Units=GPa)
#
#
# Indices 1 2 3 4 5 6 
#
# 1 119.7686 66.5756 35.5759 -10.5225 -13.5037 -9.6700
# 2 66.5756 174.9259 61.4321 -17.8644 7.4977 -2.6020
# 3 35.5759 61.4321 75.7486 -2.7350 -4.6284 -3.9500
# 4 -10.5225 -17.8644 -2.7350 49.9011 0.2888 -0.0142
# 5 -13.5037 7.4977 -4.6284 0.2888 41.1254 -1.4957
# 6 -9.6700 -2.6020 -3.9500 -0.0142 -1.4957 49.3852
#
#
#
# Elastic Compliance Matrix: (Units=1/GPa)
#
#
# Indices 1 2 3 4 5 6 
#
# 1 0.011850 -0.003860 -0.002020 0.000981 0.004436 0.002090
# 2 -0.003860 0.009801 -0.006328 0.002370 -0.003814 -0.000860
# 3 -0.002020 -0.006328 0.019437 -0.001642 0.002722 0.000908
# 4 0.000981 0.002370 -0.001642 0.021008 -0.000436 0.000179
# 5 0.004436 -0.003814 0.002722 -0.000436 0.026839 0.001698
# 6 0.002090 -0.000860 0.000908 0.000179 0.001698 0.020737
#
#
# Mechanical properties :
#
#
# Convention : Reuss Voigt Hill
#
# Bulk Modulus (GPa) = 59.97918 77.51226 68.74572
# Shear Modulus (GPa) = 35.80554 41.87299 38.83926
#
# Velocity S-wave (km/s) = 3.84151 4.15426 4.00094
# Velocity P-wave (km/s) = 6.66307 7.41330 7.04818
#
# Compressibility (1/GPa) = 0.01667245
#
# Stress axis : x y z
#
# Youngs Moduli (GPa) = 84.38858 102.03407 51.44918
#
# Poissons Ratio (x) = 0.39380 0.10392
# Poissons Ratio (y) = 0.32570 0.32557
# Poissons Ratio (z) = 0.17045 0.64568
#
# Static dielectric constant tensor:
#      x y z
#    x 1.503770 0.003300 -1.338660 
#    y 0.003300 1.966950 -0.096470 
#    z -1.338660 -0.096470 -2.582440 
# 
# From -- ./inp_files/126653.got.cif
#   From: 2010.05.17/outbox.cif.g08.bks.cpg/sg2_64_cif.got.tgz:126653.got - 2010.06.03 11:33:40.
