data_PCOD9024704
_publ_section_title
;
Structure prediction by ZEFSAII (Michael W. Deem and Ramdas Pophale) SiO2 
 PCOD9024704
Probable space group: P -1
;
_chemical_formula_sum "Si O2"
_cell_formula_units_Z 15
_cell_length_a 14.211372
_cell_length_b 8.662898
_cell_length_c 13.954208
_cell_angle_alpha 100.975716
_cell_angle_beta 137.823845
_cell_angle_gamma 45.767538
_cell_volume 606.868103
_symmetry_space_group_name_H-M "P -1"
_symmetry_group_IT_number 2
_symmetry_cell_setting 'triclinic'
loop_
_space_group_symop_operation_xyz
x,y,z
-x,-y,-z
loop_
_atom_site_type_symbol
_atom_site_label
_atom_site_fract_x
_atom_site_fract_y
_atom_site_fract_z
Si Si1 0.996566 0.994062 0.152949
Si Si2 0.606904 0.965537 0.732300
Si Si3 0.188463 0.144934 0.335689
Si Si4 0.507335 0.362203 0.181676
Si Si5 0.676267 0.787063 0.963029
Si Si6 0.500000 0.500000 0.500000
Si Si7 0.725414 0.429072 0.461314
Si Si8 0.288021 0.928755 0.888685
O O1 0.189069 0.955284 0.335355
O O2 0.824757 0.061587 0.105944
O O3 0.779173 0.296170 0.967671
O O4 0.242209 0.667937 0.260306
O O5 0.396292 0.036554 0.545218
O O6 0.455300 0.266891 0.684965
O O7 0.745662 0.887379 0.729963
O O8 0.761395 0.760287 0.917488
O O9 0.903099 0.493596 0.164670
O O10 0.525812 0.162611 0.199295
O O11 0.715050 0.279750 0.375560
O O12 0.538084 0.329415 0.085902
O O13 0.583864 0.031674 0.974756
O O14 0.615347 0.489340 0.490280
O O15 0.015434 0.222160 0.663368
#
# Coordination Sequence:
#
# PCOD9024704 Si02
#       8
#     2   2   2   2   2   1   2   2
#     4  10  22  40  68  93 131 170 220 270 335 389
#     4  11  22  39  66  95 140 171 219 267 345 401
#     4  10  22  42  61 102 135 174 212 279 330 406
#     4  11  25  43  66  97 132 178 229 269 326 399
#     4  11  24  42  66  99 129 176 224 274 337 387
#     4  10  22  40  66 100 130 174 204 286 336 390
#     4  11  23  42  66  98 132 175 226 270 336 396
#     4  11  23  45  67  92 136 179 221 281 323 389
#
# _framework density 24.717068999999999
#
# number of rings (size 3 to 8) (size 9 to 14) (size 15 to 20)
#    0.000    1.333    2.667    2.400    3.733    0.533 
#    9.600    0.667    0.000    0.000    0.000    0.000 
#    0.000    0.000    0.000    0.000    0.000    0.000 
#
# Total GULP energy -83568.640223 kJ/mol
# GULP energy per Si atom -5571.242682 kJ/mol
# Density = 2.466081 g / cm^3
# Si number density = 24.717069 Si / 1000 Ang^3
#
#
#
# Elastic Constant Matrix: (Units=GPa)
#
#
# Indices 1 2 3 4 5 6 
#
# 1 86.8166 28.4064 31.5627 3.9221 0.7835 19.4431
# 2 28.4064 77.8842 33.8824 25.7950 -0.8249 14.0954
# 3 31.5627 33.8824 55.7904 0.8724 -7.7973 -2.9283
# 4 3.9221 25.7950 0.8724 42.7272 3.6565 9.4832
# 5 0.7835 -0.8249 -7.7973 3.6565 28.7642 2.8272
# 6 19.4431 14.0954 -2.9283 9.4832 2.8272 36.1934
#
#
#
# Elastic Compliance Matrix: (Units=1/GPa)
#
#
# Indices 1 2 3 4 5 6 
#
# 1 0.017889 -0.000409 -0.010803 0.001372 -0.002571 -0.010483
# 2 -0.000409 0.025507 -0.015588 -0.013309 -0.001063 -0.007405
# 3 -0.010803 -0.015588 0.035085 0.006286 0.007331 0.012493
# 4 0.001372 -0.013309 0.006286 0.032122 -0.002477 -0.003269
# 5 -0.002571 -0.001063 0.007331 -0.002477 0.037093 0.000140
# 6 -0.010483 -0.007405 0.012493 -0.003269 0.000140 0.038001
#
#
# Mechanical properties :
#
#
# Convention : Reuss Voigt Hill
#
# Bulk Modulus (GPa) = 40.19378 45.35491 42.77434
# Shear Modulus (GPa) = 20.19456 29.97962 25.08709
#
# Velocity S-wave (km/s) = 2.86147 3.48647 3.18932
# Velocity P-wave (km/s) = 5.21672 5.88190 5.55927
#
# Compressibility (1/GPa) = 0.02487947
#
# Stress axis : x y z
#
# Youngs Moduli (GPa) = 55.90038 39.20499 28.50235
#
# Poissons Ratio (x) = 0.01605 0.30791
# Poissons Ratio (y) = 0.02289 0.44430
# Poissons Ratio (z) = 0.60388 0.61114
#
# Static dielectric constant tensor:
#      x y z
#    x 1.951130 0.131550 -0.084130 
#    y 0.131550 1.187120 0.441440 
#    z -0.084130 0.441440 1.761150 
# 
# From -- ./inp_files/447191.got.cif
#   From: 2010.05.17/outbox.cif.g08.bks.cpg/sg2_224_cif.got.tgz:447191.got - 2010.06.03 11:33:40.
