data_PCOD9024553
_publ_section_title
;
Structure prediction by ZEFSAII (Michael W. Deem and Ramdas Pophale) SiO2 
 PCOD9024553
Probable space group: P -1
;
_chemical_formula_sum "Si O2"
_cell_formula_units_Z 14
_cell_length_a 10.876076
_cell_length_b 8.082134
_cell_length_c 9.387377
_cell_angle_alpha 103.624754
_cell_angle_beta 87.254601
_cell_angle_gamma 42.262449
_cell_volume 507.199599
_symmetry_space_group_name_H-M "P -1"
_symmetry_group_IT_number 2
_symmetry_cell_setting 'triclinic'
loop_
_space_group_symop_operation_xyz
x,y,z
-x,-y,-z
loop_
_atom_site_type_symbol
_atom_site_label
_atom_site_fract_x
_atom_site_fract_y
_atom_site_fract_z
Si Si1 0.819185 0.262029 0.162729
Si Si2 0.816423 0.739268 0.655333
Si Si3 0.255145 0.145212 0.991599
Si Si4 0.687829 0.534532 0.496115
Si Si5 0.380361 0.381881 0.010464
Si Si6 0.279425 0.863958 0.448617
Si Si7 0.041774 0.181802 0.776422
O O1 0.826546 0.396934 0.315942
O O2 0.650446 0.484229 0.106656
O O3 0.801810 0.127213 0.244849
O O4 0.000000 0.000000 0.000000
O O5 0.834802 0.716238 0.820582
O O6 0.680520 0.723627 0.614347
O O7 0.000000 0.500000 0.500000
O O8 0.742553 0.009161 0.672448
O O9 0.421861 0.826497 0.954219
O O10 0.358132 0.204822 0.941143
O O11 0.099104 0.254138 0.907912
O O12 0.479029 0.715322 0.476675
O O13 0.733551 0.326182 0.559345
O O14 0.180180 0.635765 0.155905
O O15 0.102653 0.136162 0.603491
#
# Coordination Sequence:
#
# PCOD9024553 Si02
#       7
#     2   2   2   2   2   2   2
#     4   9  20  39  68  95 121 177 223 273 334 392
#     4  12  27  42  65 102 141 176 220 278 347 402
#     4  11  25  40  62 104 129 171 226 273 335 404
#     4  10  23  43  71  96 132 178 232 270 337 414
#     4  10  22  40  65  91 135 168 217 274 332 386
#     4  10  23  46  71  95 132 184 223 279 340 395
#     4  10  22  42  69  95 127 174 231 269 335 406
#
# _framework density 27.602547000000001
#
# number of rings (size 3 to 8) (size 9 to 14) (size 15 to 20)
#    0.000    1.714    0.000    2.571   10.000    1.143 
#    2.571    0.000    0.000    0.000    0.000    0.000 
#    0.000    0.000    0.000    0.000    0.000    0.000 
#
# Total GULP energy -78178.186915 kJ/mol
# GULP energy per Si atom -5584.156208 kJ/mol
# Density = 2.753972 g / cm^3
# Si number density = 27.602547 Si / 1000 Ang^3
#
#
#
# Elastic Constant Matrix: (Units=GPa)
#
#
# Indices 1 2 3 4 5 6 
#
# 1 68.7178 19.7217 34.1816 -8.5825 -2.5436 -4.1927
# 2 19.7217 157.0083 18.0798 -9.6532 -12.9810 14.2838
# 3 34.1816 18.0798 119.7686 6.9361 -4.5648 -15.9695
# 4 -8.5825 -9.6532 6.9361 47.4786 -11.6165 -12.5189
# 5 -2.5436 -12.9810 -4.5648 -11.6165 24.5101 -6.4454
# 6 -4.1927 14.2838 -15.9695 -12.5189 -6.4454 51.2022
#
#
#
# Elastic Compliance Matrix: (Units=1/GPa)
#
#
# Indices 1 2 3 4 5 6 
#
# 1 0.018247 -0.001332 -0.004915 0.005042 0.003179 0.001966
# 2 -0.001332 0.007223 -0.000854 0.001992 0.004108 -0.001386
# 3 -0.004915 -0.000854 0.010384 -0.001610 0.000945 0.002800
# 4 0.005042 0.001992 -0.001610 0.029150 0.017374 0.008669
# 5 0.003179 0.004108 0.000945 0.017374 0.054480 0.010515
# 6 0.001966 -0.001386 0.002800 0.008669 0.010515 0.024395
#
#
# Mechanical properties :
#
#
# Convention : Reuss Voigt Hill
#
# Bulk Modulus (GPa) = 46.18667 54.38455 50.28561
# Shear Modulus (GPa) = 30.24844 42.87230 36.56037
#
# Velocity S-wave (km/s) = 3.31396 3.94534 3.64336
# Velocity P-wave (km/s) = 5.60466 6.36395 5.99633
#
# Compressibility (1/GPa) = 0.02165127
#
# Stress axis : x y z
#
# Youngs Moduli (GPa) = 54.80420 138.44826 96.30522
#
# Poissons Ratio (x) = 0.18441 0.47336
# Poissons Ratio (y) = 0.07300 0.08223
# Poissons Ratio (z) = 0.26938 0.11821
#
# Static dielectric constant tensor:
#      x y z
#    x 2.231820 0.026110 0.079240 
#    y 0.026110 2.177550 0.066610 
#    z 0.079240 0.066610 2.278620 
# 
# From -- ./inp_files/417839.got.cif
#   From: 2010.05.17/outbox.cif.g08.bks.cpg/sg2_209_cif.got.tgz:417839.got - 2010.06.03 11:33:40.
