data_PCOD9024715
_publ_section_title
;
Structure prediction by ZEFSAII (Michael W. Deem and Ramdas Pophale) SiO2 
 PCOD9024715
Probable space group: P -1
;
_chemical_formula_sum "Si O2"
_cell_formula_units_Z 15
_cell_length_a 11.642047
_cell_length_b 13.946361
_cell_length_c 11.807476
_cell_angle_alpha 54.469460
_cell_angle_beta 24.742051
_cell_angle_gamma 55.580754
_cell_volume 649.018029
_symmetry_space_group_name_H-M "P -1"
_symmetry_group_IT_number 2
_symmetry_cell_setting 'triclinic'
loop_
_space_group_symop_operation_xyz
x,y,z
-x,-y,-z
loop_
_atom_site_type_symbol
_atom_site_label
_atom_site_fract_x
_atom_site_fract_y
_atom_site_fract_z
Si Si1 0.266693 0.251676 0.049390
Si Si2 0.374336 0.312024 0.537584
Si Si3 0.521325 0.970573 0.368604
Si Si4 0.500000 0.000000 0.000000
Si Si5 0.303188 0.474496 0.295291
Si Si6 0.087244 0.930210 0.222187
Si Si7 0.051626 0.617179 0.945137
Si Si8 0.824150 0.315508 0.572038
O O1 0.098580 0.276268 0.068758
O O2 0.580636 0.280030 0.732375
O O3 0.096671 0.326456 0.247583
O O4 0.304797 0.116115 0.145507
O O5 0.405467 0.170372 0.618095
O O6 0.365468 0.349180 0.388167
O O7 0.102418 0.371765 0.804166
O O8 0.632605 0.364508 0.330087
O O9 0.500000 0.000000 0.500000
O O10 0.226524 0.011955 0.546540
O O11 0.753763 0.039933 0.054526
O O12 0.260082 0.982524 0.132076
O O13 0.308376 0.568996 0.326144
O O14 0.000000 0.500000 0.500000
O O15 0.500000 0.500000 0.000000
O O16 0.106012 0.790155 0.328303
O O17 0.000000 0.500000 0.000000
#
# Coordination Sequence:
#
# PCOD9024715 Si02
#       8
#     2   2   2   1   2   2   2   2
#     4  11  22  39  66  99 138 176 212 273 337 412
#     4  12  26  45  69 104 135 182 231 285 343 417
#     4  12  27  45  70  99 144 189 242 282 345 416
#     4  10  22  40  66 100 136 174 224 278 350 402
#     4  12  27  45  71  92 130 172 230 287 342 391
#     4  11  25  43  70 101 140 183 232 288 346 414
#     4  12  24  43  72 100 144 176 224 279 353 423
#     4  11  24  42  67  99 135 173 229 276 337 404
#
# _framework density 23.111840000000001
#
# number of rings (size 3 to 8) (size 9 to 14) (size 15 to 20)
#    0.000    0.533    0.000    8.800    3.733    5.867 
#    0.000    0.000    0.000    0.000    0.000    0.000 
#    0.000    0.000    0.000    0.000    0.000    0.000 
#
# Total GULP energy -83734.439365 kJ/mol
# GULP energy per Si atom -5582.295958 kJ/mol
# Density = 2.305924 g / cm^3
# Si number density = 23.111840 Si / 1000 Ang^3
#
#
#
# Elastic Constant Matrix: (Units=GPa)
#
#
# Indices 1 2 3 4 5 6 
#
# 1 67.8580 8.6006 -2.6701 -7.8749 -4.1677 -20.8756
# 2 8.6006 75.5252 11.7629 13.0360 9.5310 -17.2510
# 3 -2.6701 11.7629 88.8016 5.6410 10.4649 -14.1685
# 4 -7.8749 13.0360 5.6410 27.9119 -3.3827 4.9426
# 5 -4.1677 9.5310 10.4649 -3.3827 25.2941 8.5885
# 6 -20.8756 -17.2510 -14.1685 4.9426 8.5885 47.7161
#
#
#
# Elastic Compliance Matrix: (Units=1/GPa)
#
#
# Indices 1 2 3 4 5 6 
#
# 1 0.017702 -0.001533 0.001443 0.004318 0.001108 0.006972
# 2 -0.001533 0.019723 0.001554 -0.013546 -0.013809 0.010810
# 3 0.001443 0.001554 0.013755 -0.005565 -0.009342 0.007535
# 4 0.004318 -0.013546 -0.005565 0.049159 0.019176 -0.013204
# 5 0.001108 -0.013809 -0.009342 0.019176 0.058045 -0.019716
# 6 0.006972 0.010810 0.007535 -0.013204 -0.019716 0.035070
#
#
# Mechanical properties :
#
#
# Convention : Reuss Voigt Hill
#
# Bulk Modulus (GPa) = 18.48179 29.73017 24.10598
# Shear Modulus (GPa) = 23.97370 34.48385 29.22877
#
# Velocity S-wave (km/s) = 3.22419 3.86689 3.56007
# Velocity P-wave (km/s) = 4.67703 5.72963 5.22988
#
# Compressibility (1/GPa) = 0.05410731
#
# Stress axis : x y z
#
# Youngs Moduli (GPa) = 56.49157 50.70184 72.69940
#
# Poissons Ratio (x) = 0.07774 -0.10490
# Poissons Ratio (y) = 0.08662 -0.11297
# Poissons Ratio (z) = -0.08151 -0.07879
#
# Static dielectric constant tensor:
#      x y z
#    x 1.873430 0.010980 -0.014900 
#    y 0.010980 1.891130 -0.090770 
#    z -0.014900 -0.090770 1.943010 
# 
# From -- ./inp_files/433767.got.cif
#   From: 2010.05.17/outbox.cif.g08.bks.cpg/sg2_217_cif.got.tgz:433767.got - 2010.06.03 11:33:40.
