data_PCOD9024096
_publ_section_title
;
Structure prediction by ZEFSAII (Michael W. Deem and Ramdas Pophale) SiO2 
 PCOD9024096
Probable space group: P -1
;
_chemical_formula_sum "Si O2"
_cell_formula_units_Z 16
_cell_length_a 13.556075
_cell_length_b 13.891510
_cell_length_c 11.144935
_cell_angle_alpha 108.866061
_cell_angle_beta 128.878890
_cell_angle_gamma 32.239385
_cell_volume 754.920193
_symmetry_space_group_name_H-M "P -1"
_symmetry_group_IT_number 2
_symmetry_cell_setting 'triclinic'
loop_
_space_group_symop_operation_xyz
x,y,z
-x,-y,-z
loop_
_atom_site_type_symbol
_atom_site_label
_atom_site_fract_x
_atom_site_fract_y
_atom_site_fract_z
Si Si1 0.134757 0.245103 0.480658
Si Si2 0.404339 0.467930 0.845605
Si Si3 0.528210 0.340629 0.333562
Si Si4 0.483606 0.822085 0.553519
Si Si5 0.892519 0.223251 0.698873
Si Si6 0.476434 0.771315 0.956352
Si Si7 0.014502 0.470524 0.699691
Si Si8 0.763673 0.163315 0.793166
O O1 0.104102 0.355519 0.403634
O O2 0.903534 0.327198 0.313043
O O3 0.085488 0.330968 0.606008
O O4 0.397968 0.997985 0.574781
O O5 0.524605 0.378707 0.769726
O O6 0.500000 0.500000 0.000000
O O7 0.503761 0.300221 0.929393
O O8 0.590300 0.193681 0.394015
O O9 0.750339 0.269658 0.496349
O O10 0.272737 0.565833 0.294195
O O11 0.498519 0.331188 0.169401
O O12 0.788142 0.599996 0.669783
O O13 0.332536 0.877014 0.347675
O O14 0.847774 0.171603 0.748499
O O15 0.198340 0.020575 0.832658
O O16 0.722711 0.672648 0.097970
O O17 0.000000 0.000000 0.000000
#
# Coordination Sequence:
#
# PCOD9024096 Si02
#       8
#     2   2   2   2   2   2   2   2
#     4  10  22  40  63  92 126 161 197 255 316 361
#     4  11  21  36  62  97 126 152 202 258 313 368
#     4  10  24  41  61  90 122 167 210 247 300 370
#     4  11  23  41  63  90 124 164 207 252 305 359
#     4  10  22  42  62  89 128 164 197 258 312 357
#     4  11  23  41  63  88 124 164 205 249 305 367
#     4  10  23  42  62  92 125 161 205 254 305 372
#     4  11  20  36  63  95 126 153 201 260 312 366
#
# _framework density 21.194292000000001
#
# number of rings (size 3 to 8) (size 9 to 14) (size 15 to 20)
#    0.000    1.500    2.500    2.250    1.750    3.500 
#    2.250    1.250    0.000    0.000    0.000    0.000 
#    0.000    0.000    0.000    0.000    0.000    0.000 
#
# Total GULP energy -89444.665754 kJ/mol
# GULP energy per Si atom -5590.291610 kJ/mol
# Density = 2.114605 g / cm^3
# Si number density = 21.194292 Si / 1000 Ang^3
#
#
#
# Elastic Constant Matrix: (Units=GPa)
#
#
# Indices 1 2 3 4 5 6 
#
# 1 35.5375 5.4760 17.3644 -1.2168 5.8587 -7.8625
# 2 5.4760 98.5150 30.1199 -1.4166 5.7246 0.7058
# 3 17.3644 30.1199 97.7636 -7.0697 5.9783 -3.6573
# 4 -1.2168 -1.4166 -7.0697 30.2726 -5.2768 2.4097
# 5 5.8587 5.7246 5.9783 -5.2768 19.3629 0.1119
# 6 -7.8625 0.7058 -3.6573 2.4097 0.1119 24.8840
#
#
#
# Elastic Compliance Matrix: (Units=1/GPa)
#
#
# Indices 1 2 3 4 5 6 
#
# 1 0.034534 0.000173 -0.005385 -0.002351 -0.009538 0.010386
# 2 0.000173 0.011335 -0.003442 -0.000649 -0.002514 -0.000699
# 3 -0.005385 -0.003442 0.012455 0.002439 -0.000534 -0.000007
# 4 -0.002351 -0.000649 0.002439 0.035501 0.009847 -0.003848
# 5 -0.009538 -0.002514 -0.000534 0.009847 0.058147 -0.004236
# 6 0.010386 -0.000699 -0.000007 -0.003848 -0.004236 0.043878
#
#
# Mechanical properties :
#
#
# Convention : Reuss Voigt Hill
#
# Bulk Modulus (GPa) = 24.38177 37.52630 30.95403
# Shear Modulus (GPa) = 22.04292 26.82763 24.43528
#
# Velocity S-wave (km/s) = 3.22846 3.56166 3.39915
# Velocity P-wave (km/s) = 5.04244 5.88712 5.48108
#
# Compressibility (1/GPa) = 0.04101425
#
# Stress axis : x y z
#
# Youngs Moduli (GPa) = 28.95722 88.21974 80.29212
#
# Poissons Ratio (x) = -0.01526 0.43239
# Poissons Ratio (y) = -0.00501 0.27640
# Poissons Ratio (z) = 0.15594 0.30369
#
# Static dielectric constant tensor:
#      x y z
#    x 1.766790 0.002140 -0.004040 
#    y 0.002140 1.771160 -0.021800 
#    z -0.004040 -0.021800 1.759410 
# 
# From -- ./inp_files/271709.got.cif
#   From: 2010.05.17/outbox.cif.g08.bks.cpg/sg2_136_cif.got.tgz:271709.got - 2010.06.03 11:33:40.
