data_PCOD9024910
_publ_section_title
;
Structure prediction by ZEFSAII (Michael W. Deem and Ramdas Pophale) SiO2 
 PCOD9024910
Probable space group: P -1
;
_chemical_formula_sum "Si O2"
_cell_formula_units_Z 10
_cell_length_a 11.267042
_cell_length_b 13.951192
_cell_length_c 13.870806
_cell_angle_alpha 159.316009
_cell_angle_beta 149.617908
_cell_angle_gamma 32.211200
_cell_volume 380.094421
_symmetry_space_group_name_H-M "P -1"
_symmetry_group_IT_number 2
_symmetry_cell_setting 'triclinic'
loop_
_space_group_symop_operation_xyz
x,y,z
-x,-y,-z
loop_
_atom_site_type_symbol
_atom_site_label
_atom_site_fract_x
_atom_site_fract_y
_atom_site_fract_z
Si Si1 0.142029 0.571414 0.875479
Si Si2 0.758749 0.069841 0.999176
Si Si3 0.374472 0.345634 0.632034
Si Si4 0.125041 0.690503 0.402735
Si Si5 0.679718 0.819296 0.063720
O O1 0.278258 0.376584 0.702688
O O2 0.001055 0.860739 0.003862
O O3 0.955718 0.428761 0.667543
O O4 0.347356 0.632874 0.148725
O O5 0.659803 0.924884 0.702021
O O6 0.567282 0.083872 0.963067
O O7 0.766621 0.381634 0.267924
O O8 0.883098 0.766222 0.239847
O O9 0.241035 0.955879 0.738315
O O10 0.301708 0.459137 0.245871
#
# Coordination Sequence:
#
# PCOD9024910 Si02
#       5
#     2   2   2   2   2
#     4  11  26  45  73 100 136 182 227 272 342 403
#     4  12  25  46  71 101 138 177 224 283 333 400
#     4  11  27  46  68 103 139 176 224 283 333 399
#     4  10  22  40  66  95 133 177 217 275 336 393
#     4  10  22  40  66  95 135 172 220 278 333 389
#
# _framework density 26.309252000000001
#
# number of rings (size 3 to 8) (size 9 to 14) (size 15 to 20)
#    0.000    1.200    2.000    2.400    5.600    9.600 
#    0.000    0.000    0.000    0.000    0.000    0.000 
#    0.000    0.000    0.000    0.000    0.000    0.000 
#
# Total GULP energy -56242.795773 kJ/mol
# GULP energy per Si atom -5624.279577 kJ/mol
# Density = 2.624937 g / cm^3
# Si number density = 26.309252 Si / 1000 Ang^3
#
#
#
# Elastic Constant Matrix: (Units=GPa)
#
#
# Indices 1 2 3 4 5 6 
#
# 1 150.2276 20.9724 26.3968 2.7239 9.4671 -4.6294
# 2 20.9724 93.7578 21.6136 -10.4333 -6.9581 -0.3649
# 3 26.3968 21.6136 105.8178 3.4241 2.9343 2.6198
# 4 2.7239 -10.4333 3.4241 21.1414 1.6551 -3.4115
# 5 9.4671 -6.9581 2.9343 1.6551 37.6487 5.6989
# 6 -4.6294 -0.3649 2.6198 -3.4115 5.6989 44.5963
#
#
#
# Elastic Compliance Matrix: (Units=1/GPa)
#
#
# Indices 1 2 3 4 5 6 
#
# 1 0.007316 -0.001591 -0.001428 -0.001167 -0.002124 0.001013
# 2 -0.001591 0.012515 -0.002451 0.006618 0.002574 0.000259
# 3 -0.001428 -0.002451 0.010439 -0.002813 -0.000645 -0.000914
# 4 -0.001167 0.006618 -0.002813 0.051947 -0.001187 0.004224
# 5 -0.002124 0.002574 -0.000645 -0.001187 0.028259 -0.003863
# 6 0.001013 0.000259 -0.000914 0.004224 -0.003863 0.023401
#
#
# Mechanical properties :
#
#
# Convention : Reuss Voigt Hill
#
# Bulk Modulus (GPa) = 51.73642 54.19655 52.96648
# Shear Modulus (GPa) = 33.05544 39.39864 36.22704
#
# Velocity S-wave (km/s) = 3.54845 3.87398 3.71478
# Velocity P-wave (km/s) = 6.04119 6.37611 6.21091
#
# Compressibility (1/GPa) = 0.01932874
#
# Stress axis : x y z
#
# Youngs Moduli (GPa) = 136.68943 79.90261 95.79617
#
# Poissons Ratio (x) = 0.12710 0.13684
# Poissons Ratio (y) = 0.21743 0.23484
# Poissons Ratio (z) = 0.19526 0.19587
#
# Static dielectric constant tensor:
#      x y z
#    x 1.966620 0.030650 0.002350 
#    y 0.030650 2.079210 -0.046260 
#    z 0.002350 -0.046260 1.991000 
# 
# From -- ./inp_files/20642.got.cif
#   From: 2010.05.17/outbox.cif.g08.bks.cpg/sg2_11_cif.got.tgz:20642.got - 2010.06.03 11:33:40.
