data_PCOD9024799
_publ_section_title
;
Structure prediction by ZEFSAII (Michael W. Deem and Ramdas Pophale) SiO2 
 PCOD9024799
Probable space group: P -1
;
_chemical_formula_sum "Si O2"
_cell_formula_units_Z 10
_cell_length_a 9.425680
_cell_length_b 5.247997
_cell_length_c 16.159096
_cell_angle_alpha 50.375404
_cell_angle_beta 41.073390
_cell_angle_gamma 48.621512
_cell_volume 377.984020
_symmetry_space_group_name_H-M "P -1"
_symmetry_group_IT_number 2
_symmetry_cell_setting 'triclinic'
loop_
_space_group_symop_operation_xyz
x,y,z
-x,-y,-z
loop_
_atom_site_type_symbol
_atom_site_label
_atom_site_fract_x
_atom_site_fract_y
_atom_site_fract_z
Si Si1 0.113725 0.899461 0.880732
Si Si2 0.346203 0.064592 0.973062
Si Si3 0.247892 0.631559 0.544276
Si Si4 0.016771 0.735489 0.365927
Si Si5 0.570997 0.878193 0.738329
O O1 0.237458 0.477213 0.910054
O O2 0.332359 0.022167 0.761399
O O3 0.889745 0.023778 0.894886
O O4 0.000000 0.000000 0.000000
O O5 0.498864 0.881288 0.864768
O O6 0.500000 0.000000 0.000000
O O7 0.500000 0.500000 0.500000
O O8 0.159510 0.336232 0.606816
O O9 0.721590 0.476753 0.731604
O O10 0.071072 0.867783 0.642784
O O11 0.721058 0.116657 0.597071
O O12 0.000000 0.500000 0.500000
#
# Coordination Sequence:
#
# PCOD9024799 Si02
#       5
#     2   2   2   2   2
#     4   9  21  42  62  93 130 169 222 277 327 395
#     4  10  22  43  66  94 132 170 224 275 329 400
#     4  11  24  44  65 102 137 170 223 280 326 402
#     4  10  22  42  67  94 133 175 223 270 330 399
#     4  10  22  40  66  90 132 178 213 271 337 390
#
# _framework density 26.456146
#
# number of rings (size 3 to 8) (size 9 to 14) (size 15 to 20)
#    0.000    2.000    0.000    3.000    8.400    3.200 
#   14.400    0.000    0.000    0.000    0.000    0.000 
#    0.000    0.000    0.000    0.000    0.000    0.000 
#
# Total GULP energy -55990.353272 kJ/mol
# GULP energy per Si atom -5599.035327 kJ/mol
# Density = 2.639593 g / cm^3
# Si number density = 26.456146 Si / 1000 Ang^3
#
#
#
# Elastic Constant Matrix: (Units=GPa)
#
#
# Indices 1 2 3 4 5 6 
#
# 1 224.4468 22.7315 71.0101 22.4048 -22.0173 -17.7155
# 2 22.7315 50.2989 42.8852 26.6745 16.2583 0.0521
# 3 71.0101 42.8852 169.5691 21.1151 -21.1631 3.0417
# 4 22.4048 26.6745 21.1151 65.8473 11.7095 -5.2481
# 5 -22.0173 16.2583 -21.1631 11.7095 43.6369 3.9662
# 6 -17.7155 0.0521 3.0417 -5.2481 3.9662 45.4196
#
#
#
# Elastic Compliance Matrix: (Units=1/GPa)
#
#
# Indices 1 2 3 4 5 6 
#
# 1 0.005634 -0.001581 -0.001496 -0.001149 0.002840 0.001919
# 2 -0.001581 0.040828 -0.010906 -0.009086 -0.018921 0.000669
# 3 -0.001496 -0.010906 0.010398 -0.000091 0.008560 -0.002025
# 4 -0.001149 -0.009086 -0.000091 0.019951 -0.002784 0.002117
# 5 0.002840 -0.018921 0.008560 -0.002784 0.036566 -0.002959
# 6 0.001919 0.000669 -0.002025 0.002117 -0.002959 0.023403
#
#
# Mechanical properties :
#
#
# Convention : Reuss Voigt Hill
#
# Bulk Modulus (GPa) = 34.60985 79.72982 57.16983
# Shear Modulus (GPa) = 28.67363 51.49329 40.08346
#
# Velocity S-wave (km/s) = 3.29571 4.41655 3.89664
# Velocity P-wave (km/s) = 5.25287 7.49732 6.47312
#
# Compressibility (1/GPa) = 0.02889351
#
# Stress axis : x y z
#
# Youngs Moduli (GPa) = 177.50746 24.49326 96.17305
#
# Poissons Ratio (x) = 0.03872 0.14391
# Poissons Ratio (y) = 0.28062 1.04882
# Poissons Ratio (z) = 0.26561 0.26711
#
# Static dielectric constant tensor:
#      x y z
#    x 2.088360 -0.009120 -0.012990 
#    y -0.009120 1.880750 -0.127590 
#    z -0.012990 -0.127590 2.093510 
# 
# From -- ./inp_files/19979.got.cif
#   From: 2010.05.17/outbox.cif.g08.bks.cpg/sg2_10_cif.got.tgz:19979.got - 2010.06.03 11:33:40.
