data_PCOD9024040
_publ_section_title
;
Structure prediction by ZEFSAII (Michael W. Deem and Ramdas Pophale) SiO2 
 PCOD9024040
Probable space group: P -1
;
_chemical_formula_sum "Si O2"
_cell_formula_units_Z 15
_cell_length_a 9.276920
_cell_length_b 10.031467
_cell_length_c 9.728205
_cell_angle_alpha 70.655399
_cell_angle_beta 131.771227
_cell_angle_gamma 90.530659
_cell_volume 607.649054
_symmetry_space_group_name_H-M "P -1"
_symmetry_group_IT_number 2
_symmetry_cell_setting 'triclinic'
loop_
_space_group_symop_operation_xyz
x,y,z
-x,-y,-z
loop_
_atom_site_type_symbol
_atom_site_label
_atom_site_fract_x
_atom_site_fract_y
_atom_site_fract_z
Si Si1 0.362248 0.895049 0.967976
Si Si2 0.911489 0.387096 0.396779
Si Si3 0.851291 0.677780 0.692422
Si Si4 0.635572 0.672279 0.009336
Si Si5 0.003041 0.677163 0.086202
Si Si6 0.625940 0.200032 0.685641
Si Si7 0.704289 0.167670 0.455935
Si Si8 0.000000 0.000000 0.500000
O O1 0.494568 0.746764 0.022403
O O2 0.346532 0.878216 0.125539
O O3 0.140481 0.953325 0.743501
O O4 0.500000 0.000000 0.000000
O O5 0.849769 0.272055 0.493477
O O6 0.000000 0.500000 0.500000
O O7 0.054785 0.286005 0.405066
O O8 0.723598 0.498522 0.158792
O O9 0.611245 0.714837 0.511193
O O10 0.946039 0.500188 0.818708
O O11 0.920336 0.731436 0.861974
O O12 0.504491 0.720603 0.772051
O O13 0.829520 0.728606 0.075510
O O14 0.213892 0.707219 0.239786
O O15 0.685349 0.109289 0.613930
O O16 0.788317 0.040100 0.443583
#
# Coordination Sequence:
#
# PCOD9024040 Si02
#       8
#     2   2   2   2   2   2   2   1
#     4  11  28  48  72  96 135 182 235 292 345 415
#     4  11  23  39  72 103 143 188 224 280 345 413
#     4  10  22  40  63 104 148 177 221 279 344 407
#     4  10  22  46  66 104 139 185 227 278 349 406
#     4  10  22  40  66 103 144 181 220 281 343 411
#     4  12  25  41  72 102 132 180 234 288 342 404
#     4  11  24  46  70 103 141 180 234 285 339 419
#     4  10  28  50  70  96 134 184 232 280 352 404
#
# _framework density 24.685302
#
# number of rings (size 3 to 8) (size 9 to 14) (size 15 to 20)
#    0.000    1.333    1.333    3.200    9.333    1.600 
#    0.000    1.333    0.000    0.000    0.000    0.000 
#    0.000    0.000    0.000    0.000    0.000    0.000 
#
# Total GULP energy -83681.300672 kJ/mol
# GULP energy per Si atom -5578.753378 kJ/mol
# Density = 2.462912 g / cm^3
# Si number density = 24.685302 Si / 1000 Ang^3
#
#
#
# Elastic Constant Matrix: (Units=GPa)
#
#
# Indices 1 2 3 4 5 6 
#
# 1 118.3136 4.6855 69.8702 3.8023 -13.2707 -8.8227
# 2 4.6855 57.1116 22.5846 -4.6006 -0.6200 -5.7853
# 3 69.8702 22.5846 161.2830 21.6323 -6.9916 -23.4263
# 4 3.8023 -4.6006 21.6323 28.8905 -4.6014 3.3353
# 5 -13.2707 -0.6200 -6.9916 -4.6014 62.9349 14.5293
# 6 -8.8227 -5.7853 -23.4263 3.3353 14.5293 24.1226
#
#
#
# Elastic Compliance Matrix: (Units=1/GPa)
#
#
# Indices 1 2 3 4 5 6 
#
# 1 0.012157 0.001579 -0.006543 0.004511 0.003112 -0.004027
# 2 0.001579 0.019552 -0.004223 0.006146 0.000503 0.000013
# 3 -0.006543 -0.004223 0.012911 -0.011599 -0.003849 0.013054
# 4 0.004511 0.006146 -0.011599 0.047116 0.007609 -0.019238
# 5 0.003112 0.000503 -0.003849 0.007609 0.020320 -0.015770
# 6 -0.004027 0.000013 0.013054 -0.019238 -0.015770 0.064821
#
#
# Mechanical properties :
#
#
# Convention : Reuss Voigt Hill
#
# Bulk Modulus (GPa) = 38.09874 58.99877 48.54875
# Shear Modulus (GPa) = 24.50992 39.16080 31.83536
#
# Velocity S-wave (km/s) = 3.15444 3.98729 3.59506
# Velocity P-wave (km/s) = 5.36047 6.71939 6.07803
#
# Compressibility (1/GPa) = 0.02624759
#
# Stress axis : x y z
#
# Youngs Moduli (GPa) = 82.25553 51.14640 77.45305
#
# Poissons Ratio (x) = -0.08077 0.50676
# Poissons Ratio (y) = -0.12990 0.32705
# Poissons Ratio (z) = 0.53819 0.21597
#
# Static dielectric constant tensor:
#      x y z
#    x 1.960810 -0.027210 -0.002660 
#    y -0.027210 2.062500 -0.012940 
#    z -0.002660 -0.012940 1.957490 
# 
# From -- ./inp_files/176858.got.cif
#   From: 2010.05.17/outbox.cif.g08.bks.cpg/sg2_89_cif.got.tgz:176858.got - 2010.06.03 11:33:40.
