data_PCOD9024540
_publ_section_title
;
Structure prediction by ZEFSAII (Michael W. Deem and Ramdas Pophale) SiO2 
 PCOD9024540
Probable space group: P -1
;
_chemical_formula_sum "Si O2"
_cell_formula_units_Z 16
_cell_length_a 10.780929
_cell_length_b 9.920607
_cell_length_c 8.614889
_cell_angle_alpha 117.599287
_cell_angle_beta 96.323683
_cell_angle_gamma 55.998110
_cell_volume 662.876997
_symmetry_space_group_name_H-M "P -1"
_symmetry_group_IT_number 2
_symmetry_cell_setting 'triclinic'
loop_
_space_group_symop_operation_xyz
x,y,z
-x,-y,-z
loop_
_atom_site_type_symbol
_atom_site_label
_atom_site_fract_x
_atom_site_fract_y
_atom_site_fract_z
Si Si1 0.700492 0.748038 0.403948
Si Si2 0.608526 0.124680 0.100471
Si Si3 0.518093 0.005431 0.755684
Si Si4 0.252420 0.462702 0.255106
Si Si5 0.931084 0.199745 0.804557
Si Si6 0.002104 0.410420 0.120215
Si Si7 0.186736 0.990559 0.462883
Si Si8 0.327089 0.678123 0.563221
O O1 0.608163 0.801600 0.579646
O O2 0.848196 0.550946 0.270840
O O3 0.574730 0.832133 0.295780
O O4 0.750191 0.889498 0.499740
O O5 0.609645 0.984862 0.148685
O O6 0.429241 0.299310 0.169709
O O7 0.701667 0.200631 0.222897
O O8 0.626369 0.036473 0.889176
O O9 0.202329 0.594886 0.166249
O O10 0.143440 0.393160 0.214302
O O11 0.229607 0.597299 0.466140
O O12 0.869894 0.070963 0.722391
O O13 0.051425 0.114510 0.634007
O O14 0.005075 0.230946 0.978628
O O15 0.000000 0.500000 0.000000
O O16 0.302905 0.805685 0.480453
O O17 0.500000 0.500000 0.500000
#
# Coordination Sequence:
#
# PCOD9024540 Si02
#       8
#     2   2   2   2   2   2   2   2
#     4  11  20  35  55  81 116 136 178 236 272 304
#     4  10  19  35  54  76 105 146 188 212 267 334
#     4  10  22  33  54  80 105 146 181 225 269 321
#     4   9  17  29  53  79 102 136 181 225 260 315
#     4   9  18  28  52  85 106 139 179 222 265 322
#     4  10  17  31  54  81 108 140 175 225 268 317
#     4  10  17  31  53  81 110 139 178 226 268 314
#     4   9  18  31  52  79 107 140 182 223 262 322
#
# _framework density 24.137207
#
# number of rings (size 3 to 8) (size 9 to 14) (size 15 to 20)
#    0.000    2.250    3.750    1.500    0.000    0.000 
#    0.000    0.625    8.250    6.000    0.000    0.000 
#    0.000    0.000    0.000    0.000    0.000    0.000 
#
# Total GULP energy -89335.625410 kJ/mol
# GULP energy per Si atom -5583.476588 kJ/mol
# Density = 2.408227 g / cm^3
# Si number density = 24.137207 Si / 1000 Ang^3
#
#
#
# Elastic Constant Matrix: (Units=GPa)
#
#
# Indices 1 2 3 4 5 6 
#
# 1 80.6202 4.8630 56.7335 0.8349 42.7096 -4.0414
# 2 4.8630 48.2630 15.3609 16.7081 2.2997 -5.2253
# 3 56.7335 15.3609 165.9328 9.0397 51.1013 -6.6744
# 4 0.8349 16.7081 9.0397 30.6351 -3.7026 1.8008
# 5 42.7096 2.2997 51.1013 -3.7026 66.5353 3.0407
# 6 -4.0414 -5.2253 -6.6744 1.8008 3.0407 23.1714
#
#
#
# Elastic Compliance Matrix: (Units=1/GPa)
#
#
# Indices 1 2 3 4 5 6 
#
# 1 0.020937 0.000485 -0.003575 -0.001359 -0.010981 0.004278
# 2 0.000485 0.027102 -0.001066 -0.015101 -0.001602 0.007273
# 3 -0.003575 -0.001066 0.009130 -0.002769 -0.004955 0.002631
# 4 -0.001359 -0.015101 -0.002769 0.043001 0.006307 -0.008609
# 5 -0.010981 -0.001602 -0.004955 0.006307 0.026642 -0.007690
# 6 0.004278 0.007273 0.002631 -0.008609 -0.007690 0.047979
#
#
# Mechanical properties :
#
#
# Convention : Reuss Voigt Hill
#
# Bulk Modulus (GPa) = 20.46839 49.85898 35.16368
# Shear Modulus (GPa) = 25.07675 38.59226 31.83450
#
# Velocity S-wave (km/s) = 3.22673 4.00293 3.63560
# Velocity P-wave (km/s) = 4.73084 6.48582 5.67656
#
# Compressibility (1/GPa) = 0.04885583
#
# Stress axis : x y z
#
# Youngs Moduli (GPa) = 47.76326 36.89794 109.52638
#
# Poissons Ratio (x) = -0.01790 0.39159
# Poissons Ratio (y) = -0.02317 0.11678
# Poissons Ratio (z) = 0.17077 0.03934
#
# Static dielectric constant tensor:
#      x y z
#    x 1.992960 -0.023960 0.007720 
#    y -0.023960 1.976900 0.005230 
#    z 0.007720 0.005230 2.001860 
# 
# From -- ./inp_files/260117.got.cif
#   From: 2010.05.17/outbox.cif.g08.bks.cpg/sg2_131_cif.got.tgz:260117.got - 2010.06.03 11:33:40.
