data_PCOD9024881
_publ_section_title
;
Structure prediction by ZEFSAII (Michael W. Deem and Ramdas Pophale) SiO2 
 PCOD9024881
Probable space group: P -1
;
_chemical_formula_sum "Si O2"
_cell_formula_units_Z 14
_cell_length_a 7.130707
_cell_length_b 5.278885
_cell_length_c 20.194394
_cell_angle_alpha 97.185610
_cell_angle_beta 135.116404
_cell_angle_gamma 72.034334
_cell_volume 505.296407
_symmetry_space_group_name_H-M "P -1"
_symmetry_group_IT_number 2
_symmetry_cell_setting 'triclinic'
loop_
_space_group_symop_operation_xyz
x,y,z
-x,-y,-z
loop_
_atom_site_type_symbol
_atom_site_label
_atom_site_fract_x
_atom_site_fract_y
_atom_site_fract_z
Si Si1 0.805476 0.280153 0.797087
Si Si2 0.636672 0.223636 0.336837
Si Si3 0.842933 0.616615 0.560788
Si Si4 0.738050 0.771567 0.259351
Si Si5 0.408173 0.941520 0.377309
Si Si6 0.491655 0.418568 0.918585
Si Si7 0.796539 0.792060 0.986828
O O1 0.674029 0.571142 0.741752
O O2 0.542180 0.272019 0.778408
O O3 0.816587 0.084938 0.732569
O O4 0.075681 0.217054 0.907902
O O5 0.895389 0.336435 0.410146
O O6 0.679432 0.080303 0.270997
O O7 0.626215 0.034599 0.389585
O O8 0.583054 0.662852 0.447845
O O9 0.986837 0.356424 0.631687
O O10 0.725565 0.847204 0.593397
O O11 0.751799 0.642827 0.186541
O O12 0.500000 0.500000 0.000000
O O13 0.524523 0.697467 0.908185
O O14 0.722016 0.109792 0.958570
O O15 0.000000 0.500000 0.000000
#
# Coordination Sequence:
#
# PCOD9024881 Si02
#       7
#     2   2   2   2   2   2   2
#     4  10  23  40  68  95 130 172 229 275 342 416
#     4  10  22  40  66  94 132 177 221 278 347 410
#     4  10  23  41  64  95 134 173 221 284 343 411
#     4  10  23  42  65  93 134 171 222 284 346 412
#     4  10  23  41  64  97 131 173 227 276 343 418
#     4  12  28  44  69 105 143 183 237 296 364 420
#     4  12  25  45  73  99 138 187 237 290 352 427
#
# _framework density 27.706510000000002
#
# number of rings (size 3 to 8) (size 9 to 14) (size 15 to 20)
#    0.000    1.429    1.429    2.143    8.000    8.571 
#    0.000    2.857    0.000    0.000    0.000    0.000 
#    0.000    0.000    0.000    0.000    0.000    0.000 
#
# Total GULP energy -78121.433807 kJ/mol
# GULP energy per Si atom -5580.102415 kJ/mol
# Density = 2.764345 g / cm^3
# Si number density = 27.706510 Si / 1000 Ang^3
#
#
#
# Elastic Constant Matrix: (Units=GPa)
#
#
# Indices 1 2 3 4 5 6 
#
# 1 65.7172 27.2721 50.6995 10.6220 2.8840 -21.8109
# 2 27.2721 134.7494 44.7631 5.2051 -6.5315 -16.1642
# 3 50.6995 44.7631 126.9986 -11.9642 -8.9778 7.0890
# 4 10.6220 5.2051 -11.9642 49.8696 1.4611 -8.9948
# 5 2.8840 -6.5315 -8.9778 1.4611 36.9227 16.6642
# 6 -21.8109 -16.1642 7.0890 -8.9948 16.6642 40.9761
#
#
#
# Elastic Compliance Matrix: (Units=1/GPa)
#
#
# Indices 1 2 3 4 5 6 
#
# 1 0.052459 0.002600 -0.027261 -0.009239 -0.029615 0.043681
# 2 0.002600 0.009290 -0.005018 -0.001434 -0.002757 0.006723
# 3 -0.027261 -0.005018 0.023995 0.006684 0.018942 -0.026877
# 4 -0.009239 -0.001434 0.006684 0.023262 0.002284 -0.002462
# 5 -0.029615 -0.002757 0.018942 0.002284 0.051788 -0.040688
# 6 0.043681 0.006723 -0.026877 -0.002462 -0.040688 0.070964
#
#
# Mechanical properties :
#
#
# Convention : Reuss Voigt Hill
#
# Bulk Modulus (GPa) = 37.89819 63.65941 50.77880
# Shear Modulus (GPa) = 16.67160 39.20238 27.93699
#
# Velocity S-wave (km/s) = 2.45566 3.76562 3.17885
# Velocity P-wave (km/s) = 4.66353 6.47555 5.64275
#
# Compressibility (1/GPa) = 0.02638648
#
# Stress axis : x y z
#
# Youngs Moduli (GPa) = 19.06237 107.64177 41.67594
#
# Poissons Ratio (x) = -0.27986 1.13613
# Poissons Ratio (y) = -0.04956 0.20912
# Poissons Ratio (z) = 0.51966 0.54011
#
# Static dielectric constant tensor:
#      x y z
#    x 2.463030 -0.170230 0.132400 
#    y -0.170230 2.390950 -0.219760 
#    z 0.132400 -0.219760 2.225080 
# 
# From -- ./inp_files/46415.got.cif
#   From: 2010.05.17/outbox.cif.g08.bks.cpg/sg2_24_cif.got.tgz:46415.got - 2010.06.03 11:33:40.
