data_PCOD9024679
_publ_section_title
;
Structure prediction by ZEFSAII (Michael W. Deem and Ramdas Pophale) SiO2 
 PCOD9024679
Probable space group: P -1
;
_chemical_formula_sum "Si O2"
_cell_formula_units_Z 14
_cell_length_a 11.880314
_cell_length_b 10.815558
_cell_length_c 9.987392
_cell_angle_alpha 38.075255
_cell_angle_beta 51.173558
_cell_angle_gamma 61.040913
_cell_volume 616.427765
_symmetry_space_group_name_H-M "P -1"
_symmetry_group_IT_number 2
_symmetry_cell_setting 'triclinic'
loop_
_space_group_symop_operation_xyz
x,y,z
-x,-y,-z
loop_
_atom_site_type_symbol
_atom_site_label
_atom_site_fract_x
_atom_site_fract_y
_atom_site_fract_z
Si Si1 0.706868 0.170694 0.262288
Si Si2 0.618206 0.828882 0.417960
Si Si3 0.415039 0.868481 0.063227
Si Si4 0.863604 0.938749 0.567222
Si Si5 0.233804 0.502880 0.566981
Si Si6 0.679615 0.643476 0.094787
Si Si7 0.103966 0.491506 0.161668
O O1 0.545261 0.237321 0.363633
O O2 0.682596 0.969574 0.365948
O O3 0.793247 0.102189 0.387883
O O4 0.804245 0.340773 0.969112
O O5 0.716550 0.642675 0.464935
O O6 0.606098 0.981040 0.171386
O O7 0.271853 0.737740 0.317482
O O8 0.525615 0.684656 0.108896
O O9 0.500000 0.000000 0.000000
O O10 0.890770 0.746619 0.614022
O O11 0.755660 0.858798 0.830615
O O12 0.000000 0.000000 0.500000
O O13 0.326201 0.431233 0.687193
O O14 0.064460 0.462526 0.759973
O O15 0.795673 0.507734 0.047973
#
# Coordination Sequence:
#
# PCOD9024679 Si02
#       7
#     2   2   2   2   2   2   2
#     4  11  24  47  71  91 133 178 223 272 320 398
#     4  11  26  45  68  98 129 179 223 267 333 388
#     4  12  25  40  67  98 136 168 220 276 331 383
#     4  10  23  39  69 100 128 168 221 269 323 387
#     4  12  25  41  64 103 137 167 215 283 327 388
#     4  10  22  40  65  98 128 171 215 271 324 385
#     4  10  25  40  67  97 132 172 219 264 334 389
#
# _framework density 22.711500999999998
#
# number of rings (size 3 to 8) (size 9 to 14) (size 15 to 20)
#    0.857    0.286    2.857    2.571    6.000    2.857 
#    0.000    5.000    0.000    0.000    0.000    0.000 
#    0.000    0.000    0.000    0.000    0.000    0.000 
#
# Total GULP energy -78028.032633 kJ/mol
# GULP energy per Si atom -5573.430902 kJ/mol
# Density = 2.265981 g / cm^3
# Si number density = 22.711501 Si / 1000 Ang^3
#
#
#
# Elastic Constant Matrix: (Units=GPa)
#
#
# Indices 1 2 3 4 5 6 
#
# 1 82.1876 23.5800 50.0254 -5.1395 -24.4023 -8.5912
# 2 23.5800 102.4561 37.4177 -27.3557 -19.4398 -11.1130
# 3 50.0254 37.4177 85.1590 -14.8313 -20.1940 -14.0225
# 4 -5.1395 -27.3557 -14.8313 32.1947 -3.1682 -0.7374
# 5 -24.4023 -19.4398 -20.1940 -3.1682 36.1858 9.1911
# 6 -8.5912 -11.1130 -14.0225 -0.7374 9.1911 19.4035
#
#
#
# Elastic Compliance Matrix: (Units=1/GPa)
#
#
# Indices 1 2 3 4 5 6 
#
# 1 0.021065 0.000437 -0.010960 -0.000494 0.008940 -0.002597
# 2 0.000437 0.016077 -0.002422 0.013467 0.007600 0.004563
# 3 -0.010960 -0.002422 0.022488 0.006972 0.002112 0.009276
# 4 -0.000494 0.013467 0.006972 0.047088 0.012820 0.008250
# 5 0.008940 0.007600 0.002112 0.012820 0.042544 -0.009828
# 6 -0.002597 0.004563 0.009276 0.008250 -0.009828 0.064673
#
#
# Mechanical properties :
#
#
# Convention : Reuss Voigt Hill
#
# Bulk Modulus (GPa) = 29.63828 54.64990 42.14409
# Shear Modulus (GPa) = 19.91471 28.14210 24.02840
#
# Velocity S-wave (km/s) = 2.96439 3.52392 3.25620
# Velocity P-wave (km/s) = 4.97946 6.37748 5.72133
#
# Compressibility (1/GPa) = 0.03374015
#
# Stress axis : x y z
#
# Youngs Moduli (GPa) = 47.47188 62.20173 44.46858
#
# Poissons Ratio (x) = -0.02720 0.48739
# Poissons Ratio (y) = -0.02076 0.10769
# Poissons Ratio (z) = 0.52030 0.15064
#
# Static dielectric constant tensor:
#      x y z
#    x 1.722090 0.041560 -0.045320 
#    y 0.041560 2.039620 -0.029420 
#    z -0.045320 -0.029420 1.860280 
# 
# From -- ./inp_files/422609.got.cif
#   From: 2010.05.17/outbox.cif.g08.bks.cpg/sg2_212_cif.got.tgz:422609.got - 2010.06.03 11:33:40.
