data_PCOD9024255
_publ_section_title
;
Structure prediction by ZEFSAII (Michael W. Deem and Ramdas Pophale) SiO2 
 PCOD9024255
Probable space group: P -1
;
_chemical_formula_sum "Si O2"
_cell_formula_units_Z 14
_cell_length_a 13.345614
_cell_length_b 10.373382
_cell_length_c 7.612982
_cell_angle_alpha 81.159792
_cell_angle_beta 74.686062
_cell_angle_gamma 30.374815
_cell_volume 508.024575
_symmetry_space_group_name_H-M "P -1"
_symmetry_group_IT_number 2
_symmetry_cell_setting 'triclinic'
loop_
_space_group_symop_operation_xyz
x,y,z
-x,-y,-z
loop_
_atom_site_type_symbol
_atom_site_label
_atom_site_fract_x
_atom_site_fract_y
_atom_site_fract_z
Si Si1 0.047552 0.599104 0.500461
Si Si2 0.378629 0.530331 0.777546
Si Si3 0.238331 0.283326 0.980887
Si Si4 0.658789 0.139134 0.261712
Si Si5 0.435463 0.218381 0.590044
Si Si6 0.232813 0.547764 0.159771
Si Si7 0.228512 0.018629 0.132852
O O1 0.291698 0.326740 0.477919
O O2 0.040182 0.726401 0.337591
O O3 0.000000 0.500000 0.500000
O O4 0.948917 0.761250 0.691252
O O5 0.343129 0.713837 0.692229
O O6 0.357663 0.439783 0.663004
O O7 0.608885 0.258673 0.805537
O O8 0.230340 0.656815 0.983463
O O9 0.240125 0.400532 0.088378
O O10 0.327997 0.055304 0.071417
O O11 0.372255 0.181396 0.773623
O O12 0.000000 0.500000 0.000000
O O13 0.647417 0.039018 0.438487
O O14 0.436922 0.365412 0.214030
O O15 0.809639 0.966521 0.058759
#
# Coordination Sequence:
#
# PCOD9024255 Si02
#       7
#     2   2   2   2   2   2   2
#     4  11  20  40  60  88 125 160 194 246 304 366
#     4  10  22  43  63  86 124 159 205 254 288 349
#     4  11  20  38  61  89 126 155 192 255 303 359
#     4  10  22  42  62  87 123 160 205 250 290 353
#     4  10  22  40  64  87 121 164 195 249 308 349
#     4   9  19  35  62  84 117 162 195 237 309 348
#     4  11  22  38  64  90 124 159 198 244 309 356
#
# _framework density 27.557718999999999
#
# number of rings (size 3 to 8) (size 9 to 14) (size 15 to 20)
#    0.000    1.714    2.857    2.143    0.000    5.714 
#    5.143    7.143    3.143    0.000    0.000    0.000 
#    0.000    0.000    0.000    0.000    0.000    0.000 
#
# Total GULP energy -78250.570426 kJ/mol
# GULP energy per Si atom -5589.326459 kJ/mol
# Density = 2.749500 g / cm^3
# Si number density = 27.557719 Si / 1000 Ang^3
#
#
#
# Elastic Constant Matrix: (Units=GPa)
#
#
# Indices 1 2 3 4 5 6 
#
# 1 90.3518 11.6401 19.7795 18.2599 -11.8579 0.5403
# 2 11.6401 104.3278 28.8223 4.2289 -18.1027 9.2801
# 3 19.7795 28.8223 176.5579 26.0266 -33.4977 10.0472
# 4 18.2599 4.2289 26.0266 38.9318 0.4431 -4.0425
# 5 -11.8579 -18.1027 -33.4977 0.4431 49.6367 0.9918
# 6 0.5403 9.2801 10.0472 -4.0425 0.9918 41.9152
#
#
#
# Elastic Compliance Matrix: (Units=1/GPa)
#
#
# Indices 1 2 3 4 5 6 
#
# 1 0.012751 -0.000639 0.000197 -0.006153 0.003016 -0.000735
# 2 -0.000639 0.010675 -0.000847 -0.000568 0.003220 -0.002283
# 3 0.000197 -0.000847 0.007657 -0.005414 0.005000 -0.002291
# 4 -0.006153 -0.000568 -0.005414 0.032817 -0.005720 0.004803
# 5 0.003016 0.003220 0.005000 -0.005720 0.025528 -0.003106
# 6 -0.000735 -0.002283 -0.002291 0.004803 -0.003106 0.025459
#
#
# Mechanical properties :
#
#
# Convention : Reuss Voigt Hill
#
# Bulk Modulus (GPa) = 35.08076 54.63569 44.85823
# Shear Modulus (GPa) = 39.38059 46.82978 43.10518
#
# Velocity S-wave (km/s) = 3.78434 4.12677 3.95926
# Velocity P-wave (km/s) = 5.64381 6.52502 6.10035
#
# Compressibility (1/GPa) = 0.02850565
#
# Stress axis : x y z
#
# Youngs Moduli (GPa) = 78.42654 93.67523 130.59841
#
# Poissons Ratio (x) = 0.05986 -0.02571
# Poissons Ratio (y) = 0.05011 0.11056
# Poissons Ratio (z) = -0.01544 0.07930
#
# Static dielectric constant tensor:
#      x y z
#    x 2.160010 -0.118800 -0.009000 
#    y -0.118800 2.184670 -0.009330 
#    z -0.009000 -0.009330 2.304450 
# 
# From -- ./inp_files/298188.got.cif
#   From: 2010.05.17/outbox.cif.g08.bks.cpg/sg2_150_cif.got.tgz:298188.got - 2010.06.03 11:33:40.
