data_PCOD9024443
_publ_section_title
;
Structure prediction by ZEFSAII (Michael W. Deem and Ramdas Pophale) SiO2 
 PCOD9024443
Probable space group: P -1
;
_chemical_formula_sum "Si O2"
_cell_formula_units_Z 14
_cell_length_a 10.190177
_cell_length_b 12.073214
_cell_length_c 12.280697
_cell_angle_alpha 53.602617
_cell_angle_beta 98.928468
_cell_angle_gamma 54.396600
_cell_volume 636.825537
_symmetry_space_group_name_H-M "P -1"
_symmetry_group_IT_number 2
_symmetry_cell_setting 'triclinic'
loop_
_space_group_symop_operation_xyz
x,y,z
-x,-y,-z
loop_
_atom_site_type_symbol
_atom_site_label
_atom_site_fract_x
_atom_site_fract_y
_atom_site_fract_z
Si Si1 0.193839 0.779586 0.997328
Si Si2 0.012397 0.288851 0.122174
Si Si3 0.973883 0.651387 0.659174
Si Si4 0.591781 0.853770 0.780571
Si Si5 0.972003 0.634343 0.317824
Si Si6 0.506781 0.764736 0.040572
Si Si7 0.275685 0.626777 0.333489
O O1 0.084530 0.769117 0.902731
O O2 0.390290 0.721467 0.016261
O O3 0.308501 0.603787 0.220695
O O4 0.962062 0.071305 0.841816
O O5 0.029127 0.284152 0.257639
O O6 0.280270 0.108758 0.219300
O O7 0.792785 0.591758 0.887526
O O8 0.013534 0.457887 0.740978
O O9 0.217993 0.502815 0.715553
O O10 0.688269 0.919363 0.428264
O O11 0.582351 0.791974 0.932538
O O12 0.000000 0.500000 0.500000
O O13 0.200273 0.540254 0.409481
O O14 0.713679 0.950575 0.099495
O O15 0.500000 0.500000 0.500000
#
# Coordination Sequence:
#
# PCOD9024443 Si02
#       7
#     2   2   2   2   2   2   2
#     4  10  24  45  64  93 137 171 212 266 327 388
#     4  10  24  42  65  93 135 172 217 270 319 387
#     4  11  23  40  68  98 128 173 218 268 324 383
#     4  10  22  40  64  97 128 170 225 262 321 381
#     4  11  23  41  69  97 131 165 219 276 323 378
#     4  10  23  42  65  96 132 171 216 268 331 379
#     4  10  25  42  66  97 127 174 218 259 327 391
#
# _framework density 21.984044000000001
#
# number of rings (size 3 to 8) (size 9 to 14) (size 15 to 20)
#    0.000    1.714    1.429    0.857   10.000    3.429 
#    0.000    1.429    0.000    0.000    0.000    0.000 
#    0.000    0.000    0.000    0.000    0.000    0.000 
#
# Total GULP energy -78014.421258 kJ/mol
# GULP energy per Si atom -5572.458661 kJ/mol
# Density = 2.193401 g / cm^3
# Si number density = 21.984044 Si / 1000 Ang^3
#
#
#
# Elastic Constant Matrix: (Units=GPa)
#
#
# Indices 1 2 3 4 5 6 
#
# 1 134.0059 52.1502 47.0783 22.3575 27.3992 29.2519
# 2 52.1502 100.3079 24.1792 25.4928 6.1392 19.7271
# 3 47.0783 24.1792 100.6750 8.3883 36.1734 4.8118
# 4 22.3575 25.4928 8.3883 37.6542 -0.1749 9.7058
# 5 27.3992 6.1392 36.1734 -0.1749 39.3125 4.0808
# 6 29.2519 19.7271 4.8118 9.7058 4.0808 34.8219
#
#
#
# Elastic Compliance Matrix: (Units=1/GPa)
#
#
# Indices 1 2 3 4 5 6 
#
# 1 0.012894 -0.003640 -0.002717 -0.002805 -0.005204 -0.007002
# 2 -0.003640 0.014451 -0.001939 -0.006308 0.002388 -0.003383
# 3 -0.002717 -0.001939 0.016407 -0.001591 -0.013230 0.003108
# 4 -0.002805 -0.006308 -0.001591 0.033869 0.004957 -0.003871
# 5 -0.005204 0.002388 -0.013230 0.004957 0.041026 -0.001343
# 6 -0.007002 -0.003383 0.003108 -0.003871 -0.001343 0.037323
#
#
# Mechanical properties :
#
#
# Convention : Reuss Voigt Hill
#
# Bulk Modulus (GPa) = 36.81983 64.64490 50.73237
# Shear Modulus (GPa) = 27.53046 36.46312 31.99679
#
# Velocity S-wave (km/s) = 3.54261 4.07703 3.81918
# Velocity P-wave (km/s) = 5.78950 7.18555 6.52497
#
# Compressibility (1/GPa) = 0.02715928
#
# Stress axis : x y z
#
# Youngs Moduli (GPa) = 77.55531 69.19724 60.94928
#
# Poissons Ratio (x) = 0.25188 0.16561
# Poissons Ratio (y) = 0.28231 0.11820
# Poissons Ratio (z) = 0.21074 0.13420
#
# Static dielectric constant tensor:
#      x y z
#    x 1.838700 -0.024900 0.008560 
#    y -0.024900 1.804920 -0.017190 
#    z 0.008560 -0.017190 2.007220 
# 
# From -- ./inp_files/500051.got.cif
#   From: 2010.05.17/outbox.cif.g08.bks.cpg/sg2_251_cif.got.tgz:500051.got - 2010.06.03 11:33:40.
