data_PCOD9024268
_publ_section_title
;
Structure prediction by ZEFSAII (Michael W. Deem and Ramdas Pophale) SiO2 
 PCOD9024268
Probable space group: P -1
;
_chemical_formula_sum "Si O2"
_cell_formula_units_Z 14
_cell_length_a 19.968975
_cell_length_b 4.947675
_cell_length_c 16.546784
_cell_angle_alpha 91.791115
_cell_angle_beta 22.825141
_cell_angle_gamma 90.407125
_cell_volume 632.876740
_symmetry_space_group_name_H-M "P -1"
_symmetry_group_IT_number 2
_symmetry_cell_setting 'triclinic'
loop_
_space_group_symop_operation_xyz
x,y,z
-x,-y,-z
loop_
_atom_site_type_symbol
_atom_site_label
_atom_site_fract_x
_atom_site_fract_y
_atom_site_fract_z
Si Si1 0.961285 0.265127 0.379712
Si Si2 0.700882 0.560681 0.788293
Si Si3 0.999670 0.540592 0.095854
Si Si4 0.230096 0.930893 0.185116
Si Si5 0.827554 0.064008 0.362947
Si Si6 0.261883 0.376513 0.931898
Si Si7 0.552811 0.133719 0.216502
O O1 0.816762 0.466505 0.582269
O O2 0.876278 0.090574 0.402873
O O3 0.059766 0.068700 0.333531
O O4 0.108715 0.421347 0.169323
O O5 0.717426 0.868067 0.800115
O O6 0.779833 0.367519 0.770565
O O7 0.500000 0.500000 0.000000
O O8 0.858096 0.353355 0.291854
O O9 0.955380 0.847684 0.173757
O O10 0.000000 0.500000 0.000000
O O11 0.179175 0.446507 0.938549
O O12 0.377300 0.914037 0.952542
O O13 0.638699 0.958229 0.563822
O O14 0.413518 0.564005 0.791106
O O15 0.324834 0.065532 0.866670
#
# Coordination Sequence:
#
# PCOD9024268 Si02
#       7
#     2   2   2   2   2   2   2
#     4  10  23  42  64  90 121 166 214 250 305 374
#     4  12  25  39  58  90 125 161 206 264 310 348
#     4  11  23  43  66  95 126 161 202 247 304 373
#     4  11  23  39  60  86 122 165 204 257 306 357
#     4  11  24  41  67  93 122 163 204 254 304 363
#     4  10  22  40  64  89 123 165 203 253 306 370
#     4  11  22  42  63  93 125 161 210 253 304 363
#
# _framework density 22.121213000000001
#
# number of rings (size 3 to 8) (size 9 to 14) (size 15 to 20)
#    0.000    1.143    0.000    7.714    0.000    8.000 
#    0.000    4.286    0.000    0.000    0.000    0.000 
#    0.000    0.000    0.000    0.000    0.000    0.000 
#
# Total GULP energy -78418.945298 kJ/mol
# GULP energy per Si atom -5601.353236 kJ/mol
# Density = 2.207086 g / cm^3
# Si number density = 22.121213 Si / 1000 Ang^3
#
#
#
# Elastic Constant Matrix: (Units=GPa)
#
#
# Indices 1 2 3 4 5 6 
#
# 1 103.8772 4.1897 23.1705 6.1974 2.3002 16.0874
# 2 4.1897 69.1170 -5.4765 -1.0778 1.3953 5.0196
# 3 23.1705 -5.4765 50.7272 -18.0943 -16.7780 1.0920
# 4 6.1974 -1.0778 -18.0943 36.4230 11.2251 -4.7233
# 5 2.3002 1.3953 -16.7780 11.2251 14.4253 -1.1398
# 6 16.0874 5.0196 1.0920 -4.7233 -1.1398 25.5726
#
#
#
# Elastic Compliance Matrix: (Units=1/GPa)
#
#
# Indices 1 2 3 4 5 6 
#
# 1 0.015044 -0.001052 -0.013703 -0.006423 -0.014065 -0.010486
# 2 -0.001052 0.014926 0.002955 0.001585 0.000764 -0.002067
# 3 -0.013703 0.002955 0.045795 0.012188 0.046501 0.010408
# 4 -0.006423 0.001585 0.012188 0.040873 -0.015965 0.010047
# 5 -0.014065 0.000764 0.046501 -0.015965 0.138786 0.009949
# 6 -0.010486 -0.002067 0.010408 0.010047 0.009949 0.047961
#
#
# Mechanical properties :
#
#
# Convention : Reuss Voigt Hill
#
# Bulk Modulus (GPa) = 19.17056 29.72099 24.44577
# Shear Modulus (GPa) = 14.51914 28.74004 21.62959
#
# Velocity S-wave (km/s) = 2.56470 3.60836 3.13033
# Velocity P-wave (km/s) = 4.17794 5.55203 4.91326
#
# Compressibility (1/GPa) = 0.05216332
#
# Stress axis : x y z
#
# Youngs Moduli (GPa) = 66.47045 66.99924 21.83664
#
# Poissons Ratio (x) = 0.07051 0.29922
# Poissons Ratio (y) = 0.06995 -0.06452
# Poissons Ratio (z) = 0.91083 -0.19796
#
# Static dielectric constant tensor:
#      x y z
#    x 1.799210 -0.011180 -0.010730 
#    y -0.011180 1.778880 -0.005030 
#    z -0.010730 -0.005030 1.808490 
# 
# From -- ./inp_files/122811.got.cif
#   From: 2010.05.17/outbox.cif.g08.bks.cpg/sg2_62_cif.got.tgz:122811.got - 2010.06.03 11:33:40.
