data_PCOD9024234
_publ_section_title
;
Structure prediction by ZEFSAII (Michael W. Deem and Ramdas Pophale) SiO2 
 PCOD9024234
Probable space group: P -1
;
_chemical_formula_sum "Si O2"
_cell_formula_units_Z 14
_cell_length_a 19.754488
_cell_length_b 6.842714
_cell_length_c 9.412765
_cell_angle_alpha 53.414851
_cell_angle_beta 39.674755
_cell_angle_gamma 48.067008
_cell_volume 595.300864
_symmetry_space_group_name_H-M "P -1"
_symmetry_group_IT_number 2
_symmetry_cell_setting 'triclinic'
loop_
_space_group_symop_operation_xyz
x,y,z
-x,-y,-z
loop_
_atom_site_type_symbol
_atom_site_label
_atom_site_fract_x
_atom_site_fract_y
_atom_site_fract_z
Si Si1 0.114364 0.924860 0.519096
Si Si2 0.641010 0.521531 0.132965
Si Si3 0.861521 0.583622 0.874338
Si Si4 0.292336 0.398532 0.315221
Si Si5 0.117349 0.129907 0.704095
Si Si6 0.909803 0.792722 0.970153
Si Si7 0.447296 0.934486 0.470584
O O1 0.212580 0.689377 0.378207
O O2 0.142247 0.891288 0.657544
O O3 0.988416 0.918874 0.709430
O O4 0.113284 0.205926 0.355561
O O5 0.545269 0.756339 0.277070
O O6 0.619599 0.254480 0.303880
O O7 0.763110 0.509972 0.998441
O O8 0.637110 0.585143 0.944028
O O9 0.827045 0.739280 0.014321
O O10 0.983654 0.331474 0.807585
O O11 0.201996 0.273015 0.471084
O O12 0.369681 0.206936 0.396618
O O13 0.135024 0.067403 0.869016
O O14 0.000000 0.500000 0.000000
O O15 0.500000 0.000000 0.500000
#
# Coordination Sequence:
#
# PCOD9024234 Si02
#       7
#     2   2   2   2   2   2   2
#     4  12  24  42  71 107 157 202 240 298 366 448
#     4  11  28  54  80 109 148 201 245 319 376 446
#     4  11  24  46  73 108 155 201 245 294 380 448
#     4  12  27  48  78 117 148 195 252 307 381 446
#     4  11  25  44  69 114 155 198 242 299 370 450
#     4  10  22  40  64 103 154 198 245 293 350 441
#     4  11  30  55  82 108 143 194 262 318 379 444
#
# _framework density 23.517519
#
# number of rings (size 3 to 8) (size 9 to 14) (size 15 to 20)
#    0.000    0.857    4.286    1.714    4.000    6.286 
#    0.000    0.000    0.000    0.000    0.000    0.000 
#    0.000    0.000    0.000    0.000    0.000    0.000 
#
# Total GULP energy -78435.756366 kJ/mol
# GULP energy per Si atom -5602.554026 kJ/mol
# Density = 2.346399 g / cm^3
# Si number density = 23.517519 Si / 1000 Ang^3
#
#
#
# Elastic Constant Matrix: (Units=GPa)
#
#
# Indices 1 2 3 4 5 6 
#
# 1 144.2648 48.3683 52.8377 -3.3553 12.5696 18.7999
# 2 48.3683 106.1716 52.8549 -2.6761 5.7927 13.3085
# 3 52.8377 52.8549 157.4186 -11.3399 13.7816 5.8816
# 4 -3.3553 -2.6761 -11.3399 33.9964 11.6308 6.1732
# 5 12.5696 5.7927 13.7816 11.6308 42.2640 8.6469
# 6 18.7999 13.3085 5.8816 6.1732 8.6469 40.4293
#
#
#
# Elastic Compliance Matrix: (Units=1/GPa)
#
#
# Indices 1 2 3 4 5 6 
#
# 1 0.009041 -0.002756 -0.001797 0.001092 -0.001433 -0.002896
# 2 -0.002756 0.012578 -0.003280 -0.000168 0.000725 -0.002511
# 3 -0.001797 -0.003280 0.008509 0.003231 -0.002842 0.000792
# 4 0.001092 -0.000168 0.003231 0.034780 -0.010093 -0.004075
# 5 -0.001433 0.000725 -0.002842 -0.010093 0.028449 -0.003702
# 6 -0.002896 -0.002511 0.000792 -0.004075 -0.003702 0.028207
#
#
# Mechanical properties :
#
#
# Convention : Reuss Voigt Hill
#
# Bulk Modulus (GPa) = 69.14283 79.55298 74.34791
# Shear Modulus (GPa) = 35.19860 40.25755 37.72808
#
# Velocity S-wave (km/s) = 3.87291 4.14189 4.00966
# Velocity P-wave (km/s) = 7.03304 7.53487 7.28828
#
# Compressibility (1/GPa) = 0.01446281
#
# Stress axis : x y z
#
# Youngs Moduli (GPa) = 110.60128 79.50436 117.52287
#
# Poissons Ratio (x) = 0.21908 0.21121
# Poissons Ratio (y) = 0.30477 0.38548
# Poissons Ratio (z) = 0.19877 0.26078
#
# Static dielectric constant tensor:
#      x y z
#    x 1.905510 0.038760 0.061830 
#    y 0.038760 1.911080 0.051290 
#    z 0.061830 0.051290 1.947280 
# 
# From -- ./inp_files/55312.got.cif
#   From: 2010.05.17/outbox.cif.g08.bks.cpg/sg2_28_cif.got.tgz:55312.got - 2010.06.03 11:33:40.
