data_PCOD9024693
_publ_section_title
;
Structure prediction by ZEFSAII (Michael W. Deem and Ramdas Pophale) SiO2 
 PCOD9024693
Probable space group: P -1
;
_chemical_formula_sum "Si O2"
_cell_formula_units_Z 14
_cell_length_a 4.888085
_cell_length_b 11.551713
_cell_length_c 11.425042
_cell_angle_alpha 109.637105
_cell_angle_beta 67.764211
_cell_angle_gamma 98.269150
_cell_volume 562.315862
_symmetry_space_group_name_H-M "P -1"
_symmetry_group_IT_number 2
_symmetry_cell_setting 'triclinic'
loop_
_space_group_symop_operation_xyz
x,y,z
-x,-y,-z
loop_
_atom_site_type_symbol
_atom_site_label
_atom_site_fract_x
_atom_site_fract_y
_atom_site_fract_z
Si Si1 0.650958 0.885771 0.796856
Si Si2 0.752425 0.149855 0.617615
Si Si3 0.006866 0.675839 0.042095
Si Si4 0.527911 0.602487 0.280977
Si Si5 0.217654 0.047340 0.821852
Si Si6 0.609994 0.800662 0.510853
Si Si7 0.650426 0.646235 0.872083
O O1 0.613080 0.819433 0.653800
O O2 0.668488 0.775768 0.848243
O O3 0.364617 0.973766 0.881417
O O4 0.951150 0.965050 0.786312
O O5 0.691164 0.293900 0.699262
O O6 0.517576 0.073949 0.705985
O O7 0.662280 0.140579 0.493179
O O8 0.097821 0.133393 0.569306
O O9 0.807963 0.615442 0.154341
O O10 0.921318 0.818975 0.096902
O O11 0.916291 0.627369 0.911822
O O12 0.349874 0.654304 0.998961
O O13 0.602308 0.660407 0.416119
O O14 0.388520 0.467924 0.248137
#
# Coordination Sequence:
#
# PCOD9024693 Si02
#       7
#     2   2   2   2   2   2   2
#     4  12  26  41  62  98 128 176 198 248 320 392
#     4   9  21  39  65  95 122 162 202 268 308 352
#     4  11  25  43  68  93 119 170 214 269 304 357
#     4   9  24  42  69  96 123 159 213 271 308 362
#     4  11  24  43  65  92 132 159 218 256 312 368
#     4  10  22  40  65  99 126 158 212 252 328 363
#     4  12  26  42  66  92 132 166 211 251 318 376
#
# _framework density 24.897040000000001
#
# number of rings (size 3 to 8) (size 9 to 14) (size 15 to 20)
#    0.857    0.571    0.000    4.286    6.000    7.429 
#    0.000    0.714    0.000    0.000    0.000    0.000 
#    0.000    0.000    0.000    0.000    0.000    0.000 
#
# Total GULP energy -78358.491639 kJ/mol
# GULP energy per Si atom -5597.035117 kJ/mol
# Density = 2.484037 g / cm^3
# Si number density = 24.897040 Si / 1000 Ang^3
#
#
#
# Elastic Constant Matrix: (Units=GPa)
#
#
# Indices 1 2 3 4 5 6 
#
# 1 100.5121 21.8238 11.9991 9.0951 19.7884 3.6769
# 2 21.8238 127.2841 23.2454 33.2092 6.8113 2.5038
# 3 11.9991 23.2454 61.3506 18.8902 13.0136 6.7193
# 4 9.0951 33.2092 18.8902 29.7947 3.1865 10.4394
# 5 19.7884 6.8113 13.0136 3.1865 30.1533 3.8916
# 6 3.6769 2.5038 6.7193 10.4394 3.8916 36.8988
#
#
#
# Elastic Compliance Matrix: (Units=1/GPa)
#
#
# Indices 1 2 3 4 5 6 
#
# 1 0.011791 -0.001255 0.000213 -0.001579 -0.007392 0.000098
# 2 -0.001255 0.011601 -0.000206 -0.013486 -0.000704 0.003265
# 3 0.000213 -0.000206 0.022085 -0.013147 -0.008308 0.000567
# 4 -0.001579 -0.013486 -0.013147 0.061985 0.005092 -0.014607
# 5 -0.007392 -0.000704 -0.008308 0.005092 0.041678 -0.003539
# 6 0.000098 0.003265 0.000567 -0.014607 -0.003539 0.031273
#
#
# Mechanical properties :
#
#
# Convention : Reuss Voigt Hill
#
# Bulk Modulus (GPa) = 23.26634 44.80926 34.03780
# Shear Modulus (GPa) = 25.35042 34.84126 30.09584
#
# Velocity S-wave (km/s) = 3.19440 3.74493 3.48057
# Velocity P-wave (km/s) = 4.79280 6.06104 5.46384
#
# Compressibility (1/GPa) = 0.04298054
#
# Stress axis : x y z
#
# Youngs Moduli (GPa) = 84.81263 86.19817 45.28052
#
# Poissons Ratio (x) = 0.10816 -0.00964
# Poissons Ratio (y) = 0.10642 0.00933
# Poissons Ratio (z) = -0.01806 0.01776
#
# Static dielectric constant tensor:
#      x y z
#    x 1.904780 0.001840 -0.001910 
#    y 0.001840 1.960240 0.057230 
#    z -0.001910 0.057230 2.037390 
# 
# From -- ./inp_files/364957.got.cif
#   From: 2010.05.17/outbox.cif.g08.bks.cpg/sg2_183_cif.got.tgz:364957.got - 2010.06.03 11:33:40.
