data_PCOD9024214
_publ_section_title
;
Structure prediction by ZEFSAII (Michael W. Deem and Ramdas Pophale) SiO2 
 PCOD9024214
Probable space group: P -1
;
_chemical_formula_sum "Si O2"
_cell_formula_units_Z 15
_cell_length_a 14.879571
_cell_length_b 5.024694
_cell_length_c 20.274211
_cell_angle_alpha 79.812495
_cell_angle_beta 28.682184
_cell_angle_gamma 96.641912
_cell_volume 586.672408
_symmetry_space_group_name_H-M "P -1"
_symmetry_group_IT_number 2
_symmetry_cell_setting 'triclinic'
loop_
_space_group_symop_operation_xyz
x,y,z
-x,-y,-z
loop_
_atom_site_type_symbol
_atom_site_label
_atom_site_fract_x
_atom_site_fract_y
_atom_site_fract_z
Si Si1 0.189732 0.541086 0.292955
Si Si2 0.175405 0.319971 0.444478
Si Si3 0.298923 0.253624 0.900446
Si Si4 0.892444 0.873577 0.264681
Si Si5 0.500000 0.000000 0.000000
Si Si6 0.761057 0.235999 0.134140
Si Si7 0.480439 0.140903 0.574909
Si Si8 0.120689 0.197068 0.233478
O O1 0.188733 0.303273 0.357030
O O2 0.414927 0.908754 0.138988
O O3 0.251888 0.549964 0.172931
O O4 0.969579 0.535565 0.449201
O O5 0.435768 0.588127 0.279991
O O6 0.058890 0.003966 0.581299
O O7 0.280269 0.562801 0.901109
O O8 0.222993 0.051892 0.890629
O O9 0.131644 0.986679 0.073771
O O10 0.708417 0.502894 0.424879
O O11 0.747803 0.876945 0.295937
O O12 0.975296 0.116799 0.264269
O O13 0.299979 0.106079 0.113897
O O14 0.570799 0.087584 0.320001
O O15 0.000000 0.500000 0.000000
O O16 0.500000 0.000000 0.500000
#
# Coordination Sequence:
#
# PCOD9024214 Si02
#       8
#     2   2   2   2   1   2   2   2
#     4  10  22  45  69  97 140 182 230 294 359 425
#     4  10  24  43  67 103 134 182 242 287 358 432
#     4  12  27  47  72 110 141 195 243 303 356 448
#     4  11  26  45  68 107 143 185 249 293 366 433
#     4  10  22  40  64 100 134 176 228 286 350 424
#     4  12  26  48  75 102 149 189 245 298 371 423
#     4  11  26  45  73 102 144 193 235 306 359 436
#     4  11  23  43  70 100 139 185 231 297 359 431
#
# _framework density 25.567928999999999
#
# number of rings (size 3 to 8) (size 9 to 14) (size 15 to 20)
#    0.000    1.067    1.333    3.600    7.467    2.133 
#    4.800    0.000    0.000    0.000    0.000    0.000 
#    0.000    0.000    0.000    0.000    0.000    0.000 
#
# Total GULP energy -83534.712053 kJ/mol
# GULP energy per Si atom -5568.980804 kJ/mol
# Density = 2.550974 g / cm^3
# Si number density = 25.567929 Si / 1000 Ang^3
#
#
#
# Elastic Constant Matrix: (Units=GPa)
#
#
# Indices 1 2 3 4 5 6 
#
# 1 78.8894 22.9195 52.6719 -11.4851 6.6547 22.1688
# 2 22.9195 83.1823 31.6488 -1.2227 1.1039 9.6532
# 3 52.6719 31.6488 203.2518 -10.7291 -5.1884 -0.4096
# 4 -11.4851 -1.2227 -10.7291 42.4663 0.7380 4.6028
# 5 6.6547 1.1039 -5.1884 0.7380 28.0757 -0.3977
# 6 22.1688 9.6532 -0.4096 4.6028 -0.3977 34.7591
#
#
#
# Elastic Compliance Matrix: (Units=1/GPa)
#
#
# Indices 1 2 3 4 5 6 
#
# 1 0.022534 -0.002285 -0.005345 0.006389 -0.006615 -0.014722
# 2 -0.002285 0.013499 -0.001541 -0.000368 -0.000296 -0.002264
# 3 -0.005345 -0.001541 0.006604 -0.000299 0.002612 0.003984
# 4 0.006389 -0.000368 -0.000299 0.026038 -0.002345 -0.007451
# 5 -0.006615 -0.000296 0.002612 -0.002345 0.037814 0.005075
# 6 -0.014722 -0.002264 0.003984 -0.007451 0.005075 0.039879
#
#
# Mechanical properties :
#
#
# Convention : Reuss Voigt Hill
#
# Bulk Modulus (GPa) = 41.16230 64.42265 52.79248
# Shear Modulus (GPa) = 28.93368 38.26577 33.59973
#
# Velocity S-wave (km/s) = 3.36763 3.87283 3.62903
# Velocity P-wave (km/s) = 5.59066 6.72680 6.18487
#
# Compressibility (1/GPa) = 0.02429407
#
# Stress axis : x y z
#
# Youngs Moduli (GPa) = 44.37815 74.07877 151.42101
#
# Poissons Ratio (x) = 0.16927 0.80935
# Poissons Ratio (y) = 0.10140 0.23340
# Poissons Ratio (z) = 0.23720 0.11418
#
# Static dielectric constant tensor:
#      x y z
#    x 2.148280 0.125530 -0.072470 
#    y 0.125530 2.798330 -0.276460 
#    z -0.072470 -0.276460 2.113840 
# 
# From -- ./inp_files/596644.got.cif
#   From: 2010.05.17/outbox.cif.g08.bks.cpg/sg2_299_cif.got.tgz:596644.got - 2010.06.03 11:33:40.
