data_PCOD9024141
_publ_section_title
;
Structure prediction by ZEFSAII (Michael W. Deem and Ramdas Pophale) SiO2 
 PCOD9024141
Probable space group: P -1
;
_chemical_formula_sum "Si O2"
_cell_formula_units_Z 15
_cell_length_a 13.896493
_cell_length_b 8.365531
_cell_length_c 13.729576
_cell_angle_alpha 28.209545
_cell_angle_beta 128.434297
_cell_angle_gamma 120.848784
_cell_volume 588.341176
_symmetry_space_group_name_H-M "P -1"
_symmetry_group_IT_number 2
_symmetry_cell_setting 'triclinic'
loop_
_space_group_symop_operation_xyz
x,y,z
-x,-y,-z
loop_
_atom_site_type_symbol
_atom_site_label
_atom_site_fract_x
_atom_site_fract_y
_atom_site_fract_z
Si Si1 0.965291 0.773137 0.745227
Si Si2 0.885591 0.779633 0.302854
Si Si3 0.517970 0.618028 0.555740
Si Si4 0.109787 0.800593 0.116056
Si Si5 0.268523 0.152493 0.332986
Si Si6 0.608874 0.573356 0.236146
Si Si7 0.310533 0.197822 0.124189
Si Si8 0.500000 0.500000 0.000000
O O1 0.927017 0.573324 0.733364
O O2 0.845105 0.964988 0.617298
O O3 0.071718 0.022939 0.681043
O O4 0.000000 0.500000 0.000000
O O5 0.745860 0.687930 0.271546
O O6 0.000000 0.500000 0.500000
O O7 0.882109 0.022464 0.077424
O O8 0.500000 0.500000 0.500000
O O9 0.660181 0.616772 0.674813
O O10 0.462216 0.391306 0.725125
O O11 0.452755 0.011086 0.307159
O O12 0.232246 0.900700 0.194444
O O13 0.000000 0.000000 0.000000
O O14 0.361608 0.833698 0.534172
O O15 0.249059 0.308097 0.129266
O O16 0.527172 0.664543 0.040408
O O17 0.345595 0.519105 0.912699
#
# Coordination Sequence:
#
# PCOD9024141 Si02
#       8
#     2   2   2   2   2   2   2   1
#     4  10  22  40  63  94 130 171 228 273 337 404
#     4  11  22  41  67  96 133 175 221 283 344 396
#     4  11  23  40  62  95 130 175 224 273 338 404
#     4  11  24  41  65  95 131 180 222 279 340 411
#     4  11  20  41  67  89 129 178 224 278 334 404
#     4  11  22  41  70  94 134 179 220 282 336 405
#     4  11  21  38  65  91 126 174 224 267 339 403
#     4  12  20  40  64 100 130 172 228 266 340 398
#
# _framework density 25.495411000000001
#
# number of rings (size 3 to 8) (size 9 to 14) (size 15 to 20)
#    0.000    1.067    5.333    3.200    1.867    0.000 
#    0.000    6.667    0.000    0.000    0.000    0.000 
#    0.000    0.000    0.000    0.000    0.000    0.000 
#
# Total GULP energy -83515.720040 kJ/mol
# GULP energy per Si atom -5567.714669 kJ/mol
# Density = 2.543738 g / cm^3
# Si number density = 25.495411 Si / 1000 Ang^3
#
#
#
# Elastic Constant Matrix: (Units=GPa)
#
#
# Indices 1 2 3 4 5 6 
#
# 1 87.1594 73.9779 -0.5089 7.9425 -18.4611 -5.6494
# 2 73.9779 246.8974 -2.4299 12.7830 -9.7542 6.4928
# 3 -0.5089 -2.4299 37.4298 14.9806 -4.1242 -10.8012
# 4 7.9425 12.7830 14.9806 23.4520 -10.8442 -1.5476
# 5 -18.4611 -9.7542 -4.1242 -10.8442 34.1624 6.6082
# 6 -5.6494 6.4928 -10.8012 -1.5476 6.6082 46.4990
#
#
#
# Elastic Compliance Matrix: (Units=1/GPa)
#
#
# Indices 1 2 3 4 5 6 
#
# 1 0.017488 -0.004948 0.001585 -0.000565 0.007648 0.002078
# 2 -0.004948 0.005652 0.000962 -0.002850 -0.001650 -0.001027
# 3 0.001585 0.000962 0.040282 -0.028405 -0.004792 0.009151
# 4 -0.000565 -0.002850 -0.028405 0.071004 0.019276 -0.006645
# 5 0.007648 -0.001650 -0.004792 0.019276 0.039425 -0.004915
# 6 0.002078 -0.001027 0.009151 -0.006645 -0.004915 0.024505
#
#
# Mechanical properties :
#
#
# Convention : Reuss Voigt Hill
#
# Bulk Modulus (GPa) = 17.05889 57.06276 37.06082
# Shear Modulus (GPa) = 22.45217 40.85250 31.65234
#
# Velocity S-wave (km/s) = 2.97077 4.00728 3.52730
# Velocity P-wave (km/s) = 4.29800 6.62127 5.58184
#
# Compressibility (1/GPa) = 0.05862046
#
# Stress axis : x y z
#
# Youngs Moduli (GPa) = 57.18279 176.94216 24.82512
#
# Poissons Ratio (x) = 0.87543 -0.03935
# Poissons Ratio (y) = 0.28291 -0.02389
# Poissons Ratio (z) = -0.09063 -0.17025
#
# Static dielectric constant tensor:
#      x y z
#    x 1.814500 -0.123540 0.331210 
#    y -0.123540 2.002710 0.206870 
#    z 0.331210 0.206870 1.568430 
# 
# From -- ./inp_files/203490.got.cif
#   From: 2010.05.17/outbox.cif.g08.bks.cpg/sg2_102_cif.got.tgz:203490.got - 2010.06.03 11:33:40.
