data_PCOD9024652
_publ_section_title
;
Structure prediction by ZEFSAII (Michael W. Deem and Ramdas Pophale) SiO2 
 PCOD9024652
Probable space group: P -1
;
_chemical_formula_sum "Si O2"
_cell_formula_units_Z 14
_cell_length_a 7.567075
_cell_length_b 11.707607
_cell_length_c 7.771275
_cell_angle_alpha 117.923857
_cell_angle_beta 97.576387
_cell_angle_gamma 63.349404
_cell_volume 541.015546
_symmetry_space_group_name_H-M "P -1"
_symmetry_group_IT_number 2
_symmetry_cell_setting 'triclinic'
loop_
_space_group_symop_operation_xyz
x,y,z
-x,-y,-z
loop_
_atom_site_type_symbol
_atom_site_label
_atom_site_fract_x
_atom_site_fract_y
_atom_site_fract_z
Si Si1 0.261632 0.415112 0.818972
Si Si2 0.738018 0.796078 0.601550
Si Si3 0.663551 0.074283 0.250131
Si Si4 0.804300 0.030690 0.888845
Si Si5 0.346335 0.634310 0.375711
Si Si6 0.197096 0.410547 0.207895
Si Si7 0.948418 0.139150 0.711610
O O1 0.248807 0.282478 0.627038
O O2 0.448441 0.425807 0.752261
O O3 0.039553 0.536320 0.824774
O O4 0.284540 0.387570 0.007470
O O5 0.519000 0.925151 0.672001
O O6 0.761621 0.701659 0.708931
O O7 0.869561 0.878647 0.696611
O O8 0.667029 0.224767 0.420002
O O9 0.637882 0.081629 0.047553
O O10 0.847151 0.919916 0.202167
O O11 0.776413 0.145659 0.822604
O O12 0.000000 0.000000 0.000000
O O13 0.293446 0.514515 0.372399
O O14 0.150738 0.708907 0.281916
O O15 0.000000 0.000000 0.500000
#
# Coordination Sequence:
#
# PCOD9024652 Si02
#       7
#     2   2   2   2   2   2   2
#     4  10  25  43  64 106 126 186 227 267 346 391
#     4  11  24  45  66  99 138 167 231 280 332 408
#     4   9  21  40  65 100 126 176 217 268 343 394
#     4  10  22  40  65  96 128 174 216 271 339 398
#     4  10  22  45  67  98 138 173 227 274 340 399
#     4  11  25  46  70  95 139 178 224 289 330 399
#     4   9  20  40  63  96 130 172 216 272 332 399
#
# _framework density 25.877261000000001
#
# number of rings (size 3 to 8) (size 9 to 14) (size 15 to 20)
#    0.000    2.000    0.000    1.286    8.000    6.857 
#   12.857    2.143    0.000    0.000    0.000    0.000 
#    0.000    0.000    0.000    0.000    0.000    0.000 
#
# Total GULP energy -78070.548872 kJ/mol
# GULP energy per Si atom -5576.467777 kJ/mol
# Density = 2.581836 g / cm^3
# Si number density = 25.877261 Si / 1000 Ang^3
#
#
#
# Elastic Constant Matrix: (Units=GPa)
#
#
# Indices 1 2 3 4 5 6 
#
# 1 107.8858 29.6337 12.0564 6.3988 -12.9667 -2.6248
# 2 29.6337 69.8025 1.1280 1.0558 -8.7899 9.0389
# 3 12.0564 1.1280 100.2132 -0.5985 4.8553 2.1948
# 4 6.3988 1.0558 -0.5985 14.9113 7.0742 -2.2360
# 5 -12.9667 -8.7899 4.8553 7.0742 49.2443 8.0359
# 6 -2.6248 9.0389 2.1948 -2.2360 8.0359 30.3296
#
#
#
# Elastic Compliance Matrix: (Units=1/GPa)
#
#
# Indices 1 2 3 4 5 6 
#
# 1 0.011419 -0.004514 -0.001530 -0.005882 0.002998 0.001216
# 2 -0.004514 0.017534 0.000322 -0.001831 0.003256 -0.006637
# 3 -0.001530 0.000322 0.010253 0.001705 -0.001529 -0.000440
# 4 -0.005882 -0.001831 0.001705 0.078277 -0.014859 0.009621
# 5 0.002998 0.003256 -0.001529 -0.014859 0.025335 -0.008408
# 6 0.001216 -0.006637 -0.000440 0.009621 -0.008408 0.038023
#
#
# Mechanical properties :
#
#
# Convention : Reuss Voigt Hill
#
# Bulk Modulus (GPa) = 36.01891 40.39309 38.20600
# Shear Modulus (GPa) = 24.80914 34.56928 29.68921
#
# Velocity S-wave (km/s) = 3.09969 3.65895 3.39087
# Velocity P-wave (km/s) = 5.17302 5.78740 5.48881
#
# Compressibility (1/GPa) = 0.02776319
#
# Stress axis : x y z
#
# Youngs Moduli (GPa) = 87.57555 57.03091 97.53174
#
# Poissons Ratio (x) = 0.25743 0.14922
# Poissons Ratio (y) = 0.39530 -0.03144
# Poissons Ratio (z) = 0.13399 -0.01839
#
# Static dielectric constant tensor:
#      x y z
#    x 2.280610 0.032680 0.054160 
#    y 0.032680 1.951560 -0.046220 
#    z 0.054160 -0.046220 2.081700 
# 
# From -- ./inp_files/190151.got.cif
#   From: 2010.05.17/outbox.cif.g08.bks.cpg/sg2_96_cif.got.tgz:190151.got - 2010.06.03 11:33:40.
