data_PCOD9024992
_publ_section_title
;
Structure prediction by ZEFSAII (Michael W. Deem and Ramdas Pophale) SiO2 
 PCOD9024992
Probable space group: P -1
;
_chemical_formula_sum "Si O2"
_cell_formula_units_Z 12
_cell_length_a 5.574227
_cell_length_b 13.874058
_cell_length_c 7.816503
_cell_angle_alpha 100.679411
_cell_angle_beta 119.814886
_cell_angle_gamma 111.358724
_cell_volume 435.366688
_symmetry_space_group_name_H-M "P -1"
_symmetry_group_IT_number 2
_symmetry_cell_setting 'triclinic'
loop_
_space_group_symop_operation_xyz
x,y,z
-x,-y,-z
loop_
_atom_site_type_symbol
_atom_site_label
_atom_site_fract_x
_atom_site_fract_y
_atom_site_fract_z
Si Si1 0.625489 0.954971 0.184155
Si Si2 0.189650 0.737204 0.151009
Si Si3 0.352254 0.072941 0.352901
Si Si4 0.677751 0.739638 0.753969
Si Si5 0.174171 0.401122 0.448638
Si Si6 0.000370 0.554717 0.283560
O O1 0.506022 0.002744 0.313748
O O2 0.008235 0.006797 0.309602
O O3 0.439639 0.817335 0.114988
O O4 0.500000 0.000000 0.000000
O O5 0.369668 0.818145 0.405514
O O6 0.094747 0.613071 0.152814
O O7 0.853199 0.725272 0.972315
O O8 0.279799 0.136410 0.193591
O O9 0.858223 0.719087 0.649868
O O10 0.301103 0.643908 0.550027
O O11 0.500000 0.500000 0.500000
O O12 0.942503 0.429822 0.261084
O O13 0.256607 0.433079 0.689199
#
# Coordination Sequence:
#
# PCOD9024992 Si02
#       6
#     2   2   2   2   2   2
#     4  12  25  48  71  97 141 185 226 278 337 396
#     4  11  24  41  67 102 133 179 226 280 332 404
#     4  11  26  47  67 100 140 183 226 280 334 399
#     4  10  22  40  66  99 132 177 226 275 339 402
#     4   9  19  43  67  91 132 176 217 283 345 400
#     4   9  21  42  66  94 134 173 225 280 340 403
#
# _framework density 27.562968999999999
#
# number of rings (size 3 to 8) (size 9 to 14) (size 15 to 20)
#    0.000    1.667    1.667    1.500    4.667    0.667 
#    9.000    7.500    0.000    0.000    0.000    0.000 
#    0.000    0.000    0.000    0.000    0.000    0.000 
#
# Total GULP energy -66910.390094 kJ/mol
# GULP energy per Si atom -5575.865841 kJ/mol
# Density = 2.750023 g / cm^3
# Si number density = 27.562969 Si / 1000 Ang^3
#
#
#
# Elastic Constant Matrix: (Units=GPa)
#
#
# Indices 1 2 3 4 5 6 
#
# 1 67.6375 34.9209 11.1815 1.8580 2.4310 -7.2625
# 2 34.9209 166.4759 25.6480 -24.1348 -0.1658 -11.2520
# 3 11.1815 25.6480 93.4838 -14.4187 15.5066 13.9970
# 4 1.8580 -24.1348 -14.4187 55.7355 2.1644 -4.3868
# 5 2.4310 -0.1658 15.5066 2.1644 44.2158 -1.0845
# 6 -7.2625 -11.2520 13.9970 -4.3868 -1.0845 45.3981
#
#
#
# Elastic Compliance Matrix: (Units=1/GPa)
#
#
# Indices 1 2 3 4 5 6 
#
# 1 0.017207 -0.003537 -0.001752 -0.002380 -0.000175 0.002182
# 2 -0.003537 0.007596 -0.001611 0.003131 0.000687 0.002133
# 3 -0.001752 -0.001611 0.013238 0.002608 -0.004793 -0.004624
# 4 -0.002380 0.003131 0.002608 0.020237 -0.001726 0.001506
# 5 -0.000175 0.000687 -0.004793 -0.001726 0.024444 0.002037
# 6 0.002182 0.002133 -0.004624 0.001506 0.002037 0.024525
#
#
# Mechanical properties :
#
#
# Convention : Reuss Voigt Hill
#
# Bulk Modulus (GPa) = 41.25543 52.34423 46.79983
# Shear Modulus (GPa) = 38.72123 46.12634 42.42379
#
# Velocity S-wave (km/s) = 3.75217 4.09527 3.92747
# Velocity P-wave (km/s) = 5.81136 6.43379 6.13048
#
# Compressibility (1/GPa) = 0.02423923
#
# Stress axis : x y z
#
# Youngs Moduli (GPa) = 58.11745 131.65047 75.53823
#
# Poissons Ratio (x) = 0.46566 0.13238
# Poissons Ratio (y) = 0.20557 0.12171
# Poissons Ratio (z) = 0.10185 0.21211
#
# Static dielectric constant tensor:
#      x y z
#    x 2.873840 -0.096820 -0.000640 
#    y -0.096820 2.207240 -0.000410 
#    z -0.000640 -0.000410 2.262570 
# 
# From -- ./inp_files/33142.got.cif
#   From: 2010.05.17/outbox.cif.g08.bks.cpg/sg2_17_cif.got.tgz:33142.got - 2010.06.03 11:33:40.
