data_PCOD9024462
_publ_section_title
;
Structure prediction by ZEFSAII (Michael W. Deem and Ramdas Pophale) SiO2 
 PCOD9024462
Probable space group: P -1
;
_chemical_formula_sum "Si O2"
_cell_formula_units_Z 15
_cell_length_a 6.583866
_cell_length_b 17.159229
_cell_length_c 13.141868
_cell_angle_alpha 31.110789
_cell_angle_beta 60.290711
_cell_angle_gamma 57.982792
_cell_volume 647.491737
_symmetry_space_group_name_H-M "P -1"
_symmetry_group_IT_number 2
_symmetry_cell_setting 'triclinic'
loop_
_space_group_symop_operation_xyz
x,y,z
-x,-y,-z
loop_
_atom_site_type_symbol
_atom_site_label
_atom_site_fract_x
_atom_site_fract_y
_atom_site_fract_z
Si Si1 0.500000 0.500000 0.000000
Si Si2 0.342335 0.158355 0.636168
Si Si3 0.830929 0.661927 0.326408
Si Si4 0.803272 0.268941 0.092772
Si Si5 0.834447 0.148090 0.430747
Si Si6 0.772771 0.151290 0.030938
Si Si7 0.933027 0.654510 0.695493
Si Si8 0.715450 0.632659 0.162024
O O1 0.366221 0.563435 0.075248
O O2 0.741364 0.570431 0.887747
O O3 0.327882 0.259532 0.627898
O O4 0.618052 0.105273 0.592125
O O5 0.192586 0.253428 0.474877
O O6 0.236216 0.007131 0.844019
O O7 0.702848 0.630011 0.290520
O O8 0.000000 0.500000 0.500000
O O9 0.998480 0.780203 0.125482
O O10 0.714698 0.264506 0.237286
O O11 0.763080 0.140142 0.169428
O O12 0.079727 0.272814 0.020130
O O13 0.987502 0.232118 0.370227
O O14 0.000000 0.000000 0.500000
O O15 0.538767 0.279433 0.914313
O O16 0.168779 0.532094 0.732761
#
# Coordination Sequence:
#
# PCOD9024462 Si02
#       8
#     1   2   2   2   2   2   2   2
#     4  10  22  40  64  98 136 188 228 288 338 412
#     4  12  26  47  69 105 144 191 230 296 362 421
#     4  11  25  48  74 103 139 177 246 299 357 417
#     4  10  23  40  64 100 139 180 230 282 351 407
#     4  12  27  42  68 106 145 188 234 286 349 428
#     4  11  26  44  74  96 146 184 235 293 359 420
#     4  11  25  43  72 104 144 190 242 285 358 420
#     4  10  24  43  71 106 131 185 235 297 351 419
#
# _framework density 23.166321
#
# number of rings (size 3 to 8) (size 9 to 14) (size 15 to 20)
#    0.000    1.067    2.667    2.000    7.467    5.333 
#    0.000    0.000    0.000    0.000    0.000    0.000 
#    0.000    0.000    0.000    0.000    0.000    0.000 
#
# Total GULP energy -83736.939753 kJ/mol
# GULP energy per Si atom -5582.462650 kJ/mol
# Density = 2.311359 g / cm^3
# Si number density = 23.166321 Si / 1000 Ang^3
#
#
#
# Elastic Constant Matrix: (Units=GPa)
#
#
# Indices 1 2 3 4 5 6 
#
# 1 66.4653 42.1167 17.1858 3.1709 6.0585 9.9901
# 2 42.1167 162.6534 28.5617 -5.8721 1.9986 14.9554
# 3 17.1858 28.5617 66.8609 -5.6057 -7.9671 6.6413
# 4 3.1709 -5.8721 -5.6057 37.5674 3.7488 -1.7376
# 5 6.0585 1.9986 -7.9671 3.7488 21.8374 -4.8336
# 6 9.9901 14.9554 6.6413 -1.7376 -4.8336 39.9180
#
#
#
# Elastic Compliance Matrix: (Units=1/GPa)
#
#
# Indices 1 2 3 4 5 6 
#
# 1 0.020037 -0.004130 -0.004058 -0.002410 -0.007079 -0.003754
# 2 -0.004130 0.007791 -0.002110 0.001269 -0.000907 -0.001589
# 3 -0.004058 -0.002110 0.017977 0.001938 0.007503 -0.000192
# 4 -0.002410 0.001269 0.001938 0.027673 -0.003358 0.000603
# 5 -0.007079 -0.000907 0.007503 -0.003358 0.052725 0.007101
# 6 -0.003754 -0.001589 -0.000192 0.000603 0.007101 0.027504
#
#
# Mechanical properties :
#
#
# Convention : Reuss Voigt Hill
#
# Bulk Modulus (GPa) = 39.67327 52.41200 46.04264
# Shear Modulus (GPa) = 27.36631 33.73893 30.55262
#
# Velocity S-wave (km/s) = 3.44073 3.82039 3.63552
# Velocity P-wave (km/s) = 5.73998 6.49106 6.12704
#
# Compressibility (1/GPa) = 0.02520589
#
# Stress axis : x y z
#
# Youngs Moduli (GPa) = 49.90885 128.35091 55.62786
#
# Poissons Ratio (x) = 0.53014 0.22576
# Poissons Ratio (y) = 0.20614 0.11740
# Poissons Ratio (z) = 0.20255 0.27087
#
# Static dielectric constant tensor:
#      x y z
#    x 1.767220 0.100270 -0.112790 
#    y 0.100270 1.794490 0.152530 
#    z -0.112790 0.152530 1.706030 
# 
# From -- ./inp_files/39929.got.cif
#   From: 2010.05.17/outbox.cif.g08.bks.cpg/sg2_20_cif.got.tgz:39929.got - 2010.06.03 11:33:40.
