data_PCOD9024365
_publ_section_title
;
Structure prediction by ZEFSAII (Michael W. Deem and Ramdas Pophale) SiO2 
 PCOD9024365
Probable space group: P -1
;
_chemical_formula_sum "Si O2"
_cell_formula_units_Z 16
_cell_length_a 14.966852
_cell_length_b 11.956917
_cell_length_c 9.274167
_cell_angle_alpha 83.020383
_cell_angle_beta 104.397356
_cell_angle_gamma 152.176985
_cell_volume 732.331798
_symmetry_space_group_name_H-M "P -1"
_symmetry_group_IT_number 2
_symmetry_cell_setting 'triclinic'
loop_
_space_group_symop_operation_xyz
x,y,z
-x,-y,-z
loop_
_atom_site_type_symbol
_atom_site_label
_atom_site_fract_x
_atom_site_fract_y
_atom_site_fract_z
Si Si1 0.179252 0.478243 0.625120
Si Si2 0.603661 0.279288 0.038492
Si Si3 0.543129 0.425495 0.807888
Si Si4 0.710989 0.636701 0.329603
Si Si5 0.274601 0.795636 0.440491
Si Si6 0.157440 0.142106 0.332232
Si Si7 0.769205 0.269937 0.901582
Si Si8 0.259669 0.034102 0.499308
O O1 0.216017 0.531810 0.801981
O O2 0.339298 0.551281 0.648216
O O3 0.180810 0.605120 0.543087
O O4 0.975550 0.207955 0.516028
O O5 0.399569 0.003818 0.068231
O O6 0.561363 0.360086 0.957399
O O7 0.678143 0.285747 0.931339
O O8 0.437219 0.431578 0.786222
O O9 0.758627 0.685192 0.782726
O O10 0.407637 0.218484 0.661277
O O11 0.765872 0.733629 0.499447
O O12 0.918114 0.870935 0.283586
O O13 0.212328 0.709977 0.265708
O O14 0.269725 0.919286 0.464531
O O15 0.500000 0.000000 0.500000
O O16 0.270463 0.143684 0.366385
O O17 0.000000 0.500000 0.000000
#
# Coordination Sequence:
#
# PCOD9024365 Si02
#       8
#     2   2   2   2   2   2   2   2
#     4  11  24  42  65  91 132 163 211 267 307 380
#     4  11  26  44  59  97 133 165 207 264 325 369
#     4  11  23  38  67  92 128 170 205 262 317 374
#     4   9  20  39  62  95 125 163 217 255 310 370
#     4  12  24  39  67  97 119 169 215 258 315 379
#     4   9  20  38  63  94 127 162 208 268 305 371
#     4  11  26  45  65  90 133 170 210 260 317 381
#     4  10  22  40  64  94 124 163 215 260 314 371
#
# _framework density 21.848020999999999
#
# number of rings (size 3 to 8) (size 9 to 14) (size 15 to 20)
#    0.000    1.500    1.250    4.125    8.750    1.500 
#    0.000    2.500    0.000    0.000    0.000    0.000 
#    0.000    0.000    0.000    0.000    0.000    0.000 
#
# Total GULP energy -89237.253375 kJ/mol
# GULP energy per Si atom -5577.328336 kJ/mol
# Density = 2.179829 g / cm^3
# Si number density = 21.848021 Si / 1000 Ang^3
#
#
#
# Elastic Constant Matrix: (Units=GPa)
#
#
# Indices 1 2 3 4 5 6 
#
# 1 142.4177 17.0201 35.6616 -16.5096 9.4641 -22.0819
# 2 17.0201 67.1694 21.1870 -7.2574 16.3963 -7.6714
# 3 35.6616 21.1870 101.7339 -10.7135 19.5058 -12.4110
# 4 -16.5096 -7.2574 -10.7135 29.8217 -8.3799 12.1265
# 5 9.4641 16.3963 19.5058 -8.3799 26.6010 3.8666
# 6 -22.0819 -7.6714 -12.4110 12.1265 3.8666 38.3856
#
#
#
# Elastic Compliance Matrix: (Units=1/GPa)
#
#
# Indices 1 2 3 4 5 6 
#
# 1 0.008452 -0.000639 -0.001984 0.002088 -0.001015 0.003536
# 2 -0.000639 0.018573 -0.001003 -0.001316 -0.011568 0.004601
# 3 -0.001984 -0.001003 0.012844 -0.000862 -0.008945 0.003984
# 4 0.002088 -0.001316 -0.000862 0.045101 0.017134 -0.015314
# 5 -0.001015 -0.011568 -0.008945 0.017134 0.059540 -0.017198
# 6 0.003536 0.004601 0.003984 -0.015314 -0.017198 0.036863
#
#
# Mechanical properties :
#
#
# Convention : Reuss Voigt Hill
#
# Bulk Modulus (GPa) = 30.65826 51.00648 40.83237
# Shear Modulus (GPa) = 25.06273 34.79181 29.92727
#
# Velocity S-wave (km/s) = 3.39062 3.99488 3.70509
# Velocity P-wave (km/s) = 5.42138 6.68397 6.08551
#
# Compressibility (1/GPa) = 0.03261763
#
# Stress axis : x y z
#
# Youngs Moduli (GPa) = 118.30841 53.84076 77.85549
#
# Poissons Ratio (x) = 0.03439 0.15447
# Poissons Ratio (y) = 0.07558 0.07812
# Poissons Ratio (z) = 0.23473 0.05402
#
# Static dielectric constant tensor:
#      x y z
#    x 1.802780 0.064840 -0.055110 
#    y 0.064840 1.762120 0.085120 
#    z -0.055110 0.085120 1.687430 
# 
# From -- ./inp_files/307387.got.cif
#   From: 2010.05.17/outbox.cif.g08.bks.cpg/sg2_154_cif.got.tgz:307387.got - 2010.06.03 11:33:40.
