data_PCOD9024335
_publ_section_title
;
Structure prediction by ZEFSAII (Michael W. Deem and Ramdas Pophale) SiO2 
 PCOD9024335
Probable space group: P -1
;
_chemical_formula_sum "Si O2"
_cell_formula_units_Z 14
_cell_length_a 5.228673
_cell_length_b 14.081690
_cell_length_c 13.861380
_cell_angle_alpha 35.693815
_cell_angle_beta 106.091586
_cell_angle_gamma 106.956216
_cell_volume 568.094209
_symmetry_space_group_name_H-M "P -1"
_symmetry_group_IT_number 2
_symmetry_cell_setting 'triclinic'
loop_
_space_group_symop_operation_xyz
x,y,z
-x,-y,-z
loop_
_atom_site_type_symbol
_atom_site_label
_atom_site_fract_x
_atom_site_fract_y
_atom_site_fract_z
Si Si1 0.524875 0.588850 0.326442
Si Si2 0.794135 0.691216 0.567240
Si Si3 0.713924 0.105955 0.002532
Si Si4 0.634290 0.870824 0.686979
Si Si5 0.518442 0.034880 0.721616
Si Si6 0.074198 0.667262 0.811790
Si Si7 0.003279 0.800772 0.287205
O O1 0.500000 0.500000 0.500000
O O2 0.453421 0.452513 0.350084
O O3 0.817356 0.695649 0.276916
O O4 0.300561 0.711751 0.185764
O O5 0.687584 0.863223 0.438582
O O6 0.993392 0.648758 0.705929
O O7 0.918698 0.723360 0.446807
O O8 0.621980 0.098394 0.110377
O O9 0.950517 0.991728 0.115456
O O10 0.500000 0.000000 0.000000
O O11 0.888143 0.797889 0.728847
O O12 0.388231 0.730206 0.798349
O O13 0.500000 0.000000 0.500000
O O14 0.696276 0.961376 0.720732
O O15 0.677237 0.172417 0.695205
O O16 0.000000 0.500000 0.000000
#
# Coordination Sequence:
#
# PCOD9024335 Si02
#       7
#     2   2   2   2   2   2   2
#     4   9  19  38  62  91 130 175 214 279 353 420
#     4  10  22  40  64  92 134 177 226 287 348 422
#     4   9  20  38  61  89 131 166 227 278 335 409
#     4  12  26  47  76 105 140 193 247 296 357 432
#     4  11  23  38  68  96 128 179 235 283 345 418
#     4  12  28  48  73 107 149 184 242 309 369 423
#     4   9  20  39  63  94 127 172 228 279 342 419
#
# _framework density 24.643801
#
# number of rings (size 3 to 8) (size 9 to 14) (size 15 to 20)
#    0.000    1.714    1.429    2.571    6.000    2.857 
#    0.000    2.857    0.000    0.000    0.000    0.000 
#    0.000    0.000    0.000    0.000    0.000    0.000 
#
# Total GULP energy -78228.093174 kJ/mol
# GULP energy per Si atom -5587.720941 kJ/mol
# Density = 2.458771 g / cm^3
# Si number density = 24.643801 Si / 1000 Ang^3
#
#
#
# Elastic Constant Matrix: (Units=GPa)
#
#
# Indices 1 2 3 4 5 6 
#
# 1 55.4784 15.3237 9.3239 0.9222 -7.5534 5.9293
# 2 15.3237 113.3562 20.9592 10.7601 -6.3978 9.1567
# 3 9.3239 20.9592 146.7186 -1.1366 6.6319 1.5821
# 4 0.9222 10.7601 -1.1366 31.3155 2.8638 -1.7481
# 5 -7.5534 -6.3978 6.6319 2.8638 30.3543 0.2188
# 6 5.9293 9.1567 1.5821 -1.7481 0.2188 43.3919
#
#
#
# Elastic Compliance Matrix: (Units=1/GPa)
#
#
# Indices 1 2 3 4 5 6 
#
# 1 0.019663 -0.001937 -0.001170 -0.000523 0.004806 -0.002281
# 2 -0.001937 0.009989 -0.001416 -0.003746 0.002300 -0.001954
# 3 -0.001170 -0.001416 0.007200 0.001003 -0.002259 0.000248
# 4 -0.000523 -0.003746 0.001003 0.033792 -0.004343 0.002209
# 5 0.004806 0.002300 -0.002259 -0.004343 0.035538 -0.001414
# 6 -0.002281 -0.001954 0.000248 0.002209 -0.001414 0.023857
#
#
# Mechanical properties :
#
#
# Convention : Reuss Voigt Hill
#
# Bulk Modulus (GPa) = 35.96184 45.19632 40.57908
# Shear Modulus (GPa) = 33.70352 39.00877 36.35614
#
# Velocity S-wave (km/s) = 3.70216 3.98289 3.84509
# Velocity P-wave (km/s) = 5.73576 6.28736 6.01788
#
# Compressibility (1/GPa) = 0.02780725
#
# Stress axis : x y z
#
# Youngs Moduli (GPa) = 50.85600 100.11446 138.89785
#
# Poissons Ratio (x) = 0.19390 0.16246
# Poissons Ratio (y) = 0.09849 0.19664
# Poissons Ratio (z) = 0.05948 0.14174
#
# Static dielectric constant tensor:
#      x y z
#    x 2.044350 0.044630 0.021370 
#    y 0.044630 2.044110 0.020320 
#    z 0.021370 0.020320 2.010390 
# 
# From -- ./inp_files/47606.got.cif
#   From: 2010.05.17/outbox.cif.g08.bks.cpg/sg2_24_cif.got.tgz:47606.got - 2010.06.03 11:33:40.
