data_PCOD9024957
_publ_section_title
;
Structure prediction by ZEFSAII (Michael W. Deem and Ramdas Pophale) SiO2 
 PCOD9024957
Probable space group: P -1
;
_chemical_formula_sum "Si O2"
_cell_formula_units_Z 13
_cell_length_a 14.915692
_cell_length_b 8.188064
_cell_length_c 8.229767
_cell_angle_alpha 120.672940
_cell_angle_beta 41.383780
_cell_angle_gamma 122.335643
_cell_volume 550.678037
_symmetry_space_group_name_H-M "P -1"
_symmetry_group_IT_number 2
_symmetry_cell_setting 'triclinic'
loop_
_space_group_symop_operation_xyz
x,y,z
-x,-y,-z
loop_
_atom_site_type_symbol
_atom_site_label
_atom_site_fract_x
_atom_site_fract_y
_atom_site_fract_z
Si Si1 0.249787 0.155526 0.047067
Si Si2 0.705981 0.472315 0.299951
Si Si3 0.490952 0.096300 0.887954
Si Si4 0.731542 0.158128 0.358482
Si Si5 0.000000 0.500000 0.000000
Si Si6 0.068440 0.450090 0.546928
Si Si7 0.565327 0.466468 0.161394
O O1 0.151784 0.287899 0.311302
O O2 0.333021 0.070958 0.029222
O O3 0.375523 0.310723 0.860540
O O4 0.189782 0.986110 0.909875
O O5 0.680774 0.274723 0.340710
O O6 0.863645 0.586981 0.191066
O O7 0.670000 0.430683 0.139697
O O8 0.589702 0.577262 0.574581
O O9 0.599326 0.045356 0.587570
O O10 0.557598 0.329135 0.947609
O O11 0.500000 0.000000 0.000000
O O12 0.838177 0.337850 0.400106
O O13 0.029581 0.616954 0.196712
O O14 0.000000 0.500000 0.500000
#
# Coordination Sequence:
#
# PCOD9024957 Si02
#       7
#     2   2   2   2   1   2   2
#     4  12  24  44  71 103 138 183 231 291 362 415
#     4  10  22  40  66  97 135 180 234 288 349 420
#     4  12  24  39  64 107 143 178 224 289 360 421
#     4  11  24  44  67 101 142 180 228 294 352 423
#     4  10  22  42  68  96 132 184 232 284 342 422
#     4  11  25  49  73  99 140 189 239 290 354 418
#     4  11  22  39  70 101 133 184 232 289 363 415
#
# _framework density 23.607261999999999
#
# number of rings (size 3 to 8) (size 9 to 14) (size 15 to 20)
#    0.000    0.923    3.077    4.615    4.308    0.615 
#    2.769    3.077    0.000    0.000    0.000    0.000 
#    0.000    0.000    0.000    0.000    0.000    0.000 
#
# Total GULP energy -72375.750926 kJ/mol
# GULP energy per Si atom -5567.365456 kJ/mol
# Density = 2.355353 g / cm^3
# Si number density = 23.607262 Si / 1000 Ang^3
#
#
#
# Elastic Constant Matrix: (Units=GPa)
#
#
# Indices 1 2 3 4 5 6 
#
# 1 174.3847 20.2638 40.7166 17.0218 -0.3628 -10.3428
# 2 20.2638 48.6175 26.0329 16.9819 5.1648 -2.0657
# 3 40.7166 26.0329 110.7938 35.4856 12.8765 2.8689
# 4 17.0218 16.9819 35.4856 33.3793 6.7829 10.6547
# 5 -0.3628 5.1648 12.8765 6.7829 39.7976 -0.4121
# 6 -10.3428 -2.0657 2.8689 10.6547 -0.4121 31.8985
#
#
#
# Elastic Compliance Matrix: (Units=1/GPa)
#
#
# Indices 1 2 3 4 5 6 
#
# 1 0.006653 -0.001082 -0.001684 -0.002247 0.001160 0.003004
# 2 -0.001082 0.026821 -0.001869 -0.012839 -0.000637 0.005834
# 3 -0.001684 -0.001869 0.014899 -0.014501 -0.002093 0.002810
# 4 -0.002247 -0.012839 -0.014501 0.060444 -0.004177 -0.020499
# 5 0.001160 -0.000637 -0.002093 -0.004177 0.026633 0.002262
# 6 0.003004 0.005834 0.002810 -0.020499 0.002262 0.039325
#
#
# Mechanical properties :
#
#
# Convention : Reuss Voigt Hill
#
# Bulk Modulus (GPa) = 25.57384 56.42476 40.99930
# Shear Modulus (GPa) = 25.37054 37.46727 31.41891
#
# Velocity S-wave (km/s) = 3.28181 3.98817 3.65211
# Velocity P-wave (km/s) = 5.02164 6.72017 5.93201
#
# Compressibility (1/GPa) = 0.03910245
#
# Stress axis : x y z
#
# Youngs Moduli (GPa) = 150.30278 37.28428 67.12074
#
# Poissons Ratio (x) = 0.04035 0.11301
# Poissons Ratio (y) = 0.16267 0.12546
# Poissons Ratio (z) = 0.25307 0.06969
#
# Static dielectric constant tensor:
#      x y z
#    x 1.901310 -0.066140 0.073370 
#    y -0.066140 2.456670 -0.391960 
#    z 0.073370 -0.391960 2.242710 
# 
# From -- ./inp_files/198631.got.cif
#   From: 2010.05.17/outbox.cif.g08.bks.cpg/sg2_100_cif.got.tgz:198631.got - 2010.06.03 11:33:40.
