data_PCOD9024660
_publ_section_title
;
Structure prediction by ZEFSAII (Michael W. Deem and Ramdas Pophale) SiO2 
 PCOD9024660
Probable space group: P -1
;
_chemical_formula_sum "Si O2"
_cell_formula_units_Z 14
_cell_length_a 5.955557
_cell_length_b 11.605189
_cell_length_c 12.321267
_cell_angle_alpha 49.415571
_cell_angle_beta 67.439977
_cell_angle_gamma 76.878440
_cell_volume 596.938563
_symmetry_space_group_name_H-M "P -1"
_symmetry_group_IT_number 2
_symmetry_cell_setting 'triclinic'
loop_
_space_group_symop_operation_xyz
x,y,z
-x,-y,-z
loop_
_atom_site_type_symbol
_atom_site_label
_atom_site_fract_x
_atom_site_fract_y
_atom_site_fract_z
Si Si1 0.978122 0.830274 0.355122
Si Si2 0.326979 0.332671 0.164697
Si Si3 0.117588 0.840356 0.567712
Si Si4 0.734469 0.605432 0.096772
Si Si5 0.654201 0.146669 0.920300
Si Si6 0.187289 0.839166 0.879418
Si Si7 0.461117 0.331859 0.380495
O O1 0.746742 0.712038 0.468742
O O2 0.104043 0.803391 0.464582
O O3 0.158988 0.806747 0.237109
O O4 0.896539 0.006634 0.257522
O O5 0.550090 0.220598 0.170410
O O6 0.340373 0.377150 0.261414
O O7 0.058996 0.255305 0.261644
O O8 0.312987 0.436862 0.996272
O O9 0.391504 0.821738 0.565628
O O10 0.000000 0.000000 0.500000
O O11 0.532782 0.723639 0.096262
O O12 0.673829 0.461246 0.273370
O O13 0.990596 0.697951 0.000130
O O14 0.787677 0.114055 0.027912
O O15 0.500000 0.000000 0.000000
#
# Coordination Sequence:
#
# PCOD9024660 Si02
#       7
#     2   2   2   2   2   2   2
#     4  11  24  41  65  96 129 169 216 264 322 381
#     4  10  22  40  65  96 131 171 214 259 317 389
#     4  11  23  39  64  95 134 170 213 263 320 381
#     4  11  24  42  66  98 130 170 217 266 319 380
#     4  11  25  43  71  95 124 166 225 272 314 380
#     4  11  23  41  71  96 125 170 222 264 319 379
#     4  11  25  41  64  97 138 171 205 266 329 378
#
# _framework density 23.452999999999999
#
# number of rings (size 3 to 8) (size 9 to 14) (size 15 to 20)
#    0.000    1.143    1.429    4.286    4.000    9.714 
#    0.000    1.429    0.000    0.000    0.000    0.000 
#    0.000    0.000    0.000    0.000    0.000    0.000 
#
# Total GULP energy -78187.391069 kJ/mol
# GULP energy per Si atom -5584.813648 kJ/mol
# Density = 2.339962 g / cm^3
# Si number density = 23.453000 Si / 1000 Ang^3
#
#
#
# Elastic Constant Matrix: (Units=GPa)
#
#
# Indices 1 2 3 4 5 6 
#
# 1 84.1371 21.4216 50.7865 10.6064 -15.3233 0.5156
# 2 21.4216 61.1154 37.3314 6.5868 -3.2382 -8.8542
# 3 50.7865 37.3314 168.7834 20.3280 -30.1340 3.6411
# 4 10.6064 6.5868 20.3280 37.9073 -3.7567 -2.4205
# 5 -15.3233 -3.2382 -30.1340 -3.7567 43.9895 9.8436
# 6 0.5156 -8.8542 3.6411 -2.4205 9.8436 34.4057
#
#
#
# Elastic Compliance Matrix: (Units=1/GPa)
#
#
# Indices 1 2 3 4 5 6 
#
# 1 0.015444 -0.003461 -0.003021 -0.001891 0.003316 -0.001884
# 2 -0.003461 0.021204 -0.004562 -0.000244 -0.004410 0.007236
# 3 -0.003021 -0.004562 0.009293 -0.003042 0.005597 -0.003928
# 4 -0.001891 -0.000244 -0.003042 0.028658 -0.000885 0.002557
# 5 0.003316 -0.004410 0.005597 -0.000885 0.029630 -0.010317
# 6 -0.001884 0.007236 -0.003928 0.002557 -0.010317 0.034502
#
#
# Mechanical properties :
#
#
# Convention : Reuss Voigt Hill
#
# Bulk Modulus (GPa) = 41.92660 59.23498 50.58079
# Shear Modulus (GPa) = 29.62581 36.89357 33.25969
#
# Velocity S-wave (km/s) = 3.55801 3.97052 3.76991
# Velocity P-wave (km/s) = 5.89872 6.80674 6.36893
#
# Compressibility (1/GPa) = 0.02385121
#
# Stress axis : x y z
#
# Youngs Moduli (GPa) = 64.74988 47.16197 107.60532
#
# Poissons Ratio (x) = 0.16324 0.32509
# Poissons Ratio (y) = 0.22412 0.49093
# Poissons Ratio (z) = 0.19562 0.21517
#
# Static dielectric constant tensor:
#      x y z
#    x 1.919110 0.045770 -0.009290 
#    y 0.045770 1.992200 -0.148260 
#    z -0.009290 -0.148260 2.011870 
# 
# From -- ./inp_files/59751.got.cif
#   From: 2010.05.17/outbox.cif.g08.bks.cpg/sg2_30_cif.got.tgz:59751.got - 2010.06.03 11:33:40.
