data_PCOD9024217
_publ_section_title
;
Structure prediction by ZEFSAII (Michael W. Deem and Ramdas Pophale) SiO2 
 PCOD9024217
Probable space group: P -1
;
_chemical_formula_sum "Si O2"
_cell_formula_units_Z 16
_cell_length_a 10.957723
_cell_length_b 11.855155
_cell_length_c 6.391456
_cell_angle_alpha 120.720245
_cell_angle_beta 109.050784
_cell_angle_gamma 71.117668
_cell_volume 661.985850
_symmetry_space_group_name_H-M "P -1"
_symmetry_group_IT_number 2
_symmetry_cell_setting 'triclinic'
loop_
_space_group_symop_operation_xyz
x,y,z
-x,-y,-z
loop_
_atom_site_type_symbol
_atom_site_label
_atom_site_fract_x
_atom_site_fract_y
_atom_site_fract_z
Si Si1 0.395993 0.313288 0.857816
Si Si2 0.793182 0.586560 0.506122
Si Si3 0.388096 0.029374 0.790175
Si Si4 0.898590 0.176198 0.064196
Si Si5 0.033207 0.576305 0.867903
Si Si6 0.102772 0.989924 0.735883
Si Si7 0.650941 0.209700 0.708170
Si Si8 0.250609 0.567645 0.287251
O O1 0.326267 0.326971 0.603270
O O2 0.380150 0.176104 0.829704
O O3 0.550192 0.303467 0.892267
O O4 0.331706 0.442072 0.080881
O O5 0.903256 0.555890 0.352137
O O6 0.739571 0.472671 0.502561
O O7 0.881133 0.633119 0.785055
O O8 0.243532 0.017240 0.780346
O O9 0.418151 0.906382 0.528257
O O10 0.500000 0.000000 0.000000
O O11 0.776472 0.134482 0.837058
O O12 0.034245 0.093507 0.970734
O O13 0.891389 0.324137 0.122147
O O14 0.887624 0.152276 0.279211
O O15 0.096823 0.578598 0.134872
O O16 0.000000 0.000000 0.500000
O O17 0.697140 0.302149 0.641116
#
# Coordination Sequence:
#
# PCOD9024217 Si02
#       8
#     2   2   2   2   2   2   2   2
#     4  11  26  44  68 100 141 178 230 282 348 412
#     4  10  22  40  64 100 137 180 221 282 345 408
#     4  12  28  47  72 103 140 188 232 289 353 420
#     4  10  23  41  69  96 138 177 231 296 338 408
#     4   9  21  38  64  98 136 175 220 284 342 409
#     4  11  24  43  67 103 134 183 232 282 347 412
#     4  11  24  48  69  98 139 185 232 289 348 409
#     4  10  23  44  69 101 132 181 230 281 340 417
#
# _framework density 24.169701
#
# number of rings (size 3 to 8) (size 9 to 14) (size 15 to 20)
#    0.000    1.500    1.250    1.875    7.000    0.500 
#    4.500    0.000    0.000    0.000    0.000    0.000 
#    0.000    0.000    0.000    0.000    0.000    0.000 
#
# Total GULP energy -89358.351184 kJ/mol
# GULP energy per Si atom -5584.896949 kJ/mol
# Density = 2.411469 g / cm^3
# Si number density = 24.169701 Si / 1000 Ang^3
#
#
#
# Elastic Constant Matrix: (Units=GPa)
#
#
# Indices 1 2 3 4 5 6 
#
# 1 99.4767 -2.4869 17.5881 -16.9738 -10.1182 -21.9825
# 2 -2.4869 103.0257 45.8947 -43.4893 4.7011 -0.1704
# 3 17.5881 45.8947 70.5439 -24.8125 3.4847 3.4376
# 4 -16.9738 -43.4893 -24.8125 52.7656 -4.8411 -8.5850
# 5 -10.1182 4.7011 3.4847 -4.8411 41.6896 4.0858
# 6 -21.9825 -0.1704 3.4376 -8.5850 4.0858 29.5324
#
#
#
# Elastic Compliance Matrix: (Units=1/GPa)
#
#
# Indices 1 2 3 4 5 6 
#
# 1 0.017872 0.008711 -0.006580 0.013004 0.003711 0.017386
# 2 0.008711 0.022620 -0.011091 0.018484 0.001354 0.013092
# 3 -0.006580 -0.011091 0.022806 -0.001985 -0.001703 -0.007958
# 4 0.013004 0.018484 -0.001985 0.041291 0.003928 0.021477
# 5 0.003711 0.001354 -0.001703 0.003928 0.025273 0.000614
# 6 0.017386 0.013092 -0.007958 0.021477 0.000614 0.053963
#
#
# Mechanical properties :
#
#
# Convention : Reuss Voigt Hill
#
# Bulk Modulus (GPa) = 22.03728 43.89313 32.96521
# Shear Modulus (GPa) = 23.05523 38.93423 30.99473
#
# Velocity S-wave (km/s) = 3.09186 4.01792 3.58492
# Velocity P-wave (km/s) = 4.67800 6.30275 5.55015
#
# Compressibility (1/GPa) = 0.04537764
#
# Stress axis : x y z
#
# Youngs Moduli (GPa) = 55.95284 44.20880 43.84870
#
# Poissons Ratio (x) = -0.38511 0.28852
# Poissons Ratio (y) = -0.48742 0.48634
# Poissons Ratio (z) = 0.36817 0.49034
#
# Static dielectric constant tensor:
#      x y z
#    x 2.073010 -0.020870 -0.077910 
#    y -0.020870 2.020290 0.027950 
#    z -0.077910 0.027950 2.056870 
# 
# From -- ./inp_files/71975.got.cif
#   From: 2010.05.17/outbox.cif.g08.bks.cpg/sg2_36_cif.got.tgz:71975.got - 2010.06.03 11:33:40.
