data_PCOD9024436
_publ_section_title
;
Structure prediction by ZEFSAII (Michael W. Deem and Ramdas Pophale) SiO2 
 PCOD9024436
Probable space group: P -1
;
_chemical_formula_sum "Si O2"
_cell_formula_units_Z 14
_cell_length_a 24.302410
_cell_length_b 6.369139
_cell_length_c 11.489877
_cell_angle_alpha 78.395633
_cell_angle_beta 147.712409
_cell_angle_gamma 78.063671
_cell_volume 645.553725
_symmetry_space_group_name_H-M "P -1"
_symmetry_group_IT_number 2
_symmetry_cell_setting 'triclinic'
loop_
_space_group_symop_operation_xyz
x,y,z
-x,-y,-z
loop_
_atom_site_type_symbol
_atom_site_label
_atom_site_fract_x
_atom_site_fract_y
_atom_site_fract_z
Si Si1 0.521342 0.599515 0.143986
Si Si2 0.035953 0.228009 0.162875
Si Si3 0.782202 0.804042 0.343859
Si Si4 0.376129 0.368670 0.255519
Si Si5 0.394142 0.681559 0.440330
Si Si6 0.828327 0.683277 0.170360
Si Si7 0.790257 0.398102 0.571663
O O1 0.612912 0.326755 0.433690
O O2 0.622645 0.647806 0.285302
O O3 0.500000 0.500000 0.000000
O O4 0.369853 0.890441 0.903282
O O5 0.091440 0.215065 0.389761
O O6 0.163696 0.901340 0.363213
O O7 0.000000 0.500000 0.000000
O O8 0.892233 0.299163 0.876062
O O9 0.772521 0.791628 0.191022
O O10 0.817801 0.526733 0.503610
O O11 0.380042 0.470109 0.378189
O O12 0.444866 0.456139 0.289297
O O13 0.500000 0.000000 0.500000
O O14 0.220789 0.485553 0.935195
O O15 0.266168 0.019060 0.116362
O O16 0.000000 0.500000 0.500000
#
# Coordination Sequence:
#
# PCOD9024436 Si02
#       7
#     2   2   2   2   2   2   2
#     4  12  24  41  67 102 131 174 223 270 332 401
#     4   9  20  40  62  92 133 178 218 259 322 394
#     4  11  23  42  65  97 136 169 224 276 327 400
#     4   9  19  42  67  95 127 172 218 274 333 385
#     4  10  23  43  66  94 136 172 220 278 333 389
#     4  11  26  44  69 101 128 178 226 278 336 394
#     4  10  22  40  64  96 137 179 212 270 332 389
#
# _framework density 21.686809
#
# number of rings (size 3 to 8) (size 9 to 14) (size 15 to 20)
#    0.000    1.714    1.429    3.000    2.000    6.286 
#    5.143    0.000    0.000    0.000    0.000    0.000 
#    0.000    0.000    0.000    0.000    0.000    0.000 
#
# Total GULP energy -78133.171635 kJ/mol
# GULP energy per Si atom -5580.940831 kJ/mol
# Density = 2.163745 g / cm^3
# Si number density = 21.686809 Si / 1000 Ang^3
#
#
#
# Elastic Constant Matrix: (Units=GPa)
#
#
# Indices 1 2 3 4 5 6 
#
# 1 99.5255 45.5977 47.1990 14.5838 -18.5159 -17.6421
# 2 45.5977 107.5502 54.0664 21.4584 -8.9700 -6.4712
# 3 47.1990 54.0664 120.2371 20.8742 2.6617 1.4178
# 4 14.5838 21.4584 20.8742 46.2452 2.2160 -5.6023
# 5 -18.5159 -8.9700 2.6617 2.2160 42.1457 5.8589
# 6 -17.6421 -6.4712 1.4178 -5.6023 5.8589 22.5468
#
#
#
# Elastic Compliance Matrix: (Units=1/GPa)
#
#
# Indices 1 2 3 4 5 6 
#
# 1 0.017306 -0.003358 -0.005488 -0.000316 0.005671 0.011370
# 2 -0.003358 0.013744 -0.004311 -0.003432 0.001868 0.000250
# 3 -0.005488 -0.004311 0.013031 -0.002754 -0.003142 -0.006219
# 4 -0.000316 -0.003432 -0.002754 0.025424 -0.002867 0.006003
# 5 0.005671 0.001868 -0.003142 -0.002867 0.027333 -0.002644
# 6 0.011370 0.000250 -0.006219 0.006003 -0.002644 0.055891
#
#
# Mechanical properties :
#
#
# Convention : Reuss Voigt Hill
#
# Bulk Modulus (GPa) = 56.28347 69.00433 62.64390
# Shear Modulus (GPa) = 27.03245 34.21753 30.62499
#
# Velocity S-wave (km/s) = 3.53440 3.97647 3.76193
# Velocity P-wave (km/s) = 6.53186 7.27810 6.91505
#
# Compressibility (1/GPa) = 0.01776721
#
# Stress axis : x y z
#
# Youngs Moduli (GPa) = 57.78461 72.75796 76.74299
#
# Poissons Ratio (x) = 0.24431 0.42117
# Poissons Ratio (y) = 0.19403 0.33081
# Poissons Ratio (z) = 0.31713 0.31363
#
# Static dielectric constant tensor:
#      x y z
#    x 1.793290 0.030960 0.002390 
#    y 0.030960 1.814440 0.001910 
#    z 0.002390 0.001910 1.858230 
# 
# From -- ./inp_files/441773.got.cif
#   From: 2010.05.17/outbox.cif.g08.bks.cpg/sg2_221_cif.got.tgz:441773.got - 2010.06.03 11:33:40.
