data_PCOD9024266
_publ_section_title
;
Structure prediction by ZEFSAII (Michael W. Deem and Ramdas Pophale) SiO2 
 PCOD9024266
Probable space group: P -1
;
_chemical_formula_sum "Si O2"
_cell_formula_units_Z 16
_cell_length_a 9.659256
_cell_length_b 14.613817
_cell_length_c 8.803454
_cell_angle_alpha 127.609864
_cell_angle_beta 122.851680
_cell_angle_gamma 78.272733
_cell_volume 811.608082
_symmetry_space_group_name_H-M "P -1"
_symmetry_group_IT_number 2
_symmetry_cell_setting 'triclinic'
loop_
_space_group_symop_operation_xyz
x,y,z
-x,-y,-z
loop_
_atom_site_type_symbol
_atom_site_label
_atom_site_fract_x
_atom_site_fract_y
_atom_site_fract_z
Si Si1 0.619532 0.574137 0.769980
Si Si2 0.356756 0.654700 0.288527
Si Si3 0.469002 0.780190 0.795726
Si Si4 0.454025 0.956935 0.198990
Si Si5 0.763765 0.966711 0.210449
Si Si6 0.007375 0.369913 0.929211
Si Si7 0.617502 0.838994 0.452161
Si Si8 0.065798 0.162049 0.554438
O O1 0.500000 0.500000 0.500000
O O2 0.630407 0.482552 0.819913
O O3 0.535634 0.687865 0.854548
O O4 0.811163 0.617811 0.870701
O O5 0.378474 0.711585 0.529388
O O6 0.172290 0.668875 0.135508
O O7 0.504838 0.726414 0.349212
O O8 0.638464 0.871906 0.939956
O O9 0.377252 0.863313 0.929167
O O10 0.630807 0.021142 0.290314
O O11 0.511545 0.882965 0.296795
O O12 0.356410 0.050763 0.304764
O O13 0.854900 0.892571 0.306975
O O14 0.905581 0.062886 0.318040
O O15 0.015713 0.280941 0.705124
O O16 0.000000 0.500000 0.000000
O O17 0.791651 0.817192 0.466574
#
# Coordination Sequence:
#
# PCOD9024266 Si02
#       8
#     2   2   2   2   2   2   2   2
#     4   9  17  34  56  79 102 136 181 223 259 312
#     4  10  21  31  57  80 112 136 178 228 270 306
#     4   9  17  36  55  78 101 146 187 216 255 325
#     4   8  17  32  52  70 110 141 184 205 267 319
#     4   8  16  30  56  73  95 143 185 213 244 317
#     4  10  19  34  52  81 104 138 180 219 257 317
#     4  10  18  32  49  83 111 140 173 223 274 320
#     4  10  17  31  53  77 106 137 181 218 260 315
#
# _framework density 19.713949
#
# number of rings (size 3 to 8) (size 9 to 14) (size 15 to 20)
#    0.750    2.000    1.250    0.750    0.000    1.500 
#    0.000    6.250    0.000    0.000    0.000   12.250 
#    0.000    0.000    0.000    0.000    0.000    0.000 
#
# Total GULP energy -89070.855191 kJ/mol
# GULP energy per Si atom -5566.928449 kJ/mol
# Density = 1.966908 g / cm^3
# Si number density = 19.713949 Si / 1000 Ang^3
#
#
#
# Elastic Constant Matrix: (Units=GPa)
#
#
# Indices 1 2 3 4 5 6 
#
# 1 105.5103 48.9303 23.6935 18.1839 18.2143 -1.2303
# 2 48.9303 78.3300 24.3099 10.6127 9.5124 -8.4276
# 3 23.6935 24.3099 78.5335 9.1867 15.8210 -3.2216
# 4 18.1839 10.6127 9.1867 36.3634 -0.9773 -1.8808
# 5 18.2143 9.5124 15.8210 -0.9773 25.0031 -1.9553
# 6 -1.2303 -8.4276 -3.2216 -1.8808 -1.9553 26.9671
#
#
#
# Elastic Compliance Matrix: (Units=1/GPa)
#
#
# Indices 1 2 3 4 5 6 
#
# 1 0.015856 -0.008391 0.000186 -0.005919 -0.008937 -0.002938
# 2 -0.008391 0.019566 -0.003533 -0.000308 0.001313 0.005384
# 3 0.000186 -0.003533 0.015980 -0.003346 -0.009040 -0.000075
# 4 -0.005919 -0.000308 -0.003346 0.031713 0.007944 0.002022
# 5 -0.008937 0.001313 -0.009040 0.007944 0.052292 0.003268
# 6 -0.002938 0.005384 -0.000075 0.002022 0.003268 0.039000
#
#
# Mechanical properties :
#
#
# Convention : Reuss Voigt Hill
#
# Bulk Modulus (GPa) = 35.80810 50.69347 43.25078
# Shear Modulus (GPa) = 24.13213 28.69607 26.41410
#
# Velocity S-wave (km/s) = 3.50253 3.81940 3.66439
# Velocity P-wave (km/s) = 5.87879 6.72464 6.31589
#
# Compressibility (1/GPa) = 0.02792665
#
# Stress axis : x y z
#
# Youngs Moduli (GPa) = 63.06701 51.10861 62.57716
#
# Poissons Ratio (x) = 0.42887 -0.01165
# Poissons Ratio (y) = 0.52922 0.22107
# Poissons Ratio (z) = -0.01174 0.18055
#
# Static dielectric constant tensor:
#      x y z
#    x 1.679180 -0.010520 0.008250 
#    y -0.010520 1.766990 -0.008530 
#    z 0.008250 -0.008530 1.735120 
# 
# From -- ./inp_files/396452.got.cif
#   From: 2010.05.17/outbox.cif.g08.bks.cpg/sg2_199_cif.got.tgz:396452.got - 2010.06.03 11:33:40.
