data_PCOD9024667
_publ_section_title
;
Structure prediction by ZEFSAII (Michael W. Deem and Ramdas Pophale) SiO2 
 PCOD9024667
Probable space group: P -1
;
_chemical_formula_sum "Si O2"
_cell_formula_units_Z 16
_cell_length_a 13.594051
_cell_length_b 8.803485
_cell_length_c 16.882698
_cell_angle_alpha 91.091925
_cell_angle_beta 32.719570
_cell_angle_gamma 116.130404
_cell_volume 676.056783
_symmetry_space_group_name_H-M "P -1"
_symmetry_group_IT_number 2
_symmetry_cell_setting 'triclinic'
loop_
_space_group_symop_operation_xyz
x,y,z
-x,-y,-z
loop_
_atom_site_type_symbol
_atom_site_label
_atom_site_fract_x
_atom_site_fract_y
_atom_site_fract_z
Si Si1 0.863195 0.642947 0.306481
Si Si2 0.818724 0.049819 0.577840
Si Si3 0.176158 0.292215 0.182375
Si Si4 0.104993 0.073898 0.066184
Si Si5 0.351469 0.716229 0.003576
Si Si6 0.664671 0.270717 0.623031
Si Si7 0.978287 0.211466 0.633690
Si Si8 0.572757 0.913344 0.388551
O O1 0.912751 0.795134 0.205497
O O2 0.839292 0.706233 0.410135
O O3 0.610450 0.354808 0.462179
O O4 0.158324 0.736288 0.117185
O O5 0.738328 0.177173 0.627290
O O6 0.959675 0.107385 0.398796
O O7 0.041924 0.183218 0.503031
O O8 0.516997 0.778022 0.810348
O O9 0.500000 0.500000 0.000000
O O10 0.155492 0.451247 0.166284
O O11 0.156010 0.170178 0.120503
O O12 0.909383 0.075671 0.157588
O O13 0.411966 0.220430 0.823572
O O14 0.633065 0.941150 0.870518
O O15 0.951779 0.563405 0.419688
O O16 0.540478 0.125152 0.622959
O O17 0.500000 0.000000 0.500000
#
# Coordination Sequence:
#
# PCOD9024667 Si02
#       8
#     2   2   2   2   2   2   2   2
#     4  11  21  42  68  97 129 174 226 279 334 392
#     4  10  22  40  65  96 139 175 225 265 334 393
#     4  12  25  42  67  98 143 185 215 269 340 397
#     4  12  24  43  67 100 131 171 228 280 330 393
#     4  10  22  40  65  96 139 175 225 265 334 393
#     4  11  21  42  68  97 129 174 226 279 334 392
#     4   9  20  34  63  98 133 171 213 272 324 396
#     4  11  25  45  70  92 132 175 222 281 343 400
#
# _framework density 23.666650000000001
#
# number of rings (size 3 to 8) (size 9 to 14) (size 15 to 20)
#    0.750    0.500    1.250    6.000    0.000    2.500 
#    4.500    0.625    0.000    0.000    0.000    0.000 
#    0.000    0.000    0.000    0.000    0.000    0.000 
#
# Total GULP energy -89379.149288 kJ/mol
# GULP energy per Si atom -5586.196831 kJ/mol
# Density = 2.361278 g / cm^3
# Si number density = 23.666650 Si / 1000 Ang^3
#
#
#
# Elastic Constant Matrix: (Units=GPa)
#
#
# Indices 1 2 3 4 5 6 
#
# 1 73.8674 20.3997 29.2889 10.6760 2.9148 -0.0152
# 2 20.3997 105.7801 37.5430 14.1658 5.1850 13.7458
# 3 29.2889 37.5430 108.8766 21.0345 5.8776 7.0020
# 4 10.6760 14.1658 21.0345 39.9769 -1.8361 6.2798
# 5 2.9148 5.1850 5.8776 -1.8361 42.2962 4.8566
# 6 -0.0152 13.7458 7.0020 6.2798 4.8566 39.4430
#
#
#
# Elastic Compliance Matrix: (Units=1/GPa)
#
#
# Indices 1 2 3 4 5 6 
#
# 1 0.015650 -0.001752 -0.003262 -0.002128 -0.000689 0.001619
# 2 -0.001752 0.011489 -0.002950 -0.001582 -0.000584 -0.003157
# 3 -0.003262 -0.002950 0.012018 -0.004425 -0.001247 -0.000248
# 4 -0.002128 -0.001582 -0.004425 0.029163 0.002639 -0.003632
# 5 -0.000689 -0.000584 -0.001247 0.002639 0.024394 -0.002999
# 6 0.001619 -0.003157 -0.000248 -0.003632 -0.002999 0.027446
#
#
# Mechanical properties :
#
#
# Convention : Reuss Voigt Hill
#
# Bulk Modulus (GPa) = 43.04968 51.44304 47.24636
# Shear Modulus (GPa) = 34.76303 37.76271 36.26287
#
# Velocity S-wave (km/s) = 3.83673 3.99884 3.91862
# Velocity P-wave (km/s) = 6.15279 6.56541 6.36245
#
# Compressibility (1/GPa) = 0.02322898
#
# Stress axis : x y z
#
# Youngs Moduli (GPa) = 63.89769 87.03756 83.21108
#
# Poissons Ratio (x) = 0.15250 0.27140
# Poissons Ratio (y) = 0.11196 0.24549
# Poissons Ratio (z) = 0.20841 0.25678
#
# Static dielectric constant tensor:
#      x y z
#    x 1.946660 -0.029110 -0.000720 
#    y -0.029110 1.929880 0.048540 
#    z -0.000720 0.048540 1.936290 
# 
# From -- ./inp_files/572679.got.cif
#   From: 2010.05.17/outbox.cif.g08.bks.cpg/sg2_287_cif.got.tgz:572679.got - 2010.06.03 11:33:40.
