data_PCOD9024590
_publ_section_title
;
Structure prediction by ZEFSAII (Michael W. Deem and Ramdas Pophale) SiO2 
 PCOD9024590
Probable space group: P -1
;
_chemical_formula_sum "Si O2"
_cell_formula_units_Z 16
_cell_length_a 9.220994
_cell_length_b 19.110581
_cell_length_c 22.570988
_cell_angle_alpha 18.102331
_cell_angle_beta 143.905033
_cell_angle_gamma 144.024987
_cell_volume 709.362424
_symmetry_space_group_name_H-M "P -1"
_symmetry_group_IT_number 2
_symmetry_cell_setting 'triclinic'
loop_
_space_group_symop_operation_xyz
x,y,z
-x,-y,-z
loop_
_atom_site_type_symbol
_atom_site_label
_atom_site_fract_x
_atom_site_fract_y
_atom_site_fract_z
Si Si1 0.874480 0.503026 0.669100
Si Si2 0.953942 0.865677 0.717122
Si Si3 0.845885 0.199371 0.792602
Si Si4 0.390064 0.271875 0.514730
Si Si5 0.114216 0.947516 0.332130
Si Si6 0.667399 0.616158 0.018306
Si Si7 0.627006 0.407064 0.942534
Si Si8 0.714417 0.426249 0.383667
O O1 0.828234 0.288121 0.782609
O O2 0.666026 0.510671 0.643154
O O3 0.880886 0.737788 0.443645
O O4 0.147815 0.523510 0.774874
O O5 0.752736 0.681440 0.763062
O O6 0.116038 0.099396 0.553893
O O7 0.168494 0.719017 0.915287
O O8 0.825378 0.927319 0.685236
O O9 0.572049 0.148056 0.713119
O O10 0.003644 0.430398 0.625171
O O11 0.000000 0.000000 0.000000
O O12 0.534890 0.347489 0.442048
O O13 0.280066 0.792368 0.479783
O O14 0.136458 0.156509 0.125018
O O15 0.473179 0.663380 0.967245
O O16 0.500000 0.500000 0.000000
O O17 0.389486 0.387781 0.838354
#
# Coordination Sequence:
#
# PCOD9024590 Si02
#       8
#     2   2   2   2   2   2   2   2
#     4  10  25  45  66 102 136 172 227 280 334 397
#     4  10  23  39  63  95 132 177 215 276 334 393
#     4  11  23  45  71  94 130 178 226 280 338 392
#     4  11  24  43  67  95 136 174 224 273 340 395
#     4  10  22  40  65  93 135 169 223 264 333 393
#     4  12  23  40  71 100 133 182 224 272 335 401
#     4  11  22  41  61  96 138 170 224 275 330 398
#     4  11  24  41  68  95 133 172 224 275 334 405
#
# _framework density 22.555465999999999
#
# number of rings (size 3 to 8) (size 9 to 14) (size 15 to 20)
#    0.000    1.250    3.750    2.250    3.500    3.500 
#    0.000    0.625    0.000    0.000    0.000    0.000 
#    0.000    0.000    0.000    0.000    0.000    0.000 
#
# Total GULP energy -89177.778007 kJ/mol
# GULP energy per Si atom -5573.611125 kJ/mol
# Density = 2.250413 g / cm^3
# Si number density = 22.555466 Si / 1000 Ang^3
#
#
#
# Elastic Constant Matrix: (Units=GPa)
#
#
# Indices 1 2 3 4 5 6 
#
# 1 159.8779 30.3347 39.8448 -2.7477 9.9600 -12.0718
# 2 30.3347 75.4348 22.8892 -10.3353 -8.1493 -2.6451
# 3 39.8448 22.8892 69.8065 -12.0728 7.4094 -11.6360
# 4 -2.7477 -10.3353 -12.0728 27.6258 -4.7728 -0.4223
# 5 9.9600 -8.1493 7.4094 -4.7728 34.9233 -9.4096
# 6 -12.0718 -2.6451 -11.6360 -0.4223 -9.4096 27.2686
#
#
#
# Elastic Compliance Matrix: (Units=1/GPa)
#
#
# Indices 1 2 3 4 5 6 
#
# 1 0.007796 -0.002519 -0.003612 -0.002091 -0.002084 0.000914
# 2 -0.002519 0.016890 -0.003596 0.005650 0.006555 0.001338
# 3 -0.003612 -0.003596 0.019932 0.006851 -0.001440 0.006167
# 4 -0.002091 0.005650 0.006851 0.042548 0.007871 0.005921
# 5 -0.002084 0.006555 -0.001440 0.007871 0.035202 0.011368
# 6 0.000914 0.001338 0.006167 0.005921 0.011368 0.043853
#
#
# Mechanical properties :
#
#
# Convention : Reuss Voigt Hill
#
# Bulk Modulus (GPa) = 39.73959 54.58406 47.16183
# Shear Modulus (GPa) = 25.76503 32.10024 28.93264
#
# Velocity S-wave (km/s) = 3.38345 3.77658 3.58541
# Velocity P-wave (km/s) = 5.73764 6.57794 6.17211
#
# Compressibility (1/GPa) = 0.02516382
#
# Stress axis : x y z
#
# Youngs Moduli (GPa) = 128.27519 59.20816 50.17106
#
# Poissons Ratio (x) = 0.14912 0.18122
# Poissons Ratio (y) = 0.32307 0.18042
# Poissons Ratio (z) = 0.46334 0.21291
#
# Static dielectric constant tensor:
#      x y z
#    x 1.832380 -0.004200 -0.008870 
#    y -0.004200 1.866340 -0.031050 
#    z -0.008870 -0.031050 1.854040 
# 
# From -- ./inp_files/338099.got.cif
#   From: 2010.05.17/outbox.cif.g08.bks.cpg/sg2_170_cif.got.tgz:338099.got - 2010.06.03 11:33:40.
