data_PCOD9024537
_publ_section_title
;
Structure prediction by ZEFSAII (Michael W. Deem and Ramdas Pophale) SiO2 
 PCOD9024537
Probable space group: P -1
;
_chemical_formula_sum "Si O2"
_cell_formula_units_Z 16
_cell_length_a 16.734606
_cell_length_b 6.978408
_cell_length_c 12.185772
_cell_angle_alpha 126.059700
_cell_angle_beta 126.280173
_cell_angle_gamma 89.413319
_cell_volume 792.835103
_symmetry_space_group_name_H-M "P -1"
_symmetry_group_IT_number 2
_symmetry_cell_setting 'triclinic'
loop_
_space_group_symop_operation_xyz
x,y,z
-x,-y,-z
loop_
_atom_site_type_symbol
_atom_site_label
_atom_site_fract_x
_atom_site_fract_y
_atom_site_fract_z
Si Si1 0.929408 0.452854 0.037477
Si Si2 0.917250 0.997865 0.525157
Si Si3 0.276584 0.078623 0.817376
Si Si4 0.521302 0.621369 0.436802
Si Si5 0.221571 0.451896 0.568834
Si Si6 0.523823 0.307434 0.125247
Si Si7 0.272497 0.423915 0.136053
Si Si8 0.773908 0.834676 0.745566
O O1 0.818312 0.484357 0.936610
O O2 0.017733 0.694436 0.270428
O O3 0.000000 0.500000 0.000000
O O4 0.881717 0.144951 0.938081
O O5 0.884093 0.776323 0.521267
O O6 0.800835 0.917978 0.340740
O O7 0.000000 0.000000 0.500000
O O8 0.240380 0.757671 0.693220
O O9 0.412574 0.275559 0.963397
O O10 0.256912 0.199688 0.955297
O O11 0.500000 0.500000 0.500000
O O12 0.511199 0.391366 0.266303
O O13 0.411886 0.653195 0.328443
O O14 0.658285 0.845818 0.623575
O O15 0.342432 0.490735 0.726860
O O16 0.212005 0.342981 0.399446
O O17 0.500000 0.000000 0.000000
O O18 0.244145 0.298833 0.193982
#
# Coordination Sequence:
#
# PCOD9024537 Si02
#       8
#     2   2   2   2   2   2   2   2
#     4  12  26  43  58  86 123 160 209 248 285 350
#     4  12  26  43  58  86 123 160 209 248 285 350
#     4  10  22  40  65  90 120 157 195 247 302 353
#     4   8  16  35  60  90 118 146 191 242 298 359
#     4  10  22  40  65  91 119 156 197 246 303 352
#     4   8  16  35  60  90 118 146 191 242 298 359
#     4  10  22  40  65  91 119 156 197 246 303 352
#     4  10  22  40  65  90 120 157 195 247 302 353
#
# _framework density 20.180743
#
# number of rings (size 3 to 8) (size 9 to 14) (size 15 to 20)
#    0.000    2.000    2.500    0.000    3.500    3.000 
#    0.000    0.000    0.000    0.000    0.000    0.000 
#    0.000    0.000    0.000    0.000    0.000    0.000 
#
# Total GULP energy -89168.891706 kJ/mol
# GULP energy per Si atom -5573.055732 kJ/mol
# Density = 2.013481 g / cm^3
# Si number density = 20.180743 Si / 1000 Ang^3
#
#
#
# Elastic Constant Matrix: (Units=GPa)
#
#
# Indices 1 2 3 4 5 6 
#
# 1 92.4521 20.1252 16.2375 6.6829 -17.6315 7.3407
# 2 20.1252 40.7184 17.5056 0.9333 -12.8485 7.2414
# 3 16.2375 17.5056 92.6285 2.3646 -22.1960 13.0770
# 4 6.6829 0.9333 2.3646 34.8029 -0.7708 10.5100
# 5 -17.6315 -12.8485 -22.1960 -0.7708 17.0172 0.5186
# 6 7.3407 7.2414 13.0770 10.5100 0.5186 26.3878
#
#
#
# Elastic Compliance Matrix: (Units=1/GPa)
#
#
# Indices 1 2 3 4 5 6 
#
# 1 0.014488 -0.002096 0.002584 -0.001133 0.016888 -0.004616
# 2 -0.002096 0.035591 0.001896 0.003586 0.027705 -0.012096
# 3 0.002584 0.001896 0.018481 0.002436 0.028688 -0.011932
# 4 -0.001133 0.003586 0.002436 0.033469 0.006694 -0.015338
# 5 0.016888 0.027705 0.028688 0.006694 0.135874 -0.031855
# 6 -0.004616 -0.012096 -0.011932 -0.015338 -0.031855 0.055148
#
#
# Mechanical properties :
#
#
# Convention : Reuss Voigt Hill
#
# Bulk Modulus (GPa) = 13.63719 37.05950 25.34834
# Shear Modulus (GPa) = 15.98847 27.10362 21.54604
#
# Velocity S-wave (km/s) = 2.81777 3.66873 3.27104
# Velocity P-wave (km/s) = 4.16637 6.02908 5.18210
#
# Compressibility (1/GPa) = 0.07332889
#
# Stress axis : x y z
#
# Youngs Moduli (GPa) = 69.02265 28.09716 54.10866
#
# Poissons Ratio (x) = 0.05888 -0.13981
# Poissons Ratio (y) = 0.14464 -0.10260
# Poissons Ratio (z) = -0.17834 -0.05328
#
# Static dielectric constant tensor:
#      x y z
#    x 1.754360 -0.029800 0.054310 
#    y -0.029800 1.691640 -0.013850 
#    z 0.054310 -0.013850 1.711260 
# 
# From -- ./inp_files/94957.got.cif
#   From: 2010.05.17/outbox.cif.g08.bks.cpg/sg2_48_cif.got.tgz:94957.got - 2010.06.03 11:33:40.
