data_PCOD9024461
_publ_section_title
;
Structure prediction by ZEFSAII (Michael W. Deem and Ramdas Pophale) SiO2 
 PCOD9024461
Probable space group: P -1
;
_chemical_formula_sum "Si O2"
_cell_formula_units_Z 14
_cell_length_a 7.203226
_cell_length_b 6.797381
_cell_length_c 17.852203
_cell_angle_alpha 124.061113
_cell_angle_beta 59.584031
_cell_angle_gamma 91.723283
_cell_volume 583.849694
_symmetry_space_group_name_H-M "P -1"
_symmetry_group_IT_number 2
_symmetry_cell_setting 'triclinic'
loop_
_space_group_symop_operation_xyz
x,y,z
-x,-y,-z
loop_
_atom_site_type_symbol
_atom_site_label
_atom_site_fract_x
_atom_site_fract_y
_atom_site_fract_z
Si Si1 0.598077 0.627088 0.398392
Si Si2 0.302307 0.908181 0.655730
Si Si3 0.826552 0.009364 0.823205
Si Si4 0.517292 0.661549 0.252581
Si Si5 0.354067 0.179443 0.999475
Si Si6 0.055016 0.732822 0.000246
Si Si7 0.113937 0.539672 0.250179
O O1 0.441800 0.821451 0.531994
O O2 0.647237 0.347837 0.361828
O O3 0.492109 0.633823 0.340348
O O4 0.842018 0.660687 0.341538
O O5 0.392237 0.104866 0.722399
O O6 0.025683 0.013504 0.727280
O O7 0.560794 0.187628 0.905943
O O8 0.826723 0.722273 0.768358
O O9 0.907212 0.092120 0.904018
O O10 0.710483 0.413975 0.124547
O O11 0.272491 0.692264 0.275321
O O12 0.196178 0.432591 0.127591
O O13 0.165803 0.119525 0.974709
O O14 0.500000 0.000000 0.000000
O O15 0.000000 0.500000 0.000000
#
# Coordination Sequence:
#
# PCOD9024461 Si02
#       7
#     2   2   2   2   2   2   2
#     4  10  23  47  70  91 138 176 229 284 343 404
#     4  10  23  45  68  98 131 181 226 284 340 412
#     4  10  22  42  63 100 140 178 222 279 346 404
#     4  12  23  43  69 100 133 179 229 281 348 406
#     4  10  22  40  64  98 135 181 226 277 336 411
#     4  12  24  41  65 103 145 179 227 286 346 414
#     4  10  22  40  65 101 131 174 228 278 336 408
#
# _framework density 23.978774999999999
#
# number of rings (size 3 to 8) (size 9 to 14) (size 15 to 20)
#    0.000    1.429    4.286    0.429    0.000    8.000 
#    2.571    9.286    0.000    0.000    0.000    0.000 
#    0.000    0.000    0.000    0.000    0.000    0.000 
#
# Total GULP energy -78366.880742 kJ/mol
# GULP energy per Si atom -5597.634339 kJ/mol
# Density = 2.392420 g / cm^3
# Si number density = 23.978775 Si / 1000 Ang^3
#
#
#
# Elastic Constant Matrix: (Units=GPa)
#
#
# Indices 1 2 3 4 5 6 
#
# 1 183.5304 33.9537 69.8890 -7.3842 -14.4989 22.0144
# 2 33.9537 100.3742 31.0078 8.7120 -12.5335 12.2925
# 3 69.8890 31.0078 163.0565 -8.3829 -26.9254 17.6953
# 4 -7.3842 8.7120 -8.3829 36.1766 -0.1869 -13.0773
# 5 -14.4989 -12.5335 -26.9254 -0.1869 31.6498 -8.6419
# 6 22.0144 12.2925 17.6953 -13.0773 -8.6419 36.8436
#
#
#
# Elastic Compliance Matrix: (Units=1/GPa)
#
#
# Indices 1 2 3 4 5 6 
#
# 1 0.006924 -0.001322 -0.002454 0.000279 -0.000105 -0.002443
# 2 -0.001322 0.011918 -0.001196 -0.004795 0.002020 -0.003840
# 3 -0.002454 -0.001196 0.008440 0.001660 0.005509 -0.000307
# 4 0.000279 -0.004795 0.001660 0.034173 0.003557 0.013599
# 5 -0.000105 0.002020 0.005509 0.003557 0.039009 0.007155
# 6 -0.002443 -0.003840 -0.000307 0.013599 0.007155 0.036535
#
#
# Mechanical properties :
#
#
# Convention : Reuss Voigt Hill
#
# Bulk Modulus (GPa) = 57.67736 79.62912 68.65324
# Shear Modulus (GPa) = 32.73911 41.74138 37.24024
#
# Velocity S-wave (km/s) = 3.69906 4.17677 3.94515
# Velocity P-wave (km/s) = 6.50767 7.51936 7.03173
#
# Compressibility (1/GPa) = 0.01733783
#
# Stress axis : x y z
#
# Youngs Moduli (GPa) = 144.42980 83.90619 118.47686
#
# Poissons Ratio (x) = 0.11094 0.29075
# Poissons Ratio (y) = 0.19097 0.14169
# Poissons Ratio (z) = 0.35444 0.10035
#
# Static dielectric constant tensor:
#      x y z
#    x 1.863140 -0.029210 -0.032090 
#    y -0.029210 2.068860 -0.032220 
#    z -0.032090 -0.032220 1.894420 
# 
# From -- ./inp_files/548379.got.cif
#   From: 2010.05.17/outbox.cif.g08.bks.cpg/sg2_275_cif.got.tgz:548379.got - 2010.06.03 11:33:40.
