data_PCOD9024872
_publ_section_title
;
Structure prediction by ZEFSAII (Michael W. Deem and Ramdas Pophale) SiO2 
 PCOD9024872
Probable space group: P -1
;
_chemical_formula_sum "Si O2"
_cell_formula_units_Z 14
_cell_length_a 21.630021
_cell_length_b 8.295284
_cell_length_c 8.064163
_cell_angle_alpha 125.097857
_cell_angle_beta 52.574437
_cell_angle_gamma 153.483335
_cell_volume 511.024673
_symmetry_space_group_name_H-M "P -1"
_symmetry_group_IT_number 2
_symmetry_cell_setting 'triclinic'
loop_
_space_group_symop_operation_xyz
x,y,z
-x,-y,-z
loop_
_atom_site_type_symbol
_atom_site_label
_atom_site_fract_x
_atom_site_fract_y
_atom_site_fract_z
Si Si1 0.554670 0.400473 0.305536
Si Si2 0.810205 0.727714 0.173545
Si Si3 0.058021 0.517075 0.253357
Si Si4 0.153337 0.279218 0.259457
Si Si5 0.889739 0.463280 0.294025
Si Si6 0.687025 0.081986 0.118951
Si Si7 0.424735 0.693993 0.163413
O O1 0.500000 0.500000 0.500000
O O2 0.711337 0.711722 0.319149
O O3 0.476644 0.033552 0.282370
O O4 0.549694 0.349550 0.085096
O O5 0.748818 0.436381 0.224159
O O6 0.784296 0.594844 0.950946
O O7 0.972935 0.131578 0.174305
O O8 0.000000 0.500000 0.500000
O O9 0.983192 0.475151 0.199163
O O10 0.223307 0.835453 0.125480
O O11 0.154476 0.503464 0.454425
O O12 0.254561 0.358957 0.258864
O O13 0.999178 0.850324 0.258734
O O14 0.751989 0.129290 0.208219
O O15 0.519570 0.763150 0.173423
#
# Coordination Sequence:
#
# PCOD9024872 Si02
#       7
#     2   2   2   2   2   2   2
#     4   9  19  36  64  96 131 168 220 262 318 390
#     4  10  22  40  66  94 127 170 211 267 321 384
#     4  12  26  39  66  96 128 167 220 266 322 383
#     4  10  22  43  65  89 132 170 213 257 336 376
#     4  11  25  41  67  93 128 169 216 269 319 389
#     4  11  23  43  65  97 130 166 218 263 325 388
#     4   9  21  40  63  93 133 174 209 271 325 382
#
# _framework density 27.395937
#
# number of rings (size 3 to 8) (size 9 to 14) (size 15 to 20)
#    0.000    1.714    1.429    2.571    8.000    0.571 
#    0.000    0.714    0.000    0.000    0.000    0.000 
#    0.000    0.000    0.000    0.000    0.000    0.000 
#
# Total GULP energy -78415.514907 kJ/mol
# GULP energy per Si atom -5601.108208 kJ/mol
# Density = 2.733358 g / cm^3
# Si number density = 27.395937 Si / 1000 Ang^3
#
#
#
# Elastic Constant Matrix: (Units=GPa)
#
#
# Indices 1 2 3 4 5 6 
#
# 1 144.6706 25.3661 26.3093 -1.2845 -30.1417 35.7872
# 2 25.3661 92.8399 7.1553 9.7005 -12.3322 22.7159
# 3 26.3093 7.1553 146.2182 10.5980 -32.1849 3.2723
# 4 -1.2845 9.7005 10.5980 30.0238 1.3388 -16.5897
# 5 -30.1417 -12.3322 -32.1849 1.3388 49.2254 -2.0839
# 6 35.7872 22.7159 3.2723 -16.5897 -2.0839 55.4386
#
#
#
# Elastic Compliance Matrix: (Units=1/GPa)
#
#
# Indices 1 2 3 4 5 6 
#
# 1 0.009927 0.000362 -0.000027 -0.004129 0.005944 -0.007567
# 2 0.000362 0.014511 0.001176 -0.010362 0.004519 -0.009180
# 3 -0.000027 0.001176 0.008477 -0.004847 0.005859 -0.002195
# 4 -0.004129 -0.010362 -0.004847 0.050769 -0.008741 0.022061
# 5 0.005944 0.004519 0.005859 -0.008741 0.028835 -0.007566
# 6 -0.007567 -0.009180 -0.002195 0.022061 -0.007566 0.033131
#
#
# Mechanical properties :
#
#
# Convention : Reuss Voigt Hill
#
# Bulk Modulus (GPa) = 27.82651 55.70999 41.76825
# Shear Modulus (GPa) = 32.34029 48.59743 40.46886
#
# Velocity S-wave (km/s) = 3.43954 4.21633 3.84759
# Velocity P-wave (km/s) = 5.09442 6.63947 5.91758
#
# Compressibility (1/GPa) = 0.03593695
#
# Stress axis : x y z
#
# Youngs Moduli (GPa) = 100.73225 68.91475 117.97221
#
# Poissons Ratio (x) = -0.02497 0.00319
# Poissons Ratio (y) = -0.03649 -0.13873
# Poissons Ratio (z) = 0.00272 -0.08104
#
# Static dielectric constant tensor:
#      x y z
#    x 2.177720 0.002540 0.006710 
#    y 0.002540 2.130070 -0.018290 
#    z 0.006710 -0.018290 2.183440 
# 
# From -- ./inp_files/224327.got.cif
#   From: 2010.05.17/outbox.cif.g08.bks.cpg/sg2_113_cif.got.tgz:224327.got - 2010.06.03 11:33:40.
