data_PCOD9024687
_publ_section_title
;
Structure prediction by ZEFSAII (Michael W. Deem and Ramdas Pophale) SiO2 
 PCOD9024687
Probable space group: P -1
;
_chemical_formula_sum "Si O2"
_cell_formula_units_Z 12
_cell_length_a 5.313274
_cell_length_b 17.379107
_cell_length_c 9.457912
_cell_angle_alpha 135.196363
_cell_angle_beta 97.037155
_cell_angle_gamma 61.083839
_cell_volume 503.083203
_symmetry_space_group_name_H-M "P -1"
_symmetry_group_IT_number 2
_symmetry_cell_setting 'triclinic'
loop_
_space_group_symop_operation_xyz
x,y,z
-x,-y,-z
loop_
_atom_site_type_symbol
_atom_site_label
_atom_site_fract_x
_atom_site_fract_y
_atom_site_fract_z
Si Si1 0.642778 0.910696 0.681567
Si Si2 0.739142 0.302114 0.682126
Si Si3 0.646814 0.119136 0.627698
Si Si4 0.801630 0.422312 0.118473
Si Si5 0.642883 0.122141 0.123415
Si Si6 0.533212 0.691431 0.888621
O O1 0.522900 0.930353 0.539749
O O2 0.517974 0.849018 0.699049
O O3 0.005323 0.805715 0.547938
O O4 0.519628 0.050856 0.927122
O O5 0.609224 0.236288 0.681842
O O6 0.471928 0.429282 0.747270
O O7 0.883488 0.347140 0.872610
O O8 0.552380 0.182486 0.856788
O O9 0.000000 0.000000 0.500000
O O10 0.658854 0.363586 0.134220
O O11 0.099568 0.406422 0.187797
O O12 0.569041 0.249703 0.198902
O O13 0.000000 0.000000 0.000000
#
# Coordination Sequence:
#
# PCOD9024687 Si02
#       6
#     2   2   2   2   2   2
#     4  11  23  41  68  91 133 173 220 270 345 393
#     4  10  22  40  65  98 134 170 218 270 338 386
#     4  11  23  38  68 101 132 166 224 278 333 397
#     4  10  24  41  69  98 135 176 217 276 324 396
#     4  11  26  43  64  94 134 177 220 275 341 391
#     4  11  24  43  68  99 134 171 227 271 330 392
#
# _framework density 23.852914999999999
#
# number of rings (size 3 to 8) (size 9 to 14) (size 15 to 20)
#    0.000    1.333    1.667    3.000   11.667    3.333 
#    0.000    1.667    0.000    0.000    0.000    0.000 
#    0.000    0.000    0.000    0.000    0.000    0.000 
#
# Total GULP energy -67136.186251 kJ/mol
# GULP energy per Si atom -5594.682188 kJ/mol
# Density = 2.379862 g / cm^3
# Si number density = 23.852915 Si / 1000 Ang^3
#
#
#
# Elastic Constant Matrix: (Units=GPa)
#
#
# Indices 1 2 3 4 5 6 
#
# 1 79.1568 29.5393 3.6587 -4.8587 -29.2324 3.0621
# 2 29.5393 139.7870 7.4011 -9.3881 -20.5884 20.4788
# 3 3.6587 7.4011 45.8983 -13.5892 -6.0329 12.2484
# 4 -4.8587 -9.3881 -13.5892 29.6821 6.8458 -6.9102
# 5 -29.2324 -20.5884 -6.0329 6.8458 31.7934 -7.8250
# 6 3.0621 20.4788 12.2484 -6.9102 -7.8250 43.9779
#
#
#
# Elastic Compliance Matrix: (Units=1/GPa)
#
#
# Indices 1 2 3 4 5 6 
#
# 1 0.019763 -0.002003 0.000155 -0.000821 0.017704 0.002535
# 2 -0.002003 0.008509 0.000350 0.001145 0.002685 -0.003263
# 3 0.000155 0.000350 0.026581 0.010598 0.001753 -0.005600
# 4 -0.000821 0.001145 0.010598 0.040652 -0.006303 0.001839
# 5 0.017704 0.002685 0.001753 -0.006303 0.052483 0.005377
# 6 0.002535 -0.003263 -0.005600 0.001839 0.005377 0.026887
#
#
# Mechanical properties :
#
#
# Convention : Reuss Voigt Hill
#
# Bulk Modulus (GPa) = 19.28379 38.44892 28.86636
# Shear Modulus (GPa) = 25.62060 36.04021 30.83040
#
# Velocity S-wave (km/s) = 3.28091 3.89129 3.59907
# Velocity P-wave (km/s) = 4.73862 6.02857 5.42210
#
# Compressibility (1/GPa) = 0.05185701
#
# Stress axis : x y z
#
# Youngs Moduli (GPa) = 50.59921 117.52422 37.62098
#
# Poissons Ratio (x) = 0.23545 -0.00584
# Poissons Ratio (y) = 0.10137 -0.01317
# Poissons Ratio (z) = -0.00786 -0.04115
#
# Static dielectric constant tensor:
#      x y z
#    x 1.926550 -0.030320 0.138610 
#    y -0.030320 1.884930 -0.026000 
#    z 0.138610 -0.026000 1.888360 
# 
# From -- ./inp_files/20447.got.cif
#   From: 2010.05.17/outbox.cif.g08.bks.cpg/sg2_11_cif.got.tgz:20447.got - 2010.06.03 11:33:40.
