data_PCOD9024391
_publ_section_title
;
Structure prediction by ZEFSAII (Michael W. Deem and Ramdas Pophale) SiO2 
 PCOD9024391
Probable space group: P -1
;
_chemical_formula_sum "Si O2"
_cell_formula_units_Z 14
_cell_length_a 11.400049
_cell_length_b 17.042462
_cell_length_c 10.115948
_cell_angle_alpha 150.768356
_cell_angle_beta 67.631604
_cell_angle_gamma 132.264485
_cell_volume 583.120294
_symmetry_space_group_name_H-M "P -1"
_symmetry_group_IT_number 2
_symmetry_cell_setting 'triclinic'
loop_
_space_group_symop_operation_xyz
x,y,z
-x,-y,-z
loop_
_atom_site_type_symbol
_atom_site_label
_atom_site_fract_x
_atom_site_fract_y
_atom_site_fract_z
Si Si1 0.531588 0.893987 0.162510
Si Si2 0.257798 0.773753 0.684803
Si Si3 0.685728 0.863463 0.657425
Si Si4 0.818182 0.271940 0.827548
Si Si5 0.630778 0.642502 0.810114
Si Si6 0.821527 0.936913 0.437023
Si Si7 0.918857 0.667980 0.719618
O O1 0.306106 0.715599 0.020232
O O2 0.615542 0.085539 0.292418
O O3 0.656921 0.054837 0.474548
O O4 0.580682 0.753941 0.914557
O O5 0.206380 0.554086 0.447215
O O6 0.048521 0.659483 0.575311
O O7 0.347673 0.981586 0.061437
O O8 0.558468 0.629461 0.458772
O O9 0.664734 0.797175 0.416670
O O10 0.911993 0.067290 0.895201
O O11 0.882364 0.181061 0.752611
O O12 0.000000 0.500000 0.000000
O O13 0.775804 0.656965 0.698594
O O14 0.735548 0.793246 0.124731
O O15 0.000000 0.000000 0.500000
#
# Coordination Sequence:
#
# PCOD9024391 Si02
#       7
#     2   2   2   2   2   2   2
#     4  10  24  44  60  96 129 163 215 252 321 381
#     4   9  21  44  63  89 136 164 211 264 303 387
#     4  10  22  40  64  95 128 161 216 257 317 374
#     4  10  25  42  65  90 127 170 206 261 317 377
#     4  11  23  39  66  94 130 167 208 266 311 377
#     4  11  22  41  66  94 124 166 211 263 319 366
#     4   9  21  41  62  96 124 168 212 257 311 364
#
# _framework density 24.008768
#
# number of rings (size 3 to 8) (size 9 to 14) (size 15 to 20)
#    0.857    1.143    1.429    0.429    6.000    1.714 
#    2.571    0.000    0.000    0.000    0.000    0.000 
#    0.000    0.000    0.000    0.000    0.000    0.000 
#
# Total GULP energy -78235.262321 kJ/mol
# GULP energy per Si atom -5588.233023 kJ/mol
# Density = 2.395412 g / cm^3
# Si number density = 24.008768 Si / 1000 Ang^3
#
#
#
# Elastic Constant Matrix: (Units=GPa)
#
#
# Indices 1 2 3 4 5 6 
#
# 1 154.0212 30.3550 39.2173 10.4128 -15.4302 18.4082
# 2 30.3550 72.6720 -2.8927 12.1573 -2.2646 21.1633
# 3 39.2173 -2.8927 72.9355 15.7289 -0.5364 9.7365
# 4 10.4128 12.1573 15.7289 51.6997 -6.4552 5.1432
# 5 -15.4302 -2.2646 -0.5364 -6.4552 33.2291 -7.8969
# 6 18.4082 21.1633 9.7365 5.1432 -7.8969 27.3689
#
#
#
# Elastic Compliance Matrix: (Units=1/GPa)
#
#
# Indices 1 2 3 4 5 6 
#
# 1 0.008928 -0.003962 -0.005167 0.001221 0.003986 -0.000182
# 2 -0.003962 0.021137 0.006220 -0.005078 -0.005191 -0.016436
# 3 -0.005167 0.006220 0.019117 -0.006005 -0.004830 -0.008400
# 4 0.001221 -0.005078 -0.006005 0.022506 0.005085 0.002479
# 5 0.003986 -0.005191 -0.004830 0.005085 0.035429 0.012318
# 6 -0.000182 -0.016436 -0.008400 0.002479 0.012318 0.055446
#
#
# Mechanical properties :
#
#
# Convention : Reuss Voigt Hill
#
# Bulk Modulus (GPa) = 23.06148 48.10976 35.58562
# Shear Modulus (GPa) = 27.34704 37.98950 32.66827
#
# Velocity S-wave (km/s) = 3.37863 3.98215 3.69274
# Velocity P-wave (km/s) = 4.98463 6.42069 5.74769
#
# Compressibility (1/GPa) = 0.04336236
#
# Stress axis : x y z
#
# Youngs Moduli (GPa) = 112.01122 47.31046 52.31025
#
# Poissons Ratio (x) = 0.18743 0.27030
# Poissons Ratio (y) = 0.44376 -0.32535
# Poissons Ratio (z) = 0.57879 -0.29425
#
# Static dielectric constant tensor:
#      x y z
#    x 1.962070 0.029770 0.031910 
#    y 0.029770 1.930980 -0.081390 
#    z 0.031910 -0.081390 1.942490 
# 
# From -- ./inp_files/437091.got.cif
#   From: 2010.05.17/outbox.cif.g08.bks.cpg/sg2_219_cif.got.tgz:437091.got - 2010.06.03 11:33:40.
