data_PCOD9024805
_publ_section_title
;
Structure prediction by ZEFSAII (Michael W. Deem and Ramdas Pophale) SiO2 
 PCOD9024805
Probable space group: P -1
;
_chemical_formula_sum "Si O2"
_cell_formula_units_Z 10
_cell_length_a 12.969483
_cell_length_b 19.000982
_cell_length_c 5.439066
_cell_angle_alpha 106.566530
_cell_angle_beta 88.851024
_cell_angle_gamma 26.876952
_cell_volume 449.517427
_symmetry_space_group_name_H-M "P -1"
_symmetry_group_IT_number 2
_symmetry_cell_setting 'triclinic'
loop_
_space_group_symop_operation_xyz
x,y,z
-x,-y,-z
loop_
_atom_site_type_symbol
_atom_site_label
_atom_site_fract_x
_atom_site_fract_y
_atom_site_fract_z
Si Si1 0.705848 0.402038 0.690837
Si Si2 0.158161 0.318749 0.762473
Si Si3 0.844914 0.896710 0.229293
Si Si4 0.856010 0.171206 0.082533
Si Si5 0.153457 0.237484 0.197822
O O1 0.075819 0.071125 0.793816
O O2 0.983276 0.243885 0.677007
O O3 0.500000 0.500000 0.000000
O O4 0.473139 0.616025 0.803747
O O5 0.039317 0.358344 0.559608
O O6 0.502848 0.107836 0.492791
O O7 0.122761 0.297738 0.996561
O O8 0.000000 0.500000 0.000000
O O9 0.202495 0.729261 0.606361
O O10 0.954714 0.772713 0.871322
O O11 0.000000 0.000000 0.000000
O O12 0.500000 0.000000 0.000000
#
# Coordination Sequence:
#
# PCOD9024805 Si02
#       5
#     2   2   2   2   2
#     4   9  21  42  63  91 132 168 224 272 338 392
#     4  11  24  44  65 103 137 170 228 281 323 403
#     4  10  22  40  66  91 130 184 213 265 349 390
#     4  10  22  43  66  96 133 167 227 279 326 406
#     4  10  22  42  68  92 134 178 220 273 333 402
#
# _framework density 22.246077
#
# number of rings (size 3 to 8) (size 9 to 14) (size 15 to 20)
#    0.000    2.000    0.000    3.000    8.400    3.200 
#   14.400    0.000    0.000    0.000    0.000    0.000 
#    0.000    0.000    0.000    0.000    0.000    0.000 
#
# Total GULP energy -55787.018427 kJ/mol
# GULP energy per Si atom -5578.701843 kJ/mol
# Density = 2.219544 g / cm^3
# Si number density = 22.246077 Si / 1000 Ang^3
#
#
#
# Elastic Constant Matrix: (Units=GPa)
#
#
# Indices 1 2 3 4 5 6 
#
# 1 133.5298 79.9942 44.3680 6.3257 10.2611 22.0746
# 2 79.9942 161.9649 57.2840 -0.7512 27.8851 10.5567
# 3 44.3680 57.2840 95.9084 -10.5407 23.0537 8.7553
# 4 6.3257 -0.7512 -10.5407 41.9563 -0.6884 3.4467
# 5 10.2611 27.8851 23.0537 -0.6884 35.9275 0.1069
# 6 22.0746 10.5567 8.7553 3.4467 0.1069 51.5014
#
#
#
# Elastic Compliance Matrix: (Units=1/GPa)
#
#
# Indices 1 2 3 4 5 6 
#
# 1 0.012038 -0.005063 -0.003073 -0.002354 0.002428 -0.003447
# 2 -0.005063 0.010463 -0.002759 0.000136 -0.004904 0.000495
# 3 -0.003073 -0.002759 0.015755 0.004345 -0.007004 -0.001072
# 4 -0.002354 0.000136 0.004345 0.025374 -0.001731 -0.001452
# 5 0.002428 -0.004904 -0.007004 -0.001731 0.035404 0.001197
# 6 -0.003447 0.000495 -0.001072 -0.001452 0.001197 0.021070
#
#
# Mechanical properties :
#
#
# Convention : Reuss Voigt Hill
#
# Bulk Modulus (GPa) = 60.72744 83.85505 72.29124
# Shear Modulus (GPa) = 33.92563 39.86083 36.89323
#
# Velocity S-wave (km/s) = 3.90938 4.23757 4.07678
# Velocity P-wave (km/s) = 6.90905 7.85613 7.39776
#
# Compressibility (1/GPa) = 0.01646702
#
# Stress axis : x y z
#
# Youngs Moduli (GPa) = 83.07164 95.57392 63.47294
#
# Poissons Ratio (x) = 0.48390 0.19502
# Poissons Ratio (y) = 0.42060 0.17510
# Poissons Ratio (z) = 0.25524 0.26366
#
# Static dielectric constant tensor:
#      x y z
#    x 1.838150 -0.022030 0.022140 
#    y -0.022030 1.883240 -0.049890 
#    z 0.022140 -0.049890 1.718430 
# 
# From -- ./inp_files/79402.got.cif
#   From: 2010.05.17/outbox.cif.g08.bks.cpg/sg2_40_cif.got.tgz:79402.got - 2010.06.03 11:33:40.
