data_PCOD9024381
_publ_section_title
;
Structure prediction by ZEFSAII (Michael W. Deem and Ramdas Pophale) SiO2 
 PCOD9024381
Probable space group: P -1
;
_chemical_formula_sum "Si O2"
_cell_formula_units_Z 14
_cell_length_a 11.464692
_cell_length_b 13.101636
_cell_length_c 10.433623
_cell_angle_alpha 92.105385
_cell_angle_beta 38.425832
_cell_angle_gamma 60.873033
_cell_volume 542.833043
_symmetry_space_group_name_H-M "P -1"
_symmetry_group_IT_number 2
_symmetry_cell_setting 'triclinic'
loop_
_space_group_symop_operation_xyz
x,y,z
-x,-y,-z
loop_
_atom_site_type_symbol
_atom_site_label
_atom_site_fract_x
_atom_site_fract_y
_atom_site_fract_z
Si Si1 0.637372 0.202006 0.408817
Si Si2 0.319409 0.146107 0.273037
Si Si3 0.338951 0.370018 0.937910
Si Si4 0.872345 0.307393 0.226007
Si Si5 0.581608 0.692641 0.690869
Si Si6 0.429527 0.930864 0.369653
Si Si7 0.667410 0.440654 0.690129
O O1 0.352561 0.364557 0.767946
O O2 0.903290 0.172393 0.189694
O O3 0.518990 0.251570 0.368537
O O4 0.771521 0.035549 0.344363
O O5 0.496684 0.173874 0.149554
O O6 0.939169 0.330158 0.561232
O O7 0.319079 0.082762 0.402886
O O8 0.500000 0.000000 0.000000
O O9 0.543380 0.171271 0.766284
O O10 0.490983 0.410039 0.848339
O O11 0.988748 0.511459 0.316339
O O12 0.500000 0.500000 0.500000
O O13 0.863712 0.344517 0.382019
O O14 0.205844 0.211038 0.884357
O O15 0.469011 0.636793 0.849839
#
# Coordination Sequence:
#
# PCOD9024381 Si02
#       7
#     2   2   2   2   2   2   2
#     4   9  21  35  65  99 121 156 208 265 326 361
#     4  12  26  45  62  88 135 183 209 250 320 386
#     4   9  21  38  67 100 120 159 212 266 319 365
#     4  11  18  35  69  95 125 159 207 264 318 368
#     4  12  22  41  68  94 129 165 216 271 307 373
#     4  10  22  40  64  94 132 168 200 257 325 381
#     4  11  22  40  67  96 125 165 220 259 313 378
#
# _framework density 25.790620000000001
#
# number of rings (size 3 to 8) (size 9 to 14) (size 15 to 20)
#    0.857    0.571    4.286    0.857    4.000    1.714 
#    0.000    3.571    0.000    0.000    0.000    0.000 
#    0.000    0.000    0.000    0.000    0.000    0.000 
#
# Total GULP energy -78232.642530 kJ/mol
# GULP energy per Si atom -5588.045895 kJ/mol
# Density = 2.573192 g / cm^3
# Si number density = 25.790620 Si / 1000 Ang^3
#
#
#
# Elastic Constant Matrix: (Units=GPa)
#
#
# Indices 1 2 3 4 5 6 
#
# 1 135.1419 56.1477 11.4098 5.5270 -7.3299 13.2843
# 2 56.1477 160.2324 0.4784 -8.1317 -24.5054 18.1667
# 3 11.4098 0.4784 57.1266 -5.6505 10.9905 2.6363
# 4 5.5270 -8.1317 -5.6505 24.9568 2.7450 -14.2515
# 5 -7.3299 -24.5054 10.9905 2.7450 30.4647 4.4286
# 6 13.2843 18.1667 2.6363 -14.2515 4.4286 55.7685
#
#
#
# Elastic Compliance Matrix: (Units=1/GPa)
#
#
# Indices 1 2 3 4 5 6 
#
# 1 0.009440 -0.003022 -0.002582 -0.005347 0.001637 -0.002639
# 2 -0.003022 0.008635 -0.000501 0.001360 0.006603 -0.002246
# 3 -0.002582 -0.000501 0.020469 0.007496 -0.009444 0.002476
# 4 -0.005347 0.001360 0.007496 0.052911 -0.009812 0.014777
# 5 0.001637 0.006603 -0.009444 -0.009812 0.043999 -0.008096
# 6 -0.002639 -0.002246 0.002476 0.014777 -0.008096 0.023593
#
#
# Mechanical properties :
#
#
# Convention : Reuss Voigt Hill
#
# Bulk Modulus (GPa) = 37.97417 54.28585 46.13001
# Shear Modulus (GPa) = 27.77229 41.20232 34.48731
#
# Velocity S-wave (km/s) = 3.28508 4.00130 3.66075
# Velocity P-wave (km/s) = 5.39861 6.51472 5.98275
#
# Compressibility (1/GPa) = 0.02633369
#
# Stress axis : x y z
#
# Youngs Moduli (GPa) = 105.93167 115.80802 48.85434
#
# Poissons Ratio (x) = 0.34997 0.12615
# Poissons Ratio (y) = 0.32013 0.02447
# Poissons Ratio (z) = 0.27354 0.05801
#
# Static dielectric constant tensor:
#      x y z
#    x 1.980120 -0.005210 0.000500 
#    y -0.005210 2.093910 0.079930 
#    z 0.000500 0.079930 2.085190 
# 
# From -- ./inp_files/428312.got.cif
#   From: 2010.05.17/outbox.cif.g08.bks.cpg/sg2_215_cif.got.tgz:428312.got - 2010.06.03 11:33:40.
