data_PCOD9024181
_publ_section_title
;
Structure prediction by ZEFSAII (Michael W. Deem and Ramdas Pophale) SiO2 
 PCOD9024181
Probable space group: P -1
;
_chemical_formula_sum "Si O2"
_cell_formula_units_Z 16
_cell_length_a 26.779349
_cell_length_b 8.151987
_cell_length_c 8.839695
_cell_angle_alpha 48.709651
_cell_angle_beta 154.025251
_cell_angle_gamma 130.893225
_cell_volume 623.885411
_symmetry_space_group_name_H-M "P -1"
_symmetry_group_IT_number 2
_symmetry_cell_setting 'triclinic'
loop_
_space_group_symop_operation_xyz
x,y,z
-x,-y,-z
loop_
_atom_site_type_symbol
_atom_site_label
_atom_site_fract_x
_atom_site_fract_y
_atom_site_fract_z
Si Si1 0.836051 0.794583 0.737147
Si Si2 0.266315 0.897058 0.208359
Si Si3 0.478381 0.140479 0.032249
Si Si4 0.709784 0.670316 0.771168
Si Si5 0.553306 0.304279 0.695846
Si Si6 0.064366 0.717247 0.247138
Si Si7 0.978223 0.241880 0.248982
Si Si8 0.350639 0.140806 0.004129
O O1 0.800432 0.702098 0.861966
O O2 0.740766 0.715086 0.396124
O O3 0.839999 0.062585 0.595440
O O4 0.959485 0.748197 0.052824
O O5 0.383505 0.802535 0.615422
O O6 0.270385 0.129893 0.172641
O O7 0.147372 0.745806 0.029453
O O8 0.273495 0.955318 0.014272
O O9 0.445655 0.879481 0.059857
O O10 0.408163 0.296204 0.658511
O O11 0.418869 0.107289 0.057227
O O12 0.677706 0.423942 0.901501
O O13 0.500000 0.500000 0.500000
O O14 0.457252 0.224409 0.355249
O O15 0.070597 0.455592 0.426824
O O16 0.027854 0.749210 0.953983
O O17 0.000000 0.000000 0.500000
#
# Coordination Sequence:
#
# PCOD9024181 Si02
#       8
#     2   2   2   2   2   2   2   2
#     4  10  22  44  66  97 133 177 219 272 334 389
#     4  11  20  39  64  93 129 166 215 273 315 396
#     4  10  23  40  61  92 135 169 206 263 323 384
#     4  11  22  40  65  95 128 171 216 259 317 401
#     4  11  21  37  61  91 130 168 211 261 314 377
#     4  10  23  46  68  92 136 168 220 285 331 382
#     4  11  24  44  70 100 125 170 224 279 333 391
#     4  10  22  40  63  96 134 171 212 265 322 393
#
# _framework density 25.645735999999999
#
# number of rings (size 3 to 8) (size 9 to 14) (size 15 to 20)
#    0.000    1.500    3.750    2.625    0.000    5.000 
#    4.500    6.875    0.000    0.000    0.000    0.000 
#    0.000    0.000    0.000    0.000    0.000    0.000 
#
# Total GULP energy -89412.776335 kJ/mol
# GULP energy per Si atom -5588.298521 kJ/mol
# Density = 2.558737 g / cm^3
# Si number density = 25.645736 Si / 1000 Ang^3
#
#
#
# Elastic Constant Matrix: (Units=GPa)
#
#
# Indices 1 2 3 4 5 6 
#
# 1 131.7154 3.1800 14.7219 7.6336 8.8876 30.5914
# 2 3.1800 121.3534 15.9480 -10.9087 -1.9869 33.7886
# 3 14.7219 15.9480 62.5046 0.6373 -5.0874 11.8911
# 4 7.6336 -10.9087 0.6373 35.1537 6.9070 7.3846
# 5 8.8876 -1.9869 -5.0874 6.9070 41.7323 7.3074
# 6 30.5914 33.7886 11.8911 7.3846 7.3074 38.5665
#
#
#
# Elastic Compliance Matrix: (Units=1/GPa)
#
#
# Indices 1 2 3 4 5 6 
#
# 1 0.009974 0.002767 -0.001197 0.000929 -0.000534 -0.010043
# 2 0.002767 0.012995 -0.001117 0.006260 0.001432 -0.014706
# 3 -0.001197 -0.001117 0.017588 -0.000161 0.003081 -0.004048
# 4 0.000929 0.006260 -0.000161 0.033353 -0.003352 -0.011923
# 5 -0.000534 0.001432 0.003081 -0.003352 0.026141 -0.006093
# 6 -0.010043 -0.014706 -0.004048 -0.011923 -0.006093 0.051466
#
#
# Mechanical properties :
#
#
# Convention : Reuss Voigt Hill
#
# Bulk Modulus (GPa) = 24.11779 42.58591 33.35185
# Shear Modulus (GPa) = 30.40741 41.87207 36.13974
#
# Velocity S-wave (km/s) = 3.44709 4.04507 3.75799
# Velocity P-wave (km/s) = 5.02672 6.20147 5.64474
#
# Compressibility (1/GPa) = 0.04146318
#
# Stress axis : x y z
#
# Youngs Moduli (GPa) = 100.26131 76.94978 56.85587
#
# Poissons Ratio (x) = -0.21294 0.06808
# Poissons Ratio (y) = -0.27744 0.06351
# Poissons Ratio (z) = 0.12006 0.08596
#
# Static dielectric constant tensor:
#      x y z
#    x 1.974250 0.200640 -0.030970 
#    y 0.200640 1.340920 0.278520 
#    z -0.030970 0.278520 1.910920 
# 
# From -- ./inp_files/356375.got.cif
#   From: 2010.05.17/outbox.cif.g08.bks.cpg/sg2_179_cif.got.tgz:356375.got - 2010.06.03 11:33:40.
