data_PCOD9024718
_publ_section_title
;
Structure prediction by ZEFSAII (Michael W. Deem and Ramdas Pophale) SiO2 
 PCOD9024718
Probable space group: P -1
;
_chemical_formula_sum "Si O2"
_cell_formula_units_Z 13
_cell_length_a 12.246397
_cell_length_b 8.465448
_cell_length_c 8.673461
_cell_angle_alpha 92.400749
_cell_angle_beta 111.340417
_cell_angle_gamma 41.944990
_cell_volume 520.655040
_symmetry_space_group_name_H-M "P -1"
_symmetry_group_IT_number 2
_symmetry_cell_setting 'triclinic'
loop_
_space_group_symop_operation_xyz
x,y,z
-x,-y,-z
loop_
_atom_site_type_symbol
_atom_site_label
_atom_site_fract_x
_atom_site_fract_y
_atom_site_fract_z
Si Si1 0.122305 0.113801 0.872232
Si Si2 0.889541 0.781642 0.460826
Si Si3 0.500000 0.000000 0.000000
Si Si4 0.120715 0.788793 0.761704
Si Si5 0.484233 0.322238 0.797956
Si Si6 0.485382 0.829948 0.527655
Si Si7 0.791689 0.523171 0.920487
O O1 0.195845 0.113301 0.750978
O O2 0.967377 0.377464 0.894227
O O3 0.023372 0.056330 0.763017
O O4 0.299571 0.876281 0.055480
O O5 0.000000 0.500000 0.500000
O O6 0.024200 0.781519 0.583106
O O7 0.723278 0.964214 0.505122
O O8 0.431544 0.216946 0.858825
O O9 0.680381 0.775579 0.965398
O O10 0.329800 0.606288 0.794998
O O11 0.135012 0.677261 0.923541
O O12 0.473155 0.309941 0.610490
O O13 0.629604 0.630699 0.727690
O O14 0.500000 0.000000 0.500000
#
# Coordination Sequence:
#
# PCOD9024718 Si02
#       7
#     2   2   1   2   2   2   2
#     4  12  26  46  71 105 145 190 235 294 359 432
#     4  12  27  43  74 107 140 187 241 295 357 419
#     4  10  22  40  66 100 138 178 234 296 340 408
#     4  11  25  48  70 103 147 188 235 294 357 429
#     4  11  24  42  71 101 142 184 239 286 361 410
#     4  12  24  44  66 106 143 181 232 302 356 415
#     4  11  24  43  71 101 144 184 239 288 361 417
#
# _framework density 24.968546
#
# number of rings (size 3 to 8) (size 9 to 14) (size 15 to 20)
#    0.000    0.615    1.538    6.923    6.462    0.615 
#    0.000    2.308    0.000    0.000    0.000    0.000 
#    0.000    0.000    0.000    0.000    0.000    0.000 
#
# Total GULP energy -72608.715740 kJ/mol
# GULP energy per Si atom -5585.285826 kJ/mol
# Density = 2.491172 g / cm^3
# Si number density = 24.968546 Si / 1000 Ang^3
#
#
#
# Elastic Constant Matrix: (Units=GPa)
#
#
# Indices 1 2 3 4 5 6 
#
# 1 33.4104 31.3925 2.4348 9.6989 1.6768 -19.1642
# 2 31.3925 147.8720 8.0599 18.2510 6.2552 -29.3650
# 3 2.4348 8.0599 137.5846 20.2542 0.9736 3.2551
# 4 9.6989 18.2510 20.2542 35.1882 -6.3330 4.4830
# 5 1.6768 6.2552 0.9736 -6.3330 40.6152 -0.3602
# 6 -19.1642 -29.3650 3.2551 4.4830 -0.3602 51.0790
#
#
#
# Elastic Compliance Matrix: (Units=1/GPa)
#
#
# Indices 1 2 3 4 5 6 
#
# 1 0.048269 -0.005236 0.001137 -0.013892 -0.003236 0.016224
# 2 -0.005236 0.009189 0.000095 -0.004172 -0.001819 0.003665
# 3 0.001137 0.000095 0.008008 -0.005217 -0.001063 0.000421
# 4 -0.013892 -0.004172 -0.005217 0.040134 0.007504 -0.010747
# 5 -0.003236 -0.001819 -0.001063 0.007504 0.026207 -0.002666
# 6 0.016224 0.003665 0.000421 -0.010747 -0.002666 0.028669
#
#
# Mechanical properties :
#
#
# Convention : Reuss Voigt Hill
#
# Bulk Modulus (GPa) = 17.40447 44.73795 31.07121
# Shear Modulus (GPa) = 26.64719 43.84180 35.24449
#
# Velocity S-wave (km/s) = 3.27039 4.19487 3.76114
# Velocity P-wave (km/s) = 4.60937 6.43577 5.59757
#
# Compressibility (1/GPa) = 0.05745651
#
# Stress axis : x y z
#
# Youngs Moduli (GPa) = 20.71733 108.82928 124.87298
#
# Poissons Ratio (x) = 0.56981 -0.14194
# Poissons Ratio (y) = 0.10847 -0.01182
# Poissons Ratio (z) = -0.02355 -0.01030
#
# Static dielectric constant tensor:
#      x y z
#    x 2.080820 0.000450 0.172230 
#    y 0.000450 1.887510 0.002180 
#    z 0.172230 0.002180 2.038370 
# 
# From -- ./inp_files/172439.got.cif
#   From: 2010.05.17/outbox.cif.g08.bks.cpg/sg2_87_cif.got.tgz:172439.got - 2010.06.03 11:33:40.
