data_PCOD9024673
_publ_section_title
;
Structure prediction by ZEFSAII (Michael W. Deem and Ramdas Pophale) SiO2 
 PCOD9024673
Probable space group: P -1
;
_chemical_formula_sum "Si O2"
_cell_formula_units_Z 12
_cell_length_a 8.504070
_cell_length_b 11.989478
_cell_length_c 5.050326
_cell_angle_alpha 104.954722
_cell_angle_beta 93.162123
_cell_angle_gamma 110.994247
_cell_volume 458.200355
_symmetry_space_group_name_H-M "P -1"
_symmetry_group_IT_number 2
_symmetry_cell_setting 'triclinic'
loop_
_space_group_symop_operation_xyz
x,y,z
-x,-y,-z
loop_
_atom_site_type_symbol
_atom_site_label
_atom_site_fract_x
_atom_site_fract_y
_atom_site_fract_z
Si Si1 0.840483 0.854011 0.055155
Si Si2 0.003619 0.205579 0.473010
Si Si3 0.607162 0.569652 0.810410
Si Si4 0.824672 0.514532 0.473500
Si Si5 0.651811 0.236995 0.312602
Si Si6 0.541446 0.891736 0.295287
O O1 0.977683 0.844595 0.269599
O O2 0.735913 0.927341 0.234985
O O3 0.933276 0.869858 0.788504
O O4 0.682278 0.718424 0.925754
O O5 0.141810 0.351118 0.569973
O O6 0.823403 0.216491 0.402421
O O7 0.500000 0.500000 0.500000
O O8 0.771955 0.534193 0.777928
O O9 0.500000 0.500000 0.000000
O O10 0.699387 0.376915 0.289363
O O11 0.000000 0.500000 0.500000
O O12 0.526353 0.212789 0.541238
O O13 0.567520 0.147391 0.005856
O O14 0.500000 0.000000 0.500000
#
# Coordination Sequence:
#
# PCOD9024673 Si02
#       6
#     2   2   2   2   2   2
#     4  11  22  40  61  89 127 163 204 262 309 362
#     4  10  22  40  65  97 130 161 198 249 315 384
#     4  11  20  33  54  85 119 158 197 236 293 364
#     4   9  20  37  61  93 129 162 195 240 305 380
#     4  11  23  43  66  93 126 166 207 254 310 372
#     4  12  26  45  65  89 121 166 218 267 309 356
#
# _framework density 26.189416999999999
#
# number of rings (size 3 to 8) (size 9 to 14) (size 15 to 20)
#    0.000    1.333    0.000    6.500    0.000    2.667 
#    0.000   19.167    0.000    0.000    0.000    0.000 
#    0.000    0.000    0.000    0.000    0.000    0.000 
#
# Total GULP energy -67142.539320 kJ/mol
# GULP energy per Si atom -5595.211610 kJ/mol
# Density = 2.612981 g / cm^3
# Si number density = 26.189417 Si / 1000 Ang^3
#
#
#
# Elastic Constant Matrix: (Units=GPa)
#
#
# Indices 1 2 3 4 5 6 
#
# 1 134.1248 13.3546 50.0252 -2.8160 -21.7684 -2.6944
# 2 13.3546 78.4987 27.3846 0.0942 -3.7178 -2.0893
# 3 50.0252 27.3846 163.5610 -15.5089 -0.3068 -0.4680
# 4 -2.8160 0.0942 -15.5089 49.1652 -3.6982 -14.8862
# 5 -21.7684 -3.7178 -0.3068 -3.6982 60.7549 -3.8457
# 6 -2.6944 -2.0893 -0.4680 -14.8862 -3.8457 41.8753
#
#
#
# Elastic Compliance Matrix: (Units=1/GPa)
#
#
# Indices 1 2 3 4 5 6 
#
# 1 0.009047 -0.000430 -0.002668 0.000196 0.003271 0.000901
# 2 -0.000430 0.013625 -0.002199 -0.000544 0.000667 0.000495
# 3 -0.002668 -0.002199 0.007518 0.002323 -0.000876 0.000548
# 4 0.000196 -0.000544 0.002323 0.023869 0.002051 0.008685
# 5 0.003271 0.000667 -0.000876 0.002051 0.017958 0.002612
# 6 0.000901 0.000495 0.000548 0.008685 0.002612 0.027297
#
#
# Mechanical properties :
#
#
# Convention : Reuss Voigt Hill
#
# Bulk Modulus (GPa) = 51.02758 61.96814 56.49786
# Shear Modulus (GPa) = 42.94179 49.38710 46.16444
#
# Velocity S-wave (km/s) = 4.05367 4.34725 4.20302
# Velocity P-wave (km/s) = 6.43708 6.99364 6.72112
#
# Compressibility (1/GPa) = 0.01959725
#
# Stress axis : x y z
#
# Youngs Moduli (GPa) = 110.53984 73.39665 133.01220
#
# Poissons Ratio (x) = 0.03155 0.35482
# Poissons Ratio (y) = 0.04751 0.29244
# Poissons Ratio (z) = 0.29488 0.16137
#
# Static dielectric constant tensor:
#      x y z
#    x 2.290310 0.007300 -0.013080 
#    y 0.007300 2.188370 0.072550 
#    z -0.013080 0.072550 1.981470 
# 
# From -- ./inp_files/33645.got.cif
#   From: 2010.05.17/outbox.cif.g08.bks.cpg/sg2_17_cif.got.tgz:33645.got - 2010.06.03 11:33:40.
