data_PCOD9024538
_publ_section_title
;
Structure prediction by ZEFSAII (Michael W. Deem and Ramdas Pophale) SiO2 
 PCOD9024538
Probable space group: P -1
;
_chemical_formula_sum "Si O2"
_cell_formula_units_Z 12
_cell_length_a 9.420106
_cell_length_b 9.579249
_cell_length_c 8.204547
_cell_angle_alpha 75.858723
_cell_angle_beta 113.614501
_cell_angle_gamma 134.237811
_cell_volume 485.315310
_symmetry_space_group_name_H-M "P -1"
_symmetry_group_IT_number 2
_symmetry_cell_setting 'triclinic'
loop_
_space_group_symop_operation_xyz
x,y,z
-x,-y,-z
loop_
_atom_site_type_symbol
_atom_site_label
_atom_site_fract_x
_atom_site_fract_y
_atom_site_fract_z
Si Si1 0.022984 0.754957 0.370086
Si Si2 0.406863 0.710823 0.116602
Si Si3 0.802405 0.432457 0.591990
Si Si4 0.396624 0.129285 0.290353
Si Si5 0.788087 0.689839 0.976429
Si Si6 0.769762 0.103317 0.039389
O O1 0.055311 0.621134 0.330882
O O2 0.930364 0.652566 0.530118
O O3 0.871195 0.749147 0.182968
O O4 0.245478 0.973844 0.406719
O O5 0.321291 0.626607 0.281373
O O6 0.643221 0.918947 0.153551
O O7 0.369164 0.542178 0.047486
O O8 0.260858 0.749702 0.970674
O O9 0.629305 0.292956 0.413404
O O10 0.309591 0.225533 0.158104
O O11 0.362615 0.999462 0.161600
O O12 0.994904 0.787263 0.933280
#
# Coordination Sequence:
#
# PCOD9024538 Si02
#       6
#     2   2   2   2   2   2
#     4  10  22  40  65  90 120 164 210 246 295 368
#     4  11  23  39  63  94 125 157 203 257 305 356
#     4  11  23  39  63  94 125 157 203 257 305 356
#     4  11  23  42  65  90 124 163 206 249 301 367
#     4  11  23  42  65  90 124 163 206 249 301 367
#     4  10  22  40  65  90 120 164 210 246 295 368
#
# _framework density 24.726192999999999
#
# number of rings (size 3 to 8) (size 9 to 14) (size 15 to 20)
#    0.000    1.333    3.333    4.000    0.000    6.000 
#    0.000    1.667    0.000    0.000    0.000    0.000 
#    0.000    0.000    0.000    0.000    0.000    0.000 
#
# Total GULP energy -67249.585354 kJ/mol
# GULP energy per Si atom -5604.132113 kJ/mol
# Density = 2.466991 g / cm^3
# Si number density = 24.726193 Si / 1000 Ang^3
#
#
#
# Elastic Constant Matrix: (Units=GPa)
#
#
# Indices 1 2 3 4 5 6 
#
# 1 62.8820 35.8313 35.2709 -21.9071 4.8198 13.8047
# 2 35.8313 111.4685 26.3454 -39.5330 -3.3639 14.3925
# 3 35.2709 26.3454 73.7784 -29.1618 -6.9071 16.1918
# 4 -21.9071 -39.5330 -29.1618 51.3123 12.4937 -10.6874
# 5 4.8198 -3.3639 -6.9071 12.4937 38.8828 -15.2791
# 6 13.8047 14.3925 16.1918 -10.6874 -15.2791 42.8209
#
#
#
# Elastic Compliance Matrix: (Units=1/GPa)
#
#
# Indices 1 2 3 4 5 6 
#
# 1 0.027069 -0.004752 -0.009409 0.003485 -0.008862 -0.005864
# 2 -0.004752 0.013665 0.001302 0.009269 -0.001702 -0.001847
# 3 -0.009409 0.001302 0.021686 0.008369 0.001234 -0.003075
# 4 0.003485 0.009269 0.008369 0.034885 -0.010282 -0.002366
# 5 -0.008862 -0.001702 0.001234 -0.010282 0.035297 0.012991
# 6 -0.005864 -0.001847 -0.003075 -0.002366 0.012991 0.031072
#
#
# Mechanical properties :
#
#
# Convention : Reuss Voigt Hill
#
# Bulk Modulus (GPa) = 27.24691 49.22489 38.23590
# Shear Modulus (GPa) = 24.79839 36.64864 30.72351
#
# Velocity S-wave (km/s) = 3.17033 3.85408 3.52881
# Velocity P-wave (km/s) = 4.94415 6.30528 5.66574
#
# Compressibility (1/GPa) = 0.03670141
#
# Stress axis : x y z
#
# Youngs Moduli (GPa) = 36.94321 73.17754 46.11271
#
# Poissons Ratio (x) = 0.34772 0.43388
# Poissons Ratio (y) = 0.17555 -0.06002
# Poissons Ratio (z) = 0.34760 -0.09525
#
# Static dielectric constant tensor:
#      x y z
#    x 1.935480 0.030460 -0.043020 
#    y 0.030460 1.963990 -0.024050 
#    z -0.043020 -0.024050 1.964840 
# 
# From -- ./inp_files/149479.got.cif
#   From: 2010.05.17/outbox.cif.g08.bks.cpg/sg2_75_cif.got.tgz:149479.got - 2010.06.03 11:33:40.
