data_PCOD9024472
_publ_section_title
;
Structure prediction by ZEFSAII (Michael W. Deem and Ramdas Pophale) SiO2 
 PCOD9024472
Probable space group: P -1
;
_chemical_formula_sum "Si O2"
_cell_formula_units_Z 14
_cell_length_a 7.842741
_cell_length_b 8.778868
_cell_length_c 13.010105
_cell_angle_alpha 65.282269
_cell_angle_beta 49.547011
_cell_angle_gamma 72.579575
_cell_volume 618.650311
_symmetry_space_group_name_H-M "P -1"
_symmetry_group_IT_number 2
_symmetry_cell_setting 'triclinic'
loop_
_space_group_symop_operation_xyz
x,y,z
-x,-y,-z
loop_
_atom_site_type_symbol
_atom_site_label
_atom_site_fract_x
_atom_site_fract_y
_atom_site_fract_z
Si Si1 0.241111 0.549826 0.072908
Si Si2 0.980037 0.168057 0.019963
Si Si3 0.460584 0.878714 0.402837
Si Si4 0.875901 0.622772 0.371825
Si Si5 0.290147 0.808332 0.703394
Si Si6 0.757102 0.299213 0.641900
Si Si7 0.318943 0.423685 0.867741
O O1 0.230932 0.735685 0.977139
O O2 0.059800 0.554030 0.234353
O O3 0.500000 0.500000 0.000000
O O4 0.191917 0.439427 0.022129
O O5 0.177704 0.294743 0.894784
O O6 0.936826 0.137276 0.164609
O O7 0.000000 0.000000 0.000000
O O8 0.677633 0.747818 0.370444
O O9 0.296731 0.835665 0.572611
O O10 0.337542 0.845334 0.352921
O O11 0.535978 0.066703 0.345988
O O12 0.778173 0.460471 0.512268
O O13 0.011605 0.720022 0.380291
O O14 0.332481 0.610900 0.764745
O O15 0.569838 0.346381 0.787953
#
# Coordination Sequence:
#
# PCOD9024472 Si02
#       7
#     2   2   2   2   2   2   2
#     4  11  22  39  65  95 131 165 214 271 326 380
#     4  11  24  41  70  94 130 170 219 267 327 398
#     4  11  23  41  69  90 136 173 217 269 323 389
#     4  11  23  40  66  96 132 171 222 266 324 395
#     4  10  22  40  64  99 125 169 223 268 318 390
#     4  11  23  38  66  95 129 170 223 265 325 381
#     4  11  22  42  68  93 126 170 216 267 325 389
#
# _framework density 22.629906999999999
#
# number of rings (size 3 to 8) (size 9 to 14) (size 15 to 20)
#    0.000    1.143    2.857    4.714    4.000    0.000 
#    0.000    3.571   18.857    0.000    0.000    0.000 
#    0.000    0.000    0.000    0.000    0.000    0.000 
#
# Total GULP energy -78106.001585 kJ/mol
# GULP energy per Si atom -5579.000113 kJ/mol
# Density = 2.257840 g / cm^3
# Si number density = 22.629907 Si / 1000 Ang^3
#
#
#
# Elastic Constant Matrix: (Units=GPa)
#
#
# Indices 1 2 3 4 5 6 
#
# 1 80.4864 34.4520 10.6835 0.1265 -7.0197 16.0000
# 2 34.4520 116.5795 35.7215 3.4692 -2.6379 26.9906
# 3 10.6835 35.7215 111.2621 24.3475 9.8027 5.3112
# 4 0.1265 3.4692 24.3475 41.9489 9.3733 -2.8641
# 5 -7.0197 -2.6379 9.8027 9.3733 21.2210 6.6289
# 6 16.0000 26.9906 5.3112 -2.8641 6.6289 33.7508
#
#
#
# Elastic Compliance Matrix: (Units=1/GPa)
#
#
# Indices 1 2 3 4 5 6 
#
# 1 0.015733 -0.002570 -0.000688 -0.001743 0.008174 -0.007048
# 2 -0.002570 0.012907 -0.003765 -0.000863 0.005919 -0.009747
# 3 -0.000688 -0.003765 0.011736 -0.005406 -0.004316 0.001879
# 4 -0.001743 -0.000863 -0.005406 0.030755 -0.014197 0.007765
# 5 0.008174 0.005919 -0.004316 -0.014197 0.065712 -0.022040
# 6 -0.007048 -0.009747 0.001879 0.007765 -0.022040 0.045457
#
#
# Mechanical properties :
#
#
# Convention : Reuss Voigt Hill
#
# Bulk Modulus (GPa) = 37.97804 52.22690 45.10247
# Shear Modulus (GPa) = 24.37580 34.54886 29.46233
#
# Velocity S-wave (km/s) = 3.28556 3.91153 3.61213
# Velocity P-wave (km/s) = 5.58676 6.59764 6.11313
#
# Compressibility (1/GPa) = 0.02633101
#
# Stress axis : x y z
#
# Youngs Moduli (GPa) = 63.56226 77.47709 85.20826
#
# Poissons Ratio (x) = 0.19911 0.05860
# Poissons Ratio (y) = 0.16335 0.32077
# Poissons Ratio (z) = 0.04372 0.29167
#
# Static dielectric constant tensor:
#      x y z
#    x 1.951260 0.029530 0.001370 
#    y 0.029530 1.851460 0.035770 
#    z 0.001370 0.035770 1.903620 
# 
# From -- ./inp_files/257188.got.cif
#   From: 2010.05.17/outbox.cif.g08.bks.cpg/sg2_129_cif.got.tgz:257188.got - 2010.06.03 11:33:40.
