data_PCOD9024726
_publ_section_title
;
Structure prediction by ZEFSAII (Michael W. Deem and Ramdas Pophale) SiO2 
 PCOD9024726
Probable space group: P -1
;
_chemical_formula_sum "Si O2"
_cell_formula_units_Z 16
_cell_length_a 9.257963
_cell_length_b 13.763236
_cell_length_c 5.161444
_cell_angle_alpha 73.775664
_cell_angle_beta 100.941765
_cell_angle_gamma 84.063051
_cell_volume 611.398016
_symmetry_space_group_name_H-M "P -1"
_symmetry_group_IT_number 2
_symmetry_cell_setting 'triclinic'
loop_
_space_group_symop_operation_xyz
x,y,z
-x,-y,-z
loop_
_atom_site_type_symbol
_atom_site_label
_atom_site_fract_x
_atom_site_fract_y
_atom_site_fract_z
Si Si1 0.177425 0.521972 0.756328
Si Si2 0.453056 0.588786 0.628712
Si Si3 0.230211 0.111129 0.346638
Si Si4 0.940551 0.252042 0.326684
Si Si5 0.219166 0.393830 0.350956
Si Si6 0.329605 0.776081 0.112967
Si Si7 0.871117 0.071732 0.753403
Si Si8 0.653522 0.809456 0.187141
O O1 0.347538 0.546861 0.835104
O O2 0.068606 0.630089 0.681454
O O3 0.820386 0.517006 0.510271
O O4 0.146994 0.439500 0.020679
O O5 0.500000 0.500000 0.500000
O O6 0.608541 0.628521 0.687025
O O7 0.344672 0.683567 0.391833
O O8 0.347531 0.125585 0.597912
O O9 0.086202 0.201513 0.255558
O O10 0.179065 0.000591 0.431334
O O11 0.292512 0.127384 0.073915
O O12 0.936972 0.171113 0.614130
O O13 0.791072 0.243949 0.121849
O O14 0.231939 0.293121 0.615375
O O15 0.268044 0.882587 0.152027
O O16 0.496774 0.778099 0.075326
O O17 0.000000 0.000000 0.000000
#
# Coordination Sequence:
#
# PCOD9024726 Si02
#       8
#     2   2   2   2   2   2   2   2
#     4  11  21  38  69 107 138 188 242 299 359 435
#     4   9  18  36  62 103 143 179 225 294 361 420
#     4  12  28  49  74 101 149 204 241 303 372 433
#     4  12  26  45  77 108 145 187 256 306 367 435
#     4  10  22  40  66 100 150 190 231 294 369 433
#     4  11  25  45  75 109 148 188 248 308 360 438
#     4  12  26  48  77 109 146 188 253 314 371 420
#     4  11  28  50  71 108 153 196 243 295 371 446
#
# _framework density 26.169533999999999
#
# number of rings (size 3 to 8) (size 9 to 14) (size 15 to 20)
#    0.000    1.000    2.500    3.750    3.500    3.000 
#    0.000    3.750    0.000    0.000    0.000    0.000 
#    0.000    0.000    0.000    0.000    0.000    0.000 
#
# Total GULP energy -89558.129893 kJ/mol
# GULP energy per Si atom -5597.383118 kJ/mol
# Density = 2.610997 g / cm^3
# Si number density = 26.169534 Si / 1000 Ang^3
#
#
#
# Elastic Constant Matrix: (Units=GPa)
#
#
# Indices 1 2 3 4 5 6 
#
# 1 73.1439 7.8306 34.3111 -6.7992 -1.2700 3.3132
# 2 7.8306 128.7376 23.8270 -3.2419 -3.0511 -13.1097
# 3 34.3111 23.8270 127.5215 -5.8215 -11.8640 -3.2523
# 4 -6.7992 -3.2419 -5.8215 42.5602 8.6345 3.3173
# 5 -1.2700 -3.0511 -11.8640 8.6345 49.7412 -5.1946
# 6 3.3132 -13.1097 -3.2523 3.3173 -5.1946 40.2879
#
#
#
# Elastic Compliance Matrix: (Units=1/GPa)
#
#
# Indices 1 2 3 4 5 6 
#
# 1 0.016028 -0.000366 -0.004309 0.002369 -0.001276 -0.002145
# 2 -0.000366 0.008324 -0.001343 0.000093 0.000445 0.002680
# 3 -0.004309 -0.001343 0.009478 -0.000010 0.002171 0.000963
# 4 0.002369 0.000093 -0.000010 0.025028 -0.004575 -0.002816
# 5 -0.001276 0.000445 0.002171 -0.004575 0.021788 0.003611
# 6 -0.002145 0.002680 0.000963 -0.002816 0.003611 0.026645
#
#
# Mechanical properties :
#
#
# Convention : Reuss Voigt Hill
#
# Bulk Modulus (GPa) = 45.88560 51.26006 48.57283
# Shear Modulus (GPa) = 39.49692 44.08015 41.78853
#
# Velocity S-wave (km/s) = 3.88915 4.10861 4.00038
# Velocity P-wave (km/s) = 6.14324 6.49136 6.31969
#
# Compressibility (1/GPa) = 0.02179333
#
# Stress axis : x y z
#
# Youngs Moduli (GPa) = 62.39256 120.12927 105.50488
#
# Poissons Ratio (x) = 0.04401 0.45465
# Poissons Ratio (y) = 0.02286 0.14168
# Poissons Ratio (z) = 0.26886 0.16132
#
# Static dielectric constant tensor:
#      x y z
#    x 2.341980 0.152660 0.069110 
#    y 0.152660 2.141870 0.052320 
#    z 0.069110 0.052320 2.040440 
# 
# From -- ./inp_files/37533.got.cif
#   From: 2010.05.17/outbox.cif.g08.bks.cpg/sg2_19_cif.got.tgz:37533.got - 2010.06.03 11:33:40.
