data_PCOD9024581
_publ_section_title
;
Structure prediction by ZEFSAII (Michael W. Deem and Ramdas Pophale) SiO2 
 PCOD9024581
Probable space group: P -1
;
_chemical_formula_sum "Si O2"
_cell_formula_units_Z 15
_cell_length_a 13.981977
_cell_length_b 16.141873
_cell_length_c 11.392235
_cell_angle_alpha 22.843613
_cell_angle_beta 32.692447
_cell_angle_gamma 43.627606
_cell_volume 522.475531
_symmetry_space_group_name_H-M "P -1"
_symmetry_group_IT_number 2
_symmetry_cell_setting 'triclinic'
loop_
_space_group_symop_operation_xyz
x,y,z
-x,-y,-z
loop_
_atom_site_type_symbol
_atom_site_label
_atom_site_fract_x
_atom_site_fract_y
_atom_site_fract_z
Si Si1 0.358415 0.918420 0.387050
Si Si2 0.270000 0.714466 0.519694
Si Si3 0.259308 0.275141 0.651624
Si Si4 0.532193 0.033241 0.560593
Si Si5 0.328025 0.584343 0.387632
Si Si6 0.000742 0.773255 0.369768
Si Si7 0.066371 0.151480 0.404831
Si Si8 0.000000 0.500000 0.500000
O O1 0.314697 0.714901 0.609483
O O2 0.303117 0.864328 0.651520
O O3 0.232501 0.078078 0.269334
O O4 0.570431 0.060977 0.972595
O O5 0.287896 0.543206 0.621922
O O6 0.063121 0.736943 0.686973
O O7 0.394713 0.176534 0.560878
O O8 0.331449 0.390178 0.549809
O O9 0.187809 0.456146 0.420404
O O10 0.080366 0.081222 0.112242
O O11 0.500000 0.000000 0.500000
O O12 0.509941 0.776194 0.950571
O O13 0.187351 0.723536 0.299089
O O14 0.950450 0.595561 0.553518
O O15 0.892592 0.753542 0.629895
O O16 0.000000 0.000000 0.000000
#
# Coordination Sequence:
#
# PCOD9024581 Si02
#       8
#     2   2   2   2   2   2   2   1
#     4  10  21  35  69  89 116 167 205 249 316 363
#     4   9  19  43  60  89 124 155 208 262 301 362
#     4  11  21  38  59  89 127 164 202 253 313 359
#     4  11  23  40  62  90 128 166 203 254 308 369
#     4   9  20  37  60  83 120 166 194 258 307 352
#     4  10  17  31  53  82 117 157 198 243 297 357
#     4  11  20  35  64  89 120 162 207 252 309 366
#     4  10  20  30  56  86 118 168 200 240 304 366
#
# _framework density 28.709477
#
# number of rings (size 3 to 8) (size 9 to 14) (size 15 to 20)
#    0.000    1.867    5.333    0.400    3.733    0.533 
#    0.000    1.333    5.867    0.000    0.000    0.000 
#    0.000    0.000    0.000    0.000    0.000    0.000 
#
# Total GULP energy -83539.293106 kJ/mol
# GULP energy per Si atom -5569.286207 kJ/mol
# Density = 2.864413 g / cm^3
# Si number density = 28.709477 Si / 1000 Ang^3
#
#
#
# Elastic Constant Matrix: (Units=GPa)
#
#
# Indices 1 2 3 4 5 6 
#
# 1 214.0585 114.7113 29.8529 -5.1431 -15.0946 46.4129
# 2 114.7113 219.6082 37.0928 -26.9766 -27.4679 41.8473
# 3 29.8529 37.0928 48.2603 -18.3418 -3.5720 7.4572
# 4 -5.1431 -26.9766 -18.3418 35.7157 14.6899 -22.8545
# 5 -15.0946 -27.4679 -3.5720 14.6899 44.4309 -4.7681
# 6 46.4129 41.8473 7.4572 -22.8545 -4.7681 100.7672
#
#
#
# Elastic Compliance Matrix: (Units=1/GPa)
#
#
# Indices 1 2 3 4 5 6 
#
# 1 0.007643 -0.003226 -0.003984 -0.006263 0.002008 -0.003211
# 2 -0.003226 0.007395 -0.002494 0.002369 0.002412 -0.000749
# 3 -0.003984 -0.002494 0.031168 0.019030 -0.006189 0.004587
# 4 -0.006263 0.002369 0.019030 0.052364 -0.015196 0.011650
# 5 0.002008 0.002412 -0.006189 -0.015196 0.028826 -0.003551
# 6 -0.003211 -0.000749 0.004587 0.011650 -0.003551 0.013849
#
#
# Mechanical properties :
#
#
# Convention : Reuss Voigt Hill
#
# Bulk Modulus (GPa) = 37.31497 93.91565 65.61531
# Shear Modulus (GPa) = 29.48369 56.20077 42.84223
#
# Velocity S-wave (km/s) = 3.20811 4.42924 3.86718
# Velocity P-wave (km/s) = 5.17187 7.67731 6.54558
#
# Compressibility (1/GPa) = 0.02679889
#
# Stress axis : x y z
#
# Youngs Moduli (GPa) = 130.83324 135.22288 32.08430
#
# Poissons Ratio (x) = 0.43619 0.12783
# Poissons Ratio (y) = 0.42203 0.08002
# Poissons Ratio (z) = 0.52125 0.33724
#
# Static dielectric constant tensor:
#      x y z
#    x 2.290530 0.003840 0.065310 
#    y 0.003840 2.217580 0.096640 
#    z 0.065310 0.096640 2.602650 
# 
# From -- ./inp_files/454334.got.cif
#   From: 2010.05.17/outbox.cif.g08.bks.cpg/sg2_228_cif.got.tgz:454334.got - 2010.06.03 11:33:40.
