data_PCOD9024075
_publ_section_title
;
Structure prediction by ZEFSAII (Michael W. Deem and Ramdas Pophale) SiO2 
 PCOD9024075
Probable space group: P -1
;
_chemical_formula_sum "Si O2"
_cell_formula_units_Z 14
_cell_length_a 9.512866
_cell_length_b 10.833397
_cell_length_c 11.894549
_cell_angle_alpha 55.958135
_cell_angle_beta 51.589072
_cell_angle_gamma 42.042676
_cell_volume 631.832938
_symmetry_space_group_name_H-M "P -1"
_symmetry_group_IT_number 2
_symmetry_cell_setting 'triclinic'
loop_
_space_group_symop_operation_xyz
x,y,z
-x,-y,-z
loop_
_atom_site_type_symbol
_atom_site_label
_atom_site_fract_x
_atom_site_fract_y
_atom_site_fract_z
Si Si1 0.884003 0.642510 0.249721
Si Si2 0.630427 0.573930 0.852973
Si Si3 0.435489 0.471134 0.341650
Si Si4 0.799335 0.019268 0.157961
Si Si5 0.832746 0.485019 0.166574
Si Si6 0.047951 0.702803 0.566617
Si Si7 0.340147 0.949536 0.551961
O O1 0.731897 0.657337 0.217107
O O2 0.934404 0.479224 0.390995
O O3 0.141788 0.530746 0.137129
O O4 0.810215 0.837695 0.228464
O O5 0.679179 0.513965 0.727893
O O6 0.451870 0.796975 0.840648
O O7 0.500000 0.500000 0.000000
O O8 0.643899 0.477394 0.208847
O O9 0.277424 0.638022 0.424406
O O10 0.527069 0.264267 0.446535
O O11 0.812554 0.035926 0.276560
O O12 0.000000 0.000000 0.000000
O O13 0.946233 0.318139 0.290697
O O14 0.000000 0.500000 0.000000
O O15 0.827636 0.894533 0.534099
O O16 0.500000 0.000000 0.500000
#
# Coordination Sequence:
#
# PCOD9024075 Si02
#       7
#     2   2   2   2   2   2   2
#     4  10  22  40  63  90 131 161 218 258 327 377
#     4  11  21  36  63  94 125 164 211 265 322 374
#     4  11  23  42  69  92 133 171 218 264 325 385
#     4  11  22  36  62  95 127 160 210 267 318 372
#     4  10  24  44  67  93 131 174 217 268 326 387
#     4  10  23  41  67  92 128 175 214 259 330 383
#     4  11  24  41  64 102 133 165 216 272 322 383
#
# _framework density 22.157755000000002
#
# number of rings (size 3 to 8) (size 9 to 14) (size 15 to 20)
#    0.857    0.571    1.429    4.714    2.000    2.286 
#    0.000    1.429    0.000    3.429    0.000    0.000 
#    0.000    0.000    0.000    0.000    0.000    0.000 
#
# Total GULP energy -77946.329783 kJ/mol
# GULP energy per Si atom -5567.594985 kJ/mol
# Density = 2.210732 g / cm^3
# Si number density = 22.157755 Si / 1000 Ang^3
#
#
#
# Elastic Constant Matrix: (Units=GPa)
#
#
# Indices 1 2 3 4 5 6 
#
# 1 87.9740 14.1550 15.6912 3.1187 -5.2111 -5.7592
# 2 14.1550 75.5515 -7.3574 -10.9882 5.6998 -4.1142
# 3 15.6912 -7.3574 98.6643 8.2394 0.0976 -14.1206
# 4 3.1187 -10.9882 8.2394 25.6237 2.3776 -1.1297
# 5 -5.2111 5.6998 0.0976 2.3776 35.0917 -4.3983
# 6 -5.7592 -4.1142 -14.1206 -1.1297 -4.3983 14.7522
#
#
#
# Elastic Compliance Matrix: (Units=1/GPa)
#
#
# Indices 1 2 3 4 5 6 
#
# 1 0.012584 -0.002898 -0.001546 -0.002402 0.002922 0.003312
# 2 -0.002898 0.015399 0.001674 0.006878 -0.002845 0.004444
# 3 -0.001546 0.001674 0.012430 -0.002672 0.001136 0.011896
# 4 -0.002402 0.006878 -0.002672 0.043552 -0.004360 0.000458
# 5 0.002922 -0.002845 0.001136 -0.004360 0.030981 0.010337
# 6 0.003312 0.004444 0.011896 0.000458 0.010337 0.084822
#
#
# Mechanical properties :
#
#
# Convention : Reuss Voigt Hill
#
# Bulk Modulus (GPa) = 28.67476 34.12970 31.40223
# Shear Modulus (GPa) = 23.04865 31.07360 27.06113
#
# Velocity S-wave (km/s) = 3.22872 3.74890 3.49849
# Velocity P-wave (km/s) = 5.18351 5.84598 5.52469
#
# Compressibility (1/GPa) = 0.03487388
#
# Stress axis : x y z
#
# Youngs Moduli (GPa) = 79.46630 64.94008 80.44729
#
# Poissons Ratio (x) = 0.18817 0.12434
# Poissons Ratio (y) = 0.23026 -0.13463
# Poissons Ratio (z) = 0.12282 -0.10868
#
# Static dielectric constant tensor:
#      x y z
#    x 1.738360 0.041100 0.024910 
#    y 0.041100 1.855280 0.040730 
#    z 0.024910 0.040730 1.969550 
# 
# From -- ./inp_files/392308.got.cif
#   From: 2010.05.17/outbox.cif.g08.bks.cpg/sg2_197_cif.got.tgz:392308.got - 2010.06.03 11:33:40.
