data_PCOD9024875
_publ_section_title
;
Structure prediction by ZEFSAII (Michael W. Deem and Ramdas Pophale) SiO2 
 PCOD9024875
Probable space group: P -1
;
_chemical_formula_sum "Si O2"
_cell_formula_units_Z 16
_cell_length_a 13.209750
_cell_length_b 13.184475
_cell_length_c 7.479031
_cell_angle_alpha 118.595118
_cell_angle_beta 137.970358
_cell_angle_gamma 49.618084
_cell_volume 664.302197
_symmetry_space_group_name_H-M "P -1"
_symmetry_group_IT_number 2
_symmetry_cell_setting 'triclinic'
loop_
_space_group_symop_operation_xyz
x,y,z
-x,-y,-z
loop_
_atom_site_type_symbol
_atom_site_label
_atom_site_fract_x
_atom_site_fract_y
_atom_site_fract_z
Si Si1 0.860803 0.404547 0.222693
Si Si2 0.946249 0.226609 0.530007
Si Si3 0.844491 0.065431 0.994219
Si Si4 0.301194 0.036927 0.747791
Si Si5 0.366083 0.331835 0.727601
Si Si6 0.564334 0.343945 0.693358
Si Si7 0.201644 0.163020 0.327821
Si Si8 0.638945 0.250306 0.335559
O O1 0.905325 0.338183 0.421902
O O2 0.806430 0.558514 0.302204
O O3 0.012555 0.296259 0.204758
O O4 0.680728 0.412208 0.932957
O O5 0.803212 0.272578 0.536224
O O6 0.152259 0.152691 0.772519
O O7 0.909448 0.118765 0.287561
O O8 0.687806 0.193141 0.801355
O O9 0.796052 0.953257 0.884093
O O10 0.000000 0.000000 0.000000
O O11 0.245880 0.096156 0.526348
O O12 0.296101 0.902022 0.657130
O O13 0.500000 0.000000 0.000000
O O14 0.404981 0.399099 0.666989
O O15 0.336972 0.214241 0.517173
O O16 0.523556 0.281041 0.032046
O O17 0.529581 0.336644 0.434341
#
# Coordination Sequence:
#
# PCOD9024875 Si02
#       8
#     2   2   2   2   2   2   2   2
#     4  10  22  44  68  90 128 177 223 263 314 397
#     4  10  22  40  66  94 129 175 211 266 329 380
#     4  11  17  38  66  92 125 162 214 262 320 383
#     4  11  21  37  61  99 132 160 210 266 325 389
#     4  12  25  43  64  97 134 173 220 263 328 380
#     4  11  23  41  67  96 127 168 223 273 314 385
#     4  11  22  40  69  93 130 179 207 270 336 383
#     4  12  23  40  65  99 129 171 214 267 329 381
#
# _framework density 24.085422999999999
#
# number of rings (size 3 to 8) (size 9 to 14) (size 15 to 20)
#    0.000    1.000    8.750    1.125    0.000    1.000 
#    2.250    0.000    0.000    1.500    0.000    0.000 
#    0.000    0.000    0.000    0.000    0.000    0.000 
#
# Total GULP energy -89507.730049 kJ/mol
# GULP energy per Si atom -5594.233128 kJ/mol
# Density = 2.403060 g / cm^3
# Si number density = 24.085423 Si / 1000 Ang^3
#
#
#
# Elastic Constant Matrix: (Units=GPa)
#
#
# Indices 1 2 3 4 5 6 
#
# 1 66.8168 -14.6266 29.2395 -16.5706 -5.4029 -5.8548
# 2 -14.6266 83.2365 15.4794 1.6841 9.4996 -6.5985
# 3 29.2395 15.4794 66.3342 -5.3480 9.1022 2.5019
# 4 -16.5706 1.6841 -5.3480 25.7306 -4.7293 8.0233
# 5 -5.4029 9.4996 9.1022 -4.7293 38.5731 -1.3642
# 6 -5.8548 -6.5985 2.5019 8.0233 -1.3642 31.5270
#
#
#
# Elastic Compliance Matrix: (Units=1/GPa)
#
#
# Indices 1 2 3 4 5 6 
#
# 1 0.026507 0.006332 -0.013165 0.013966 0.007115 0.004046
# 2 0.006332 0.014783 -0.006255 0.000150 -0.001094 0.004681
# 3 -0.013165 -0.006255 0.023170 -0.002804 -0.006297 -0.005152
# 4 0.013966 0.000150 -0.002804 0.051966 0.008599 -0.010005
# 5 0.007115 -0.001094 -0.006297 0.008599 0.029755 0.000691
# 6 0.004046 0.004681 -0.005152 -0.010005 0.000691 0.036435
#
#
# Mechanical properties :
#
#
# Convention : Reuss Voigt Hill
#
# Bulk Modulus (GPa) = 26.12027 30.73022 28.42525
# Shear Modulus (GPa) = 22.56800 31.58581 27.07690
#
# Velocity S-wave (km/s) = 3.06436 3.62527 3.35655
# Velocity P-wave (km/s) = 4.83620 5.50545 5.18164
#
# Compressibility (1/GPa) = 0.03828444
#
# Stress axis : x y z
#
# Youngs Moduli (GPa) = 37.72617 67.64607 43.15930
#
# Poissons Ratio (x) = -0.42835 0.56817
# Poissons Ratio (y) = -0.23889 0.26997
# Poissons Ratio (z) = 0.49665 0.42314
#
# Static dielectric constant tensor:
#      x y z
#    x 1.951850 -0.044710 0.031710 
#    y -0.044710 1.916980 0.010340 
#    z 0.031710 0.010340 1.926540 
# 
# From -- ./inp_files/314046.got.cif
#   From: 2010.05.17/outbox.cif.g08.bks.cpg/sg2_158_cif.got.tgz:314046.got - 2010.06.03 11:33:40.
