data_PCOD9024465
_publ_section_title
;
Structure prediction by ZEFSAII (Michael W. Deem and Ramdas Pophale) SiO2 
 PCOD9024465
Probable space group: P -1
;
_chemical_formula_sum "Si O2"
_cell_formula_units_Z 13
_cell_length_a 16.426583
_cell_length_b 8.180984
_cell_length_c 5.306052
_cell_angle_alpha 115.762219
_cell_angle_beta 109.761333
_cell_angle_gamma 45.394909
_cell_volume 456.609047
_symmetry_space_group_name_H-M "P -1"
_symmetry_group_IT_number 2
_symmetry_cell_setting 'triclinic'
loop_
_space_group_symop_operation_xyz
x,y,z
-x,-y,-z
loop_
_atom_site_type_symbol
_atom_site_label
_atom_site_fract_x
_atom_site_fract_y
_atom_site_fract_z
Si Si1 0.722232 0.352356 0.732148
Si Si2 0.500000 0.500000 0.000000
Si Si3 0.688198 0.054122 0.229170
Si Si4 0.598903 0.732381 0.512003
Si Si5 0.807950 0.651646 0.441546
Si Si6 0.872607 0.196070 0.280573
Si Si7 0.921002 0.761927 0.969815
O O1 0.671933 0.217952 0.557164
O O2 0.619618 0.632497 0.751862
O O3 0.812189 0.258892 0.533165
O O4 0.784307 0.287643 0.016518
O O5 0.416612 0.760886 0.936719
O O6 0.424719 0.430065 0.754932
O O7 0.728794 0.808548 0.226387
O O8 0.802576 0.939465 0.117110
O O9 0.712341 0.697369 0.553784
O O10 0.500000 0.000000 0.500000
O O11 0.903443 0.362138 0.363782
O O12 0.875038 0.740939 0.647383
O O13 0.963817 0.909542 0.143847
O O14 0.000000 0.500000 0.000000
#
# Coordination Sequence:
#
# PCOD9024465 Si02
#       7
#     2   1   2   2   2   2   2
#     4   9  20  42  64  93 138 183 221 290 346 418
#     4  10  22  42  64 100 138 188 224 290 348 426
#     4  10  22  44  69  97 145 181 241 285 359 422
#     4  10  22  40  64  98 138 181 239 283 352 420
#     4  11  24  41  71 100 136 188 232 300 350 425
#     4  10  22  42  68  97 136 179 230 287 354 417
#     4  11  25  47  71  99 140 187 236 297 360 423
#
# _framework density 28.470744
#
# number of rings (size 3 to 8) (size 9 to 14) (size 15 to 20)
#    0.000    1.846    1.538    1.846    6.462    1.846 
#    8.308    3.077    0.000    0.000    0.000    0.000 
#    0.000    0.000    0.000    0.000    0.000    0.000 
#
# Total GULP energy -72396.137777 kJ/mol
# GULP energy per Si atom -5568.933675 kJ/mol
# Density = 2.840594 g / cm^3
# Si number density = 28.470744 Si / 1000 Ang^3
#
#
#
# Elastic Constant Matrix: (Units=GPa)
#
#
# Indices 1 2 3 4 5 6 
#
# 1 98.4436 40.3815 31.3977 4.9639 3.1242 1.7626
# 2 40.3815 246.8385 38.0665 -23.9764 6.2698 31.0602
# 3 31.3977 38.0665 98.8785 -21.5870 20.1001 9.9557
# 4 4.9639 -23.9764 -21.5870 63.2097 11.1585 13.0378
# 5 3.1242 6.2698 20.1001 11.1585 46.5508 -1.4102
# 6 1.7626 31.0602 9.9557 13.0378 -1.4102 42.3768
#
#
#
# Elastic Compliance Matrix: (Units=1/GPa)
#
#
# Indices 1 2 3 4 5 6 
#
# 1 0.012943 -0.002397 -0.005378 -0.005180 0.003145 0.004180
# 2 -0.002397 0.005453 0.000376 0.003777 -0.001799 -0.005208
# 3 -0.005378 0.000376 0.016229 0.009155 -0.009103 -0.006985
# 4 -0.005180 0.003777 0.009155 0.025300 -0.010568 -0.012840
# 5 0.003145 -0.001799 -0.009103 -0.010568 0.028205 0.007517
# 6 0.004180 -0.005208 -0.006985 -0.012840 0.007517 0.033082
#
#
# Mechanical properties :
#
#
# Convention : Reuss Voigt Hill
#
# Bulk Modulus (GPa) = 50.43445 73.76134 62.09790
# Shear Modulus (GPa) = 35.05838 52.71509 43.88673
#
# Velocity S-wave (km/s) = 3.51291 4.30764 3.93041
# Velocity P-wave (km/s) = 5.84868 7.12074 6.51583
#
# Compressibility (1/GPa) = 0.01982772
#
# Stress axis : x y z
#
# Youngs Moduli (GPa) = 77.26042 183.37864 61.61899
#
# Poissons Ratio (x) = 0.43957 0.33140
# Poissons Ratio (y) = 0.18520 -0.02320
# Poissons Ratio (z) = 0.41552 -0.06904
#
# Static dielectric constant tensor:
#      x y z
#    x 2.377640 0.008260 -0.011640 
#    y 0.008260 2.263250 0.193430 
#    z -0.011640 0.193430 2.309690 
# 
# From -- ./inp_files/32691.got.cif
#   From: 2010.05.17/outbox.cif.g08.bks.cpg/sg2_17_cif.got.tgz:32691.got - 2010.06.03 11:33:40.
