data_PCOD9024752
_publ_section_title
;
Structure prediction by ZEFSAII (Michael W. Deem and Ramdas Pophale) SiO2 
 PCOD9024752
Probable space group: P -1
;
_chemical_formula_sum "Si O2"
_cell_formula_units_Z 15
_cell_length_a 16.357176
_cell_length_b 8.556546
_cell_length_c 11.038707
_cell_angle_alpha 134.751232
_cell_angle_beta 45.561647
_cell_angle_gamma 147.831041
_cell_volume 561.553456
_symmetry_space_group_name_H-M "P -1"
_symmetry_group_IT_number 2
_symmetry_cell_setting 'triclinic'
loop_
_space_group_symop_operation_xyz
x,y,z
-x,-y,-z
loop_
_atom_site_type_symbol
_atom_site_label
_atom_site_fract_x
_atom_site_fract_y
_atom_site_fract_z
Si Si1 0.658389 0.685835 0.248545
Si Si2 0.749564 0.553554 0.317824
Si Si3 0.456805 0.852162 0.260366
Si Si4 0.897536 0.351830 0.307503
Si Si5 0.802552 0.692440 0.606577
Si Si6 0.218131 0.571532 0.144529
Si Si7 0.351707 0.116587 0.126420
Si Si8 0.000000 0.500000 0.000000
O O1 0.697634 0.658901 0.328422
O O2 0.475686 0.399205 0.243660
O O3 0.726990 0.017625 0.333144
O O4 0.756275 0.646140 0.039233
O O5 0.817141 0.739208 0.473506
O O6 0.589293 0.212303 0.339960
O O7 0.878484 0.553931 0.132830
O O8 0.369588 0.615470 0.331104
O O9 0.317852 0.748908 0.258596
O O10 0.553435 0.809879 0.052773
O O11 0.905232 0.615257 0.486261
O O12 0.036175 0.396903 0.250147
O O13 0.923167 0.373813 0.149058
O O14 0.804037 0.949258 0.789282
O O15 0.298641 0.830071 0.097808
#
# Coordination Sequence:
#
# PCOD9024752 Si02
#       8
#     2   2   2   2   2   2   2   1
#     4  11  22  42  74 105 128 183 238 281 333 413
#     4  11  22  43  71 102 138 177 231 287 338 407
#     4  11  22  45  70  99 138 183 233 283 339 414
#     4  11  25  44  70 104 141 180 229 285 342 411
#     4  11  28  41  64 109 142 182 225 288 351 399
#     4  11  22  46  71  99 137 182 237 274 347 412
#     4  11  23  44  72  99 138 181 229 287 343 411
#     4  10  22  40  66 102 142 168 214 284 346 404
#
# _framework density 26.711615999999999
#
# number of rings (size 3 to 8) (size 9 to 14) (size 15 to 20)
#    0.000    1.067    4.000    2.000    5.600    2.667 
#    4.800    0.000    0.000    0.000    0.000    0.000 
#    0.000    0.000    0.000    0.000    0.000    0.000 
#
# Total GULP energy -83854.906641 kJ/mol
# GULP energy per Si atom -5590.327109 kJ/mol
# Density = 2.665082 g / cm^3
# Si number density = 26.711616 Si / 1000 Ang^3
#
#
#
# Elastic Constant Matrix: (Units=GPa)
#
#
# Indices 1 2 3 4 5 6 
#
# 1 95.3031 19.7615 14.0861 1.9811 -7.6130 -7.0512
# 2 19.7615 129.4866 3.0696 -14.0421 9.4215 -15.0633
# 3 14.0861 3.0696 100.9934 -13.1232 -1.9800 -14.7478
# 4 1.9811 -14.0421 -13.1232 32.2154 -7.8021 -0.9307
# 5 -7.6130 9.4215 -1.9800 -7.8021 35.1956 -12.2990
# 6 -7.0512 -15.0633 -14.7478 -0.9307 -12.2990 40.1335
#
#
#
# Elastic Compliance Matrix: (Units=1/GPa)
#
#
# Indices 1 2 3 4 5 6 
#
# 1 0.011507 -0.001891 -0.001388 -0.001257 0.003257 0.001771
# 2 -0.001891 0.008887 0.001029 0.004356 -0.000613 0.003295
# 3 -0.001388 0.001029 0.011787 0.006343 0.003481 0.005687
# 4 -0.001257 0.004356 0.006343 0.038271 0.010103 0.007728
# 5 0.003257 -0.000613 0.003481 0.010103 0.036247 0.012963
# 6 0.001771 0.003295 0.005687 0.007728 0.012963 0.032706
#
#
# Mechanical properties :
#
#
# Convention : Reuss Voigt Hill
#
# Bulk Modulus (GPa) = 36.12626 44.40196 40.26411
# Shear Modulus (GPa) = 32.65129 40.76663 36.70896
#
# Velocity S-wave (km/s) = 3.50002 3.91087 3.71114
# Velocity P-wave (km/s) = 5.46694 6.08703 5.78530
#
# Compressibility (1/GPa) = 0.02768069
#
# Stress axis : x y z
#
# Youngs Moduli (GPa) = 86.90022 112.52148 84.83982
#
# Poissons Ratio (x) = 0.21273 0.11780
# Poissons Ratio (y) = 0.16429 -0.08727
# Poissons Ratio (z) = 0.12066 -0.11574
#
# Static dielectric constant tensor:
#      x y z
#    x 2.131000 0.091540 -0.064640 
#    y 0.091540 2.258010 0.179490 
#    z -0.064640 0.179490 2.248710 
# 
# From -- ./inp_files/462442.got.cif
#   From: 2010.05.17/outbox.cif.g08.bks.cpg/sg2_232_cif.got.tgz:462442.got - 2010.06.03 11:33:40.
