data_PCOD9024695
_publ_section_title
;
Structure prediction by ZEFSAII (Michael W. Deem and Ramdas Pophale) SiO2 
 PCOD9024695
Probable space group: P -1
;
_chemical_formula_sum "Si O2"
_cell_formula_units_Z 14
_cell_length_a 8.739310
_cell_length_b 10.391424
_cell_length_c 11.960537
_cell_angle_alpha 130.337581
_cell_angle_beta 60.399764
_cell_angle_gamma 135.286256
_cell_volume 581.337897
_symmetry_space_group_name_H-M "P -1"
_symmetry_group_IT_number 2
_symmetry_cell_setting 'triclinic'
loop_
_space_group_symop_operation_xyz
x,y,z
-x,-y,-z
loop_
_atom_site_type_symbol
_atom_site_label
_atom_site_fract_x
_atom_site_fract_y
_atom_site_fract_z
Si Si1 0.637081 0.643325 0.205752
Si Si2 0.798002 0.987708 0.517056
Si Si3 0.231566 0.714853 0.187606
Si Si4 0.219372 0.638749 0.905275
Si Si5 0.728440 0.902673 0.124195
Si Si6 0.187482 0.237661 0.202400
Si Si7 0.440991 0.282391 0.347622
O O1 0.718415 0.855388 0.360159
O O2 0.740988 0.532721 0.158986
O O3 0.722861 0.723266 0.095094
O O4 0.377866 0.474850 0.228043
O O5 0.614948 0.858139 0.604211
O O6 0.848612 0.210408 0.640661
O O7 0.000000 0.000000 0.500000
O O8 0.478735 0.811365 0.180506
O O9 0.023314 0.474970 0.116401
O O10 0.250177 0.772659 0.079088
O O11 0.385549 0.724088 0.791342
O O12 0.769151 0.890873 0.972421
O O13 0.931421 0.129752 0.220493
O O14 0.245569 0.212692 0.292392
O O15 0.500000 0.500000 0.500000
#
# Coordination Sequence:
#
# PCOD9024695 Si02
#       7
#     2   2   2   2   2   2   2
#     4  11  21  43  68  93 125 181 214 257 335 393
#     4  12  23  39  66  97 127 173 219 267 337 385
#     4  11  23  42  61 100 133 161 225 275 322 384
#     4  10  22  41  65  96 127 171 222 270 323 384
#     4  11  23  41  67  95 138 170 217 271 319 402
#     4  10  22  40  65  99 126 175 222 256 330 396
#     4  11  19  40  67  93 125 167 222 268 313 394
#
# _framework density 24.082377999999999
#
# number of rings (size 3 to 8) (size 9 to 14) (size 15 to 20)
#    0.000    1.143    7.143    1.286    0.000    1.143 
#    2.571    0.714    0.000    0.000    0.000    0.000 
#    0.000    0.000    0.000    0.000    0.000    0.000 
#
# Total GULP energy -78054.578266 kJ/mol
# GULP energy per Si atom -5575.327019 kJ/mol
# Density = 2.402756 g / cm^3
# Si number density = 24.082378 Si / 1000 Ang^3
#
#
#
# Elastic Constant Matrix: (Units=GPa)
#
#
# Indices 1 2 3 4 5 6 
#
# 1 76.6521 27.2160 22.1845 14.7216 5.9088 40.4153
# 2 27.2160 82.9083 6.5287 5.2112 5.7465 28.9757
# 3 22.1845 6.5287 107.4043 16.0746 11.6378 14.4156
# 4 14.7216 5.2112 16.0746 42.1658 7.6677 11.1395
# 5 5.9088 5.7465 11.6378 7.6677 33.1553 -3.6038
# 6 40.4153 28.9757 14.4156 11.1395 -3.6038 55.0355
#
#
#
# Elastic Compliance Matrix: (Units=1/GPa)
#
#
# Indices 1 2 3 4 5 6 
#
# 1 0.023040 -0.001580 -0.001774 -0.002301 -0.004356 -0.015443
# 2 -0.001580 0.015356 0.000644 0.001071 -0.003674 -0.007550
# 3 -0.001774 0.000644 0.010550 -0.002529 -0.003075 -0.001489
# 4 -0.002301 0.001071 -0.002529 0.027482 -0.005694 -0.004147
# 5 -0.004356 -0.003674 -0.003075 -0.005694 0.034991 0.009383
# 6 -0.015443 -0.007550 -0.001489 -0.004147 0.009383 0.035329
#
#
# Mechanical properties :
#
#
# Convention : Reuss Voigt Hill
#
# Bulk Modulus (GPa) = 22.97492 42.09149 32.53321
# Shear Modulus (GPa) = 29.99837 40.14036 35.06936
#
# Velocity S-wave (km/s) = 3.53321 4.08707 3.82019
# Velocity P-wave (km/s) = 5.11915 6.30779 5.74430
#
# Compressibility (1/GPa) = 0.04352572
#
# Stress axis : x y z
#
# Youngs Moduli (GPa) = 43.40227 65.12275 94.79104
#
# Poissons Ratio (x) = 0.10290 0.16815
# Poissons Ratio (y) = 0.06858 -0.06106
# Poissons Ratio (z) = 0.07699 -0.04195
#
# Static dielectric constant tensor:
#      x y z
#    x 2.004520 -0.070000 -0.157260 
#    y -0.070000 2.130370 0.189740 
#    z -0.157260 0.189740 2.298150 
# 
# From -- ./inp_files/259453.got.cif
#   From: 2010.05.17/outbox.cif.g08.bks.cpg/sg2_130_cif.got.tgz:259453.got - 2010.06.03 11:33:40.
