data_PCOD9024383
_publ_section_title
;
Structure prediction by ZEFSAII (Michael W. Deem and Ramdas Pophale) SiO2 
 PCOD9024383
Probable space group: P -1
;
_chemical_formula_sum "Si O2"
_cell_formula_units_Z 16
_cell_length_a 8.002358
_cell_length_b 10.767003
_cell_length_c 16.241563
_cell_angle_alpha 62.050235
_cell_angle_beta 66.944083
_cell_angle_gamma 115.330157
_cell_volume 749.487613
_symmetry_space_group_name_H-M "P -1"
_symmetry_group_IT_number 2
_symmetry_cell_setting 'triclinic'
loop_
_space_group_symop_operation_xyz
x,y,z
-x,-y,-z
loop_
_atom_site_type_symbol
_atom_site_label
_atom_site_fract_x
_atom_site_fract_y
_atom_site_fract_z
Si Si1 0.590139 0.182001 0.370027
Si Si2 0.668810 0.953261 0.965807
Si Si3 0.760420 0.795889 0.282831
Si Si4 0.167962 0.036835 0.379468
Si Si5 0.072597 0.859433 0.968007
Si Si6 0.389604 0.333552 0.464640
Si Si7 0.575792 0.475175 0.080556
Si Si8 0.182006 0.595562 0.060898
O O1 0.510411 0.278318 0.403782
O O2 0.907732 0.376368 0.224179
O O3 0.500000 0.000000 0.500000
O O4 0.408859 0.079649 0.353921
O O5 0.431958 0.724053 0.038496
O O6 0.932537 0.095033 0.809732
O O7 0.500000 0.000000 0.000000
O O8 0.822779 0.013064 0.004728
O O9 0.572964 0.576592 0.337703
O O10 0.616031 0.718042 0.423457
O O11 0.785834 0.962510 0.184451
O O12 0.930792 0.822626 0.441649
O O13 0.303682 0.247616 0.241800
O O14 0.000000 0.000000 0.500000
O O15 0.156430 0.745565 0.998466
O O16 0.756573 0.662708 0.055865
O O17 0.500000 0.500000 0.000000
O O18 0.759390 0.452592 0.019168
#
# Coordination Sequence:
#
# PCOD9024383 Si02
#       8
#     2   2   2   2   2   2   2   2
#     4  11  25  42  68  95 137 180 224 284 348 406
#     4  10  22  40  64  94 133 173 222 279 340 402
#     4  11  23  41  69  94 132 182 221 284 337 418
#     4  10  23  41  65  93 133 177 224 277 331 412
#     4  11  23  40  66  98 133 171 226 283 344 401
#     4  10  23  44  63  95 137 175 229 271 343 413
#     4  12  25  41  70 102 137 178 233 289 348 404
#     4  11  24  43  66  99 138 174 226 295 340 405
#
# _framework density 21.347919000000001
#
# number of rings (size 3 to 8) (size 9 to 14) (size 15 to 20)
#    0.000    1.250    1.250    4.500    7.000    1.000 
#    0.000    0.000    0.000    9.000    0.000    0.000 
#    0.000    0.000    0.000    0.000    0.000    0.000 
#
# Total GULP energy -89246.622883 kJ/mol
# GULP energy per Si atom -5577.913930 kJ/mol
# Density = 2.129933 g / cm^3
# Si number density = 21.347919 Si / 1000 Ang^3
#
#
#
# Elastic Constant Matrix: (Units=GPa)
#
#
# Indices 1 2 3 4 5 6 
#
# 1 87.5417 25.0073 33.6323 -18.9571 5.0459 22.3768
# 2 25.0073 81.8256 27.1390 -23.3778 -24.6594 22.5993
# 3 33.6323 27.1390 156.3296 -29.0711 -6.0792 5.3177
# 4 -18.9571 -23.3778 -29.0711 47.2164 -0.0034 -10.4127
# 5 5.0459 -24.6594 -6.0792 -0.0034 30.2608 -7.0813
# 6 22.3768 22.5993 5.3177 -10.4127 -7.0813 37.6093
#
#
#
# Elastic Compliance Matrix: (Units=1/GPa)
#
#
# Indices 1 2 3 4 5 6 
#
# 1 0.016476 -0.004148 -0.002675 0.001095 -0.008594 -0.008248
# 2 -0.004148 0.022994 -0.000714 0.008037 0.017967 -0.005640
# 3 -0.002675 -0.000714 0.007820 0.003911 0.001990 0.002372
# 4 0.001095 0.008037 0.003911 0.028762 0.007958 0.003427
# 5 -0.008594 0.017967 0.001990 0.007958 0.050883 0.005819
# 6 -0.008248 -0.005640 0.002372 0.003427 0.005819 0.036595
#
#
# Mechanical properties :
#
#
# Convention : Reuss Voigt Hill
#
# Bulk Modulus (GPa) = 31.03890 55.25044 43.14467
# Shear Modulus (GPa) = 26.40706 39.01183 32.70944
#
# Velocity S-wave (km/s) = 3.52090 4.27948 3.91859
# Velocity P-wave (km/s) = 5.57674 7.09618 6.38184
#
# Compressibility (1/GPa) = 0.03221763
#
# Stress axis : x y z
#
# Youngs Moduli (GPa) = 60.69348 43.48889 127.87586
#
# Poissons Ratio (x) = 0.18037 0.34202
# Poissons Ratio (y) = 0.25173 0.09135
# Poissons Ratio (z) = 0.16233 0.03107
#
# Static dielectric constant tensor:
#      x y z
#    x 1.828340 0.003540 0.015130 
#    y 0.003540 1.754320 0.042490 
#    z 0.015130 0.042490 1.712650 
# 
# From -- ./inp_files/500156.got.cif
#   From: 2010.05.17/outbox.cif.g08.bks.cpg/sg2_251_cif.got.tgz:500156.got - 2010.06.03 11:33:40.
