data_PCOD9024343
_publ_section_title
;
Structure prediction by ZEFSAII (Michael W. Deem and Ramdas Pophale) SiO2 
 PCOD9024343
Probable space group: P -1
;
_chemical_formula_sum "Si O2"
_cell_formula_units_Z 16
_cell_length_a 18.254844
_cell_length_b 6.988551
_cell_length_c 17.355253
_cell_angle_alpha 45.710864
_cell_angle_beta 153.719817
_cell_angle_gamma 137.379707
_cell_volume 658.316789
_symmetry_space_group_name_H-M "P -1"
_symmetry_group_IT_number 2
_symmetry_cell_setting 'triclinic'
loop_
_space_group_symop_operation_xyz
x,y,z
-x,-y,-z
loop_
_atom_site_type_symbol
_atom_site_label
_atom_site_fract_x
_atom_site_fract_y
_atom_site_fract_z
Si Si1 0.874538 0.378156 0.804515
Si Si2 0.515949 0.818572 0.991906
Si Si3 0.024489 0.716811 0.346694
Si Si4 0.267473 0.580611 0.182492
Si Si5 0.318644 0.164265 0.006283
Si Si6 0.398052 0.192391 0.313129
Si Si7 0.744341 0.475887 0.486976
Si Si8 0.176287 0.894553 0.605187
O O1 0.777169 0.480229 0.753078
O O2 0.828420 0.475346 0.651207
O O3 0.789773 0.033020 0.824803
O O4 0.079932 0.490043 0.986314
O O5 0.684706 0.900590 0.071666
O O6 0.366203 0.862386 0.783596
O O7 0.456235 0.485950 0.050753
O O8 0.500000 0.000000 0.000000
O O9 0.930392 0.378435 0.368360
O O10 0.183208 0.729712 0.436627
O O11 0.091072 0.859804 0.450850
O O12 0.869271 0.828392 0.143259
O O13 0.374906 0.404989 0.294994
O O14 0.358220 0.915534 0.158123
O O15 0.533137 0.367743 0.326818
O O16 0.500000 0.000000 0.500000
O O17 0.803782 0.803083 0.424410
#
# Coordination Sequence:
#
# PCOD9024343 Si02
#       8
#     2   2   2   2   2   2   2   2
#     4  10  25  43  65  94 124 167 220 269 325 379
#     4  10  23  42  66 100 136 166 211 264 315 386
#     4  10  23  41  62  93 131 163 211 263 308 384
#     4  11  23  43  67  92 129 169 214 271 323 383
#     4  10  23  41  65  97 130 173 214 260 322 379
#     4  10  24  41  61  91 124 164 214 265 321 378
#     4  11  23  40  66  93 125 170 213 260 318 379
#     4  10  22  40  64  93 126 169 208 255 321 378
#
# _framework density 24.304407999999999
#
# number of rings (size 3 to 8) (size 9 to 14) (size 15 to 20)
#    0.000    1.750    0.000    2.250    0.000   21.000 
#    0.000    0.000    0.000    0.000    0.000    0.000 
#    0.000    0.000    0.000    0.000    0.000    0.000 
#
# Total GULP energy -89533.637607 kJ/mol
# GULP energy per Si atom -5595.852350 kJ/mol
# Density = 2.424909 g / cm^3
# Si number density = 24.304408 Si / 1000 Ang^3
#
#
#
# Elastic Constant Matrix: (Units=GPa)
#
#
# Indices 1 2 3 4 5 6 
#
# 1 74.8700 5.2563 23.4828 -26.6283 28.2208 -15.3879
# 2 5.2563 96.5966 16.2834 -24.3183 14.5610 -12.3203
# 3 23.4828 16.2834 51.0472 -14.9947 9.3835 -5.1278
# 4 -26.6283 -24.3183 -14.9947 35.4475 -9.6257 13.7727
# 5 28.2208 14.5610 9.3835 -9.6257 38.9254 -10.1107
# 6 -15.3879 -12.3203 -5.1278 13.7727 -10.1107 26.2579
#
#
#
# Elastic Compliance Matrix: (Units=1/GPa)
#
#
# Indices 1 2 3 4 5 6 
#
# 1 0.027670 0.006698 -0.006609 0.017102 -0.015979 0.002944
# 2 0.006698 0.014525 -0.003059 0.011296 -0.006292 0.001795
# 3 -0.006609 -0.003059 0.024578 0.004499 0.000420 -0.002707
# 4 0.017102 0.011296 0.004499 0.054517 -0.008275 -0.015580
# 5 -0.015979 -0.006292 0.000420 -0.008275 0.039368 0.007265
# 6 0.002944 0.001795 -0.002707 -0.015580 0.007265 0.051092
#
#
# Mechanical properties :
#
#
# Convention : Reuss Voigt Hill
#
# Bulk Modulus (GPa) = 16.43853 34.72876 25.58364
# Shear Modulus (GPa) = 21.01125 31.95891 26.48508
#
# Velocity S-wave (km/s) = 2.94343 3.63015 3.30468
# Velocity P-wave (km/s) = 4.28136 5.64719 5.01103
#
# Compressibility (1/GPa) = 0.06083270
#
# Stress axis : x y z
#
# Youngs Moduli (GPa) = 36.14068 68.84773 40.68634
#
# Poissons Ratio (x) = -0.46115 0.26888
# Poissons Ratio (y) = -0.24207 0.12448
# Poissons Ratio (z) = 0.23884 0.21064
#
# Static dielectric constant tensor:
#      x y z
#    x 1.986750 0.033420 0.002650 
#    y 0.033420 1.957190 0.040750 
#    z 0.002650 0.040750 1.934100 
# 
# From -- ./inp_files/574890.got.cif
#   From: 2010.05.17/outbox.cif.g08.bks.cpg/sg2_288_cif.got.tgz:574890.got - 2010.06.03 11:33:40.
