data_PCOD9024260
_publ_section_title
;
Structure prediction by ZEFSAII (Michael W. Deem and Ramdas Pophale) SiO2 
 PCOD9024260
Probable space group: P -1
;
_chemical_formula_sum "Si O2"
_cell_formula_units_Z 14
_cell_length_a 14.188810
_cell_length_b 8.129238
_cell_length_c 7.626222
_cell_angle_alpha 57.323360
_cell_angle_beta 129.850182
_cell_angle_gamma 115.655701
_cell_volume 563.261950
_symmetry_space_group_name_H-M "P -1"
_symmetry_group_IT_number 2
_symmetry_cell_setting 'triclinic'
loop_
_space_group_symop_operation_xyz
x,y,z
-x,-y,-z
loop_
_atom_site_type_symbol
_atom_site_label
_atom_site_fract_x
_atom_site_fract_y
_atom_site_fract_z
Si Si1 0.534444 0.684691 0.191205
Si Si2 0.765584 0.505404 0.422588
Si Si3 0.286638 0.918314 0.229445
Si Si4 0.899183 0.823060 0.040523
Si Si5 0.977870 0.450794 0.207043
Si Si6 0.526952 0.986086 0.293628
Si Si7 0.269848 0.510162 0.029816
O O1 0.648347 0.578610 0.332786
O O2 0.576222 0.867707 0.262121
O O3 0.415018 0.554285 0.209039
O O4 0.480981 0.788157 0.898238
O O5 0.770733 0.290030 0.637839
O O6 0.898516 0.636603 0.541001
O O7 0.744988 0.500252 0.192936
O O8 0.384156 0.895172 0.206592
O O9 0.384022 0.018188 0.433812
O O10 0.185058 0.064247 0.993348
O O11 0.792634 0.705710 0.853459
O O12 0.977032 0.636240 0.236356
O O13 0.000000 0.000000 0.000000
O O14 0.833671 0.353979 0.108274
O O15 0.000000 0.500000 0.000000
#
# Coordination Sequence:
#
# PCOD9024260 Si02
#       7
#     2   2   2   2   2   2   2
#     4  11  24  42  65  98 132 168 212 268 319 377
#     4  12  23  41  69  95 130 172 215 258 325 383
#     4  11  22  39  65  92 126 175 213 255 319 383
#     4  10  22  40  64  88 126 164 215 262 312 377
#     4  10  25  42  63  95 127 165 214 269 315 376
#     4  10  25  41  61  94 137 165 208 265 324 377
#     4  10  23  41  68  90 132 168 216 259 319 384
#
# _framework density 24.855221
#
# number of rings (size 3 to 8) (size 9 to 14) (size 15 to 20)
#    0.857    0.571    2.857    1.714    8.000    0.571 
#    0.000    0.000    0.000    3.429    0.000    0.000 
#    0.000    0.000    0.000    0.000    0.000    0.000 
#
# Total GULP energy -77960.298140 kJ/mol
# GULP energy per Si atom -5568.592724 kJ/mol
# Density = 2.479865 g / cm^3
# Si number density = 24.855221 Si / 1000 Ang^3
#
#
#
# Elastic Constant Matrix: (Units=GPa)
#
#
# Indices 1 2 3 4 5 6 
#
# 1 188.8944 35.3211 53.7868 3.4827 48.2439 -7.1758
# 2 35.3211 49.1354 28.4178 -10.0514 14.5364 9.0298
# 3 53.7868 28.4178 105.7357 2.8930 27.6642 -5.7139
# 4 3.4827 -10.0514 2.8930 30.9025 0.6127 7.0442
# 5 48.2439 14.5364 27.6642 0.6127 49.0700 4.9427
# 6 -7.1758 9.0298 -5.7139 7.0442 4.9427 45.0379
#
#
#
# Elastic Compliance Matrix: (Units=1/GPa)
#
#
# Indices 1 2 3 4 5 6 
#
# 1 0.008296 -0.004683 -0.000999 -0.002992 -0.006502 0.003316
# 2 -0.004683 0.032876 -0.007389 0.014309 -0.000090 -0.010503
# 3 -0.000999 -0.007389 0.013575 -0.004439 -0.004857 0.004272
# 4 -0.002992 0.014309 -0.004439 0.040096 0.001749 -0.010372
# 5 -0.006502 -0.000090 -0.004857 0.001749 0.030039 -0.005204
# 6 0.003316 -0.010503 0.004272 -0.010372 -0.005204 0.027573
#
#
# Mechanical properties :
#
#
# Convention : Reuss Voigt Hill
#
# Bulk Modulus (GPa) = 34.96095 64.31301 49.63698
# Shear Modulus (GPa) = 26.57708 40.08473 33.33091
#
# Velocity S-wave (km/s) = 3.27353 4.02024 3.66594
# Velocity P-wave (km/s) = 5.32769 6.89064 6.15895
#
# Compressibility (1/GPa) = 0.02860334
#
# Stress axis : x y z
#
# Youngs Moduli (GPa) = 120.54006 30.41747 73.66669
#
# Poissons Ratio (x) = 0.14246 0.07360
# Poissons Ratio (y) = 0.56453 0.54433
# Poissons Ratio (z) = 0.12044 0.22476
#
# Static dielectric constant tensor:
#      x y z
#    x 2.085680 0.102220 0.000690 
#    y 0.102220 2.153530 -0.069340 
#    z 0.000690 -0.069340 2.098020 
# 
# From -- ./inp_files/291967.got.cif
#   From: 2010.05.17/outbox.cif.g08.bks.cpg/sg2_146_cif.got.tgz:291967.got - 2010.06.03 11:33:40.
