data_PCOD9024300
_publ_section_title
;
Structure prediction by ZEFSAII (Michael W. Deem and Ramdas Pophale) SiO2 
 PCOD9024300
Probable space group: P -1
;
_chemical_formula_sum "Si O2"
_cell_formula_units_Z 12
_cell_length_a 11.167204
_cell_length_b 8.471649
_cell_length_c 6.147731
_cell_angle_alpha 87.669522
_cell_angle_beta 64.030528
_cell_angle_gamma 106.010110
_cell_volume 493.748881
_symmetry_space_group_name_H-M "P -1"
_symmetry_group_IT_number 2
_symmetry_cell_setting 'triclinic'
loop_
_space_group_symop_operation_xyz
x,y,z
-x,-y,-z
loop_
_atom_site_type_symbol
_atom_site_label
_atom_site_fract_x
_atom_site_fract_y
_atom_site_fract_z
Si Si1 0.110784 0.584790 0.100230
Si Si2 0.894586 0.991289 0.283502
Si Si3 0.576671 0.435829 0.750072
Si Si4 0.617342 0.746348 0.468948
Si Si5 0.599633 0.171973 0.034122
Si Si6 0.054167 0.278591 0.421793
O O1 0.249860 0.752017 0.956274
O O2 0.151421 0.428684 0.184627
O O3 0.015693 0.642180 0.344081
O O4 0.000000 0.500000 0.000000
O O5 0.740119 0.914997 0.315544
O O6 0.895786 0.860195 0.484635
O O7 0.936156 0.168438 0.355307
O O8 0.000000 0.000000 0.000000
O O9 0.668637 0.599699 0.540543
O O10 0.458489 0.333381 0.683624
O O11 0.642331 0.302251 0.793092
O O12 0.500000 0.500000 0.000000
O O13 0.509592 0.786855 0.717382
O O14 0.500000 0.000000 0.000000
#
# Coordination Sequence:
#
# PCOD9024300 Si02
#       6
#     2   2   2   2   2   2
#     4  11  24  43  66  94 130 172 213 257 317 385
#     4  11  23  40  64  94 126 166 215 267 317 373
#     4   9  21  39  61  88 123 162 205 257 316 374
#     4  10  22  40  64  91 123 164 212 261 315 377
#     4  11  24  41  65  95 129 165 207 262 319 376
#     4  10  24  41  63  92 129 167 212 261 316 378
#
# _framework density 24.303851999999999
#
# number of rings (size 3 to 8) (size 9 to 14) (size 15 to 20)
#    0.000    1.667    0.000    3.000    0.000   19.333 
#    0.000    0.000    0.000    0.000    0.000    0.000 
#    0.000    0.000    0.000    0.000    0.000    0.000 
#
# Total GULP energy -66877.845472 kJ/mol
# GULP energy per Si atom -5573.153789 kJ/mol
# Density = 2.424854 g / cm^3
# Si number density = 24.303852 Si / 1000 Ang^3
#
#
#
# Elastic Constant Matrix: (Units=GPa)
#
#
# Indices 1 2 3 4 5 6 
#
# 1 43.6787 61.2168 26.7073 -11.3362 5.4013 28.2200
# 2 61.2168 212.0188 57.8117 12.5090 20.4995 58.7637
# 3 26.7073 57.8117 86.9885 24.8395 9.8891 26.4909
# 4 -11.3362 12.5090 24.8395 57.8757 3.7384 8.5226
# 5 5.4013 20.4995 9.8891 3.7384 33.6313 -5.4849
# 6 28.2200 58.7637 26.4909 8.5226 -5.4849 58.2172
#
#
#
# Elastic Compliance Matrix: (Units=1/GPa)
#
#
# Indices 1 2 3 4 5 6 
#
# 1 0.065296 -0.010945 -0.013326 0.023971 -0.005592 -0.018577
# 2 -0.010945 0.009824 -0.000429 -0.003150 -0.004468 -0.004376
# 3 -0.013326 -0.000429 0.019311 -0.010583 -0.002190 -0.000552
# 4 0.023971 -0.003150 -0.010583 0.028608 -0.003323 -0.008126
# 5 -0.005592 -0.004468 -0.002190 -0.003323 0.036347 0.012128
# 6 -0.018577 -0.004376 -0.000552 -0.008126 0.012128 0.033182
#
#
# Mechanical properties :
#
#
# Convention : Reuss Voigt Hill
#
# Bulk Modulus (GPa) = 22.20579 70.46195 46.33387
# Shear Modulus (GPa) = 19.45691 43.07486 31.26588
#
# Velocity S-wave (km/s) = 2.83250 4.21449 3.59061
# Velocity P-wave (km/s) = 4.45578 7.26207 6.02460
#
# Compressibility (1/GPa) = 0.04503331
#
# Stress axis : x y z
#
# Youngs Moduli (GPa) = 15.31478 101.78929 51.78372
#
# Poissons Ratio (x) = 1.11404 0.69006
# Poissons Ratio (y) = 0.16761 0.02221
# Poissons Ratio (z) = 0.20408 0.04365
#
# Static dielectric constant tensor:
#      x y z
#    x 2.119020 0.016750 0.091020 
#    y 0.016750 2.028760 -0.084430 
#    z 0.091020 -0.084430 1.885040 
# 
# From -- ./inp_files/21367.got.cif
#   From: 2010.05.17/outbox.cif.g08.bks.cpg/sg2_11_cif.got.tgz:21367.got - 2010.06.03 11:33:40.
