data_PCOD9024656
_publ_section_title
;
Structure prediction by ZEFSAII (Michael W. Deem and Ramdas Pophale) SiO2 
 PCOD9024656
Probable space group: P -1
;
_chemical_formula_sum "Si O2"
_cell_formula_units_Z 8
_cell_length_a 16.003187
_cell_length_b 8.798446
_cell_length_c 6.605601
_cell_angle_alpha 50.658669
_cell_angle_beta 147.684016
_cell_angle_gamma 140.817184
_cell_volume 313.523048
_symmetry_space_group_name_H-M "P -1"
_symmetry_group_IT_number 2
_symmetry_cell_setting 'triclinic'
loop_
_space_group_symop_operation_xyz
x,y,z
-x,-y,-z
loop_
_atom_site_type_symbol
_atom_site_label
_atom_site_fract_x
_atom_site_fract_y
_atom_site_fract_z
Si Si1 0.938000 0.424950 0.167995
Si Si2 0.004141 0.011328 0.760949
Si Si3 0.319192 0.730275 0.884350
Si Si4 0.310305 0.368867 0.851809
O O1 0.951431 0.198885 0.430409
O O2 0.738417 0.346174 0.932627
O O3 0.114133 0.660847 0.443382
O O4 0.000000 0.500000 0.000000
O O5 0.219423 0.136217 0.009365
O O6 0.851682 0.762724 0.546880
O O7 0.000000 0.000000 0.000000
O O8 0.344350 0.566203 0.920439
O O9 0.500000 0.000000 0.000000
O O10 0.500000 0.500000 0.000000
#
# Coordination Sequence:
#
# PCOD9024656 Si02
#       4
#     2   2   2   2
#     4  10  23  44  67  92 128 171 216 267 321 379
#     4  10  23  44  67  92 128 171 216 267 321 379
#     4  10  22  40  65  96 130 170 215 264 321 384
#     4  10  22  40  65  96 130 170 215 264 321 384
#
# _framework density 25.516469000000001
#
# number of rings (size 3 to 8) (size 9 to 14) (size 15 to 20)
#    0.000    2.000    0.000    1.500    0.000   22.000 
#    0.000   10.000    0.000    0.000    0.000    0.000 
#    0.000    0.000    0.000    0.000    0.000    0.000 
#
# Total GULP energy -44578.458270 kJ/mol
# GULP energy per Si atom -5572.307284 kJ/mol
# Density = 2.545839 g / cm^3
# Si number density = 25.516469 Si / 1000 Ang^3
#
#
#
# Elastic Constant Matrix: (Units=GPa)
#
#
# Indices 1 2 3 4 5 6 
#
# 1 300.2311 125.6103 64.3218 14.3767 -34.7389 56.4821
# 2 125.6103 206.4676 80.7881 39.7725 -13.3034 32.1375
# 3 64.3218 80.7881 68.2700 15.3293 -35.4705 21.8263
# 4 14.3767 39.7725 15.3293 63.1312 14.6554 2.5195
# 5 -34.7389 -13.3034 -35.4705 14.6554 55.3700 3.0912
# 6 56.4821 32.1375 21.8263 2.5195 3.0912 75.8690
#
#
#
# Elastic Compliance Matrix: (Units=1/GPa)
#
#
# Indices 1 2 3 4 5 6 
#
# 1 0.005384 -0.003231 0.002317 -0.000648 0.004451 -0.003466
# 2 -0.003231 0.013303 -0.019351 -0.000443 -0.011267 0.002811
# 3 0.002317 -0.019351 0.064865 -0.013455 0.042671 -0.013480
# 4 -0.000648 -0.000443 -0.013455 0.022944 -0.015451 0.004408
# 5 0.004451 -0.011267 0.042671 -0.015451 0.050261 -0.012352
# 6 -0.003466 0.002811 -0.013480 0.004408 -0.012352 0.018805
#
#
# Mechanical properties :
#
#
# Convention : Reuss Voigt Hill
#
# Bulk Modulus (GPa) = 23.24394 124.04544 73.64469
# Shear Modulus (GPa) = 21.69823 59.15728 40.42775
#
# Velocity S-wave (km/s) = 2.91926 4.82020 3.98474
# Velocity P-wave (km/s) = 4.52680 8.92740 7.07780
#
# Compressibility (1/GPa) = 0.04302197
#
# Stress axis : x y z
#
# Youngs Moduli (GPa) = 185.72237 75.17326 15.41657
#
# Poissons Ratio (x) = 0.24290 -0.03572
# Poissons Ratio (y) = 0.60010 0.29833
# Poissons Ratio (z) = -0.43031 1.45467
#
# Static dielectric constant tensor:
#      x y z
#    x 2.136620 -0.012770 0.024100 
#    y -0.012770 2.121240 -0.176700 
#    z 0.024100 -0.176700 2.241800 
# 
# From -- ./inp_files/22281.got.cif
#   From: 2010.05.17/outbox.cif.g08.bks.cpg/sg2_12_cif.got.tgz:22281.got - 2010.06.03 11:33:40.
