data_PCOD9024974
_publ_section_title
;
Structure prediction by ZEFSAII (Michael W. Deem and Ramdas Pophale) SiO2 
 PCOD9024974
Probable space group: P -1
;
_chemical_formula_sum "Si O2"
_cell_formula_units_Z 15
_cell_length_a 12.997659
_cell_length_b 11.753227
_cell_length_c 11.040344
_cell_angle_alpha 113.052984
_cell_angle_beta 55.336214
_cell_angle_gamma 150.498637
_cell_volume 660.474293
_symmetry_space_group_name_H-M "P -1"
_symmetry_group_IT_number 2
_symmetry_cell_setting 'triclinic'
loop_
_space_group_symop_operation_xyz
x,y,z
-x,-y,-z
loop_
_atom_site_type_symbol
_atom_site_label
_atom_site_fract_x
_atom_site_fract_y
_atom_site_fract_z
Si Si1 0.827218 0.506143 0.398867
Si Si2 0.968467 0.841890 0.885014
Si Si3 0.754010 0.663482 0.694933
Si Si4 0.259329 0.659775 0.864798
Si Si5 0.423022 0.194649 0.848528
Si Si6 0.500000 0.000000 0.500000
Si Si7 0.501795 0.318172 0.099070
Si Si8 0.310720 0.818061 0.305378
O O1 0.826563 0.633773 0.526016
O O2 0.772618 0.464567 0.275648
O O3 0.641013 0.249404 0.472383
O O4 0.090770 0.670295 0.309597
O O5 0.936677 0.829529 0.756547
O O6 0.734428 0.578772 0.988825
O O7 0.205418 0.962364 0.814073
O O8 0.000000 0.000000 0.000000
O O9 0.525804 0.402686 0.803087
O O10 0.655424 0.712628 0.738661
O O11 0.394381 0.705448 0.902611
O O12 0.438775 0.918222 0.805970
O O13 0.000000 0.500000 0.000000
O O14 0.645258 0.289781 0.754317
O O15 0.337399 0.141739 0.020615
O O16 0.701189 0.144926 0.534119
#
# Coordination Sequence:
#
# PCOD9024974 Si02
#       8
#     2   2   2   2   2   1   2   2
#     4  11  25  44  67 101 138 176 224 280 336 403
#     4  11  20  38  65  99 131 172 220 273 342 389
#     4  11  23  39  64 101 133 166 222 279 338 397
#     4  11  26  47  66  95 133 185 233 273 330 404
#     4  11  21  38  66  97 130 169 216 285 328 392
#     4  10  22  40  66  98 134 174 212 274 344 390
#     4  11  23  41  63  96 135 172 228 273 328 403
#     4  11  24  41  67  98 131 175 225 278 335 394
#
# _framework density 22.710951999999999
#
# number of rings (size 3 to 8) (size 9 to 14) (size 15 to 20)
#    0.000    1.067    4.000    2.800    1.867    5.867 
#    0.000    0.667    0.000    0.000    0.000    0.000 
#    0.000    0.000    0.000    0.000    0.000    0.000 
#
# Total GULP energy -83546.636167 kJ/mol
# GULP energy per Si atom -5569.775744 kJ/mol
# Density = 2.265926 g / cm^3
# Si number density = 22.710952 Si / 1000 Ang^3
#
#
#
# Elastic Constant Matrix: (Units=GPa)
#
#
# Indices 1 2 3 4 5 6 
#
# 1 84.7952 -0.5941 18.7291 1.5758 -9.1644 12.8854
# 2 -0.5941 59.9386 15.4007 17.6084 -4.2150 18.3826
# 3 18.7291 15.4007 80.1488 18.4142 -7.4242 2.5340
# 4 1.5758 17.6084 18.4142 26.5502 6.8015 -4.0241
# 5 -9.1644 -4.2150 -7.4242 6.8015 33.2697 1.0347
# 6 12.8854 18.3826 2.5340 -4.0241 1.0347 29.4283
#
#
#
# Elastic Compliance Matrix: (Units=1/GPa)
#
#
# Indices 1 2 3 4 5 6 
#
# 1 0.014991 0.007089 -0.002137 -0.007599 0.006480 -0.012075
# 2 0.007089 0.037633 0.001662 -0.035323 0.015312 -0.032123
# 3 -0.002137 0.001662 0.016801 -0.014879 0.006531 -0.003813
# 4 -0.007599 -0.035323 -0.014879 0.085125 -0.028514 0.039316
# 5 0.006480 0.015312 0.006531 -0.028514 0.041639 -0.018327
# 6 -0.012075 -0.032123 -0.003813 0.039316 -0.018327 0.065683
#
#
# Mechanical properties :
#
#
# Convention : Reuss Voigt Hill
#
# Bulk Modulus (GPa) = 12.09894 32.43933 22.26914
# Shear Modulus (GPa) = 18.10313 30.60611 24.35462
#
# Velocity S-wave (km/s) = 2.82638 3.67500 3.27826
# Velocity P-wave (km/s) = 3.99877 5.68525 4.91489
#
# Compressibility (1/GPa) = 0.08265185
#
# Stress axis : x y z
#
# Youngs Moduli (GPa) = 66.70482 26.57268 59.52065
#
# Poissons Ratio (x) = -0.18838 0.12722
# Poissons Ratio (y) = -0.47290 -0.09890
# Poissons Ratio (z) = 0.14258 -0.04415
#
# Static dielectric constant tensor:
#      x y z
#    x 1.788720 0.014840 -0.026650 
#    y 0.014840 1.859210 0.040110 
#    z -0.026650 0.040110 1.980580 
# 
# From -- ./inp_files/66722.got.cif
#   From: 2010.05.17/outbox.cif.g08.bks.cpg/sg2_34_cif.got.tgz:66722.got - 2010.06.03 11:33:40.
