data_PCOD9024248
_publ_section_title
;
Structure prediction by ZEFSAII (Michael W. Deem and Ramdas Pophale) SiO2 
 PCOD9024248
Probable space group: P -1
;
_chemical_formula_sum "Si O2"
_cell_formula_units_Z 16
_cell_length_a 11.125036
_cell_length_b 17.489755
_cell_length_c 24.209321
_cell_angle_alpha 160.618177
_cell_angle_beta 38.400388
_cell_angle_gamma 149.577895
_cell_volume 779.059530
_symmetry_space_group_name_H-M "P -1"
_symmetry_group_IT_number 2
_symmetry_cell_setting 'triclinic'
loop_
_space_group_symop_operation_xyz
x,y,z
-x,-y,-z
loop_
_atom_site_type_symbol
_atom_site_label
_atom_site_fract_x
_atom_site_fract_y
_atom_site_fract_z
Si Si1 0.942489 0.264658 0.641950
Si Si2 0.984126 0.820089 0.968315
Si Si3 0.673657 0.847701 0.177932
Si Si4 0.564749 0.105611 0.485807
Si Si5 0.112258 0.353207 0.888621
Si Si6 0.716797 0.793791 0.594948
Si Si7 0.295779 0.819748 0.222169
Si Si8 0.653803 0.637052 0.855273
O O1 0.983621 0.561659 0.814690
O O2 0.898517 0.210533 0.686264
O O3 0.148608 0.266254 0.539833
O O4 0.686741 0.021317 0.540517
O O5 0.775126 0.700356 0.915208
O O6 0.918640 0.942042 0.125447
O O7 0.225909 0.065690 0.017391
O O8 0.535936 0.932946 0.246587
O O9 0.682257 0.976714 0.322290
O O10 0.500000 0.500000 0.000000
O O11 0.713371 0.446613 0.670180
O O12 0.500000 0.000000 0.500000
O O13 0.367863 0.463382 0.845433
O O14 0.181329 0.498901 0.023028
O O15 0.915039 0.015941 0.720161
O O16 0.000000 0.500000 0.000000
O O17 0.500000 0.500000 0.500000
O O18 0.643591 0.970922 0.707956
#
# Coordination Sequence:
#
# PCOD9024248 Si02
#       8
#     2   2   2   2   2   2   2   2
#     4  11  22  40  65  89 127 170 206 262 323 379
#     4  11  23  37  64  96 128 168 209 264 323 379
#     4  11  20  38  64  91 126 166 209 260 325 377
#     4  11  21  37  61  89 123 169 210 253 322 391
#     4  10  22  40  64  86 122 170 212 256 317 377
#     4  11  25  42  66  93 122 165 220 267 309 377
#     4  10  22  41  65  89 126 172 208 255 324 381
#     4  11  22  39  61  95 131 164 214 268 312 387
#
# _framework density 20.537583000000001
#
# number of rings (size 3 to 8) (size 9 to 14) (size 15 to 20)
#    0.000    1.250    6.250    0.375    3.500    0.500 
#    0.000    3.125    0.000    0.000    0.000    0.000 
#    0.000    0.000    0.000    0.000    0.000    0.000 
#
# Total GULP energy -89334.909886 kJ/mol
# GULP energy per Si atom -5583.431868 kJ/mol
# Density = 2.049084 g / cm^3
# Si number density = 20.537583 Si / 1000 Ang^3
#
#
#
# Elastic Constant Matrix: (Units=GPa)
#
#
# Indices 1 2 3 4 5 6 
#
# 1 53.4714 21.2503 18.7218 6.1338 2.5666 -12.7943
# 2 21.2503 91.8924 53.8106 6.9319 7.4425 -7.5057
# 3 18.7218 53.8106 111.2288 -15.0680 14.6248 -11.2433
# 4 6.1338 6.9319 -15.0680 45.0242 -4.3494 -1.7501
# 5 2.5666 7.4425 14.6248 -4.3494 28.9544 -2.9073
# 6 -12.7943 -7.5057 -11.2433 -1.7501 -2.9073 29.5593
#
#
#
# Elastic Compliance Matrix: (Units=1/GPa)
#
#
# Indices 1 2 3 4 5 6 
#
# 1 0.022972 -0.003373 -0.001811 -0.002882 0.000140 0.008241
# 2 -0.003373 0.016868 -0.008247 -0.004990 -0.000689 -0.000677
# 3 -0.001811 -0.008247 0.014943 0.006234 -0.004052 0.002776
# 4 -0.002882 -0.004990 0.006234 0.025754 0.002421 0.001619
# 5 0.000140 -0.000689 -0.004052 0.002421 0.037329 0.002159
# 6 0.008241 -0.000677 0.002776 0.001619 0.002159 0.038590
#
#
# Mechanical properties :
#
#
# Convention : Reuss Voigt Hill
#
# Bulk Modulus (GPa) = 35.81343 49.35089 42.58216
# Shear Modulus (GPa) = 25.95734 31.56157 28.75946
#
# Velocity S-wave (km/s) = 3.55899 3.92442 3.74616
# Velocity P-wave (km/s) = 5.86211 6.67956 6.28414
#
# Compressibility (1/GPa) = 0.02792249
#
# Stress axis : x y z
#
# Youngs Moduli (GPa) = 43.53182 59.28250 66.92190
#
# Poissons Ratio (x) = 0.19994 0.12118
# Poissons Ratio (y) = 0.14682 0.55189
# Poissons Ratio (z) = 0.07882 0.48889
#
# Static dielectric constant tensor:
#      x y z
#    x 1.762580 -0.013600 -0.008620 
#    y -0.013600 1.729950 -0.024470 
#    z -0.008620 -0.024470 1.786890 
# 
# From -- ./inp_files/610792.got.cif
#   From: 2010.05.17/outbox.cif.g08.bks.cpg/sg2_306_cif.got.tgz:610792.got - 2010.06.03 11:33:40.
