data_PCOD9024903
_publ_section_title
;
Structure prediction by ZEFSAII (Michael W. Deem and Ramdas Pophale) SiO2 
 PCOD9024903
Probable space group: P -1
;
_chemical_formula_sum "Si O2"
_cell_formula_units_Z 16
_cell_length_a 11.067864
_cell_length_b 12.130872
_cell_length_c 8.248598
_cell_angle_alpha 53.557478
_cell_angle_beta 78.106885
_cell_angle_gamma 53.389135
_cell_volume 696.060826
_symmetry_space_group_name_H-M "P -1"
_symmetry_group_IT_number 2
_symmetry_cell_setting 'triclinic'
loop_
_space_group_symop_operation_xyz
x,y,z
-x,-y,-z
loop_
_atom_site_type_symbol
_atom_site_label
_atom_site_fract_x
_atom_site_fract_y
_atom_site_fract_z
Si Si1 0.982882 0.839699 0.270599
Si Si2 0.440105 0.684575 0.420903
Si Si3 0.258149 0.186792 0.779276
Si Si4 0.465420 0.173080 0.005729
Si Si5 0.098093 0.979556 0.332259
Si Si6 0.241353 0.482936 0.369631
Si Si7 0.932833 0.743431 0.711774
Si Si8 0.775300 0.555395 0.953603
O O1 0.012370 0.977519 0.197082
O O2 0.146657 0.659641 0.340642
O O3 0.865008 0.853989 0.159698
O O4 0.915402 0.822511 0.472514
O O5 0.500000 0.500000 0.500000
O O6 0.447881 0.789092 0.181229
O O7 0.268861 0.800315 0.438534
O O8 0.575127 0.636676 0.548608
O O9 0.323867 0.197835 0.923394
O O10 0.193057 0.364203 0.550876
O O11 0.414425 0.021437 0.799929
O O12 0.394638 0.312496 0.044050
O O13 0.116221 0.127000 0.239014
O O14 0.000000 0.000000 0.500000
O O15 0.211707 0.524290 0.152993
O O16 0.842356 0.662510 0.814942
O O17 0.114143 0.591665 0.820290
#
# Coordination Sequence:
#
# PCOD9024903 Si02
#       8
#     2   2   2   2   2   2   2   2
#     4  11  21  43  67  96 129 177 226 265 325 399
#     4  11  23  47  70  91 135 178 218 263 337 403
#     4  10  22  40  66  95 130 172 219 276 320 392
#     4  10  25  41  65  96 133 173 216 276 337 382
#     4  10  24  42  69  97 127 176 219 268 327 394
#     4  11  23  39  70  97 128 178 223 268 326 389
#     4  10  23  40  64  97 136 168 214 279 330 382
#     4  11  24  39  63 101 133 168 219 278 329 381
#
# _framework density 22.986497
#
# number of rings (size 3 to 8) (size 9 to 14) (size 15 to 20)
#    0.000    1.500    2.500    1.875   10.500    2.500 
#    2.250    1.875    0.000    0.000    0.000    0.000 
#    0.000    0.000    0.000    0.000    0.000    0.000 
#
# Total GULP energy -89399.721108 kJ/mol
# GULP energy per Si atom -5587.482569 kJ/mol
# Density = 2.293418 g / cm^3
# Si number density = 22.986497 Si / 1000 Ang^3
#
#
#
# Elastic Constant Matrix: (Units=GPa)
#
#
# Indices 1 2 3 4 5 6 
#
# 1 93.1184 29.1490 7.0572 8.7118 -1.0306 3.5324
# 2 29.1490 137.6923 9.4444 6.1329 1.8269 -2.1457
# 3 7.0572 9.4444 29.1903 9.2968 -2.4270 -2.1257
# 4 8.7118 6.1329 9.2968 30.9530 0.6212 0.3922
# 5 -1.0306 1.8269 -2.4270 0.6212 24.1519 -3.4606
# 6 3.5324 -2.1457 -2.1257 0.3922 -3.4606 42.9042
#
#
#
# Elastic Compliance Matrix: (Units=1/GPa)
#
#
# Indices 1 2 3 4 5 6 
#
# 1 0.011848 -0.002328 -0.001372 -0.002457 0.000449 -0.001101
# 2 -0.002328 0.007920 -0.001934 -0.000322 -0.000823 0.000428
# 3 -0.001372 -0.001934 0.039341 -0.011172 0.004679 0.002445
# 4 -0.002457 -0.000322 -0.011172 0.036474 -0.002268 -0.000884
# 5 0.000449 -0.000823 0.004679 -0.002268 0.042531 0.003605
# 6 -0.001101 0.000428 0.002445 -0.000884 0.003605 0.023840
#
#
# Mechanical properties :
#
#
# Convention : Reuss Voigt Hill
#
# Bulk Modulus (GPa) = 20.90266 39.03356 29.96811
# Shear Modulus (GPa) = 26.43138 33.89185 30.16161
#
# Velocity S-wave (km/s) = 3.39465 3.84399 3.62628
# Velocity P-wave (km/s) = 4.94753 6.05967 5.53162
#
# Compressibility (1/GPa) = 0.04784080
#
# Stress axis : x y z
#
# Youngs Moduli (GPa) = 84.40074 126.26284 25.41904
#
# Poissons Ratio (x) = 0.29392 0.03487
# Poissons Ratio (y) = 0.19647 0.04917
# Poissons Ratio (z) = 0.11578 0.24424
#
# Static dielectric constant tensor:
#      x y z
#    x 1.919160 0.026330 -0.017580 
#    y 0.026330 1.823540 -0.027620 
#    z -0.017580 -0.027620 1.877110 
# 
# From -- ./inp_files/256877.got.cif
#   From: 2010.05.17/outbox.cif.g08.bks.cpg/sg2_129_cif.got.tgz:256877.got - 2010.06.03 11:33:40.
