data_PCOD9024440
_publ_section_title
;
Structure prediction by ZEFSAII (Michael W. Deem and Ramdas Pophale) SiO2 
 PCOD9024440
Probable space group: P -1
;
_chemical_formula_sum "Si O2"
_cell_formula_units_Z 14
_cell_length_a 14.583532
_cell_length_b 5.339511
_cell_length_c 8.247838
_cell_angle_alpha 78.553531
_cell_angle_beta 97.106593
_cell_angle_gamma 100.340504
_cell_volume 616.662527
_symmetry_space_group_name_H-M "P -1"
_symmetry_group_IT_number 2
_symmetry_cell_setting 'triclinic'
loop_
_space_group_symop_operation_xyz
x,y,z
-x,-y,-z
loop_
_atom_site_type_symbol
_atom_site_label
_atom_site_fract_x
_atom_site_fract_y
_atom_site_fract_z
Si Si1 0.815935 0.785400 0.953776
Si Si2 0.432801 0.248898 0.585117
Si Si3 0.483442 0.850917 0.847473
Si Si4 0.904952 0.331546 0.943156
Si Si5 0.371397 0.372492 0.917931
Si Si6 0.219002 0.111592 0.447926
Si Si7 0.891702 0.441256 0.543900
O O1 0.833151 0.489378 0.997428
O O2 0.797352 0.843180 0.753614
O O3 0.891904 0.023539 0.003222
O O4 0.726321 0.790996 0.042660
O O5 0.500000 0.500000 0.500000
O O6 0.406114 0.304387 0.758338
O O7 0.331157 0.167960 0.491908
O O8 0.490269 0.014531 0.665960
O O9 0.381678 0.680573 0.863495
O O10 0.563327 0.670934 0.906868
O O11 0.500000 0.000000 0.000000
O O12 0.896737 0.379431 0.744031
O O13 0.000000 0.500000 0.000000
O O14 0.165268 0.315651 0.507214
O O15 0.168755 0.818051 0.512552
O O16 0.000000 0.500000 0.500000
#
# Coordination Sequence:
#
# PCOD9024440 Si02
#       7
#     2   2   2   2   2   2   2
#     4  10  23  40  67  91 131 169 216 271 326 393
#     4  11  26  41  63  97 137 175 224 276 329 393
#     4   9  22  41  63  89 128 165 229 266 326 385
#     4  10  22  40  64  97 124 164 215 270 329 392
#     4  10  23  42  64  93 124 179 225 268 332 383
#     4  10  24  41  64  99 131 172 220 268 333 399
#     4  10  22  43  66  93 131 171 210 272 341 396
#
# _framework density 22.702855
#
# number of rings (size 3 to 8) (size 9 to 14) (size 15 to 20)
#    0.000    2.000    0.000    0.857   12.000    5.143 
#    0.000    0.000    0.000    0.000    0.000    0.000 
#    0.000    0.000    0.000    0.000    0.000    0.000 
#
# Total GULP energy -78030.772462 kJ/mol
# GULP energy per Si atom -5573.626604 kJ/mol
# Density = 2.265118 g / cm^3
# Si number density = 22.702855 Si / 1000 Ang^3
#
#
#
# Elastic Constant Matrix: (Units=GPa)
#
#
# Indices 1 2 3 4 5 6 
#
# 1 98.3837 41.6145 37.4753 -11.6281 -10.4264 27.7670
# 2 41.6145 142.9806 43.4681 -8.4161 -1.6723 22.9649
# 3 37.4753 43.4681 46.0747 -10.5576 -2.7400 -1.0786
# 4 -11.6281 -8.4161 -10.5576 33.2325 7.3699 0.3528
# 5 -10.4264 -1.6723 -2.7400 7.3699 32.2800 2.9348
# 6 27.7670 22.9649 -1.0786 0.3528 2.9348 38.0054
#
#
#
# Elastic Compliance Matrix: (Units=1/GPa)
#
#
# Indices 1 2 3 4 5 6 
#
# 1 0.024258 0.003376 -0.022808 0.000579 0.007853 -0.021022
# 2 0.003376 0.012003 -0.014348 -0.000574 0.001557 -0.010241
# 3 -0.022808 -0.014348 0.055694 0.007470 -0.007582 0.027431
# 4 0.000579 -0.000574 0.007470 0.034074 -0.007021 0.000362
# 5 0.007853 0.001557 -0.007582 -0.007021 0.035425 -0.009564
# 6 -0.021022 -0.010241 0.027431 0.000362 -0.009564 0.049373
#
#
# Mechanical properties :
#
#
# Convention : Reuss Voigt Hill
#
# Bulk Modulus (GPa) = 40.99280 59.17276 50.08278
# Shear Modulus (GPa) = 17.45082 31.69564 24.57323
#
# Velocity S-wave (km/s) = 2.77548 3.74051 3.29353
# Velocity P-wave (km/s) = 5.32602 6.69147 6.04741
#
# Compressibility (1/GPa) = 0.02439453
#
# Stress axis : x y z
#
# Youngs Moduli (GPa) = 41.22401 83.31350 17.95512
#
# Poissons Ratio (x) = -0.28127 0.40952
# Poissons Ratio (y) = -0.13918 0.25763
# Poissons Ratio (z) = 0.94023 1.19542
#
# Static dielectric constant tensor:
#      x y z
#    x 2.053310 -0.197440 0.024060 
#    y -0.197440 2.099500 -0.096210 
#    z 0.024060 -0.096210 1.713920 
# 
# From -- ./inp_files/90133.got.cif
#   From: 2010.05.17/outbox.cif.g08.bks.cpg/sg2_46_cif.got.tgz:90133.got - 2010.06.03 11:33:40.
