data_PCOD9024009
_publ_section_title
;
Structure prediction by ZEFSAII (Michael W. Deem and Ramdas Pophale) SiO2 
 PCOD9024009
Probable space group: P -1
;
_chemical_formula_sum "Si O2"
_cell_formula_units_Z 16
_cell_length_a 6.787119
_cell_length_b 17.425881
_cell_length_c 8.595833
_cell_angle_alpha 73.484278
_cell_angle_beta 76.660904
_cell_angle_gamma 43.728938
_cell_volume 673.266425
_symmetry_space_group_name_H-M "P -1"
_symmetry_group_IT_number 2
_symmetry_cell_setting 'triclinic'
loop_
_space_group_symop_operation_xyz
x,y,z
-x,-y,-z
loop_
_atom_site_type_symbol
_atom_site_label
_atom_site_fract_x
_atom_site_fract_y
_atom_site_fract_z
Si Si1 0.188799 0.210237 0.280991
Si Si2 0.893074 0.466720 0.811783
Si Si3 0.415274 0.572642 0.627796
Si Si4 0.836852 0.199916 0.860514
Si Si5 0.232932 0.056721 0.126810
Si Si6 0.430711 0.298954 0.600502
Si Si7 0.675472 0.671408 0.921815
Si Si8 0.343709 0.147852 0.619504
O O1 0.136211 0.162943 0.177900
O O2 0.410809 0.216704 0.184203
O O3 0.293809 0.134904 0.459160
O O4 0.909418 0.337952 0.310341
O O5 0.634259 0.489570 0.772578
O O6 0.776687 0.584418 0.819954
O O7 0.137627 0.406664 0.673523
O O8 0.062999 0.385296 0.974670
O O9 0.500000 0.500000 0.500000
O O10 0.460172 0.654207 0.535718
O O11 0.668324 0.210359 0.738699
O O12 0.073365 0.193968 0.747634
O O13 0.571037 0.305587 0.950303
O O14 0.997768 0.100235 0.015632
O O15 0.367000 0.962231 0.287526
O O16 0.500000 0.000000 0.000000
O O17 0.359962 0.238924 0.556007
#
# Coordination Sequence:
#
# PCOD9024009 Si02
#       8
#     2   2   2   2   2   2   2   2
#     4  12  24  44  71 102 142 178 231 288 344 406
#     4  10  22  40  62  95 140 176 232 268 340 406
#     4  12  24  40  69 104 142 181 225 277 344 410
#     4  10  23  45  70  98 137 177 235 276 351 404
#     4  10  25  44  72 101 135 181 232 289 347 405
#     4  11  23  42  71  99 138 184 228 282 344 406
#     4  10  23  42  66  99 136 182 226 286 339 412
#     4  11  24  47  70  98 139 177 231 289 343 406
#
# _framework density 23.764738000000001
#
# number of rings (size 3 to 8) (size 9 to 14) (size 15 to 20)
#    0.000    1.250    1.250    3.750    7.000    1.000 
#    2.250    1.250    0.000    0.000    0.000    0.000 
#    0.000    0.000    0.000    0.000    0.000    0.000 
#
# Total GULP energy -89370.347430 kJ/mol
# GULP energy per Si atom -5585.646714 kJ/mol
# Density = 2.371065 g / cm^3
# Si number density = 23.764738 Si / 1000 Ang^3
#
#
#
# Elastic Constant Matrix: (Units=GPa)
#
#
# Indices 1 2 3 4 5 6 
#
# 1 78.1287 36.3870 38.2113 -1.5138 4.5209 -9.6641
# 2 36.3870 67.3759 30.5146 1.6510 10.4271 -8.8552
# 3 38.2113 30.5146 106.2488 -16.5156 25.8073 -0.7773
# 4 -1.5138 1.6510 -16.5156 29.4072 -3.8733 16.2839
# 5 4.5209 10.4271 25.8073 -3.8733 41.1888 -15.4860
# 6 -9.6641 -8.8552 -0.7773 16.2839 -15.4860 34.6920
#
#
#
# Elastic Compliance Matrix: (Units=1/GPa)
#
#
# Indices 1 2 3 4 5 6 
#
# 1 0.021363 -0.006870 -0.009264 -0.009410 0.008982 0.012416
# 2 -0.006870 0.022220 -0.005474 -0.009165 0.000818 0.008303
# 3 -0.009264 -0.005474 0.021662 0.021495 -0.017130 -0.021229
# 4 -0.009410 -0.009165 0.021495 0.068930 -0.021008 -0.046211
# 5 0.008982 0.000818 -0.017130 -0.021008 0.043772 0.031727
# 6 0.012416 0.008303 -0.021229 -0.046211 0.031727 0.069781
#
#
# Mechanical properties :
#
#
# Convention : Reuss Voigt Hill
#
# Bulk Modulus (GPa) = 45.38808 51.33101 48.35955
# Shear Modulus (GPa) = 16.76245 30.83363 23.79804
#
# Velocity S-wave (km/s) = 2.65872 3.60593 3.16793
# Velocity P-wave (km/s) = 5.34467 6.24367 5.81158
#
# Compressibility (1/GPa) = 0.02203222
#
# Stress axis : x y z
#
# Youngs Moduli (GPa) = 46.80965 45.00391 46.16297
#
# Poissons Ratio (x) = 0.30915 0.42763
# Poissons Ratio (y) = 0.32156 0.25269
# Poissons Ratio (z) = 0.43362 0.24634
#
# Static dielectric constant tensor:
#      x y z
#    x 1.957160 -0.015000 -0.030250 
#    y -0.015000 1.926680 -0.046860 
#    z -0.030250 -0.046860 1.926370 
# 
# From -- ./inp_files/138948.got.cif
#   From: 2010.05.17/outbox.cif.g08.bks.cpg/sg2_70_cif.got.tgz:138948.got - 2010.06.03 11:33:40.
