data_PCOD9024865
_publ_section_title
;
Structure prediction by ZEFSAII (Michael W. Deem and Ramdas Pophale) SiO2 
 PCOD9024865
Probable space group: P -1
;
_chemical_formula_sum "Si O2"
_cell_formula_units_Z 16
_cell_length_a 19.802197
_cell_length_b 8.121177
_cell_length_c 17.586027
_cell_angle_alpha 129.654831
_cell_angle_beta 159.389360
_cell_angle_gamma 49.870042
_cell_volume 754.756884
_symmetry_space_group_name_H-M "P -1"
_symmetry_group_IT_number 2
_symmetry_cell_setting 'triclinic'
loop_
_space_group_symop_operation_xyz
x,y,z
-x,-y,-z
loop_
_atom_site_type_symbol
_atom_site_label
_atom_site_fract_x
_atom_site_fract_y
_atom_site_fract_z
Si Si1 0.797046 0.494075 0.533193
Si Si2 0.834004 0.917342 0.596069
Si Si3 0.547685 0.329503 0.676093
Si Si4 0.762314 0.696193 0.052918
Si Si5 0.480713 0.261265 0.049384
Si Si6 0.509481 0.157432 0.883801
Si Si7 0.718216 0.090824 0.937006
Si Si8 0.536689 0.242997 0.470668
O O1 0.826845 0.700360 0.574169
O O2 0.672415 0.586277 0.502806
O O3 0.662565 0.347714 0.304690
O O4 0.008290 0.358291 0.733055
O O5 0.698233 0.904204 0.375938
O O6 0.727516 0.121452 0.592825
O O7 0.054733 0.932773 0.816268
O O8 0.658622 0.199200 0.824967
O O9 0.557495 0.200825 0.570337
O O10 0.653524 0.538010 0.841936
O O11 0.705376 0.651829 0.067861
O O12 0.665167 0.941950 0.004963
O O13 0.479350 0.301754 0.969838
O O14 0.500000 0.000000 0.000000
O O15 0.596447 0.227800 0.916729
O O16 0.637342 0.865650 0.779130
O O17 0.500000 0.500000 0.500000
#
# Coordination Sequence:
#
# PCOD9024865 Si02
#       8
#     2   2   2   2   2   2   2   2
#     4  11  22  40  67  94 126 165 214 257 317 371
#     4  11  24  42  63  93 129 165 209 258 318 371
#     4  11  21  41  66  91 126 165 205 260 314 370
#     4  10  22  40  66  94 124 167 214 256 314 375
#     4   9  22  41  64  92 130 167 210 258 315 370
#     4  10  22  42  62  92 133 164 208 265 306 371
#     4  11  23  40  65  92 126 165 211 255 315 373
#     4  11  25  43  64  94 129 163 209 262 311 374
#
# _framework density 21.198878000000001
#
# number of rings (size 3 to 8) (size 9 to 14) (size 15 to 20)
#    0.000    1.500    3.750    1.875    0.000    9.500 
#    0.000    1.250    0.000    0.000    0.000    0.000 
#    0.000    0.000    0.000    0.000    0.000    0.000 
#
# Total GULP energy -89425.413900 kJ/mol
# GULP energy per Si atom -5589.088369 kJ/mol
# Density = 2.115063 g / cm^3
# Si number density = 21.198878 Si / 1000 Ang^3
#
#
#
# Elastic Constant Matrix: (Units=GPa)
#
#
# Indices 1 2 3 4 5 6 
#
# 1 87.3351 -4.6068 50.7815 2.9943 -10.7909 -16.5510
# 2 -4.6068 79.1830 20.8909 3.6160 4.7426 -0.3929
# 3 50.7815 20.8909 119.6245 -20.5202 30.9788 -30.2407
# 4 2.9943 3.6160 -20.5202 37.4101 -5.5863 -5.2905
# 5 -10.7909 4.7426 30.9788 -5.5863 38.0899 -1.4055
# 6 -16.5510 -0.3929 -30.2407 -5.2905 -1.4055 37.6345
#
#
#
# Elastic Compliance Matrix: (Units=1/GPa)
#
#
# Indices 1 2 3 4 5 6 
#
# 1 0.026717 0.006631 -0.022367 -0.012641 0.022819 -0.007079
# 2 0.006631 0.015548 -0.009985 -0.007307 0.006781 -0.005719
# 3 -0.022367 -0.009985 0.036678 0.021264 -0.031017 0.021363
# 4 -0.012641 -0.007307 0.021264 0.040462 -0.013417 0.016637
# 5 0.022819 0.006781 -0.031017 -0.013417 0.054591 -0.014665
# 6 -0.007079 -0.005719 0.021363 0.016637 -0.014665 0.042355
#
#
# Mechanical properties :
#
#
# Convention : Reuss Voigt Hill
#
# Bulk Modulus (GPa) = 36.36259 46.69707 41.52983
# Shear Modulus (GPa) = 18.05306 37.23206 27.64256
#
# Velocity S-wave (km/s) = 2.92139 4.19540 3.61496
# Velocity P-wave (km/s) = 5.34506 6.74866 6.08745
#
# Compressibility (1/GPa) = 0.02750079
#
# Stress axis : x y z
#
# Youngs Moduli (GPa) = 37.43003 64.31542 27.26394
#
# Poissons Ratio (x) = -0.42646 0.60980
# Poissons Ratio (y) = -0.24819 0.27224
# Poissons Ratio (z) = 0.83718 0.64222
#
# Static dielectric constant tensor:
#      x y z
#    x 1.836530 0.082610 -0.017190 
#    y 0.082610 1.817060 0.007000 
#    z -0.017190 0.007000 1.708130 
# 
# From -- ./inp_files/315481.got.cif
#   From: 2010.05.17/outbox.cif.g08.bks.cpg/sg2_158_cif.got.tgz:315481.got - 2010.06.03 11:33:40.
