data_PCOD9024520
_publ_section_title
;
Structure prediction by ZEFSAII (Michael W. Deem and Ramdas Pophale) SiO2 
 PCOD9024520
Probable space group: P -1
;
_chemical_formula_sum "Si O2"
_cell_formula_units_Z 14
_cell_length_a 18.309652
_cell_length_b 19.907212
_cell_length_c 15.559930
_cell_angle_alpha 158.520706
_cell_angle_beta 159.426590
_cell_angle_gamma 19.994901
_cell_volume 617.689134
_symmetry_space_group_name_H-M "P -1"
_symmetry_group_IT_number 2
_symmetry_cell_setting 'triclinic'
loop_
_space_group_symop_operation_xyz
x,y,z
-x,-y,-z
loop_
_atom_site_type_symbol
_atom_site_label
_atom_site_fract_x
_atom_site_fract_y
_atom_site_fract_z
Si Si1 0.263518 0.727875 0.486975
Si Si2 0.120174 0.784500 0.060258
Si Si3 0.735868 0.873153 0.046864
Si Si4 0.492603 0.629227 0.440700
Si Si5 0.690744 0.988188 0.569858
Si Si6 0.611641 0.167816 0.996302
Si Si7 0.686105 0.691406 0.334009
O O1 0.500000 0.500000 0.500000
O O2 0.301266 0.740181 0.440690
O O3 0.003068 0.751641 0.241709
O O4 0.266895 0.930373 0.772197
O O5 0.340541 0.705277 0.276254
O O6 0.149168 0.928760 0.193612
O O7 0.150107 0.565919 0.795843
O O8 0.866382 0.944745 0.018278
O O9 0.688276 0.702500 0.744882
O O10 0.500000 0.000000 0.000000
O O11 0.607267 0.372509 0.273341
O O12 0.806271 0.812127 0.564077
O O13 0.445952 0.194688 0.587622
O O14 0.604055 0.876317 0.271060
O O15 0.538743 0.232915 0.892254
#
# Coordination Sequence:
#
# PCOD9024520 Si02
#       7
#     2   2   2   2   2   2   2
#     4  10  22  40  65  87 116 159 198 245 301 358
#     4  11  21  37  59  83 119 161 192 245 311 349
#     4   9  21  41  62  91 117 152 197 249 297 360
#     4  10  23  38  54  88 126 144 202 247 286 374
#     4   9  19  39  57  80 120 153 198 258 295 341
#     4   9  21  37  54  86 116 156 200 241 295 367
#     4   8  19  41  52  87 117 143 215 253 277 372
#
# _framework density 22.665123000000001
#
# number of rings (size 3 to 8) (size 9 to 14) (size 15 to 20)
#    0.857    1.714    0.000    0.429    0.000   11.429 
#    5.143    0.000    0.000    0.000    0.000    0.000 
#    0.000    0.000    0.000    0.000    0.000    0.000 
#
# Total GULP energy -78038.950915 kJ/mol
# GULP energy per Si atom -5574.210780 kJ/mol
# Density = 2.261354 g / cm^3
# Si number density = 22.665123 Si / 1000 Ang^3
#
#
#
# Elastic Constant Matrix: (Units=GPa)
#
#
# Indices 1 2 3 4 5 6 
#
# 1 40.8841 -0.3524 26.8292 1.7756 6.0236 1.7626
# 2 -0.3524 131.1649 63.5136 8.2102 4.3104 -14.3003
# 3 26.8292 63.5136 172.8236 20.1877 -2.4118 -12.5869
# 4 1.7756 8.2102 20.1877 39.9338 -7.9802 -2.4738
# 5 6.0236 4.3104 -2.4118 -7.9802 27.8023 4.3668
# 6 1.7626 -14.3003 -12.5869 -2.4738 4.3668 20.6432
#
#
#
# Elastic Compliance Matrix: (Units=1/GPa)
#
#
# Indices 1 2 3 4 5 6 
#
# 1 0.029526 0.002903 -0.005883 -0.000517 -0.007088 -0.002659
# 2 0.002903 0.010189 -0.003787 -0.000699 -0.003550 0.005169
# 3 -0.005883 -0.003787 0.008630 -0.002890 0.001388 0.002501
# 4 -0.000517 -0.000699 -0.002890 0.028268 0.008169 -0.000543
# 5 -0.007088 -0.003550 0.001388 0.008169 0.041917 -0.008896
# 6 -0.002659 0.005169 0.002501 -0.000543 -0.008896 0.055592
#
#
# Mechanical properties :
#
#
# Convention : Reuss Voigt Hill
#
# Bulk Modulus (GPa) = 28.72456 58.31705 43.52081
# Shear Modulus (GPa) = 25.09289 34.66802 29.88045
#
# Velocity S-wave (km/s) = 3.33094 3.91522 3.63484
# Velocity P-wave (km/s) = 5.24352 6.79885 6.07120
#
# Compressibility (1/GPa) = 0.03481341
#
# Stress axis : x y z
#
# Youngs Moduli (GPa) = 33.86802 98.14116 115.86990
#
# Poissons Ratio (x) = -0.28494 0.68165
# Poissons Ratio (y) = -0.09833 0.43878
# Poissons Ratio (z) = 0.19924 0.37164
#
# Static dielectric constant tensor:
#      x y z
#    x 1.878940 0.027750 -0.043660 
#    y 0.027750 1.850230 0.000240 
#    z -0.043660 0.000240 1.907910 
# 
# From -- ./inp_files/578522.got.cif
#   From: 2010.05.17/outbox.cif.g08.bks.cpg/sg2_290_cif.got.tgz:578522.got - 2010.06.03 11:33:40.
