data_PCOD9024316
_publ_section_title
;
Structure prediction by ZEFSAII (Michael W. Deem and Ramdas Pophale) SiO2 
 PCOD9024316
Probable space group: P -1
;
_chemical_formula_sum "Si O2"
_cell_formula_units_Z 13
_cell_length_a 17.409491
_cell_length_b 8.562652
_cell_length_c 13.898656
_cell_angle_alpha 70.380136
_cell_angle_beta 158.420625
_cell_angle_gamma 121.940717
_cell_volume 559.858113
_symmetry_space_group_name_H-M "P -1"
_symmetry_group_IT_number 2
_symmetry_cell_setting 'triclinic'
loop_
_space_group_symop_operation_xyz
x,y,z
-x,-y,-z
loop_
_atom_site_type_symbol
_atom_site_label
_atom_site_fract_x
_atom_site_fract_y
_atom_site_fract_z
Si Si1 0.845736 0.914954 0.735723
Si Si2 0.000000 0.000000 0.500000
Si Si3 0.315033 0.848668 0.080214
Si Si4 0.333394 0.216645 0.102379
Si Si5 0.761478 0.217462 0.218214
Si Si6 0.840240 0.540298 0.735676
Si Si7 0.488656 0.587740 0.068117
O O1 0.575314 0.889586 0.421043
O O2 0.782823 0.691148 0.684737
O O3 0.053061 0.079866 0.860459
O O4 0.000000 0.000000 0.000000
O O5 0.220328 0.180411 0.637947
O O6 0.972192 0.173745 0.476940
O O7 0.343787 0.063869 0.074106
O O8 0.284089 0.776398 0.949930
O O9 0.045267 0.671626 0.859514
O O10 0.417034 0.424957 0.102294
O O11 0.569332 0.315400 0.434729
O O12 0.737200 0.383411 0.204405
O O13 0.500000 0.000000 0.000000
O O14 0.000000 0.500000 0.000000
O O15 0.500000 0.500000 0.000000
#
# Coordination Sequence:
#
# PCOD9024316 Si02
#       7
#     2   1   2   2   2   2   2
#     4  11  25  43  65  95 131 171 217 269 327 391
#     4  10  22  42  62  88 130 166 212 268 318 378
#     4  11  24  43  65  95 133 170 215 270 326 388
#     4  11  24  41  65  97 129 170 220 268 324 390
#     4  10  22  40  64  92 126 168 211 264 321 382
#     4  11  24  42  65  94 129 168 216 272 326 387
#     4  11  24  41  64  95 128 169 217 266 324 388
#
# _framework density 23.22017
#
# number of rings (size 3 to 8) (size 9 to 14) (size 15 to 20)
#    0.000    1.231    0.000    5.538    0.000   17.846 
#    0.000    0.000    0.000    0.000    0.000    0.000 
#    0.000    0.000    0.000    0.000    0.000    0.000 
#
# Total GULP energy -72438.311404 kJ/mol
# GULP energy per Si atom -5572.177800 kJ/mol
# Density = 2.316732 g / cm^3
# Si number density = 23.220170 Si / 1000 Ang^3
#
#
#
# Elastic Constant Matrix: (Units=GPa)
#
#
# Indices 1 2 3 4 5 6 
#
# 1 93.0992 22.7940 -2.7470 -4.1084 21.1319 -25.1721
# 2 22.7940 125.7343 12.7497 -13.8060 23.6408 -18.0130
# 3 -2.7470 12.7497 90.1717 0.3686 24.3326 -16.3846
# 4 -4.1084 -13.8060 0.3686 30.2058 -5.7004 10.0051
# 5 21.1319 23.6408 24.3326 -5.7004 40.0263 -6.6596
# 6 -25.1721 -18.0130 -16.3846 10.0051 -6.6596 52.4928
#
#
#
# Elastic Compliance Matrix: (Units=1/GPa)
#
#
# Indices 1 2 3 4 5 6 
#
# 1 0.015161 -0.000599 0.004530 -0.002633 -0.009485 0.007777
# 2 -0.000599 0.009504 0.000258 0.002723 -0.004744 0.001933
# 3 0.004530 0.000258 0.015435 -0.003705 -0.011400 0.006339
# 4 -0.002633 0.002723 -0.003705 0.037812 0.006102 -0.007917
# 5 -0.009485 -0.004744 -0.011400 0.006102 0.039616 -0.005872
# 6 0.007777 0.001933 0.006339 -0.007917 -0.005872 0.026186
#
#
# Mechanical properties :
#
#
# Convention : Reuss Voigt Hill
#
# Bulk Modulus (GPa) = 20.62791 41.62207 31.12499
# Shear Modulus (GPa) = 33.00446 42.95886 37.98166
#
# Velocity S-wave (km/s) = 3.77420 4.30591 4.04879
# Velocity P-wave (km/s) = 5.28163 6.53337 5.94057
#
# Compressibility (1/GPa) = 0.04847801
#
# Stress axis : x y z
#
# Youngs Moduli (GPa) = 65.95759 105.22097 64.78917
#
# Poissons Ratio (x) = 0.06307 -0.29350
# Poissons Ratio (y) = 0.03954 -0.01674
# Poissons Ratio (z) = -0.29880 -0.02719
#
# Static dielectric constant tensor:
#      x y z
#    x 1.851370 -0.011680 -0.062170 
#    y -0.011680 1.857770 -0.003830 
#    z -0.062170 -0.003830 1.934140 
# 
# From -- ./inp_files/10099.got.cif
#   From: 2010.05.17/outbox.cif.g08.bks.cpg/sg2_6_cif.got.tgz:10099.got - 2010.06.03 11:33:40.
