data_PCOD9024915
_publ_section_title
;
Structure prediction by ZEFSAII (Michael W. Deem and Ramdas Pophale) SiO2 
 PCOD9024915
Probable space group: P -1
;
_chemical_formula_sum "Si O2"
_cell_formula_units_Z 14
_cell_length_a 8.050763
_cell_length_b 11.511338
_cell_length_c 15.262664
_cell_angle_alpha 128.654005
_cell_angle_beta 41.059291
_cell_angle_gamma 141.722690
_cell_volume 573.674825
_symmetry_space_group_name_H-M "P -1"
_symmetry_group_IT_number 2
_symmetry_cell_setting 'triclinic'
loop_
_space_group_symop_operation_xyz
x,y,z
-x,-y,-z
loop_
_atom_site_type_symbol
_atom_site_label
_atom_site_fract_x
_atom_site_fract_y
_atom_site_fract_z
Si Si1 0.275687 0.721424 0.485197
Si Si2 0.582336 0.251400 0.360240
Si Si3 0.905536 0.799494 0.231254
Si Si4 0.289856 0.472144 0.963454
Si Si5 0.084598 0.202009 0.071307
Si Si6 0.817106 0.811955 0.659271
Si Si7 0.854473 0.554109 0.268588
O O1 0.413477 0.788128 0.559728
O O2 0.561929 0.753297 0.331430
O O3 0.000000 0.500000 0.500000
O O4 0.117512 0.814974 0.557258
O O5 0.250768 0.167720 0.404980
O O6 0.792492 0.476755 0.356763
O O7 0.768142 0.186037 0.205165
O O8 0.908568 0.657057 0.101327
O O9 0.930072 0.745049 0.294973
O O10 0.152087 0.021325 0.223431
O O11 0.655292 0.656476 0.891393
O O12 0.260422 0.320970 0.969435
O O13 0.117112 0.541798 0.116844
O O14 0.000000 0.000000 0.000000
O O15 0.490625 0.607854 0.714013
#
# Coordination Sequence:
#
# PCOD9024915 Si02
#       7
#     2   2   2   2   2   2   2
#     4  12  23  44  71  95 134 180 223 275 332 392
#     4   9  23  45  64  98 134 172 226 273 328 398
#     4  12  24  40  69  98 135 177 219 281 330 397
#     4  10  23  40  63 105 129 173 229 265 337 405
#     4  10  22  40  66  95 137 178 217 277 337 386
#     4  10  25  44  65 102 130 176 230 262 343 391
#     4   9  22  44  64  95 135 171 222 274 331 392
#
# _framework density 24.404070999999998
#
# number of rings (size 3 to 8) (size 9 to 14) (size 15 to 20)
#    0.857    0.857    1.429    1.714    4.000    3.429 
#    0.000    1.429    0.000    0.000    0.000    0.000 
#    0.000    0.000    0.000    0.000    0.000    0.000 
#
# Total GULP energy -78181.646062 kJ/mol
# GULP energy per Si atom -5584.403290 kJ/mol
# Density = 2.434853 g / cm^3
# Si number density = 24.404071 Si / 1000 Ang^3
#
#
#
# Elastic Constant Matrix: (Units=GPa)
#
#
# Indices 1 2 3 4 5 6 
#
# 1 132.2926 11.5537 34.4961 6.8787 -13.9427 -9.4942
# 2 11.5537 90.9839 12.8292 22.4620 -1.8151 -26.0321
# 3 34.4961 12.8292 61.0911 7.8894 -19.5349 -3.0293
# 4 6.8787 22.4620 7.8894 26.3702 -1.6822 -6.1459
# 5 -13.9427 -1.8151 -19.5349 -1.6822 39.3212 10.2304
# 6 -9.4942 -26.0321 -3.0293 -6.1459 10.2304 20.5589
#
#
#
# Elastic Compliance Matrix: (Units=1/GPa)
#
#
# Indices 1 2 3 4 5 6 
#
# 1 0.009168 0.001201 -0.005309 -0.000679 -0.000690 0.005113
# 2 0.001201 0.022930 -0.005546 -0.011802 -0.009585 0.030014
# 3 -0.005309 -0.005546 0.024631 -0.003576 0.013491 -0.013627
# 4 -0.000679 -0.011802 -0.003576 0.048964 -0.000194 -0.001051
# 5 -0.000690 -0.009585 0.013491 -0.000194 0.039259 -0.030061
# 6 0.005113 0.030014 -0.013627 -0.001051 -0.030061 0.101642
#
#
# Mechanical properties :
#
#
# Convention : Reuss Voigt Hill
#
# Bulk Modulus (GPa) = 26.72192 44.68061 35.70127
# Shear Modulus (GPa) = 17.96128 32.28267 25.12197
#
# Velocity S-wave (km/s) = 2.71587 3.64103 3.21193
# Velocity P-wave (km/s) = 4.56159 6.00205 5.33070
#
# Compressibility (1/GPa) = 0.03742246
#
# Stress axis : x y z
#
# Youngs Moduli (GPa) = 109.07717 43.61022 40.59885
#
# Poissons Ratio (x) = -0.05238 0.21552
# Poissons Ratio (y) = -0.13101 0.22516
# Poissons Ratio (z) = 0.57904 0.24186
#
# Static dielectric constant tensor:
#      x y z
#    x 2.053140 0.015280 0.049400 
#    y 0.015280 1.948070 0.024570 
#    z 0.049400 0.024570 1.923750 
# 
# From -- ./inp_files/558034.got.cif
#   From: 2010.05.17/outbox.cif.g08.bks.cpg/sg2_280_cif.got.tgz:558034.got - 2010.06.03 11:33:40.
