data_PCOD9024269
_publ_section_title
;
Structure prediction by ZEFSAII (Michael W. Deem and Ramdas Pophale) SiO2 
 PCOD9024269
Probable space group: P -1
;
_chemical_formula_sum "Si O2"
_cell_formula_units_Z 16
_cell_length_a 12.821156
_cell_length_b 5.747619
_cell_length_c 17.649686
_cell_angle_alpha 56.318981
_cell_angle_beta 47.923217
_cell_angle_gamma 43.437222
_cell_volume 657.846327
_symmetry_space_group_name_H-M "P -1"
_symmetry_group_IT_number 2
_symmetry_cell_setting 'triclinic'
loop_
_space_group_symop_operation_xyz
x,y,z
-x,-y,-z
loop_
_atom_site_type_symbol
_atom_site_label
_atom_site_fract_x
_atom_site_fract_y
_atom_site_fract_z
Si Si1 0.400179 0.838827 0.159522
Si Si2 0.304036 0.800847 0.058606
Si Si3 0.609656 0.761249 0.670224
Si Si4 0.838289 0.589804 0.722625
Si Si5 0.776784 0.437730 0.104232
Si Si6 0.129184 0.607667 0.529322
Si Si7 0.581666 0.705443 0.446083
Si Si8 0.865710 0.808866 0.088080
O O1 0.344442 0.964599 0.078757
O O2 0.429123 0.478615 0.224390
O O3 0.580577 0.742882 0.123358
O O4 0.228591 0.116546 0.236673
O O5 0.199043 0.667159 0.174289
O O6 0.500000 0.500000 0.000000
O O7 0.217817 0.964954 0.989858
O O8 0.711072 0.811874 0.675142
O O9 0.741825 0.568894 0.571718
O O10 0.445125 0.087523 0.654215
O O11 0.026291 0.440640 0.627824
O O12 0.816501 0.538663 0.147875
O O13 0.808167 0.072246 0.138075
O O14 0.928857 0.393110 0.985255
O O15 0.232043 0.564188 0.563017
O O16 0.000000 0.000000 0.500000
O O17 0.500000 0.500000 0.500000
O O18 0.500000 0.000000 0.500000
#
# Coordination Sequence:
#
# PCOD9024269 Si02
#       8
#     2   2   2   2   2   2   2   2
#     4  11  23  39  64  97 128 174 224 268 341 395
#     4  11  23  40  63  94 129 172 219 282 329 399
#     4  10  23  42  66  95 136 177 224 272 335 408
#     4  11  24  39  65  98 131 174 227 274 343 400
#     4  10  22  40  64  89 125 170 219 269 329 401
#     4  11  21  43  70  97 135 178 219 284 335 404
#     4  10  23  42  68 100 129 178 227 268 336 403
#     4  10  22  41  63  90 123 171 218 270 334 389
#
# _framework density 24.321788999999999
#
# number of rings (size 3 to 8) (size 9 to 14) (size 15 to 20)
#    0.000    1.500    2.500    1.875    5.250    3.000 
#    0.000    1.250    0.000    0.000    0.000    0.000 
#    0.000    0.000    0.000    0.000    0.000    0.000 
#
# Total GULP energy -89212.204211 kJ/mol
# GULP energy per Si atom -5575.762763 kJ/mol
# Density = 2.426643 g / cm^3
# Si number density = 24.321789 Si / 1000 Ang^3
#
#
#
# Elastic Constant Matrix: (Units=GPa)
#
#
# Indices 1 2 3 4 5 6 
#
# 1 122.0804 22.7181 33.8575 -6.5947 -1.5211 1.5688
# 2 22.7181 70.3696 7.1078 -1.9762 3.3329 1.7813
# 3 33.8575 7.1078 70.1450 1.5346 -16.0864 -9.1526
# 4 -6.5947 -1.9762 1.5346 29.1600 1.0112 -0.9058
# 5 -1.5211 3.3329 -16.0864 1.0112 39.7042 0.3922
# 6 1.5688 1.7813 -9.1526 -0.9058 0.3922 54.3816
#
#
#
# Elastic Compliance Matrix: (Units=1/GPa)
#
#
# Indices 1 2 3 4 5 6 
#
# 1 0.010254 -0.002613 -0.005231 0.002439 -0.001559 -0.001039
# 2 -0.002613 0.015239 -0.000751 0.000523 -0.001692 -0.000529
# 3 -0.005231 -0.000751 0.019088 -0.002401 0.007625 0.003293
# 4 0.002439 0.000523 -0.002401 0.035073 -0.001817 0.000106
# 5 -0.001559 -0.001692 0.007625 -0.001817 0.028393 0.001149
# 6 -0.001039 -0.000529 0.003293 0.000106 0.001149 0.018984
#
#
# Mechanical properties :
#
#
# Convention : Reuss Voigt Hill
#
# Bulk Modulus (GPa) = 36.51047 43.32910 39.91978
# Shear Modulus (GPa) = 32.60486 37.90992 35.25739
#
# Velocity S-wave (km/s) = 3.66534 3.95230 3.81152
# Velocity P-wave (km/s) = 5.74082 6.21942 5.98490
#
# Compressibility (1/GPa) = 0.02738941
#
# Stress axis : x y z
#
# Youngs Moduli (GPa) = 97.52185 65.62325 52.38877
#
# Poissons Ratio (x) = 0.17150 0.27405
# Poissons Ratio (y) = 0.25487 0.03935
# Poissons Ratio (z) = 0.51014 0.04929
#
# Static dielectric constant tensor:
#      x y z
#    x 1.937010 -0.051360 -0.206350 
#    y -0.051360 1.881700 -0.170390 
#    z -0.206350 -0.170390 1.965070 
# 
# From -- ./inp_files/109528.got.cif
#   From: 2010.05.17/outbox.cif.g08.bks.cpg/sg2_55_cif.got.tgz:109528.got - 2010.06.03 11:33:40.
