data_PCOD9024595
_publ_section_title
;
Structure prediction by ZEFSAII (Michael W. Deem and Ramdas Pophale) SiO2 
 PCOD9024595
Probable space group: P -1
;
_chemical_formula_sum "Si O2"
_cell_formula_units_Z 16
_cell_length_a 7.533820
_cell_length_b 16.731282
_cell_length_c 6.481793
_cell_angle_alpha 82.320234
_cell_angle_beta 93.359609
_cell_angle_gamma 126.421269
_cell_volume 651.327434
_symmetry_space_group_name_H-M "P -1"
_symmetry_group_IT_number 2
_symmetry_cell_setting 'triclinic'
loop_
_space_group_symop_operation_xyz
x,y,z
-x,-y,-z
loop_
_atom_site_type_symbol
_atom_site_label
_atom_site_fract_x
_atom_site_fract_y
_atom_site_fract_z
Si Si1 0.696632 0.547914 0.160091
Si Si2 0.297041 0.751426 0.128929
Si Si3 0.741576 0.840498 0.671475
Si Si4 0.030921 0.243907 0.135426
Si Si5 0.493711 0.053831 0.784845
Si Si6 0.172327 0.955368 0.422566
Si Si7 0.722698 0.364454 0.202771
Si Si8 0.952771 0.649317 0.513781
O O1 0.746389 0.466066 0.184105
O O2 0.727771 0.574890 0.397562
O O3 0.500000 0.500000 0.000000
O O4 0.840163 0.657269 0.028925
O O5 0.510857 0.852641 0.197209
O O6 0.136010 0.698040 0.329899
O O7 0.305670 0.673481 0.021823
O O8 0.210875 0.796212 0.943139
O O9 0.866381 0.816701 0.854990
O O10 0.497711 0.734844 0.671939
O O11 0.912238 0.885990 0.473290
O O12 0.742681 0.935514 0.697917
O O13 0.062555 0.277631 0.364590
O O14 0.725248 0.091424 0.678294
O O15 0.296237 0.981890 0.641925
O O16 0.500000 0.000000 0.000000
O O17 0.947727 0.389390 0.306914
#
# Coordination Sequence:
#
# PCOD9024595 Si02
#       8
#     2   2   2   2   2   2   2   2
#     4  11  23  43  64  98 130 168 218 267 320 381
#     4  10  22  40  65  94 123 171 221 263 313 392
#     4  11  21  42  63  92 133 166 205 275 321 371
#     4  10  22  42  65  91 131 168 214 267 320 376
#     4  11  21  42  66  92 124 171 213 265 324 384
#     4  10  24  40  65  95 129 163 217 263 321 395
#     4  11  23  42  66  93 131 170 219 266 318 382
#     4  10  23  42  66  92 126 177 215 263 320 381
#
# _framework density 24.565217000000001
#
# number of rings (size 3 to 8) (size 9 to 14) (size 15 to 20)
#    0.000    1.500    1.250    3.375    0.000   10.000 
#    4.500   15.000    0.000    0.000    0.000    0.000 
#    0.000    0.000    0.000    0.000    0.000    0.000 
#
# Total GULP energy -89210.388406 kJ/mol
# GULP energy per Si atom -5575.649275 kJ/mol
# Density = 2.450931 g / cm^3
# Si number density = 24.565217 Si / 1000 Ang^3
#
#
#
# Elastic Constant Matrix: (Units=GPa)
#
#
# Indices 1 2 3 4 5 6 
#
# 1 54.1212 0.1433 2.0692 -10.5943 13.0918 2.1504
# 2 0.1433 75.1588 7.5001 -21.7341 -5.2652 -11.1473
# 3 2.0692 7.5001 61.1617 8.5291 -4.7401 -4.1447
# 4 -10.5943 -21.7341 8.5291 43.2387 -5.5996 4.6307
# 5 13.0918 -5.2652 -4.7401 -5.5996 28.5922 -8.9422
# 6 2.1504 -11.1473 -4.1447 4.6307 -8.9422 45.9856
#
#
#
# Elastic Compliance Matrix: (Units=1/GPa)
#
#
# Indices 1 2 3 4 5 6 
#
# 1 0.022351 0.000409 -0.002625 0.005213 -0.010761 -0.003800
# 2 0.000409 0.017393 -0.002778 0.009695 0.005731 0.004085
# 3 -0.002625 -0.002778 0.017941 -0.005391 0.003314 0.002254
# 4 0.005213 0.009695 -0.005391 0.030977 0.004368 -0.000649
# 5 -0.010761 0.005731 0.003314 0.004368 0.045688 0.010636
# 6 -0.003800 0.004085 0.002254 -0.000649 0.010636 0.025251
#
#
# Mechanical properties :
#
#
# Convention : Reuss Voigt Hill
#
# Bulk Modulus (GPa) = 20.96531 23.31854 22.14193
# Shear Modulus (GPa) = 26.95623 35.61190 31.28406
#
# Velocity S-wave (km/s) = 3.31620 3.81161 3.57250
# Velocity P-wave (km/s) = 4.81829 5.37441 5.10393
#
# Compressibility (1/GPa) = 0.04769783
#
# Stress axis : x y z
#
# Youngs Moduli (GPa) = 44.74077 57.49592 55.73887
#
# Poissons Ratio (x) = -0.02354 0.14631
# Poissons Ratio (y) = -0.01832 0.15483
# Poissons Ratio (z) = 0.11744 0.15971
#
# Static dielectric constant tensor:
#      x y z
#    x 2.139890 0.149870 0.085400 
#    y 0.149870 2.142610 0.069130 
#    z 0.085400 0.069130 2.052300 
# 
# From -- ./inp_files/47509.got.cif
#   From: 2010.05.17/outbox.cif.g08.bks.cpg/sg2_24_cif.got.tgz:47509.got - 2010.06.03 11:33:40.
