data_PCOD9024423
_publ_section_title
;
Structure prediction by ZEFSAII (Michael W. Deem and Ramdas Pophale) SiO2 
 PCOD9024423
Probable space group: P -1
;
_chemical_formula_sum "Si O2"
_cell_formula_units_Z 12
_cell_length_a 7.163910
_cell_length_b 14.009707
_cell_length_c 7.560345
_cell_angle_alpha 66.427788
_cell_angle_beta 52.564941
_cell_angle_gamma 97.311583
_cell_volume 475.386353
_symmetry_space_group_name_H-M "P -1"
_symmetry_group_IT_number 2
_symmetry_cell_setting 'triclinic'
loop_
_space_group_symop_operation_xyz
x,y,z
-x,-y,-z
loop_
_atom_site_type_symbol
_atom_site_label
_atom_site_fract_x
_atom_site_fract_y
_atom_site_fract_z
Si Si1 0.311627 0.385763 0.312336
Si Si2 0.270836 0.675049 0.678808
Si Si3 0.574963 0.957327 0.809624
Si Si4 0.826538 0.837933 0.651043
Si Si5 0.299801 0.060187 0.704061
Si Si6 0.814459 0.538220 0.324039
O O1 0.519532 0.356138 0.318645
O O2 0.163240 0.276078 0.340804
O O3 0.140502 0.409802 0.541221
O O4 0.500000 0.500000 0.000000
O O5 0.457723 0.817896 0.435336
O O6 0.167510 0.581284 0.643067
O O7 0.021667 0.636246 0.989441
O O8 0.377203 0.957198 0.771977
O O9 0.879839 0.067794 0.514990
O O10 0.600940 0.838138 0.910619
O O11 0.500000 0.000000 0.000000
O O12 0.744766 0.891517 0.491011
O O13 0.000000 0.000000 0.000000
O O14 0.500000 0.500000 0.500000
#
# Coordination Sequence:
#
# PCOD9024423 Si02
#       6
#     2   2   2   2   2   2
#     4  10  22  40  64  96 129 171 219 280 338 397
#     4   9  21  40  64  98 131 173 226 275 331 406
#     4  11  23  42  66  93 134 175 220 280 329 399
#     4  10  24  43  61 100 133 172 227 270 337 406
#     4  11  22  43  69 100 134 181 225 273 346 397
#     4   9  19  40  64  91 129 167 220 273 332 391
#
# _framework density 25.242625
#
# number of rings (size 3 to 8) (size 9 to 14) (size 15 to 20)
#    0.000    2.000    1.667    0.500    0.000    8.667 
#   15.000    0.000    0.000    0.000    0.000    0.000 
#    0.000    0.000    0.000    0.000    0.000    0.000 
#
# Total GULP energy -66960.811130 kJ/mol
# GULP energy per Si atom -5580.067594 kJ/mol
# Density = 2.518517 g / cm^3
# Si number density = 25.242625 Si / 1000 Ang^3
#
#
#
# Elastic Constant Matrix: (Units=GPa)
#
#
# Indices 1 2 3 4 5 6 
#
# 1 71.4339 17.2112 9.9680 2.3471 -7.7608 -6.2460
# 2 17.2112 188.7806 76.4952 17.7830 -5.0375 19.5907
# 3 9.9680 76.4952 129.5852 20.7115 -15.4719 4.5461
# 4 2.3471 17.7830 20.7115 44.0136 4.7755 -1.9457
# 5 -7.7608 -5.0375 -15.4719 4.7755 37.9788 3.3895
# 6 -6.2460 19.5907 4.5461 -1.9457 3.3895 45.3864
#
#
#
# Elastic Compliance Matrix: (Units=1/GPa)
#
#
# Indices 1 2 3 4 5 6 
#
# 1 0.014882 -0.001528 0.000052 -0.000382 0.002686 0.002485
# 2 -0.001528 0.007500 -0.004097 -0.001092 -0.000578 -0.003041
# 3 0.000052 -0.004097 0.011346 -0.004181 0.004604 0.000116
# 4 -0.000382 -0.001092 -0.004181 0.025837 -0.005384 0.002347
# 5 0.002686 -0.000578 0.004604 -0.005384 0.029559 -0.002280
# 6 0.002485 -0.003041 0.000116 0.002347 -0.002280 0.023947
#
#
# Mechanical properties :
#
#
# Convention : Reuss Voigt Hill
#
# Bulk Modulus (GPa) = 44.28769 66.34982 55.31876
# Shear Modulus (GPa) = 37.95254 44.55079 41.25166
#
# Velocity S-wave (km/s) = 3.88172 4.20563 4.04692
# Velocity P-wave (km/s) = 6.13785 7.06576 6.61809
#
# Compressibility (1/GPa) = 0.02257964
#
# Stress axis : x y z
#
# Youngs Moduli (GPa) = 67.19741 133.33729 88.14054
#
# Poissons Ratio (x) = 0.20374 -0.00457
# Poissons Ratio (y) = 0.10268 0.36115
# Poissons Ratio (z) = -0.00348 0.54634
#
# Static dielectric constant tensor:
#      x y z
#    x 1.920580 0.079090 0.074500 
#    y 0.079090 2.286430 0.114020 
#    z 0.074500 0.114020 1.971270 
# 
# From -- ./inp_files/88040.got.cif
#   From: 2010.05.17/outbox.cif.g08.bks.cpg/sg2_45_cif.got.tgz:88040.got - 2010.06.03 11:33:40.
