data_PCOD9024762
_publ_section_title
;
Structure prediction by ZEFSAII (Michael W. Deem and Ramdas Pophale) SiO2 
 PCOD9024762
Probable space group: P -1
;
_chemical_formula_sum "Si O2"
_cell_formula_units_Z 13
_cell_length_a 14.865228
_cell_length_b 8.397496
_cell_length_c 10.291021
_cell_angle_alpha 137.594660
_cell_angle_beta 35.592758
_cell_angle_gamma 126.834720
_cell_volume 504.214917
_symmetry_space_group_name_H-M "P -1"
_symmetry_group_IT_number 2
_symmetry_cell_setting 'triclinic'
loop_
_space_group_symop_operation_xyz
x,y,z
-x,-y,-z
loop_
_atom_site_type_symbol
_atom_site_label
_atom_site_fract_x
_atom_site_fract_y
_atom_site_fract_z
Si Si1 0.714101 0.421983 0.036862
Si Si2 0.000000 0.500000 0.500000
Si Si3 0.055496 0.504845 0.742079
Si Si4 0.377613 0.091612 0.591664
Si Si5 0.583211 0.324189 0.894481
Si Si6 0.289874 0.109503 0.198189
Si Si7 0.857623 0.987384 0.961553
O O1 0.726748 0.437611 0.871674
O O2 0.872945 0.471695 0.952045
O O3 0.685326 0.147983 0.927984
O O4 0.600057 0.642438 0.326524
O O5 0.925618 0.460354 0.414217
O O6 0.987766 0.792613 0.669830
O O7 0.151870 0.266225 0.514781
O O8 0.104491 0.737145 0.902608
O O9 0.373491 0.911769 0.371080
O O10 0.219717 0.080422 0.850924
O O11 0.500000 0.000000 0.500000
O O12 0.500000 0.500000 0.000000
O O13 0.443717 0.264815 0.120451
O O14 0.256664 0.057207 0.052970
#
# Coordination Sequence:
#
# PCOD9024762 Si02
#       7
#     2   1   2   2   2   2   2
#     4  12  27  45  68 105 143 185 231 287 358 411
#     4  10  22  40  66 104 134 174 228 290 340 402
#     4  11  25  42  72 102 143 180 233 288 348 417
#     4  12  24  43  68 101 135 179 237 287 338 413
#     4  12  25  46  73  99 138 186 237 292 340 412
#     4  11  26  46  70 102 143 187 230 289 350 418
#     4  11  23  44  71 103 137 179 236 288 348 406
#
# _framework density 25.782658000000001
#
# number of rings (size 3 to 8) (size 9 to 14) (size 15 to 20)
#    0.000    0.615    4.615    2.308    4.308    3.692 
#    0.000    0.000    0.000    0.000    0.000    0.000 
#    0.000    0.000    0.000    0.000    0.000    0.000 
#
# Total GULP energy -72556.814916 kJ/mol
# GULP energy per Si atom -5581.293455 kJ/mol
# Density = 2.572398 g / cm^3
# Si number density = 25.782658 Si / 1000 Ang^3
#
#
#
# Elastic Constant Matrix: (Units=GPa)
#
#
# Indices 1 2 3 4 5 6 
#
# 1 92.1806 16.7266 52.2394 24.9779 -8.5130 10.4266
# 2 16.7266 77.4831 40.9415 48.8664 -18.6479 3.3495
# 3 52.2394 40.9415 175.6184 61.3086 -9.8732 14.7452
# 4 24.9779 48.8664 61.3086 55.3256 -3.6063 1.0711
# 5 -8.5130 -18.6479 -9.8732 -3.6063 50.0154 15.9317
# 6 10.4266 3.3495 14.7452 1.0711 15.9317 42.0335
#
#
#
# Elastic Compliance Matrix: (Units=1/GPa)
#
#
# Indices 1 2 3 4 5 6 
#
# 1 0.014133 0.003731 -0.001950 -0.007143 0.004359 -0.004589
# 2 0.003731 0.041347 0.006763 -0.044279 0.018122 -0.012333
# 3 -0.001950 0.006763 0.011530 -0.017439 0.004973 -0.005541
# 4 -0.007143 -0.044279 -0.017439 0.078021 -0.021092 0.017424
# 5 0.004359 0.018122 0.004973 -0.021092 0.032006 -0.015864
# 6 -0.004589 -0.012333 -0.005541 0.017424 -0.015864 0.033424
#
#
# Mechanical properties :
#
#
# Convention : Reuss Voigt Hill
#
# Bulk Modulus (GPa) = 11.89077 62.78859 37.33968
# Shear Modulus (GPa) = 22.58291 45.16654 33.87472
#
# Velocity S-wave (km/s) = 2.96276 4.19001 3.62865
# Velocity P-wave (km/s) = 4.04053 6.91478 5.66304
#
# Compressibility (1/GPa) = 0.08409885
#
# Stress axis : x y z
#
# Youngs Moduli (GPa) = 70.75459 24.18567 86.72803
#
# Poissons Ratio (x) = -0.09025 0.16914
# Poissons Ratio (y) = -0.26401 -0.58654
# Poissons Ratio (z) = 0.13799 -0.16357
#
# Static dielectric constant tensor:
#      x y z
#    x 1.980080 0.042250 -0.142010 
#    y 0.042250 2.064590 -0.010060 
#    z -0.142010 -0.010060 1.894010 
# 
# From -- ./inp_files/195272.got.cif
#   From: 2010.05.17/outbox.cif.g08.bks.cpg/sg2_98_cif.got.tgz:195272.got - 2010.06.03 11:33:40.
