data_PCOD9024607
_publ_section_title
;
Structure prediction by ZEFSAII (Michael W. Deem and Ramdas Pophale) SiO2 
 PCOD9024607
Probable space group: P -1
;
_chemical_formula_sum "Si O2"
_cell_formula_units_Z 16
_cell_length_a 13.729321
_cell_length_b 9.593529
_cell_length_c 15.062724
_cell_angle_alpha 122.841798
_cell_angle_beta 150.467024
_cell_angle_gamma 77.355485
_cell_volume 650.558456
_symmetry_space_group_name_H-M "P -1"
_symmetry_group_IT_number 2
_symmetry_cell_setting 'triclinic'
loop_
_space_group_symop_operation_xyz
x,y,z
-x,-y,-z
loop_
_atom_site_type_symbol
_atom_site_label
_atom_site_fract_x
_atom_site_fract_y
_atom_site_fract_z
Si Si1 0.875531 0.084596 0.985835
Si Si2 0.925642 0.539630 0.837959
Si Si3 0.423972 0.758864 0.415381
Si Si4 0.574685 0.330119 0.198791
Si Si5 0.892456 0.285566 0.569993
Si Si6 0.250586 0.474112 0.773795
Si Si7 0.016823 0.009481 0.389189
Si Si8 0.218082 0.196237 0.436823
O O1 0.595007 0.956493 0.684486
O O2 0.045035 0.323388 0.173038
O O3 0.939576 0.079535 0.135599
O O4 0.000000 0.000000 0.000000
O O5 0.685783 0.438800 0.674847
O O6 0.910225 0.357141 0.710749
O O7 0.169105 0.692838 0.145598
O O8 0.600486 0.793481 0.487603
O O9 0.677940 0.258628 0.330735
O O10 0.692044 0.367800 0.205198
O O11 0.664280 0.563960 0.368938
O O12 0.277256 0.173490 0.910180
O O13 0.140284 0.478505 0.781058
O O14 0.881535 0.079531 0.494068
O O15 0.500000 0.500000 0.000000
O O16 0.059615 0.228182 0.512289
O O17 0.175112 0.066214 0.444439
#
# Coordination Sequence:
#
# PCOD9024607 Si02
#       8
#     2   2   2   2   2   2   2   2
#     4  10  22  40  65  94 131 183 230 279 340 404
#     4  11  24  43  65 102 137 178 240 283 343 411
#     4  10  24  42  67  96 138 186 226 290 344 402
#     4  11  24  47  73 106 142 182 236 286 348 420
#     4  12  25  46  75 105 140 185 233 295 347 410
#     4  11  25  50  74 103 146 183 225 291 356 421
#     4  11  26  46  71 106 140 186 234 281 356 418
#     4  10  23  44  68  98 144 183 230 288 343 411
#
# _framework density 24.594253999999999
#
# number of rings (size 3 to 8) (size 9 to 14) (size 15 to 20)
#    0.000    1.250    2.500    1.875    3.500    9.500 
#    4.500    0.000    0.000    0.000    0.000    0.000 
#    0.000    0.000    0.000    0.000    0.000    0.000 
#
# Total GULP energy -89366.569547 kJ/mol
# GULP energy per Si atom -5585.410597 kJ/mol
# Density = 2.453828 g / cm^3
# Si number density = 24.594254 Si / 1000 Ang^3
#
#
#
# Elastic Constant Matrix: (Units=GPa)
#
#
# Indices 1 2 3 4 5 6 
#
# 1 92.0535 8.5395 44.8261 11.3548 24.3230 27.0951
# 2 8.5395 109.9000 54.7792 1.9421 11.2468 13.3518
# 3 44.8261 54.7792 110.4406 -1.5338 9.0036 21.6579
# 4 11.3548 1.9421 -1.5338 25.5645 3.8439 -0.4794
# 5 24.3230 11.2468 9.0036 3.8439 27.5687 7.4955
# 6 27.0951 13.3518 21.6579 -0.4794 7.4955 37.9810
#
#
#
# Elastic Compliance Matrix: (Units=1/GPa)
#
#
# Indices 1 2 3 4 5 6 
#
# 1 0.022983 0.005704 -0.008989 -0.009027 -0.015607 -0.010309
# 2 0.005704 0.013784 -0.008049 -0.003102 -0.006771 -0.003028
# 3 -0.008989 -0.008049 0.016554 0.004751 0.005477 -0.001218
# 4 -0.009027 -0.003102 0.004751 0.043728 0.000127 0.005348
# 5 -0.015607 -0.006771 0.005477 0.000127 0.050904 0.000347
# 6 -0.010309 -0.003028 -0.001218 0.005348 0.000347 0.035441
#
#
# Mechanical properties :
#
#
# Convention : Reuss Voigt Hill
#
# Bulk Modulus (GPa) = 32.62442 58.74263 45.68353
# Shear Modulus (GPa) = 23.11816 31.83947 27.47881
#
# Velocity S-wave (km/s) = 3.06924 3.60194 3.34621
# Velocity P-wave (km/s) = 5.08470 6.42147 5.79178
#
# Compressibility (1/GPa) = 0.03065189
#
# Stress axis : x y z
#
# Youngs Moduli (GPa) = 43.51034 72.54983 60.40855
#
# Poissons Ratio (x) = -0.41381 0.54301
# Poissons Ratio (y) = -0.24818 0.48624
# Poissons Ratio (z) = 0.39111 0.58397
#
# Static dielectric constant tensor:
#      x y z
#    x 1.826370 0.089670 0.026180 
#    y 0.089670 1.921500 -0.045920 
#    z 0.026180 -0.045920 1.934290 
# 
# From -- ./inp_files/43320.got.cif
#   From: 2010.05.17/outbox.cif.g08.bks.cpg/sg2_22_cif.got.tgz:43320.got - 2010.06.03 11:33:40.
