data_PCOD9024976
_publ_section_title
;
Structure prediction by ZEFSAII (Michael W. Deem and Ramdas Pophale) SiO2 
 PCOD9024976
Probable space group: P -1
;
_chemical_formula_sum "Si O2"
_cell_formula_units_Z 14
_cell_length_a 18.408995
_cell_length_b 9.183206
_cell_length_c 5.291541
_cell_angle_alpha 81.410357
_cell_angle_beta 80.341077
_cell_angle_gamma 41.462638
_cell_volume 583.533308
_symmetry_space_group_name_H-M "P -1"
_symmetry_group_IT_number 2
_symmetry_cell_setting 'triclinic'
loop_
_space_group_symop_operation_xyz
x,y,z
-x,-y,-z
loop_
_atom_site_type_symbol
_atom_site_label
_atom_site_fract_x
_atom_site_fract_y
_atom_site_fract_z
Si Si1 0.644409 0.444046 0.814644
Si Si2 0.445905 0.685541 0.269992
Si Si3 0.887024 0.800586 0.255257
Si Si4 0.251619 0.473633 0.967858
Si Si5 0.073467 0.918058 0.728672
Si Si6 0.465111 0.187959 0.630112
Si Si7 0.855535 0.673356 0.800182
O O1 0.657080 0.255771 0.777431
O O2 0.603732 0.600121 0.563454
O O3 0.541099 0.576807 0.034364
O O4 0.742342 0.391208 0.890298
O O5 0.500000 0.500000 0.500000
O O6 0.429891 0.872316 0.333129
O O7 0.880345 0.983862 0.286156
O O8 0.836119 0.784762 0.519854
O O9 0.016826 0.569339 0.221792
O O10 0.841620 0.802259 0.016946
O O11 0.378979 0.265991 0.870820
O O12 0.170274 0.651957 0.750070
O O13 0.209908 0.381953 0.119487
O O14 0.000000 0.000000 0.500000
O O15 0.000000 0.000000 0.000000
O O16 0.500000 0.000000 0.500000
#
# Coordination Sequence:
#
# PCOD9024976 Si02
#       7
#     2   2   2   2   2   2   2
#     4   9  19  38  66  89 130 168 224 278 340 408
#     4   8  16  36  63  92 121 174 208 278 346 401
#     4  10  22  42  65  96 135 180 225 284 354 407
#     4  11  25  40  69 101 132 184 235 289 339 420
#     4  12  26  44  72 104 138 185 235 292 349 416
#     4  10  22  40  66  98 135 176 227 281 348 410
#     4  10  22  40  68  95 135 179 226 286 347 411
#
# _framework density 23.991775000000001
#
# number of rings (size 3 to 8) (size 9 to 14) (size 15 to 20)
#    0.000    2.000    1.429    0.857    8.000    2.286 
#    0.000   10.000    6.286    0.000    0.000    0.000 
#    0.000    0.000    0.000    0.000    0.000    0.000 
#
# Total GULP energy -78184.643281 kJ/mol
# GULP energy per Si atom -5584.617377 kJ/mol
# Density = 2.393717 g / cm^3
# Si number density = 23.991775 Si / 1000 Ang^3
#
#
#
# Elastic Constant Matrix: (Units=GPa)
#
#
# Indices 1 2 3 4 5 6 
#
# 1 221.9410 60.7691 78.6366 -2.4345 -14.4453 51.3504
# 2 60.7691 84.3265 19.1078 0.2784 -10.4659 22.5978
# 3 78.6366 19.1078 128.8180 -8.1001 -19.0018 18.8518
# 4 -2.4345 0.2784 -8.1001 24.9264 8.1243 2.1974
# 5 -14.4453 -10.4659 -19.0018 8.1243 41.7801 -4.1335
# 6 51.3504 22.5978 18.8518 2.1974 -4.1335 42.9945
#
#
#
# Elastic Compliance Matrix: (Units=1/GPa)
#
#
# Indices 1 2 3 4 5 6 
#
# 1 0.008179 -0.003397 -0.003572 0.000363 -0.000358 -0.006470
# 2 -0.003397 0.015606 0.000730 -0.000820 0.002816 -0.004153
# 3 -0.003572 0.000730 0.010524 0.002038 0.003287 -0.000520
# 4 0.000363 -0.000820 0.002038 0.043795 -0.008056 -0.003909
# 5 -0.000358 0.002816 0.003287 -0.008056 0.027635 0.000576
# 6 -0.006470 -0.004153 -0.000520 -0.003909 0.000576 0.033652
#
#
# Mechanical properties :
#
#
# Convention : Reuss Voigt Hill
#
# Bulk Modulus (GPa) = 45.80410 83.56807 64.68608
# Shear Modulus (GPa) = 31.41763 40.37833 35.89798
#
# Velocity S-wave (km/s) = 3.62265 4.10690 3.87235
# Velocity P-wave (km/s) = 6.05237 7.57604 6.85666
#
# Compressibility (1/GPa) = 0.02183211
#
# Stress axis : x y z
#
# Youngs Moduli (GPa) = 122.26402 64.07750 95.01847
#
# Poissons Ratio (x) = 0.21764 0.33943
# Poissons Ratio (y) = 0.41527 -0.06937
# Poissons Ratio (z) = 0.43675 -0.04678
#
# Static dielectric constant tensor:
#      x y z
#    x 1.932160 0.004870 0.034840 
#    y 0.004870 1.974870 0.082650 
#    z 0.034840 0.082650 1.912740 
# 
# From -- ./inp_files/104918.got.cif
#   From: 2010.05.17/outbox.cif.g08.bks.cpg/sg2_53_cif.got.tgz:104918.got - 2010.06.03 11:33:40.
