data_PCOD9024162
_publ_section_title
;
Structure prediction by ZEFSAII (Michael W. Deem and Ramdas Pophale) SiO2 
 PCOD9024162
Probable space group: P -1
;
_chemical_formula_sum "Si O2"
_cell_formula_units_Z 16
_cell_length_a 17.007393
_cell_length_b 12.920931
_cell_length_c 16.205610
_cell_angle_alpha 45.750043
_cell_angle_beta 148.731069
_cell_angle_gamma 156.821613
_cell_volume 656.661263
_symmetry_space_group_name_H-M "P -1"
_symmetry_group_IT_number 2
_symmetry_cell_setting 'triclinic'
loop_
_space_group_symop_operation_xyz
x,y,z
-x,-y,-z
loop_
_atom_site_type_symbol
_atom_site_label
_atom_site_fract_x
_atom_site_fract_y
_atom_site_fract_z
Si Si1 0.105158 0.637125 0.926472
Si Si2 0.510745 0.297508 0.582784
Si Si3 0.696317 0.833481 0.848884
Si Si4 0.016046 0.387129 0.818126
Si Si5 0.197988 0.013353 0.964523
Si Si6 0.640171 0.126381 0.242559
Si Si7 0.629495 0.698694 0.200572
Si Si8 0.511666 0.448887 0.670389
O O1 0.023648 0.478841 0.860573
O O2 0.880832 0.588780 0.745766
O O3 0.000000 0.500000 0.000000
O O4 0.464945 0.947896 0.096647
O O5 0.419130 0.303096 0.581948
O O6 0.441195 0.340784 0.418722
O O7 0.367145 0.019947 0.623861
O O8 0.430967 0.521836 0.742672
O O9 0.676418 0.797768 0.949401
O O10 0.747379 0.045972 0.760332
O O11 0.000000 0.000000 0.000000
O O12 0.050972 0.536903 0.694493
O O13 0.322684 0.542207 0.999914
O O14 0.172476 0.083612 0.819011
O O15 0.422469 0.065794 0.122253
O O16 0.857272 0.682100 0.866154
O O17 0.692188 0.766806 0.315591
#
# Coordination Sequence:
#
# PCOD9024162 Si02
#       8
#     2   2   2   2   2   2   2   2
#     4  10  17  31  53  75 106 148 183 225 276 319
#     4  10  22  36  55  81 114 157 180 224 281 334
#     4  10  18  33  57  87 110 142 181 243 281 315
#     4  10  19  31  54  85 110 136 187 239 271 324
#     4  11  20  36  61  85 112 143 188 236 274 332
#     4  10  20  33  56  84 109 144 192 226 275 328
#     4  10  21  35  59  87 108 147 188 233 285 322
#     4  11  21  40  55  81 122 147 184 226 279 340
#
# _framework density 24.365683000000001
#
# number of rings (size 3 to 8) (size 9 to 14) (size 15 to 20)
#    0.000    1.750    3.750    3.750    0.000    1.000 
#    2.250    1.250    0.000    3.750    0.000    0.000 
#    0.000    0.000    0.000    0.000    0.000    0.000 
#
# Total GULP energy -89249.667953 kJ/mol
# GULP energy per Si atom -5578.104247 kJ/mol
# Density = 2.431023 g / cm^3
# Si number density = 24.365683 Si / 1000 Ang^3
#
#
#
# Elastic Constant Matrix: (Units=GPa)
#
#
# Indices 1 2 3 4 5 6 
#
# 1 101.4200 24.6387 14.8854 -17.4994 -6.8314 -7.0936
# 2 24.6387 96.0098 15.2354 -41.8169 0.1237 8.5293
# 3 14.8854 15.2354 55.7947 -32.5688 3.9731 13.7173
# 4 -17.4994 -41.8169 -32.5688 42.3205 3.2408 -6.2976
# 5 -6.8314 0.1237 3.9731 3.2408 15.3160 -11.3898
# 6 -7.0936 8.5293 13.7173 -6.2976 -11.3898 36.7879
#
#
#
# Elastic Compliance Matrix: (Units=1/GPa)
#
#
# Indices 1 2 3 4 5 6 
#
# 1 0.014868 -0.009366 -0.016281 -0.015181 0.026595 0.016745
# 2 -0.009366 0.036017 0.039352 0.061387 -0.049777 -0.029732
# 3 -0.016281 0.039352 0.092699 0.102097 -0.097508 -0.059540
# 4 -0.015181 0.061387 0.102097 0.155817 -0.114267 -0.063934
# 5 0.026595 -0.049777 -0.097508 -0.114267 0.197355 0.094569
# 6 0.016745 -0.029732 -0.059540 -0.063934 0.094569 0.077841
#
#
# Mechanical properties :
#
#
# Convention : Reuss Voigt Hill
#
# Bulk Modulus (GPa) = 5.84819 40.30483 23.07651
# Shear Modulus (GPa) = 8.27558 32.11588 20.19573
#
# Velocity S-wave (km/s) = 1.84493 3.63447 2.88212
# Velocity P-wave (km/s) = 2.63510 5.84723 4.53508
#
# Compressibility (1/GPa) = 0.17099319
#
# Stress axis : x y z
#
# Youngs Moduli (GPa) = 67.25813 27.76439 10.78755
#
# Poissons Ratio (x) = 0.26004 0.17564
# Poissons Ratio (y) = 0.62994 -0.42451
# Poissons Ratio (z) = 1.09506 -1.09257
#
# Static dielectric constant tensor:
#      x y z
#    x 1.995010 0.027470 0.042240 
#    y 0.027470 2.122030 0.017800 
#    z 0.042240 0.017800 1.963730 
# 
# From -- ./inp_files/521763.got.cif
#   From: 2010.05.17/outbox.cif.g08.bks.cpg/sg2_261_cif.got.tgz:521763.got - 2010.06.03 11:33:40.
