data_PCOD9024056
_publ_section_title
;
Structure prediction by ZEFSAII (Michael W. Deem and Ramdas Pophale) SiO2 
 PCOD9024056
Probable space group: P -1
;
_chemical_formula_sum "Si O2"
_cell_formula_units_Z 13
_cell_length_a 15.318300
_cell_length_b 8.553968
_cell_length_c 18.199139
_cell_angle_alpha 47.131328
_cell_angle_beta 21.549531
_cell_angle_gamma 59.608481
_cell_volume 566.213926
_symmetry_space_group_name_H-M "P -1"
_symmetry_group_IT_number 2
_symmetry_cell_setting 'triclinic'
loop_
_space_group_symop_operation_xyz
x,y,z
-x,-y,-z
loop_
_atom_site_type_symbol
_atom_site_label
_atom_site_fract_x
_atom_site_fract_y
_atom_site_fract_z
Si Si1 0.192229 0.338701 0.267481
Si Si2 0.586976 0.795637 0.991927
Si Si3 0.911463 0.883064 0.856829
Si Si4 0.521301 0.027645 0.353144
Si Si5 0.542914 0.371418 0.356715
Si Si6 0.052510 0.727964 0.185911
Si Si7 0.000000 0.500000 0.500000
O O1 0.230303 0.164166 0.235821
O O2 0.033356 0.313065 0.475165
O O3 0.500000 0.500000 0.000000
O O4 0.099414 0.501844 0.239289
O O5 0.745444 0.794216 0.940505
O O6 0.296952 0.560930 0.284282
O O7 0.500000 0.000000 0.000000
O O8 0.773869 0.647526 0.092388
O O9 0.881148 0.104003 0.846702
O O10 0.226369 0.969004 0.573678
O O11 0.488233 0.787337 0.496351
O O12 0.601855 0.233557 0.287161
O O13 0.742223 0.117889 0.087927
O O14 0.253154 0.353901 0.571849
#
# Coordination Sequence:
#
# PCOD9024056 Si02
#       7
#     2   2   2   2   2   2   1
#     4  10  22  40  63  89 123 164 207 259 314 374
#     4  11  24  41  63  92 124 165 212 260 316 379
#     4  11  23  38  63  96 126 163 215 264 314 379
#     4  10  23  41  63  90 127 168 208 263 322 375
#     4  10  22  42  63  90 127 167 213 262 316 380
#     4  11  23  40  63  94 127 166 212 260 319 381
#     4  10  22  42  62  86 124 164 204 256 312 370
#
# _framework density 22.959520000000001
#
# number of rings (size 3 to 8) (size 9 to 14) (size 15 to 20)
#    0.000    1.538    0.000    4.615    0.000   12.308 
#    0.000    0.000    0.000    0.000    0.000    0.000 
#    0.000    0.000    0.000    0.000    0.000    0.000 
#
# Total GULP energy -72441.363626 kJ/mol
# GULP energy per Si atom -5572.412587 kJ/mol
# Density = 2.290726 g / cm^3
# Si number density = 22.959520 Si / 1000 Ang^3
#
#
#
# Elastic Constant Matrix: (Units=GPa)
#
#
# Indices 1 2 3 4 5 6 
#
# 1 73.9482 11.4137 5.4780 13.7953 -3.2896 16.1960
# 2 11.4137 114.0918 8.0817 18.3150 10.8169 22.4511
# 3 5.4780 8.0817 102.1845 19.2600 10.1810 20.7843
# 4 13.7953 18.3150 19.2600 37.9844 -0.5620 5.7972
# 5 -3.2896 10.8169 10.1810 -0.5620 30.8212 9.2667
# 6 16.1960 22.4511 20.7843 5.7972 9.2667 38.1858
#
#
#
# Elastic Compliance Matrix: (Units=1/GPa)
#
#
# Indices 1 2 3 4 5 6 
#
# 1 0.016273 0.000393 0.001409 -0.005561 0.003402 -0.007881
# 2 0.000393 0.010896 0.001603 -0.005331 -0.002603 -0.006004
# 3 0.001409 0.001603 0.012451 -0.006619 -0.002640 -0.006672
# 4 -0.005561 -0.005331 -0.006619 0.033830 0.003118 0.003203
# 5 0.003402 -0.002603 -0.002640 0.003118 0.037037 -0.007936
# 6 -0.007881 -0.006004 -0.006672 0.003203 -0.007936 0.038132
#
#
# Mechanical properties :
#
#
# Convention : Reuss Voigt Hill
#
# Bulk Modulus (GPa) = 21.53784 37.79683 29.66733
# Shear Modulus (GPa) = 31.78914 39.08168 35.43541
#
# Velocity S-wave (km/s) = 3.72502 4.13025 3.93286
# Velocity P-wave (km/s) = 5.28225 6.26445 5.79420
#
# Compressibility (1/GPa) = 0.04642992
#
# Stress axis : x y z
#
# Youngs Moduli (GPa) = 61.45253 91.77494 80.31169
#
# Poissons Ratio (x) = -0.03610 -0.11314
# Poissons Ratio (y) = -0.02417 -0.12872
# Poissons Ratio (z) = -0.08657 -0.14709
#
# Static dielectric constant tensor:
#      x y z
#    x 1.789190 -0.011250 0.024990 
#    y -0.011250 1.865630 -0.087340 
#    z 0.024990 -0.087340 1.857050 
# 
# From -- ./inp_files/45654.got.cif
#   From: 2010.05.17/outbox.cif.g08.bks.cpg/sg2_23_cif.got.tgz:45654.got - 2010.06.03 11:33:40.
