data_PCOD9024616
_publ_section_title
;
Structure prediction by ZEFSAII (Michael W. Deem and Ramdas Pophale) SiO2 
 PCOD9024616
Probable space group: P -1
;
_chemical_formula_sum "Si O2"
_cell_formula_units_Z 16
_cell_length_a 13.036134
_cell_length_b 19.434307
_cell_length_c 9.643688
_cell_angle_alpha 135.445509
_cell_angle_beta 58.449844
_cell_angle_gamma 154.294485
_cell_volume 684.479319
_symmetry_space_group_name_H-M "P -1"
_symmetry_group_IT_number 2
_symmetry_cell_setting 'triclinic'
loop_
_space_group_symop_operation_xyz
x,y,z
-x,-y,-z
loop_
_atom_site_type_symbol
_atom_site_label
_atom_site_fract_x
_atom_site_fract_y
_atom_site_fract_z
Si Si1 0.576011 0.347202 0.381305
Si Si2 0.020615 0.371050 0.719925
Si Si3 0.020011 0.984608 0.121035
Si Si4 0.008422 0.103853 0.548882
Si Si5 0.773048 0.286793 0.264679
Si Si6 0.439583 0.488152 0.181660
Si Si7 0.836596 0.449078 0.844878
Si Si8 0.605197 0.963048 0.605590
O O1 0.304966 0.165274 0.234474
O O2 0.627642 0.271194 0.269090
O O3 0.584943 0.416673 0.616319
O O4 0.804158 0.549698 0.409517
O O5 0.931230 0.410343 0.775486
O O6 0.767472 0.137477 0.625210
O O7 0.193824 0.512855 0.938141
O O8 0.932012 0.011420 0.318809
O O9 0.000000 0.000000 0.000000
O O10 0.823819 0.754582 0.947601
O O11 0.297921 0.352949 0.696832
O O12 0.811944 0.043603 0.652446
O O13 0.000000 0.000000 0.500000
O O14 0.000000 0.500000 0.500000
O O15 0.934283 0.343949 0.117334
O O16 0.571399 0.101586 0.255031
O O17 0.500000 0.500000 0.000000
O O18 0.589565 0.250004 0.642067
#
# Coordination Sequence:
#
# PCOD9024616 Si02
#       8
#     2   2   2   2   2   2   2   2
#     4  10  24  43  64  93 136 166 213 268 327 383
#     4  10  22  40  65  95 125 164 212 259 321 391
#     4  11  26  41  65  94 134 171 214 271 323 382
#     4  11  24  43  62  95 134 168 220 275 314 385
#     4   9  20  42  63  92 128 167 208 270 319 381
#     4  11  24  43  67  91 127 174 218 261 329 383
#     4   9  21  42  62  91 130 163 202 267 324 380
#     4  11  22  36  69  90 123 166 216 256 322 377
#
# _framework density 23.375433000000001
#
# number of rings (size 3 to 8) (size 9 to 14) (size 15 to 20)
#    0.000    1.750    1.250    1.875    5.250    1.500 
#    2.250    6.250    0.000    0.000    0.000    0.000 
#    0.000    0.000    0.000    0.000    0.000    0.000 
#
# Total GULP energy -89386.431525 kJ/mol
# GULP energy per Si atom -5586.651970 kJ/mol
# Density = 2.332223 g / cm^3
# Si number density = 23.375433 Si / 1000 Ang^3
#
#
#
# Elastic Constant Matrix: (Units=GPa)
#
#
# Indices 1 2 3 4 5 6 
#
# 1 52.1651 20.5148 21.1372 -1.0319 7.5168 3.8869
# 2 20.5148 152.3001 35.2578 2.5355 -1.1905 -10.7155
# 3 21.1372 35.2578 98.8151 -2.7707 2.1226 -9.1959
# 4 -1.0319 2.5355 -2.7707 53.5021 -0.3516 1.1425
# 5 7.5168 -1.1905 2.1226 -0.3516 22.4797 -3.3353
# 6 3.8869 -10.7155 -9.1959 1.1425 -3.3353 23.8801
#
#
#
# Elastic Compliance Matrix: (Units=1/GPa)
#
#
# Indices 1 2 3 4 5 6 
#
# 1 0.024110 -0.002817 -0.004717 0.000472 -0.008987 -0.008283
# 2 -0.002817 0.007647 -0.001861 -0.000574 0.002030 0.003484
# 3 -0.004717 -0.001861 0.012229 0.000536 0.001039 0.004761
# 4 0.000472 -0.000574 0.000536 0.018776 -0.000100 -0.001040
# 5 -0.008987 0.002030 0.001039 -0.000100 0.048924 0.009612
# 6 -0.008283 0.003484 0.004761 -0.001040 0.009612 0.048013
#
#
# Mechanical properties :
#
#
# Convention : Reuss Voigt Hill
#
# Bulk Modulus (GPa) = 39.68837 50.78889 45.23863
# Shear Modulus (GPa) = 26.75397 35.06372 30.90885
#
# Velocity S-wave (km/s) = 3.38677 3.87722 3.64026
# Velocity P-wave (km/s) = 5.68411 6.46671 6.08800
#
# Compressibility (1/GPa) = 0.02519630
#
# Stress axis : x y z
#
# Youngs Moduli (GPa) = 41.47589 130.77259 81.77388
#
# Poissons Ratio (x) = 0.36833 0.38572
# Poissons Ratio (y) = 0.11682 0.15222
# Poissons Ratio (z) = 0.19564 0.24343
#
# Static dielectric constant tensor:
#      x y z
#    x 1.847360 -0.127320 0.026090 
#    y -0.127320 1.580350 0.155910 
#    z 0.026090 0.155910 1.818360 
# 
# From -- ./inp_files/319433.got.cif
#   From: 2010.05.17/outbox.cif.g08.bks.cpg/sg2_160_cif.got.tgz:319433.got - 2010.06.03 11:33:40.
