data_PCOD9024930
_publ_section_title
;
Structure prediction by ZEFSAII (Michael W. Deem and Ramdas Pophale) SiO2 
 PCOD9024930
Probable space group: P -1
;
_chemical_formula_sum "Si O2"
_cell_formula_units_Z 15
_cell_length_a 6.491531
_cell_length_b 7.691747
_cell_length_c 21.148115
_cell_angle_alpha 123.428041
_cell_angle_beta 130.339022
_cell_angle_gamma 88.064084
_cell_volume 578.814939
_symmetry_space_group_name_H-M "P -1"
_symmetry_group_IT_number 2
_symmetry_cell_setting 'triclinic'
loop_
_space_group_symop_operation_xyz
x,y,z
-x,-y,-z
loop_
_atom_site_type_symbol
_atom_site_label
_atom_site_fract_x
_atom_site_fract_y
_atom_site_fract_z
Si Si1 0.675228 0.469306 0.155844
Si Si2 0.535723 0.675171 0.463124
Si Si3 0.318405 0.656694 0.055481
Si Si4 0.119617 0.275511 0.098691
Si Si5 0.000000 0.500000 0.500000
Si Si6 0.596393 0.996362 0.751358
Si Si7 0.385489 0.883462 0.360730
Si Si8 0.976139 0.774625 0.789800
O O1 0.518566 0.527207 0.076953
O O2 0.433056 0.445064 0.156765
O O3 0.026268 0.698842 0.272715
O O4 0.714567 0.237941 0.134367
O O5 0.826916 0.640138 0.522353
O O6 0.581917 0.814043 0.432935
O O7 0.209933 0.422124 0.340601
O O8 0.519300 0.844376 0.547348
O O9 0.465294 0.901176 0.176014
O O10 0.000000 0.500000 0.000000
O O11 0.172302 0.686736 0.967879
O O12 0.196706 0.316078 0.195265
O O13 0.000000 0.000000 0.000000
O O14 0.659644 0.282687 0.363192
O O15 0.935519 0.006180 0.817866
O O16 0.579551 0.123581 0.708842
#
# Coordination Sequence:
#
# PCOD9024930 Si02
#       8
#     2   2   2   2   1   2   2   2
#     4  10  24  42  67  99 127 173 220 264 338 383
#     4   9  21  43  60  98 128 168 217 263 324 394
#     4  10  23  42  65  98 133 169 225 266 325 392
#     4  11  23  45  67  92 135 171 216 280 317 390
#     4  10  22  40  66  96 130 168 218 262 336 386
#     4  11  23  44  66  99 134 173 219 272 327 395
#     4  10  22  43  66  93 136 168 214 275 321 396
#     4  10  23  44  66  97 133 171 221 267 324 392
#
# _framework density 25.915019000000001
#
# number of rings (size 3 to 8) (size 9 to 14) (size 15 to 20)
#    0.000    1.867    1.333    0.800    7.467    4.800 
#   21.600    0.000    0.000    0.000    0.000    0.000 
#    0.000    0.000    0.000    0.000    0.000    0.000 
#
# Total GULP energy -83549.418531 kJ/mol
# GULP energy per Si atom -5569.961235 kJ/mol
# Density = 2.585604 g / cm^3
# Si number density = 25.915019 Si / 1000 Ang^3
#
#
#
# Elastic Constant Matrix: (Units=GPa)
#
#
# Indices 1 2 3 4 5 6 
#
# 1 59.5501 31.4558 26.2095 -10.5451 -6.3037 -13.9918
# 2 31.4558 95.8207 20.1289 -29.6298 3.9602 -20.9553
# 3 26.2095 20.1289 110.6495 9.2093 -1.6194 1.2247
# 4 -10.5451 -29.6298 9.2093 43.9821 -4.7924 -6.0101
# 5 -6.3037 3.9602 -1.6194 -4.7924 25.9198 -6.9261
# 6 -13.9918 -20.9553 1.2247 -6.0101 -6.9261 53.3745
#
#
#
# Elastic Compliance Matrix: (Units=1/GPa)
#
#
# Indices 1 2 3 4 5 6 
#
# 1 0.025260 -0.003795 -0.005795 0.006746 0.009549 0.007263
# 2 -0.003795 0.018217 -0.003595 0.013249 0.000606 0.007810
# 3 -0.005795 -0.003595 0.011668 -0.007132 -0.002609 -0.004340
# 4 0.006746 0.013249 -0.007132 0.037525 0.009473 0.012588
# 5 0.009549 0.000606 -0.002609 0.009473 0.044992 0.009706
# 6 0.007263 0.007810 -0.004340 0.012588 0.009706 0.026482
#
#
# Mechanical properties :
#
#
# Convention : Reuss Voigt Hill
#
# Bulk Modulus (GPa) = 34.75389 46.84540 40.79965
# Shear Modulus (GPa) = 24.98678 37.20371 31.09524
#
# Velocity S-wave (km/s) = 3.10850 3.79305 3.46770
# Velocity P-wave (km/s) = 5.13064 6.10727 5.64013
#
# Compressibility (1/GPa) = 0.02877376
#
# Stress axis : x y z
#
# Youngs Moduli (GPa) = 39.58866 54.89383 85.70688
#
# Poissons Ratio (x) = 0.20833 0.49667
# Poissons Ratio (y) = 0.15024 0.30814
# Poissons Ratio (z) = 0.22942 0.19736
#
# Static dielectric constant tensor:
#      x y z
#    x 1.984710 -0.006460 -0.189150 
#    y -0.006460 2.165300 0.108500 
#    z -0.189150 0.108500 2.123790 
# 
# From -- ./inp_files/603879.got.cif
#   From: 2010.05.17/outbox.cif.g08.bks.cpg/sg2_302_cif.got.tgz:603879.got - 2010.06.03 11:33:40.
