data_PCOD9024275
_publ_section_title
;
Structure prediction by ZEFSAII (Michael W. Deem and Ramdas Pophale) SiO2 
 PCOD9024275
Probable space group: P -1
;
_chemical_formula_sum "Si O2"
_cell_formula_units_Z 16
_cell_length_a 16.212341
_cell_length_b 5.471917
_cell_length_c 10.645510
_cell_angle_alpha 85.400206
_cell_angle_beta 66.930394
_cell_angle_gamma 127.036162
_cell_volume 625.996225
_symmetry_space_group_name_H-M "P -1"
_symmetry_group_IT_number 2
_symmetry_cell_setting 'triclinic'
loop_
_space_group_symop_operation_xyz
x,y,z
-x,-y,-z
loop_
_atom_site_type_symbol
_atom_site_label
_atom_site_fract_x
_atom_site_fract_y
_atom_site_fract_z
Si Si1 0.737412 0.511577 0.388511
Si Si2 0.000682 0.257993 0.792516
Si Si3 0.778824 0.706877 0.072818
Si Si4 0.360377 0.168417 0.560929
Si Si5 0.676084 0.012337 0.126622
Si Si6 0.541657 0.338581 0.900420
Si Si7 0.994738 0.667536 0.615002
Si Si8 0.173896 0.252712 0.308769
O O1 0.718512 0.546040 0.251097
O O2 0.701147 0.702872 0.463534
O O3 0.875923 0.664365 0.298218
O O4 0.654679 0.117423 0.492648
O O5 0.024439 0.585944 0.730216
O O6 0.904319 0.001273 0.751111
O O7 0.923764 0.053009 0.971574
O O8 0.751077 0.399609 0.031902
O O9 0.717191 0.834384 0.048087
O O10 0.500000 0.500000 0.500000
O O11 0.300337 0.987812 0.739721
O O12 0.535126 0.786665 0.178763
O O13 0.688242 0.585841 0.781969
O O14 0.500000 0.500000 0.000000
O O15 0.500000 0.000000 0.000000
O O16 0.000000 0.500000 0.500000
O O17 0.856605 0.517756 0.700192
O O18 0.101042 0.056394 0.490057
#
# Coordination Sequence:
#
# PCOD9024275 Si02
#       8
#     2   2   2   2   2   2   2   2
#     4  10  23  39  63  97 125 158 210 256 314 387
#     4  11  22  37  65  92 123 167 210 253 330 372
#     4  10  22  40  64  89 133 159 203 265 317 378
#     4  10  22  43  65  89 126 164 209 261 313 378
#     4  10  22  42  60  92 124 170 207 262 322 370
#     4  12  26  41  66  99 127 170 223 264 322 389
#     4   9  22  42  61  87 126 173 214 266 323 376
#     4  10  23  42  63  90 136 166 217 271 322 377
#
# _framework density 25.559259000000001
#
# number of rings (size 3 to 8) (size 9 to 14) (size 15 to 20)
#    0.000    1.750    0.000    3.000    8.750    1.000 
#    4.500    3.750    0.000    0.000    0.000    0.000 
#    0.000    0.000    0.000    0.000    0.000    0.000 
#
# Total GULP energy -89336.733539 kJ/mol
# GULP energy per Si atom -5583.545846 kJ/mol
# Density = 2.550109 g / cm^3
# Si number density = 25.559259 Si / 1000 Ang^3
#
#
#
# Elastic Constant Matrix: (Units=GPa)
#
#
# Indices 1 2 3 4 5 6 
#
# 1 197.6460 56.0092 32.6798 -20.6382 -26.5730 -32.4537
# 2 56.0092 75.0514 29.6461 -18.7971 6.3818 -36.9706
# 3 32.6798 29.6461 70.9028 -17.1520 -18.0115 -21.4852
# 4 -20.6382 -18.7971 -17.1520 39.6187 5.2254 5.7516
# 5 -26.5730 6.3818 -18.0115 5.2254 36.8716 -7.4157
# 6 -32.4537 -36.9706 -21.4852 5.7516 -7.4157 52.9183
#
#
#
# Elastic Compliance Matrix: (Units=1/GPa)
#
#
# Indices 1 2 3 4 5 6 
#
# 1 0.008035 -0.005965 0.001791 0.000691 0.008113 0.002550
# 2 -0.005965 0.028985 -0.007082 0.007466 -0.011564 0.011285
# 3 0.001791 -0.007082 0.023254 0.004672 0.014649 0.007137
# 4 0.000691 0.007466 0.004672 0.030879 -0.002107 0.003885
# 5 0.008113 -0.011564 0.014649 -0.002107 0.044291 0.009280
# 6 0.002550 0.011285 0.007137 0.003885 0.009280 0.032120
#
#
# Mechanical properties :
#
#
# Convention : Reuss Voigt Hill
#
# Bulk Modulus (GPa) = 26.48126 64.47449 45.47788
# Shear Modulus (GPa) = 24.67137 40.89940 32.78538
#
# Velocity S-wave (km/s) = 3.11024 4.00456 3.58539
# Velocity P-wave (km/s) = 4.82507 6.83098 5.91370
#
# Compressibility (1/GPa) = 0.03776255
#
# Stress axis : x y z
#
# Youngs Moduli (GPa) = 124.44938 34.50029 43.00412
#
# Poissons Ratio (x) = 0.20580 -0.07704
# Poissons Ratio (y) = 0.74235 0.30456
# Poissons Ratio (z) = -0.22294 0.24433
#
# Static dielectric constant tensor:
#      x y z
#    x 2.029810 -0.061170 0.046050 
#    y -0.061170 2.159660 -0.032280 
#    z 0.046050 -0.032280 2.063540 
# 
# From -- ./inp_files/80892.got.cif
#   From: 2010.05.17/outbox.cif.g08.bks.cpg/sg2_41_cif.got.tgz:80892.got - 2010.06.03 11:33:40.
