data_PCOD9024792
_publ_section_title
;
Structure prediction by ZEFSAII (Michael W. Deem and Ramdas Pophale) SiO2 
 PCOD9024792
Probable space group: P -1
;
_chemical_formula_sum "Si O2"
_cell_formula_units_Z 15
_cell_length_a 9.156747
_cell_length_b 20.825841
_cell_length_c 6.574951
_cell_angle_alpha 66.416270
_cell_angle_beta 130.855886
_cell_angle_gamma 133.193801
_cell_volume 688.791618
_symmetry_space_group_name_H-M "P -1"
_symmetry_group_IT_number 2
_symmetry_cell_setting 'triclinic'
loop_
_space_group_symop_operation_xyz
x,y,z
-x,-y,-z
loop_
_atom_site_type_symbol
_atom_site_label
_atom_site_fract_x
_atom_site_fract_y
_atom_site_fract_z
Si Si1 0.690191 0.794552 0.046490
Si Si2 0.248996 0.331965 0.213295
Si Si3 0.643428 0.381403 0.228384
Si Si4 0.500000 0.500000 0.500000
Si Si5 0.824365 0.080240 0.917585
Si Si6 0.830411 0.565810 0.304604
Si Si7 0.935441 0.144944 0.350245
Si Si8 0.472612 0.894462 0.655630
O O1 0.834406 0.832008 0.341656
O O2 0.907913 0.842170 0.019613
O O3 0.526919 0.688531 0.012687
O O4 0.521619 0.823592 0.808480
O O5 0.484318 0.340129 0.341299
O O6 0.321009 0.399245 0.374864
O O7 0.033054 0.234407 0.207385
O O8 0.182197 0.364637 0.915712
O O9 0.720235 0.480191 0.163588
O O10 0.893539 0.394812 0.450435
O O11 0.676125 0.530160 0.415262
O O12 0.638163 0.101653 0.661197
O O13 0.719778 0.990402 0.814893
O O14 0.837589 0.071893 0.180393
O O15 0.726149 0.122434 0.341725
#
# Coordination Sequence:
#
# PCOD9024792 Si02
#       8
#     2   2   2   1   2   2   2   2
#     4  11  24  39  65  97 131 165 213 268 315 384
#     4  11  24  41  64  90 130 168 207 264 318 368
#     4  10  22  43  61  92 129 162 215 257 317 373
#     4  10  22  40  66  90 118 166 214 258 314 368
#     4  10  22  46  65  93 130 167 212 266 321 385
#     4  10  24  43  65  90 125 174 209 266 313 375
#     4  11  25  39  65  98 129 168 214 265 314 383
#     4  10  24  42  69  94 126 171 213 261 325 380
#
# _framework density 21.777270000000001
#
# number of rings (size 3 to 8) (size 9 to 14) (size 15 to 20)
#    0.000    1.600    1.333    2.400    7.467    2.667 
#    0.000    4.000    0.000    0.000    0.000    0.000 
#    0.000    0.000    0.000    0.000    0.000    0.000 
#
# Total GULP energy -83577.765584 kJ/mol
# GULP energy per Si atom -5571.851039 kJ/mol
# Density = 2.172770 g / cm^3
# Si number density = 21.777270 Si / 1000 Ang^3
#
#
#
# Elastic Constant Matrix: (Units=GPa)
#
#
# Indices 1 2 3 4 5 6 
#
# 1 72.9959 11.6293 39.8977 -3.3218 9.5757 2.6368
# 2 11.6293 64.1884 4.5665 -0.3032 2.5367 11.5618
# 3 39.8977 4.5665 75.8831 10.5298 -3.9085 -12.6083
# 4 -3.3218 -0.3032 10.5298 35.1380 -1.4277 0.5544
# 5 9.5757 2.5367 -3.9085 -1.4277 22.2956 7.1634
# 6 2.6368 11.5618 -12.6083 0.5544 7.1634 31.3616
#
#
#
# Elastic Compliance Matrix: (Units=1/GPa)
#
#
# Indices 1 2 3 4 5 6 
#
# 1 0.023887 -0.001958 -0.014670 0.006282 -0.010643 -0.004864
# 2 -0.001958 0.017220 -0.001165 0.000458 0.000914 -0.006869
# 3 -0.014670 -0.001165 0.024150 -0.008509 0.006928 0.009940
# 4 0.006282 0.000458 -0.008509 0.031647 -0.000769 -0.004502
# 5 -0.010643 0.000914 0.006928 -0.000769 0.053319 -0.008822
# 6 -0.004864 -0.006869 0.009940 -0.004502 -0.008822 0.040918
#
#
# Mechanical properties :
#
#
# Convention : Reuss Voigt Hill
#
# Bulk Modulus (GPa) = 33.70015 36.13938 34.91977
# Shear Modulus (GPa) = 21.13127 28.22395 24.67761
#
# Velocity S-wave (km/s) = 3.11840 3.60394 3.36993
# Velocity P-wave (km/s) = 5.33614 5.82657 5.58674
#
# Compressibility (1/GPa) = 0.02967345
#
# Stress axis : x y z
#
# Youngs Moduli (GPa) = 41.86376 58.07217 41.40719
#
# Poissons Ratio (x) = 0.11368 0.60742
# Poissons Ratio (y) = 0.08195 0.04823
# Poissons Ratio (z) = 0.61412 0.06764
#
# Static dielectric constant tensor:
#      x y z
#    x 1.772720 -0.008840 -0.019620 
#    y -0.008840 1.853830 -0.005410 
#    z -0.019620 -0.005410 1.860810 
# 
# From -- ./inp_files/52986.got.cif
#   From: 2010.05.17/outbox.cif.g08.bks.cpg/sg2_27_cif.got.tgz:52986.got - 2010.06.03 11:33:40.
