data_PCOD9024742
_publ_section_title
;
Structure prediction by ZEFSAII (Michael W. Deem and Ramdas Pophale) SiO2 
 PCOD9024742
Probable space group: P -1
;
_chemical_formula_sum "Si O2"
_cell_formula_units_Z 16
_cell_length_a 11.896503
_cell_length_b 11.052405
_cell_length_c 5.191374
_cell_angle_alpha 90.013627
_cell_angle_beta 92.689942
_cell_angle_gamma 62.751703
_cell_volume 605.999191
_symmetry_space_group_name_H-M "P -1"
_symmetry_group_IT_number 2
_symmetry_cell_setting 'triclinic'
loop_
_space_group_symop_operation_xyz
x,y,z
-x,-y,-z
loop_
_atom_site_type_symbol
_atom_site_label
_atom_site_fract_x
_atom_site_fract_y
_atom_site_fract_z
Si Si1 0.377443 0.501626 0.240723
Si Si2 0.833577 0.321091 0.439931
Si Si3 0.977882 0.927084 0.247242
Si Si4 0.273825 0.326221 0.029599
Si Si5 0.958271 0.619979 0.707312
Si Si6 0.244978 0.131384 0.616029
Si Si7 0.483424 0.905657 0.786166
Si Si8 0.633393 0.282402 0.135338
O O1 0.275430 0.540844 0.452893
O O2 0.329955 0.432391 0.012840
O O3 0.521406 0.393107 0.302898
O O4 0.370947 0.638130 0.123786
O O5 0.764102 0.245416 0.289422
O O6 0.917866 0.229250 0.685236
O O7 0.921609 0.352553 0.256676
O O8 0.843630 0.922468 0.241070
O O9 0.000000 0.000000 0.500000
O O10 0.000000 0.000000 0.000000
O O11 0.126304 0.405164 0.089684
O O12 0.377227 0.219152 0.245686
O O13 0.275598 0.232903 0.794878
O O14 0.851078 0.770547 0.605678
O O15 0.000000 0.500000 0.500000
O O16 0.380489 0.002686 0.565318
O O17 0.406164 0.834194 0.909946
O O18 0.500000 0.000000 0.000000
#
# Coordination Sequence:
#
# PCOD9024742 Si02
#       8
#     2   2   2   2   2   2   2   2
#     4  10  22  40  66 102 133 183 226 295 359 430
#     4  11  24  40  67  96 136 183 235 290 359 422
#     4  11  27  46  69 101 145 191 242 297 361 433
#     4  10  22  42  68  94 135 177 231 291 356 423
#     4  11  24  41  60  96 136 180 230 284 345 427
#     4  10  24  41  67  97 132 179 233 287 354 423
#     4   9  20  44  68  96 128 171 231 293 359 428
#     4  10  22  41  68  98 139 171 236 291 360 430
#
# _framework density 26.402674999999999
#
# number of rings (size 3 to 8) (size 9 to 14) (size 15 to 20)
#    0.000    1.750    1.250    1.125    8.750    2.000 
#    0.000    0.000    0.000    0.000    0.000    0.000 
#    0.000    0.000    0.000    0.000    0.000    0.000 
#
# Total GULP energy -89493.139360 kJ/mol
# GULP energy per Si atom -5593.321210 kJ/mol
# Density = 2.634258 g / cm^3
# Si number density = 26.402675 Si / 1000 Ang^3
#
#
#
# Elastic Constant Matrix: (Units=GPa)
#
#
# Indices 1 2 3 4 5 6 
#
# 1 193.3604 51.3874 29.9912 -1.6499 14.7404 -8.4307
# 2 51.3874 91.8210 21.9257 -11.9681 3.6924 -8.8267
# 3 29.9912 21.9257 79.7074 -7.4581 -0.5780 0.9925
# 4 -1.6499 -11.9681 -7.4581 44.6177 0.5510 7.3511
# 5 14.7404 3.6924 -0.5780 0.5510 35.0266 0.3935
# 6 -8.4307 -8.8267 0.9925 7.3511 0.3935 74.9109
#
#
#
# Elastic Compliance Matrix: (Units=1/GPa)
#
#
# Indices 1 2 3 4 5 6 
#
# 1 0.006479 -0.003209 -0.001667 -0.000949 -0.002406 0.000479
# 2 -0.003209 0.013733 -0.002301 0.003019 -0.000194 0.000992
# 3 -0.001667 -0.002301 0.013992 0.001781 0.001157 -0.000825
# 4 -0.000949 0.003019 0.001781 0.023836 -0.000241 -0.002112
# 5 -0.002406 -0.000194 0.001157 -0.000241 0.029611 -0.000441
# 6 0.000479 0.000992 -0.000825 -0.002112 -0.000441 0.013741
#
#
# Mechanical properties :
#
#
# Convention : Reuss Voigt Hill
#
# Bulk Modulus (GPa) = 50.38218 63.49971 56.94094
# Shear Modulus (GPa) = 40.86198 48.35001 44.60599
#
# Velocity S-wave (km/s) = 3.93828 4.28396 4.11475
# Velocity P-wave (km/s) = 6.30902 6.96939 6.64741
#
# Compressibility (1/GPa) = 0.01984829
#
# Stress axis : x y z
#
# Youngs Moduli (GPa) = 154.33663 72.81810 71.47079
#
# Poissons Ratio (x) = 0.23366 0.11918
# Poissons Ratio (y) = 0.49524 0.16449
# Poissons Ratio (z) = 0.25735 0.16759
#
# Static dielectric constant tensor:
#      x y z
#    x 2.085070 0.000760 -0.050530 
#    y 0.000760 2.146320 -0.097210 
#    z -0.050530 -0.097210 2.167990 
# 
# From -- ./inp_files/70661.got.cif
#   From: 2010.05.17/outbox.cif.g08.bks.cpg/sg2_36_cif.got.tgz:70661.got - 2010.06.03 11:33:40.
