data_PCOD9024191
_publ_section_title
;
Structure prediction by ZEFSAII (Michael W. Deem and Ramdas Pophale) SiO2 
 PCOD9024191
Probable space group: P -1
;
_chemical_formula_sum "Si O2"
_cell_formula_units_Z 16
_cell_length_a 13.711371
_cell_length_b 15.493814
_cell_length_c 9.357496
_cell_angle_alpha 123.907760
_cell_angle_beta 130.569803
_cell_angle_gamma 26.724052
_cell_volume 677.514259
_symmetry_space_group_name_H-M "P -1"
_symmetry_group_IT_number 2
_symmetry_cell_setting 'triclinic'
loop_
_space_group_symop_operation_xyz
x,y,z
-x,-y,-z
loop_
_atom_site_type_symbol
_atom_site_label
_atom_site_fract_x
_atom_site_fract_y
_atom_site_fract_z
Si Si1 0.989366 0.835623 0.767750
Si Si2 0.877485 0.228376 0.489505
Si Si3 0.691361 0.557975 0.558422
Si Si4 0.158684 0.966942 0.786594
Si Si5 0.744191 0.718721 0.910374
Si Si6 0.902858 0.668726 0.485319
Si Si7 0.732578 0.213438 0.829145
Si Si8 0.546831 0.039153 0.860490
O O1 0.009147 0.821461 0.601804
O O2 0.934103 0.755461 0.683246
O O3 0.224881 0.722799 0.960099
O O4 0.801079 0.056178 0.820665
O O5 0.742549 0.424780 0.584461
O O6 0.067401 0.073576 0.647898
O O7 0.733473 0.220410 0.315160
O O8 0.601999 0.717533 0.708148
O O9 0.516345 0.633324 0.341096
O O10 0.924581 0.438184 0.586655
O O11 0.924926 0.104692 0.786957
O O12 0.317876 0.943771 0.992546
O O13 0.724734 0.822786 0.868720
O O14 0.624088 0.840356 0.052443
O O15 0.000000 0.500000 0.000000
O O16 0.630984 0.849909 0.339844
O O17 0.000000 0.500000 0.500000
#
# Coordination Sequence:
#
# PCOD9024191 Si02
#       8
#     2   2   2   2   2   2   2   2
#     4   9  21  42  63  87 127 178 220 265 341 399
#     4   9  21  39  62  90 131 169 212 278 335 389
#     4  11  23  41  65  95 129 170 228 272 332 409
#     4  10  22  40  63  97 131 168 222 276 340 389
#     4  11  23  43  71  99 129 180 227 269 340 404
#     4  11  25  43  64  95 137 180 224 274 332 400
#     4  10  22  40  66  93 126 171 224 277 329 399
#     4  11  25  42  69  97 138 177 217 284 332 395
#
# _framework density 23.615738
#
# number of rings (size 3 to 8) (size 9 to 14) (size 15 to 20)
#    0.000    1.750    1.250    1.500   10.500    7.500 
#    4.500    1.875    0.000    0.000    0.000    0.000 
#    0.000    0.000    0.000    0.000    0.000    0.000 
#
# Total GULP energy -89414.373810 kJ/mol
# GULP energy per Si atom -5588.398363 kJ/mol
# Density = 2.356199 g / cm^3
# Si number density = 23.615738 Si / 1000 Ang^3
#
#
#
# Elastic Constant Matrix: (Units=GPa)
#
#
# Indices 1 2 3 4 5 6 
#
# 1 80.0382 48.0565 39.5471 -7.6825 4.4061 25.9128
# 2 48.0565 105.5470 45.5904 -1.8843 21.4132 36.2659
# 3 39.5471 45.5904 144.4026 0.6891 16.6671 27.3943
# 4 -7.6825 -1.8843 0.6891 37.6785 2.2903 9.7702
# 5 4.4061 21.4132 16.6671 2.2903 37.7857 9.8270
# 6 25.9128 36.2659 27.3943 9.7702 9.8270 43.9572
#
#
#
# Elastic Compliance Matrix: (Units=1/GPa)
#
#
# Indices 1 2 3 4 5 6 
#
# 1 0.020217 -0.006288 -0.002672 0.005474 0.003914 -0.007157
# 2 -0.006288 0.017257 -0.001342 0.002268 -0.006306 -0.008788
# 3 -0.002672 -0.001342 0.008767 -0.000047 -0.002199 -0.002279
# 4 0.005474 0.002268 -0.000047 0.030866 -0.000712 -0.011770
# 5 0.003914 -0.006306 -0.002199 -0.000712 0.031263 -0.002565
# 6 -0.007157 -0.008788 -0.002279 -0.011770 -0.002565 0.038829
#
#
# Mechanical properties :
#
#
# Convention : Reuss Voigt Hill
#
# Bulk Modulus (GPa) = 39.00622 66.26398 52.63510
# Shear Modulus (GPa) = 28.35333 37.00386 32.67860
#
# Velocity S-wave (km/s) = 3.46874 3.96272 3.72393
# Velocity P-wave (km/s) = 5.70927 7.00412 6.38958
#
# Compressibility (1/GPa) = 0.02563694
#
# Stress axis : x y z
#
# Youngs Moduli (GPa) = 49.46434 57.94882 114.06561
#
# Poissons Ratio (x) = 0.36439 0.30474
# Poissons Ratio (y) = 0.31104 0.15306
# Poissons Ratio (z) = 0.13215 0.07776
#
# Static dielectric constant tensor:
#      x y z
#    x 1.924990 -0.034190 -0.021390 
#    y -0.034190 1.989810 0.041400 
#    z -0.021390 0.041400 1.921070 
# 
# From -- ./inp_files/455885.got.cif
#   From: 2010.05.17/outbox.cif.g08.bks.cpg/sg2_228_cif.got.tgz:455885.got - 2010.06.03 11:33:40.
