data_PCOD9024948
_publ_section_title
;
Structure prediction by ZEFSAII (Michael W. Deem and Ramdas Pophale) SiO2 
 PCOD9024948
Probable space group: P -1
;
_chemical_formula_sum "Si O2"
_cell_formula_units_Z 12
_cell_length_a 8.961129
_cell_length_b 7.142337
_cell_length_c 19.081090
_cell_angle_alpha 49.929204
_cell_angle_beta 41.156524
_cell_angle_gamma 73.440145
_cell_volume 564.655663
_symmetry_space_group_name_H-M "P -1"
_symmetry_group_IT_number 2
_symmetry_cell_setting 'triclinic'
loop_
_space_group_symop_operation_xyz
x,y,z
-x,-y,-z
loop_
_atom_site_type_symbol
_atom_site_label
_atom_site_fract_x
_atom_site_fract_y
_atom_site_fract_z
Si Si1 0.405977 0.692265 0.120706
Si Si2 0.309885 0.218327 0.673248
Si Si3 0.715442 0.053984 0.529487
Si Si4 0.119982 0.406923 0.415491
Si Si5 0.083677 0.347224 0.068577
Si Si6 0.067803 0.523166 0.760691
O O1 0.307549 0.644480 0.246446
O O2 0.177251 0.560142 0.180606
O O3 0.625815 0.591604 0.056638
O O4 0.500000 0.000000 0.000000
O O5 0.500000 0.500000 0.500000
O O6 0.472508 0.043783 0.656832
O O7 0.210919 0.327722 0.747991
O O8 0.053550 0.979504 0.796445
O O9 0.919440 0.230527 0.471402
O O10 0.753162 0.205746 0.405783
O O11 0.739913 0.781314 0.569041
O O12 0.000000 0.500000 0.500000
O O13 0.011675 0.452074 0.139856
O O14 0.000000 0.500000 0.000000
#
# Coordination Sequence:
#
# PCOD9024948 Si02
#       6
#     2   2   2   2   2   2
#     4  11  23  45  69  99 135 178 228 279 343 414
#     4  10  22  42  64  96 133 172 227 277 335 406
#     4   9  21  39  63  96 132 168 227 278 330 404
#     4  10  22  40  66  97 130 174 225 280 337 401
#     4  12  26  43  68 101 140 180 231 285 348 405
#     4  10  23  43  71  94 133 185 225 279 344 411
#
# _framework density 21.25189
#
# number of rings (size 3 to 8) (size 9 to 14) (size 15 to 20)
#    0.000    1.667    1.667    1.500    2.333    6.000 
#    6.000    0.000    0.000    0.000    0.000    0.000 
#    0.000    0.000    0.000    0.000    0.000    0.000 
#
# Total GULP energy -66817.440916 kJ/mol
# GULP energy per Si atom -5568.120076 kJ/mol
# Density = 2.120352 g / cm^3
# Si number density = 21.251890 Si / 1000 Ang^3
#
#
#
# Elastic Constant Matrix: (Units=GPa)
#
#
# Indices 1 2 3 4 5 6 
#
# 1 64.0565 52.3351 38.5863 23.7362 12.6171 -9.9246
# 2 52.3351 183.3322 83.7819 48.3701 28.4589 -15.8064
# 3 38.5863 83.7819 119.6362 28.6718 10.6645 0.4352
# 4 23.7362 48.3701 28.6718 50.1449 8.2974 -4.9572
# 5 12.6171 28.4589 10.6645 8.2974 32.6839 9.2656
# 6 -9.9246 -15.8064 0.4352 -4.9572 9.2656 34.5332
#
#
#
# Elastic Compliance Matrix: (Units=1/GPa)
#
#
# Indices 1 2 3 4 5 6 
#
# 1 0.024389 -0.001549 -0.004889 -0.005306 -0.007263 0.007549
# 2 -0.001549 0.011770 -0.005755 -0.005325 -0.008254 0.006465
# 3 -0.004889 -0.005755 0.013930 -0.001356 0.004272 -0.005556
# 4 -0.005306 -0.005325 -0.001356 0.028404 -0.000131 0.000167
# 5 -0.007263 -0.008254 0.004272 -0.000131 0.044277 -0.017818
# 6 0.007549 0.006465 -0.005556 0.000167 -0.017818 0.038961
#
#
# Mechanical properties :
#
#
# Convention : Reuss Voigt Hill
#
# Bulk Modulus (GPa) = 38.90732 79.60350 59.25541
# Shear Modulus (GPa) = 25.68244 36.29385 30.98815
#
# Velocity S-wave (km/s) = 3.48009 4.13703 3.82270
# Velocity P-wave (km/s) = 5.87328 7.76907 6.88672
#
# Compressibility (1/GPa) = 0.02570210
#
# Stress axis : x y z
#
# Youngs Moduli (GPa) = 41.00241 84.95930 71.78794
#
# Poissons Ratio (x) = 0.13164 0.35100
# Poissons Ratio (y) = 0.06353 0.41311
# Poissons Ratio (z) = 0.20048 0.48891
#
# Static dielectric constant tensor:
#      x y z
#    x 1.874070 -0.024050 -0.075740 
#    y -0.024050 1.744000 -0.056220 
#    z -0.075740 -0.056220 1.871670 
# 
# From -- ./inp_files/63982.got.cif
#   From: 2010.05.17/outbox.cif.g08.bks.cpg/sg2_32_cif.got.tgz:63982.got - 2010.06.03 11:33:40.
