data_PCOD9024232
_publ_section_title
;
Structure prediction by ZEFSAII (Michael W. Deem and Ramdas Pophale) SiO2 
 PCOD9024232
Probable space group: P -1
;
_chemical_formula_sum "Si O2"
_cell_formula_units_Z 14
_cell_length_a 14.470274
_cell_length_b 10.905700
_cell_length_c 20.107230
_cell_angle_alpha 144.971335
_cell_angle_beta 161.481286
_cell_angle_gamma 34.866031
_cell_volume 561.352152
_symmetry_space_group_name_H-M "P -1"
_symmetry_group_IT_number 2
_symmetry_cell_setting 'triclinic'
loop_
_space_group_symop_operation_xyz
x,y,z
-x,-y,-z
loop_
_atom_site_type_symbol
_atom_site_label
_atom_site_fract_x
_atom_site_fract_y
_atom_site_fract_z
Si Si1 0.072372 0.235055 0.144252
Si Si2 0.637910 0.254283 0.067523
Si Si3 0.737618 0.177811 0.561558
Si Si4 0.096063 0.448140 0.707263
Si Si5 0.135438 0.481210 0.990200
Si Si6 0.226710 0.915371 0.307376
Si Si7 0.724929 0.194880 0.259128
O O1 0.399425 0.202658 0.319118
O O2 0.053303 0.362703 0.258048
O O3 0.839363 0.398375 0.009678
O O4 0.000000 0.000000 0.000000
O O5 0.705259 0.475724 0.181067
O O6 0.682150 0.233512 0.167628
O O7 0.313743 0.261640 0.818235
O O8 0.903682 0.066018 0.134208
O O9 0.734493 0.056560 0.575641
O O10 0.827687 0.405046 0.739402
O O11 0.021071 0.025495 0.649114
O O12 0.846528 0.375697 0.462179
O O13 0.193109 0.668609 0.161433
O O14 0.378313 0.251500 0.070080
O O15 0.500000 0.000000 0.500000
#
# Coordination Sequence:
#
# PCOD9024232 Si02
#       7
#     2   2   2   2   2   2   2
#     4  12  26  45  69 104 141 181 239 295 348 424
#     4  10  22  40  64 103 138 179 231 292 349 412
#     4  11  26  44  69 101 139 189 233 286 359 417
#     4  11  23  40  68 100 140 179 233 287 359 405
#     4  12  24  45  69  99 146 185 231 293 351 420
#     4  11  23  43  70 102 137 181 243 285 352 417
#     4  11  24  43  70  99 140 186 234 284 348 426
#
# _framework density 24.939782000000001
#
# number of rings (size 3 to 8) (size 9 to 14) (size 15 to 20)
#    0.000    0.857    1.429    6.000    6.000    2.286 
#    0.000    0.714    0.000    0.000    0.000    0.000 
#    0.000    0.000    0.000    0.000    0.000    0.000 
#
# Total GULP energy -78167.119099 kJ/mol
# GULP energy per Si atom -5583.365650 kJ/mol
# Density = 2.488302 g / cm^3
# Si number density = 24.939782 Si / 1000 Ang^3
#
#
#
# Elastic Constant Matrix: (Units=GPa)
#
#
# Indices 1 2 3 4 5 6 
#
# 1 44.3302 22.9909 3.8884 7.5959 -12.4045 13.6638
# 2 22.9909 131.5396 52.5797 -27.3944 10.3256 -4.9912
# 3 3.8884 52.5797 127.0479 -2.5803 11.3392 -6.2651
# 4 7.5959 -27.3944 -2.5803 43.9726 1.4775 -3.1429
# 5 -12.4045 10.3256 11.3392 1.4775 34.2221 -1.9917
# 6 13.6638 -4.9912 -6.2651 -3.1429 -1.9917 25.8844
#
#
#
# Elastic Compliance Matrix: (Units=1/GPa)
#
#
# Indices 1 2 3 4 5 6 
#
# 1 0.050698 -0.017005 0.001545 -0.022197 0.022169 -0.030657
# 2 -0.017005 0.016573 -0.004604 0.014174 -0.009550 0.012044
# 3 0.001545 -0.004604 0.009797 -0.002502 -0.001173 0.000274
# 4 -0.022197 0.014174 -0.002502 0.036908 -0.012074 0.017397
# 5 0.022169 -0.009550 -0.001173 -0.012074 0.040338 -0.012190
# 6 -0.030657 0.012044 0.000274 0.017397 -0.012190 0.058379
#
#
# Mechanical properties :
#
#
# Convention : Reuss Voigt Hill
#
# Bulk Modulus (GPa) = 27.07177 51.31506 39.19342
# Shear Modulus (GPa) = 18.85821 35.71307 27.28564
#
# Velocity S-wave (km/s) = 2.75280 3.78825 3.31125
# Velocity P-wave (km/s) = 4.58064 6.30513 5.51076
#
# Compressibility (1/GPa) = 0.03693885
#
# Stress axis : x y z
#
# Youngs Moduli (GPa) = 19.72470 60.33735 102.07444
#
# Poissons Ratio (x) = 1.02603 -0.15767
# Poissons Ratio (y) = 0.33542 0.47000
# Poissons Ratio (z) = -0.03047 0.27782
#
# Static dielectric constant tensor:
#      x y z
#    x 2.023560 -0.043510 0.004180 
#    y -0.043510 2.075820 -0.057710 
#    z 0.004180 -0.057710 1.977510 
# 
# From -- ./inp_files/402605.got.cif
#   From: 2010.05.17/outbox.cif.g08.bks.cpg/sg2_202_cif.got.tgz:402605.got - 2010.06.03 11:33:40.
