data_PCOD9024308
_publ_section_title
;
Structure prediction by ZEFSAII (Michael W. Deem and Ramdas Pophale) SiO2 
 PCOD9024308
Probable space group: P -1
;
_chemical_formula_sum "Si O2"
_cell_formula_units_Z 16
_cell_length_a 5.176212
_cell_length_b 8.917365
_cell_length_c 21.535576
_cell_angle_alpha 129.702893
_cell_angle_beta 83.182426
_cell_angle_gamma 121.054921
_cell_volume 620.748048
_symmetry_space_group_name_H-M "P -1"
_symmetry_group_IT_number 2
_symmetry_cell_setting 'triclinic'
loop_
_space_group_symop_operation_xyz
x,y,z
-x,-y,-z
loop_
_atom_site_type_symbol
_atom_site_label
_atom_site_fract_x
_atom_site_fract_y
_atom_site_fract_z
Si Si1 0.685878 0.543274 0.908139
Si Si2 0.625092 0.084728 0.774218
Si Si3 0.779141 0.387373 0.271105
Si Si4 0.928743 0.733838 0.073574
Si Si5 0.123479 0.098401 0.373904
Si Si6 0.282293 0.570130 0.463278
Si Si7 0.281988 0.185009 0.585980
Si Si8 0.185895 0.236495 0.165974
O O1 0.571275 0.287084 0.815106
O O2 0.382086 0.478279 0.938903
O O3 0.785103 0.723314 0.897315
O O4 0.953638 0.650355 0.982713
O O5 0.798222 0.170082 0.858285
O O6 0.350053 0.808249 0.721727
O O7 0.835955 0.081162 0.712989
O O8 0.784999 0.613488 0.351509
O O9 0.514620 0.293989 0.199107
O O10 0.083193 0.401463 0.240494
O O11 0.921227 0.963571 0.120864
O O12 0.190484 0.306919 0.381547
O O13 0.405074 0.257128 0.457821
O O14 0.794145 0.954003 0.383460
O O15 0.385519 0.708249 0.431238
O O16 0.000000 0.500000 0.500000
O O17 0.000000 0.000000 0.500000
#
# Coordination Sequence:
#
# PCOD9024308 Si02
#       8
#     2   2   2   2   2   2   2   2
#     4  11  23  42  69  95 136 182 229 281 350 414
#     4  11  22  42  70  94 138 179 230 287 346 409
#     4  11  24  47  68 104 139 182 232 292 340 418
#     4  10  24  43  63 104 134 178 228 287 343 414
#     4  10  22  40  64  91 130 173 231 276 346 413
#     4  10  22  41  63  95 130 174 221 286 345 408
#     4  10  22  44  64  96 136 178 231 284 347 412
#     4  11  25  45  71 101 139 182 231 284 349 407
#
# _framework density 25.775352000000002
#
# number of rings (size 3 to 8) (size 9 to 14) (size 15 to 20)
#    0.000    1.500    2.500    1.500    3.500    2.500 
#    4.500    1.875    0.000    0.000    0.000    0.000 
#    0.000    0.000    0.000    0.000    0.000    0.000 
#
# Total GULP energy -89427.261038 kJ/mol
# GULP energy per Si atom -5589.203815 kJ/mol
# Density = 2.571669 g / cm^3
# Si number density = 25.775352 Si / 1000 Ang^3
#
#
#
# Elastic Constant Matrix: (Units=GPa)
#
#
# Indices 1 2 3 4 5 6 
#
# 1 75.4517 32.0911 8.5777 -13.2956 -0.6848 -0.8192
# 2 32.0911 147.6337 25.4413 -21.3768 1.0721 24.9824
# 3 8.5777 25.4413 97.1856 3.0973 -3.3189 -12.1426
# 4 -13.2956 -21.3768 3.0973 44.5281 -3.4295 -7.8040
# 5 -0.6848 1.0721 -3.3189 -3.4295 28.6834 1.4479
# 6 -0.8192 24.9824 -12.1426 -7.8040 1.4479 22.0105
#
#
#
# Elastic Compliance Matrix: (Units=1/GPa)
#
#
# Indices 1 2 3 4 5 6 
#
# 1 0.015714 -0.004072 0.000426 0.003953 0.000706 0.006797
# 2 -0.004072 0.011174 -0.004455 0.001891 -0.000066 -0.014617
# 3 0.000426 -0.004455 0.012961 -0.000753 0.000986 0.011891
# 4 0.003953 0.001891 -0.000753 0.025966 0.002707 0.006613
# 5 0.000706 -0.000066 0.000986 0.002707 0.035357 -0.000720
# 6 0.006797 -0.014617 0.011891 0.006613 -0.000720 0.071228
#
#
# Mechanical properties :
#
#
# Convention : Reuss Voigt Hill
#
# Bulk Modulus (GPa) = 42.28543 50.27680 46.28111
# Shear Modulus (GPa) = 25.44735 35.98845 30.71790
#
# Velocity S-wave (km/s) = 3.14550 3.74068 3.45593
# Velocity P-wave (km/s) = 5.44364 6.18102 5.82401
#
# Compressibility (1/GPa) = 0.02364881
#
# Stress axis : x y z
#
# Youngs Moduli (GPa) = 63.63839 89.49219 77.15230
#
# Poissons Ratio (x) = 0.36443 -0.03291
# Poissons Ratio (y) = 0.25915 0.34368
# Poissons Ratio (z) = -0.02714 0.39865
#
# Static dielectric constant tensor:
#      x y z
#    x 2.146740 -0.015120 0.010320 
#    y -0.015120 2.018370 0.029890 
#    z 0.010320 0.029890 2.070570 
# 
# From -- ./inp_files/582584.got.cif
#   From: 2010.05.17/outbox.cif.g08.bks.cpg/sg2_292_cif.got.tgz:582584.got - 2010.06.03 11:33:40.
