data_PCOD9024315
_publ_section_title
;
Structure prediction by ZEFSAII (Michael W. Deem and Ramdas Pophale) SiO2 
 PCOD9024315
Probable space group: P -1
;
_chemical_formula_sum "Si O2"
_cell_formula_units_Z 14
_cell_length_a 7.959731
_cell_length_b 14.662368
_cell_length_c 19.797910
_cell_angle_alpha 18.879667
_cell_angle_beta 101.981176
_cell_angle_gamma 90.951134
_cell_volume 601.892283
_symmetry_space_group_name_H-M "P -1"
_symmetry_group_IT_number 2
_symmetry_cell_setting 'triclinic'
loop_
_space_group_symop_operation_xyz
x,y,z
-x,-y,-z
loop_
_atom_site_type_symbol
_atom_site_label
_atom_site_fract_x
_atom_site_fract_y
_atom_site_fract_z
Si Si1 0.242756 0.562425 0.084251
Si Si2 0.510857 0.488245 0.729706
Si Si3 0.184358 0.171467 0.575856
Si Si4 0.235790 0.713457 0.243974
Si Si5 0.911114 0.376675 0.201991
Si Si6 0.243920 0.257230 0.933755
Si Si7 0.586830 0.808733 0.768522
O O1 0.320478 0.579382 0.152340
O O2 0.427534 0.296504 0.234588
O O3 0.090459 0.439835 0.162453
O O4 0.143436 0.929068 0.784304
O O5 0.614402 0.362475 0.753637
O O6 0.401126 0.306915 0.870874
O O7 0.364096 0.902527 0.428231
O O8 0.241291 0.372262 0.491856
O O9 0.984751 0.451876 0.319072
O O10 0.378731 0.963796 0.686213
O O11 0.282649 0.890138 0.183266
O O12 0.000000 0.000000 0.000000
O O13 0.756633 0.647279 0.056020
O O14 0.778526 0.474504 0.054591
O O15 0.000000 0.000000 0.500000
#
# Coordination Sequence:
#
# PCOD9024315 Si02
#       7
#     2   2   2   2   2   2   2
#     4  12  23  40  62  92 127 164 206 258 312 371
#     4  11  23  40  65  95 124 167 209 251 310 371
#     4  10  22  40  64  92 125 166 210 258 308 364
#     4   9  20  41  64  91 126 163 207 259 308 362
#     4  12  25  42  65  95 125 162 207 258 315 375
#     4  11  22  42  64  91 128 167 207 257 308 367
#     4  11  23  41  62  92 127 163 207 259 312 370
#
# _framework density 23.259976999999999
#
# number of rings (size 3 to 8) (size 9 to 14) (size 15 to 20)
#    0.000    1.143    0.000    7.714    0.000    2.286 
#    0.000   14.286    0.000    0.000    0.000    0.000 
#    0.000    0.000    0.000    0.000    0.000    0.000 
#
# Total GULP energy -78419.296113 kJ/mol
# GULP energy per Si atom -5601.378294 kJ/mol
# Density = 2.320704 g / cm^3
# Si number density = 23.259977 Si / 1000 Ang^3
#
#
#
# Elastic Constant Matrix: (Units=GPa)
#
#
# Indices 1 2 3 4 5 6 
#
# 1 101.3314 -4.4653 29.0090 -6.6770 -26.7165 7.3798
# 2 -4.4653 87.4016 20.0709 -15.9525 -9.3588 5.8865
# 3 29.0090 20.0709 92.5483 -2.0739 -23.7326 2.7412
# 4 -6.6770 -15.9525 -2.0739 41.2088 6.9159 -0.0951
# 5 -26.7165 -9.3588 -23.7326 6.9159 42.5450 -1.6787
# 6 7.3798 5.8865 2.7412 -0.0951 -1.6787 31.1815
#
#
#
# Elastic Compliance Matrix: (Units=1/GPa)
#
#
# Indices 1 2 3 4 5 6 
#
# 1 0.012859 0.002526 -0.002734 0.001793 0.006699 -0.002914
# 2 0.002526 0.013613 -0.003052 0.005196 0.001924 -0.002780
# 3 -0.002734 -0.003052 0.013701 -0.001869 0.005571 0.000313
# 4 0.001793 0.005196 -0.001869 0.027011 -0.003217 -0.001332
# 5 0.006699 0.001924 0.005571 -0.003217 0.031736 -0.000740
# 6 -0.002914 -0.002780 0.000313 -0.001332 -0.000740 0.033213
#
#
# Mechanical properties :
#
#
# Convention : Reuss Voigt Hill
#
# Bulk Modulus (GPa) = 29.71496 41.16783 35.44139
# Shear Modulus (GPa) = 33.36176 38.76484 36.06330
#
# Velocity S-wave (km/s) = 3.79132 4.08682 3.94184
# Velocity P-wave (km/s) = 5.65406 6.32510 5.99897
#
# Compressibility (1/GPa) = 0.03365308
#
# Stress axis : x y z
#
# Youngs Moduli (GPa) = 77.76543 73.45982 72.98518
#
# Poissons Ratio (x) = -0.18553 0.19954
# Poissons Ratio (y) = -0.19640 0.22273
# Poissons Ratio (z) = 0.21261 0.22418
#
# Static dielectric constant tensor:
#      x y z
#    x 1.859770 0.014790 -0.001310 
#    y 0.014790 1.855090 -0.011150 
#    z -0.001310 -0.011150 1.912810 
# 
# From -- ./inp_files/590187.got.cif
#   From: 2010.05.17/outbox.cif.g08.bks.cpg/sg2_296_cif.got.tgz:590187.got - 2010.06.03 11:33:40.
