data_PCOD9024034
_publ_section_title
;
Structure prediction by ZEFSAII (Michael W. Deem and Ramdas Pophale) SiO2 
 PCOD9024034
Probable space group: P -1
;
_chemical_formula_sum "Si O2"
_cell_formula_units_Z 14
_cell_length_a 8.206360
_cell_length_b 19.210773
_cell_length_c 7.874469
_cell_angle_alpha 142.259226
_cell_angle_beta 112.580447
_cell_angle_gamma 56.545688
_cell_volume 630.678374
_symmetry_space_group_name_H-M "P -1"
_symmetry_group_IT_number 2
_symmetry_cell_setting 'triclinic'
loop_
_space_group_symop_operation_xyz
x,y,z
-x,-y,-z
loop_
_atom_site_type_symbol
_atom_site_label
_atom_site_fract_x
_atom_site_fract_y
_atom_site_fract_z
Si Si1 0.629607 0.866805 0.016158
Si Si2 0.616378 0.655875 0.037643
Si Si3 0.343865 0.756068 0.821525
Si Si4 0.301974 0.579848 0.178023
Si Si5 0.909482 0.760256 0.204631
Si Si6 0.989932 0.995438 0.693115
Si Si7 0.568959 0.120232 0.373772
O O1 0.472283 0.829366 0.964996
O O2 0.602218 0.853782 0.780055
O O3 0.836219 0.781550 0.021106
O O4 0.576487 0.013696 0.303059
O O5 0.477726 0.658895 0.831802
O O6 0.730200 0.520335 0.907228
O O7 0.760375 0.718182 0.161084
O O8 0.469618 0.752278 0.302063
O O9 0.319790 0.681899 0.507958
O O10 0.142221 0.864754 0.021813
O O11 0.124351 0.652086 0.118007
O O12 0.500000 0.500000 0.000000
O O13 0.908470 0.893740 0.513724
O O14 0.214910 0.941283 0.740706
O O15 0.000000 0.000000 0.500000
#
# Coordination Sequence:
#
# PCOD9024034 Si02
#       7
#     2   2   2   2   2   2   2
#     4  10  22  40  63 101 130 178 210 278 333 393
#     4  11  23  45  67  96 136 179 220 268 326 398
#     4  11  24  43  69  97 135 172 222 269 340 385
#     4  12  27  46  69  95 133 179 227 272 321 394
#     4  11  24  44  67  97 135 174 222 273 335 389
#     4  12  22  40  70 104 132 167 215 279 335 387
#     4  11  22  40  69 101 139 167 222 268 337 392
#
# _framework density 22.198318
#
# number of rings (size 3 to 8) (size 9 to 14) (size 15 to 20)
#    0.000    0.857    2.857    4.286    0.000    6.857 
#    0.000    7.857    0.000    0.000    0.000    0.000 
#    0.000    0.000    0.000    0.000    0.000    0.000 
#
# Total GULP energy -78301.278221 kJ/mol
# GULP energy per Si atom -5592.948444 kJ/mol
# Density = 2.214779 g / cm^3
# Si number density = 22.198318 Si / 1000 Ang^3
#
#
#
# Elastic Constant Matrix: (Units=GPa)
#
#
# Indices 1 2 3 4 5 6 
#
# 1 86.5749 45.3699 52.9658 7.9562 7.8444 -12.2823
# 2 45.3699 203.4075 55.1928 1.5740 -1.0605 -25.7910
# 3 52.9658 55.1928 100.3376 3.6674 -4.7336 -9.9370
# 4 7.9562 1.5740 3.6674 30.1831 4.0788 11.9134
# 5 7.8444 -1.0605 -4.7336 4.0788 36.9455 8.6824
# 6 -12.2823 -25.7910 -9.9370 11.9134 8.6824 36.1981
#
#
#
# Elastic Compliance Matrix: (Units=1/GPa)
#
#
# Indices 1 2 3 4 5 6 
#
# 1 0.019924 -0.001008 -0.009359 -0.005945 -0.006441 0.006975
# 2 -0.001008 0.006356 -0.002549 -0.001267 -0.000750 0.004084
# 3 -0.009359 -0.002549 0.016308 0.000742 0.004345 -0.001801
# 4 -0.005945 -0.001267 0.000742 0.041053 0.000638 -0.016380
# 5 -0.006441 -0.000750 0.004345 0.000638 0.031058 -0.009187
# 6 0.006975 0.004084 -0.001801 -0.016380 -0.009187 0.040002
#
#
# Mechanical properties :
#
#
# Convention : Reuss Voigt Hill
#
# Bulk Modulus (GPa) = 59.67621 77.48633 68.58127
# Shear Modulus (GPa) = 26.86450 36.45145 31.65797
#
# Velocity S-wave (km/s) = 3.48257 4.05666 3.78053
# Velocity P-wave (km/s) = 6.56602 7.54481 7.07237
#
# Compressibility (1/GPa) = 0.01675710
#
# Stress axis : x y z
#
# Youngs Moduli (GPa) = 50.19096 157.32102 61.31845
#
# Poissons Ratio (x) = 0.15855 0.57387
# Poissons Ratio (y) = 0.05058 0.15631
# Poissons Ratio (z) = 0.46973 0.40103
#
# Static dielectric constant tensor:
#      x y z
#    x 1.843840 0.031940 0.020430 
#    y 0.031940 1.854060 -0.020400 
#    z 0.020430 -0.020400 1.793770 
# 
# From -- ./inp_files/224393.got.cif
#   From: 2010.05.17/outbox.cif.g08.bks.cpg/sg2_113_cif.got.tgz:224393.got - 2010.06.03 11:33:40.
