data_PCOD9024671
_publ_section_title
;
Structure prediction by ZEFSAII (Michael W. Deem and Ramdas Pophale) SiO2 
 PCOD9024671
Probable space group: P -1
;
_chemical_formula_sum "Si O2"
_cell_formula_units_Z 14
_cell_length_a 8.811342
_cell_length_b 8.857269
_cell_length_c 15.909425
_cell_angle_alpha 132.127068
_cell_angle_beta 62.229829
_cell_angle_gamma 90.612033
_cell_volume 723.498855
_symmetry_space_group_name_H-M "P -1"
_symmetry_group_IT_number 2
_symmetry_cell_setting 'triclinic'
loop_
_space_group_symop_operation_xyz
x,y,z
-x,-y,-z
loop_
_atom_site_type_symbol
_atom_site_label
_atom_site_fract_x
_atom_site_fract_y
_atom_site_fract_z
Si Si1 0.364997 0.227607 0.565418
Si Si2 0.193916 0.403226 0.360099
Si Si3 0.511293 0.937208 0.709916
Si Si4 0.920723 0.477777 0.754882
Si Si5 0.572299 0.381500 0.847680
Si Si6 0.817674 0.951875 0.043746
Si Si7 0.547406 0.425920 0.225946
O O1 0.444218 0.201892 0.440376
O O2 0.359022 0.447012 0.696333
O O3 0.141451 0.286728 0.635026
O O4 0.500000 0.000000 0.500000
O O5 0.340911 0.191564 0.300074
O O6 0.128281 0.403437 0.280761
O O7 0.328722 0.528455 0.356867
O O8 0.000000 0.500000 0.500000
O O9 0.548883 0.153356 0.764195
O O10 0.294733 0.001845 0.820951
O O11 0.782180 0.364486 0.770213
O O12 0.871888 0.693903 0.908534
O O13 0.450204 0.527789 0.855116
O O14 0.500000 0.500000 0.000000
O O15 0.654148 0.152460 0.105304
O O16 0.000000 0.000000 0.000000
#
# Coordination Sequence:
#
# PCOD9024671 Si02
#       7
#     2   2   2   2   2   2   2
#     4  12  24  44  64  99 135 169 213 270 329 387
#     4  10  22  40  65  97 126 168 224 264 322 381
#     4  11  24  41  69  96 132 172 218 268 326 385
#     4  11  24  42  70  94 133 172 217 273 322 384
#     4  11  23  43  65  98 133 169 216 267 328 385
#     4  11  23  43  65  98 128 171 220 266 325 384
#     4  10  24  40  67  94 134 172 212 276 322 378
#
# _framework density 19.350411999999999
#
# number of rings (size 3 to 8) (size 9 to 14) (size 15 to 20)
#    0.000    1.143    5.714    0.000    2.000    6.857 
#    2.571    2.143    0.000    0.000    0.000    0.000 
#    0.000    0.000    0.000    0.000    0.000    0.000 
#
# Total GULP energy -77951.067853 kJ/mol
# GULP energy per Si atom -5567.933418 kJ/mol
# Density = 1.930637 g / cm^3
# Si number density = 19.350412 Si / 1000 Ang^3
#
#
#
# Elastic Constant Matrix: (Units=GPa)
#
#
# Indices 1 2 3 4 5 6 
#
# 1 75.7918 22.5109 33.5510 -17.2530 -16.9804 -1.5279
# 2 22.5109 98.6508 28.9553 -16.1998 -10.7402 -10.9478
# 3 33.5510 28.9553 89.0697 -31.2513 -16.6000 -7.1099
# 4 -17.2530 -16.1998 -31.2513 36.6801 3.4651 -3.7685
# 5 -16.9804 -10.7402 -16.6000 3.4651 30.7794 -3.5407
# 6 -1.5279 -10.9478 -7.1099 -3.7685 -3.5407 35.5780
#
#
#
# Elastic Compliance Matrix: (Units=1/GPa)
#
#
# Indices 1 2 3 4 5 6 
#
# 1 0.017665 -0.001511 -0.003294 0.004249 0.007053 0.000787
# 2 -0.001511 0.012231 -0.001209 0.003820 0.002829 0.004143
# 3 -0.003294 -0.001209 0.019894 0.014751 0.007493 0.005770
# 4 0.004249 0.003820 0.014751 0.043776 0.007823 0.009721
# 5 0.007053 0.002829 0.007493 0.007823 0.041405 0.007620
# 6 0.000787 0.004143 0.005770 0.009721 0.007620 0.032357
#
#
# Mechanical properties :
#
#
# Convention : Reuss Voigt Hill
#
# Bulk Modulus (GPa) = 26.48209 48.17184 37.32697
# Shear Modulus (GPa) = 26.04942 32.50720 29.27831
#
# Velocity S-wave (km/s) = 3.67303 4.10313 3.89403
# Velocity P-wave (km/s) = 5.63058 6.88448 6.28886
#
# Compressibility (1/GPa) = 0.03776136
#
# Stress axis : x y z
#
# Youngs Moduli (GPa) = 56.61060 81.75647 50.26713
#
# Poissons Ratio (x) = 0.12352 0.16560
# Poissons Ratio (y) = 0.08553 0.06077
# Poissons Ratio (z) = 0.18650 0.09884
#
# Static dielectric constant tensor:
#      x y z
#    x 1.693130 0.027190 -0.022130 
#    y 0.027190 1.636980 -0.003650 
#    z -0.022130 -0.003650 1.689330 
# 
# From -- ./inp_files/153794.got.cif
#   From: 2010.05.17/outbox.cif.g08.bks.cpg/sg2_77_cif.got.tgz:153794.got - 2010.06.03 11:33:40.
