data_PCOD9024662
_publ_section_title
;
Structure prediction by ZEFSAII (Michael W. Deem and Ramdas Pophale) SiO2 
 PCOD9024662
Probable space group: P -1
;
_chemical_formula_sum "Si O2"
_cell_formula_units_Z 14
_cell_length_a 8.530925
_cell_length_b 11.692383
_cell_length_c 9.376277
_cell_angle_alpha 121.450745
_cell_angle_beta 127.406187
_cell_angle_gamma 79.416468
_cell_volume 621.395604
_symmetry_space_group_name_H-M "P -1"
_symmetry_group_IT_number 2
_symmetry_cell_setting 'triclinic'
loop_
_space_group_symop_operation_xyz
x,y,z
-x,-y,-z
loop_
_atom_site_type_symbol
_atom_site_label
_atom_site_fract_x
_atom_site_fract_y
_atom_site_fract_z
Si Si1 0.205611 0.033567 0.738060
Si Si2 0.028571 0.272499 0.874470
Si Si3 0.186666 0.535834 0.262985
Si Si4 0.228088 0.554157 0.614311
Si Si5 0.481803 0.593656 0.190177
Si Si6 0.678851 0.131341 0.042133
Si Si7 0.654698 0.127871 0.724469
O O1 0.195447 0.186134 0.883655
O O2 0.207962 0.929878 0.805374
O O3 0.442977 0.053963 0.838426
O O4 0.000000 0.000000 0.500000
O O5 0.976515 0.367210 0.779789
O O6 0.822913 0.169441 0.725346
O O7 0.079555 0.377692 0.101364
O O8 0.286504 0.572708 0.492168
O O9 0.315308 0.551207 0.197661
O O10 0.322768 0.427464 0.634356
O O11 0.302267 0.706036 0.817852
O O12 0.000000 0.500000 0.500000
O O13 0.456259 0.744088 0.232671
O O14 0.500000 0.500000 0.000000
O O15 0.765450 0.107620 0.919543
O O16 0.500000 0.000000 0.500000
#
# Coordination Sequence:
#
# PCOD9024662 Si02
#       7
#     2   2   2   2   2   2   2
#     4  11  24  43  69  97 133 186 229 284 359 420
#     4  10  22  40  65  96 133 176 229 280 351 411
#     4  10  23  41  68  97 136 180 235 293 343 424
#     4  12  25  41  69 104 139 181 238 288 355 421
#     4  11  24  44  70  94 137 186 228 291 356 407
#     4  11  25  44  68 101 144 176 238 294 346 430
#     4  11  24  42  67 100 141 181 229 294 356 421
#
# _framework density 22.529931999999999
#
# number of rings (size 3 to 8) (size 9 to 14) (size 15 to 20)
#    0.000    1.143    1.429    3.857    4.000    7.429 
#    0.000    0.000    0.000    0.000    0.000    0.000 
#    0.000    0.000    0.000    0.000    0.000    0.000 
#
# Total GULP energy -77965.087883 kJ/mol
# GULP energy per Si atom -5568.934849 kJ/mol
# Density = 2.247865 g / cm^3
# Si number density = 22.529932 Si / 1000 Ang^3
#
#
#
# Elastic Constant Matrix: (Units=GPa)
#
#
# Indices 1 2 3 4 5 6 
#
# 1 65.0308 37.9912 28.1170 -3.6727 -3.2264 -5.8295
# 2 37.9912 95.7894 32.9923 -12.8230 -2.9314 -9.5185
# 3 28.1170 32.9923 114.9224 -3.7891 -8.1322 15.1228
# 4 -3.6727 -12.8230 -3.7891 40.5495 -3.4333 8.3074
# 5 -3.2264 -2.9314 -8.1322 -3.4333 38.7212 0.4447
# 6 -5.8295 -9.5185 15.1228 8.3074 0.4447 35.2111
#
#
#
# Elastic Compliance Matrix: (Units=1/GPa)
#
#
# Indices 1 2 3 4 5 6 
#
# 1 0.021321 -0.007001 -0.003693 -0.001325 0.000313 0.003532
# 2 -0.007001 0.014988 -0.002921 0.003151 0.000178 0.003401
# 3 -0.003693 -0.002921 0.011518 0.001367 0.002088 -0.006697
# 4 -0.001325 0.003151 0.001367 0.027225 0.002903 -0.006415
# 5 0.000313 0.000178 0.002088 0.002903 0.026582 -0.001817
# 6 0.003532 0.003401 -0.006697 -0.006415 -0.001817 0.034317
#
#
# Mechanical properties :
#
#
# Convention : Reuss Voigt Hill
#
# Bulk Modulus (GPa) = 48.55166 52.66042 50.60604
# Shear Modulus (GPa) = 29.40377 34.67251 32.03814
#
# Velocity S-wave (km/s) = 3.61653 3.92721 3.77507
# Velocity P-wave (km/s) = 6.24786 6.63236 6.44298
#
# Compressibility (1/GPa) = 0.02059662
#
# Stress axis : x y z
#
# Youngs Moduli (GPa) = 46.90108 66.72196 86.82367
#
# Poissons Ratio (x) = 0.46714 0.32063
# Poissons Ratio (y) = 0.32837 0.25360
# Poissons Ratio (z) = 0.17320 0.19488
#
# Static dielectric constant tensor:
#      x y z
#    x 1.886000 0.029330 0.030260 
#    y 0.029330 1.987090 -0.169110 
#    z 0.030260 -0.169110 2.014030 
# 
# From -- ./inp_files/190535.got.cif
#   From: 2010.05.17/outbox.cif.g08.bks.cpg/sg2_96_cif.got.tgz:190535.got - 2010.06.03 11:33:40.
