data_PCOD9024858
_publ_section_title
;
Structure prediction by ZEFSAII (Michael W. Deem and Ramdas Pophale) SiO2 
 PCOD9024858
Probable space group: P -1
;
_chemical_formula_sum "Si O2"
_cell_formula_units_Z 16
_cell_length_a 8.749799
_cell_length_b 11.386703
_cell_length_c 9.930844
_cell_angle_alpha 99.402392
_cell_angle_beta 92.825060
_cell_angle_gamma 43.116204
_cell_volume 663.564981
_symmetry_space_group_name_H-M "P -1"
_symmetry_group_IT_number 2
_symmetry_cell_setting 'triclinic'
loop_
_space_group_symop_operation_xyz
x,y,z
-x,-y,-z
loop_
_atom_site_type_symbol
_atom_site_label
_atom_site_fract_x
_atom_site_fract_y
_atom_site_fract_z
Si Si1 0.571125 0.626808 0.176009
Si Si2 0.874788 0.967320 0.691514
Si Si3 0.983450 0.478104 0.712558
Si Si4 0.197769 0.195545 0.159401
Si Si5 0.301215 0.106257 0.870195
Si Si6 0.759407 0.858469 0.442605
Si Si7 0.948098 0.954698 0.121046
Si Si8 0.313333 0.544419 0.135814
O O1 0.499104 0.531813 0.204668
O O2 0.800481 0.568447 0.219403
O O3 0.362775 0.830471 0.248300
O O4 0.590219 0.586402 0.009974
O O5 0.938819 0.830379 0.779952
O O6 0.862778 0.908762 0.538391
O O7 0.050794 0.969925 0.729327
O O8 0.814526 0.683132 0.726006
O O9 0.824406 0.471006 0.781702
O O10 0.094516 0.343841 0.569765
O O11 0.445283 0.000548 0.137874
O O12 0.167975 0.248045 0.011131
O O13 0.233151 0.143237 0.719491
O O14 0.284686 0.979159 0.892040
O O15 0.500000 0.000000 0.500000
O O16 0.130851 0.744873 0.107943
O O17 0.000000 0.000000 0.000000
#
# Coordination Sequence:
#
# PCOD9024858 Si02
#       8
#     2   2   2   2   2   2   2   2
#     4  10  22  40  66  93 138 173 219 283 330 403
#     4  11  24  44  65  98 133 179 223 269 343 406
#     4  12  24  40  69  95 137 179 227 280 336 401
#     4  11  25  39  69 104 129 169 230 283 333 391
#     4  11  23  42  66  99 134 169 227 273 337 406
#     4  12  24  44  67  93 134 185 230 268 337 418
#     4  11  22  41  68 100 135 169 218 290 342 389
#     4  10  23  38  64 106 129 171 230 277 343 402
#
# _framework density 24.112183000000002
#
# number of rings (size 3 to 8) (size 9 to 14) (size 15 to 20)
#    0.000    1.000    5.000    1.125    5.250    2.000 
#    0.000    0.000    0.000    0.750    0.000    0.000 
#    0.000    0.000    0.000    0.000    0.000    0.000 
#
# Total GULP energy -89076.270293 kJ/mol
# GULP energy per Si atom -5567.266893 kJ/mol
# Density = 2.405730 g / cm^3
# Si number density = 24.112183 Si / 1000 Ang^3
#
#
#
# Elastic Constant Matrix: (Units=GPa)
#
#
# Indices 1 2 3 4 5 6 
#
# 1 144.8422 0.5085 30.4677 -0.1163 19.9340 12.5488
# 2 0.5085 39.9253 28.8624 15.3222 -1.4252 11.4271
# 3 30.4677 28.8624 168.8317 22.4607 17.6572 8.5983
# 4 -0.1163 15.3222 22.4607 37.2562 5.1383 0.2101
# 5 19.9340 -1.4252 17.6572 5.1383 48.2324 3.3147
# 6 12.5488 11.4271 8.5983 0.2101 3.3147 29.5297
#
#
#
# Elastic Compliance Matrix: (Units=1/GPa)
#
#
# Indices 1 2 3 4 5 6 
#
# 1 0.007803 0.001448 -0.001303 0.000584 -0.002546 -0.003215
# 2 0.001448 0.037775 -0.004714 -0.013248 0.004637 -0.014287
# 3 -0.001303 -0.004714 0.007466 -0.002276 -0.002123 0.000459
# 4 0.000584 -0.013248 -0.002276 0.034160 -0.003832 0.005728
# 5 -0.002546 0.004637 -0.002123 -0.003832 0.023292 -0.002681
# 6 -0.003215 -0.014287 0.000459 0.005728 -0.002681 0.040886
#
#
# Mechanical properties :
#
#
# Convention : Reuss Voigt Hill
#
# Bulk Modulus (GPa) = 22.77672 52.58628 37.68150
# Shear Modulus (GPa) = 28.54639 42.58769 35.56704
#
# Velocity S-wave (km/s) = 3.44452 4.20721 3.84482
# Velocity P-wave (km/s) = 5.02854 6.74220 5.94741
#
# Compressibility (1/GPa) = 0.04390449
#
# Stress axis : x y z
#
# Youngs Moduli (GPa) = 128.16357 26.47263 133.94866
#
# Poissons Ratio (x) = -0.03833 0.17457
# Poissons Ratio (y) = -0.18558 0.63143
# Poissons Ratio (z) = 0.16703 0.12479
#
# Static dielectric constant tensor:
#      x y z
#    x 2.032760 -0.021290 0.000370 
#    y -0.021290 2.157340 -0.107220 
#    z 0.000370 -0.107220 1.969170 
# 
# From -- ./inp_files/388051.got.cif
#   From: 2010.05.17/outbox.cif.g08.bks.cpg/sg2_195_cif.got.tgz:388051.got - 2010.06.03 11:33:40.
