data_PCOD9024627
_publ_section_title
;
Structure prediction by ZEFSAII (Michael W. Deem and Ramdas Pophale) SiO2 
 PCOD9024627
Probable space group: P -1
;
_chemical_formula_sum "Si O2"
_cell_formula_units_Z 14
_cell_length_a 9.575994
_cell_length_b 5.952255
_cell_length_c 21.141866
_cell_angle_alpha 97.726020
_cell_angle_beta 144.981633
_cell_angle_gamma 70.849407
_cell_volume 632.898998
_symmetry_space_group_name_H-M "P -1"
_symmetry_group_IT_number 2
_symmetry_cell_setting 'triclinic'
loop_
_space_group_symop_operation_xyz
x,y,z
-x,-y,-z
loop_
_atom_site_type_symbol
_atom_site_label
_atom_site_fract_x
_atom_site_fract_y
_atom_site_fract_z
Si Si1 0.949516 0.926494 0.712342
Si Si2 0.917484 0.471563 0.162568
Si Si3 0.221370 0.374939 0.025827
Si Si4 0.861130 0.298850 0.450040
Si Si5 0.621773 0.860429 0.163360
Si Si6 0.431776 0.563116 0.404478
Si Si7 0.723406 0.451220 0.267872
O O1 0.047167 0.797206 0.810762
O O2 0.002795 0.710293 0.672398
O O3 0.668246 0.140861 0.625026
O O4 0.150368 0.040463 0.763938
O O5 0.183225 0.502139 0.286254
O O6 0.674275 0.659691 0.119820
O O7 0.878414 0.530991 0.077233
O O8 0.472895 0.438763 0.138055
O O9 0.340463 0.079076 0.062674
O O10 0.000000 0.500000 0.000000
O O11 0.670072 0.409099 0.442213
O O12 0.716687 0.346673 0.330326
O O13 0.000000 0.500000 0.500000
O O14 0.000000 0.000000 0.500000
O O15 0.682569 0.731733 0.249797
O O16 0.500000 0.500000 0.500000
#
# Coordination Sequence:
#
# PCOD9024627 Si02
#       7
#     2   2   2   2   2   2   2
#     4   9  21  40  69  94 133 169 232 280 344 408
#     4  10  22  40  65  95 128 174 226 281 344 408
#     4  11  23  38  63  92 134 171 225 280 349 415
#     4  12  30  47  73 104 144 186 232 286 354 416
#     4   9  21  39  64  93 131 172 221 275 344 408
#     4  11  25  43  69  97 134 178 231 288 338 412
#     4  10  23  43  67  96 134 177 223 285 348 412
#
# _framework density 22.120432000000001
#
# number of rings (size 3 to 8) (size 9 to 14) (size 15 to 20)
#    0.000    1.714    0.000    2.143   12.000    9.714 
#    0.000    0.000    0.000    0.000    0.000    0.000 
#    0.000    0.000    0.000    0.000    0.000    0.000 
#
# Total GULP energy -78111.842595 kJ/mol
# GULP energy per Si atom -5579.417328 kJ/mol
# Density = 2.207009 g / cm^3
# Si number density = 22.120432 Si / 1000 Ang^3
#
#
#
# Elastic Constant Matrix: (Units=GPa)
#
#
# Indices 1 2 3 4 5 6 
#
# 1 176.3222 69.5878 81.4805 -35.6530 -23.7368 -24.5519
# 2 69.5878 107.2178 64.4703 -44.4039 -6.4059 -3.9684
# 3 81.4805 64.4703 129.4107 -21.5741 -32.2214 -8.6860
# 4 -35.6530 -44.4039 -21.5741 52.4427 5.8748 6.1578
# 5 -23.7368 -6.4059 -32.2214 5.8748 53.9354 -10.4740
# 6 -24.5519 -3.9684 -8.6860 6.1578 -10.4740 42.5070
#
#
#
# Elastic Compliance Matrix: (Units=1/GPa)
#
#
# Indices 1 2 3 4 5 6 
#
# 1 0.009985 -0.003587 -0.003161 0.001499 0.002945 0.005295
# 2 -0.003587 0.021836 -0.008258 0.014007 -0.006482 -0.005347
# 3 -0.003161 -0.008258 0.015299 -0.004079 0.007803 0.003043
# 4 0.001499 0.014007 -0.004079 0.031256 -0.004345 -0.004259
# 5 0.002945 -0.006482 0.007803 -0.004345 0.026095 0.009749
# 6 0.005295 -0.005347 0.003043 -0.004259 0.009749 0.029725
#
#
# Mechanical properties :
#
#
# Convention : Reuss Voigt Hill
#
# Bulk Modulus (GPa) = 58.45346 93.78088 76.11717
# Shear Modulus (GPa) = 29.42733 42.93783 36.18258
#
# Velocity S-wave (km/s) = 3.65132 4.41056 4.04878
# Velocity P-wave (km/s) = 6.65272 8.27194 7.50612
#
# Compressibility (1/GPa) = 0.01710763
#
# Stress axis : x y z
#
# Youngs Moduli (GPa) = 100.15408 45.79587 65.36523
#
# Poissons Ratio (x) = 0.16426 0.20664
# Poissons Ratio (y) = 0.35922 0.53977
# Poissons Ratio (z) = 0.31662 0.37817
#
# Static dielectric constant tensor:
#      x y z
#    x 1.831730 0.067130 -0.027670 
#    y 0.067130 2.045900 0.001320 
#    z -0.027670 0.001320 1.856010 
# 
# From -- ./inp_files/40185.got.cif
#   From: 2010.05.17/outbox.cif.g08.bks.cpg/sg2_21_cif.got.tgz:40185.got - 2010.06.03 11:33:40.
