data_PCOD9024564
_publ_section_title
;
Structure prediction by ZEFSAII (Michael W. Deem and Ramdas Pophale) SiO2 
 PCOD9024564
Probable space group: P -1
;
_chemical_formula_sum "Si O2"
_cell_formula_units_Z 14
_cell_length_a 10.377540
_cell_length_b 26.930647
_cell_length_c 10.928147
_cell_angle_alpha 21.385103
_cell_angle_beta 139.062863
_cell_angle_gamma 144.181847
_cell_volume 651.718727
_symmetry_space_group_name_H-M "P -1"
_symmetry_group_IT_number 2
_symmetry_cell_setting 'triclinic'
loop_
_space_group_symop_operation_xyz
x,y,z
-x,-y,-z
loop_
_atom_site_type_symbol
_atom_site_label
_atom_site_fract_x
_atom_site_fract_y
_atom_site_fract_z
Si Si1 0.491556 0.638888 0.246493
Si Si2 0.837375 0.036636 0.880225
Si Si3 0.821847 0.326974 0.251994
Si Si4 0.124839 0.582228 0.277799
Si Si5 0.318953 0.888715 0.837756
Si Si6 0.909843 0.901620 0.858729
Si Si7 0.846088 0.280143 0.644378
O O1 0.500000 0.500000 0.500000
O O2 0.361032 0.591001 0.390127
O O3 0.352963 0.685177 0.945379
O O4 0.723917 0.784165 0.085597
O O5 0.919570 0.217760 0.523601
O O6 0.580201 0.965406 0.822444
O O7 0.877110 0.996952 0.139244
O O8 0.000000 0.000000 0.000000
O O9 0.730773 0.261534 0.472559
O O10 0.000000 0.500000 0.000000
O O11 0.000000 0.500000 0.500000
O O12 0.968304 0.461987 0.340920
O O13 0.185944 0.759143 0.937521
O O14 0.203385 0.001021 0.504806
O O15 0.292566 0.804855 0.141975
O O16 0.980590 0.792202 0.080146
#
# Coordination Sequence:
#
# PCOD9024564 Si02
#       7
#     2   2   2   2   2   2   2
#     4  12  21  40  69  97 129 170 224 269 325 390
#     4  11  25  42  62  98 134 169 222 268 329 395
#     4  11  22  40  69  93 128 173 218 277 315 393
#     4  10  22  40  65  92 130 172 212 270 331 382
#     4  11  24  43  66  94 138 173 211 279 334 386
#     4  11  23  40  68  98 125 178 220 271 323 397
#     4  10  22  44  64  98 130 172 222 270 332 390
#
# _framework density 21.481659000000001
#
# number of rings (size 3 to 8) (size 9 to 14) (size 15 to 20)
#    0.000    1.143    4.286    2.143    2.000    3.429 
#    2.571    0.000    0.000    5.143    0.000    0.000 
#    0.000    0.000    0.000    0.000    0.000    0.000 
#
# Total GULP energy -77999.447216 kJ/mol
# GULP energy per Si atom -5571.389087 kJ/mol
# Density = 2.143277 g / cm^3
# Si number density = 21.481659 Si / 1000 Ang^3
#
#
#
# Elastic Constant Matrix: (Units=GPa)
#
#
# Indices 1 2 3 4 5 6 
#
# 1 104.2038 13.5417 33.1830 -7.4659 11.5771 -2.2334
# 2 13.5417 98.4030 49.4741 4.2276 7.9670 0.2966
# 3 33.1830 49.4741 107.8716 2.4332 9.7757 -0.7735
# 4 -7.4659 4.2276 2.4332 37.8251 -0.7050 1.4439
# 5 11.5771 7.9670 9.7757 -0.7050 25.7390 -5.6140
# 6 -2.2334 0.2966 -0.7735 1.4439 -5.6140 29.8050
#
#
#
# Elastic Compliance Matrix: (Units=1/GPa)
#
#
# Indices 1 2 3 4 5 6 
#
# 1 0.011195 0.000330 -0.003300 0.002317 -0.003839 -0.000085
# 2 0.000330 0.013364 -0.006015 -0.001058 -0.002165 -0.000621
# 3 -0.003300 -0.006015 0.013219 -0.000857 -0.001726 -0.000128
# 4 0.002317 -0.001058 -0.000857 0.027113 0.000107 -0.001132
# 5 -0.003839 -0.002165 -0.001726 0.000107 0.043630 0.007902
# 6 -0.000085 -0.000621 -0.000128 -0.001132 0.007902 0.035091
#
#
# Mechanical properties :
#
#
# Convention : Reuss Voigt Hill
#
# Bulk Modulus (GPa) = 50.48511 55.87511 53.18011
# Shear Modulus (GPa) = 29.72903 32.95912 31.34408
#
# Velocity S-wave (km/s) = 3.72415 3.92125 3.82397
# Velocity P-wave (km/s) = 6.48421 6.82413 6.65634
#
# Compressibility (1/GPa) = 0.01980782
#
# Stress axis : x y z
#
# Youngs Moduli (GPa) = 89.32294 74.82979 75.64859
#
# Poissons Ratio (x) = -0.02471 0.24966
# Poissons Ratio (y) = -0.02949 0.45503
# Poissons Ratio (z) = 0.29479 0.45011
#
# Static dielectric constant tensor:
#      x y z
#    x 1.823970 -0.047640 -0.024500 
#    y -0.047640 2.093260 0.160160 
#    z -0.024500 0.160160 1.950270 
# 
# From -- ./inp_files/407308.got.cif
#   From: 2010.05.17/outbox.cif.g08.bks.cpg/sg2_204_cif.got.tgz:407308.got - 2010.06.03 11:33:40.
