data_PCOD9024703
_publ_section_title
;
Structure prediction by ZEFSAII (Michael W. Deem and Ramdas Pophale) SiO2 
 PCOD9024703
Probable space group: P -1
;
_chemical_formula_sum "Si O2"
_cell_formula_units_Z 15
_cell_length_a 12.881985
_cell_length_b 6.953236
_cell_length_c 22.345348
_cell_angle_alpha 67.251683
_cell_angle_beta 24.768273
_cell_angle_gamma 59.377987
_cell_volume 705.451218
_symmetry_space_group_name_H-M "P -1"
_symmetry_group_IT_number 2
_symmetry_cell_setting 'triclinic'
loop_
_space_group_symop_operation_xyz
x,y,z
-x,-y,-z
loop_
_atom_site_type_symbol
_atom_site_label
_atom_site_fract_x
_atom_site_fract_y
_atom_site_fract_z
Si Si1 0.204405 0.412705 0.489011
Si Si2 0.819692 0.005980 0.004742
Si Si3 0.481715 0.316412 0.669379
Si Si4 0.822923 0.882654 0.358460
Si Si5 0.674506 0.821945 0.667562
Si Si6 0.774806 0.880994 0.908338
Si Si7 0.064279 0.352122 0.794082
Si Si8 0.000000 0.500000 0.000000
O O1 0.382889 0.505556 0.424038
O O2 0.126997 0.238718 0.589126
O O3 0.362579 0.285796 0.362480
O O4 0.946307 0.634172 0.576027
O O5 0.567396 0.129199 0.165437
O O6 0.973024 0.168699 0.894727
O O7 0.724880 0.953007 0.995504
O O8 0.997480 0.757337 0.967370
O O9 0.362025 0.299035 0.669764
O O10 0.233827 0.410369 0.834945
O O11 0.678749 0.065683 0.619930
O O12 0.942708 0.689850 0.267492
O O13 0.500000 0.000000 0.500000
O O14 0.985208 0.044133 0.247393
O O15 0.877313 0.609446 0.879987
O O16 0.500000 0.000000 0.000000
#
# Coordination Sequence:
#
# PCOD9024703 Si02
#       8
#     2   2   2   2   2   2   2   1
#     4  11  25  44  66  96 139 175 228 271 340 408
#     4  10  24  44  69 100 136 171 225 276 344 400
#     4  11  23  41  67  99 132 172 224 274 335 408
#     4  11  26  46  70  99 138 183 229 280 337 407
#     4  10  25  43  65  97 134 182 212 283 338 402
#     4  11  26  46  69 103 135 177 235 284 334 401
#     4  11  25  43  73  98 135 178 224 283 341 393
#     4  10  22  40  66 100 130 170 214 278 320 408
#
# _framework density 21.262986999999999
#
# number of rings (size 3 to 8) (size 9 to 14) (size 15 to 20)
#    0.000    1.333    1.333    2.000    9.333    5.333 
#    4.800    0.000    0.000    0.000    0.000    0.000 
#    0.000    0.000    0.000    0.000    0.000    0.000 
#
# Total GULP energy -83623.056932 kJ/mol
# GULP energy per Si atom -5574.870462 kJ/mol
# Density = 2.121459 g / cm^3
# Si number density = 21.262987 Si / 1000 Ang^3
#
#
#
# Elastic Constant Matrix: (Units=GPa)
#
#
# Indices 1 2 3 4 5 6 
#
# 1 60.3474 40.1753 30.8915 -1.2031 6.1468 15.9948
# 2 40.1753 135.5765 46.9382 9.7661 -1.7462 9.3651
# 3 30.8915 46.9382 73.2399 4.6116 8.2950 8.9877
# 4 -1.2031 9.7661 4.6116 33.2561 3.2748 -1.8427
# 5 6.1468 -1.7462 8.2950 3.2748 25.4105 -0.5848
# 6 15.9948 9.3651 8.9877 -1.8427 -0.5848 34.7079
#
#
#
# Elastic Compliance Matrix: (Units=1/GPa)
#
#
# Indices 1 2 3 4 5 6 
#
# 1 0.026280 -0.005348 -0.006162 0.003406 -0.005359 -0.008981
# 2 -0.005348 0.010962 -0.005136 -0.003066 0.004136 0.000744
# 3 -0.006162 -0.005136 0.020371 -0.001074 -0.005401 -0.001197
# 4 0.003406 -0.003066 -0.001074 0.031774 -0.004753 0.001143
# 5 -0.005359 0.004136 -0.005401 -0.004753 0.043384 0.003231
# 6 -0.008981 0.000744 -0.001197 0.001143 0.003231 0.033175
#
#
# Mechanical properties :
#
#
# Convention : Reuss Voigt Hill
#
# Bulk Modulus (GPa) = 41.11924 56.13042 48.62483
# Shear Modulus (GPa) = 24.11445 28.75216 26.43330
#
# Velocity S-wave (km/s) = 3.37130 3.68124 3.52967
# Velocity P-wave (km/s) = 5.87662 6.67264 6.28724
#
# Compressibility (1/GPa) = 0.02431952
#
# Stress axis : x y z
#
# Youngs Moduli (GPa) = 38.05216 91.22771 49.08975
#
# Poissons Ratio (x) = 0.48788 0.30251
# Poissons Ratio (y) = 0.20350 0.25213
# Poissons Ratio (z) = 0.23449 0.46855
#
# Static dielectric constant tensor:
#      x y z
#    x 1.790700 -0.005430 -0.008710 
#    y -0.005430 1.733750 0.009680 
#    z -0.008710 0.009680 1.749340 
# 
# From -- ./inp_files/69096.got.cif
#   From: 2010.05.17/outbox.cif.g08.bks.cpg/sg2_35_cif.got.tgz:69096.got - 2010.06.03 11:33:40.
