data_PCOD9024567
_publ_section_title
;
Structure prediction by ZEFSAII (Michael W. Deem and Ramdas Pophale) SiO2 
 PCOD9024567
Probable space group: P -1
;
_chemical_formula_sum "Si O2"
_cell_formula_units_Z 16
_cell_length_a 14.832609
_cell_length_b 8.767228
_cell_length_c 13.101014
_cell_angle_alpha 114.274532
_cell_angle_beta 67.014406
_cell_angle_gamma 57.566880
_cell_volume 796.667805
_symmetry_space_group_name_H-M "P -1"
_symmetry_group_IT_number 2
_symmetry_cell_setting 'triclinic'
loop_
_space_group_symop_operation_xyz
x,y,z
-x,-y,-z
loop_
_atom_site_type_symbol
_atom_site_label
_atom_site_fract_x
_atom_site_fract_y
_atom_site_fract_z
Si Si1 0.695163 0.200031 0.976452
Si Si2 0.535945 0.307436 0.515854
Si Si3 0.317406 0.787983 0.361344
Si Si4 0.075727 0.218526 0.425871
Si Si5 0.179041 0.712441 0.901131
Si Si6 0.814181 0.668129 0.112901
Si Si7 0.729012 0.535219 0.708289
Si Si8 0.655008 0.896442 0.022105
O O1 0.773344 0.055435 0.792158
O O2 0.683960 0.037564 0.995919
O O3 0.502089 0.554628 0.158679
O O4 0.810441 0.165222 0.980245
O O5 0.500000 0.500000 0.500000
O O6 0.641190 0.236645 0.545903
O O7 0.351504 0.500170 0.695724
O O8 0.659108 0.991811 0.325635
O O9 0.271553 0.660447 0.325965
O O10 0.160077 0.115187 0.472068
O O11 0.000000 0.500000 0.500000
O O12 0.914092 0.321651 0.521160
O O13 0.178731 0.526926 0.896260
O O14 0.000000 0.000000 0.000000
O O15 0.760186 0.735832 0.036270
O O16 0.000000 0.500000 0.000000
O O17 0.707911 0.677046 0.858459
O O18 0.556827 0.817854 0.793578
#
# Coordination Sequence:
#
# PCOD9024567 Si02
#       8
#     2   2   2   2   2   2   2   2
#     4  10  22  43  64  91 135 172 213 274 334 397
#     4  11  24  47  71  98 136 174 225 285 343 401
#     4  10  24  42  65  93 132 175 215 266 337 402
#     4  12  24  38  62  98 129 170 220 271 324 388
#     4  11  25  44  67 100 131 179 227 278 334 401
#     4  12  26  42  72  99 134 179 228 280 337 399
#     4  10  22  40  65  92 133 168 216 266 326 399
#     4  10  22  43  65  95 132 173 217 266 338 391
#
# _framework density 20.083652000000001
#
# number of rings (size 3 to 8) (size 9 to 14) (size 15 to 20)
#    0.000    1.250    1.250    4.875    3.500    6.000 
#    0.000    0.000    0.000    0.000    0.000    0.000 
#    0.000    0.000    0.000    0.000    0.000    0.000 
#
# Total GULP energy -89443.064396 kJ/mol
# GULP energy per Si atom -5590.191525 kJ/mol
# Density = 2.003794 g / cm^3
# Si number density = 20.083652 Si / 1000 Ang^3
#
#
#
# Elastic Constant Matrix: (Units=GPa)
#
#
# Indices 1 2 3 4 5 6 
#
# 1 131.8196 77.5470 27.9422 2.7945 -1.4383 -16.6184
# 2 77.5470 156.5519 42.3160 10.2658 -12.1234 -20.4698
# 3 27.9422 42.3160 42.4966 -7.9041 0.5887 -9.4308
# 4 2.7945 10.2658 -7.9041 24.5626 4.3974 -0.9717
# 5 -1.4383 -12.1234 0.5887 4.3974 34.7998 4.3330
# 6 -16.6184 -20.4698 -9.4308 -0.9717 4.3330 29.5573
#
#
#
# Elastic Compliance Matrix: (Units=1/GPa)
#
#
# Indices 1 2 3 4 5 6 
#
# 1 0.011109 -0.004847 -0.001777 0.000577 -0.001593 0.002575
# 2 -0.004847 0.013132 -0.011383 -0.009534 0.005572 0.001607
# 3 -0.001777 -0.011383 0.041197 0.019891 -0.008008 0.006090
# 4 0.000577 -0.009534 0.019891 0.053094 -0.010766 0.003392
# 5 -0.001593 0.005572 -0.008008 -0.010766 0.032697 -0.004739
# 6 0.002575 0.001607 0.006090 0.003392 -0.004739 0.039143
#
#
# Mechanical properties :
#
#
# Convention : Reuss Voigt Hill
#
# Bulk Modulus (GPa) = 33.98696 69.60873 51.79785
# Shear Modulus (GPa) = 21.16891 29.98814 25.57853
#
# Velocity S-wave (km/s) = 3.25012 3.86834 3.57262
# Velocity P-wave (km/s) = 5.57169 7.39504 6.54715
#
# Compressibility (1/GPa) = 0.02942305
#
# Stress axis : x y z
#
# Youngs Moduli (GPa) = 90.01496 76.14762 24.27363
#
# Poissons Ratio (x) = 0.36909 0.04314
# Poissons Ratio (y) = 0.43630 0.27632
# Poissons Ratio (z) = 0.15999 0.86682
#
# Static dielectric constant tensor:
#      x y z
#    x 1.348050 0.055940 0.036810 
#    y 0.055940 1.700610 -0.013660 
#    z 0.036810 -0.013660 1.706660 
# 
# From -- ./inp_files/223251.got.cif
#   From: 2010.05.17/outbox.cif.g08.bks.cpg/sg2_112_cif.got.tgz:223251.got - 2010.06.03 11:33:40.
