data_PCOD9024636
_publ_section_title
;
Structure prediction by ZEFSAII (Michael W. Deem and Ramdas Pophale) SiO2 
 PCOD9024636
Probable space group: P -1
;
_chemical_formula_sum "Si O2"
_cell_formula_units_Z 16
_cell_length_a 6.794691
_cell_length_b 12.884604
_cell_length_c 10.426706
_cell_angle_alpha 109.241301
_cell_angle_beta 91.120169
_cell_angle_gamma 119.731151
_cell_volume 729.506589
_symmetry_space_group_name_H-M "P -1"
_symmetry_group_IT_number 2
_symmetry_cell_setting 'triclinic'
loop_
_space_group_symop_operation_xyz
x,y,z
-x,-y,-z
loop_
_atom_site_type_symbol
_atom_site_label
_atom_site_fract_x
_atom_site_fract_y
_atom_site_fract_z
Si Si1 0.741174 0.134608 0.078856
Si Si2 0.168274 0.188582 0.950704
Si Si3 0.919194 0.990402 0.328108
Si Si4 0.289631 0.414906 0.863501
Si Si5 0.601813 0.912894 0.511541
Si Si6 0.683509 0.529330 0.402780
Si Si7 0.151100 0.776926 0.591434
Si Si8 0.320655 0.640989 0.864050
O O1 0.777287 0.177023 0.243985
O O2 0.751891 0.258410 0.065003
O O3 0.954367 0.133622 0.020420
O O4 0.500000 0.000000 0.000000
O O5 0.167624 0.069565 0.836198
O O6 0.152811 0.274099 0.869206
O O7 0.407536 0.282374 0.064393
O O8 0.720645 0.889454 0.382374
O O9 0.927565 0.122569 0.411021
O O10 0.174937 0.015585 0.362661
O O11 0.359065 0.419566 0.714965
O O12 0.179513 0.504198 0.882402
O O13 0.500000 0.500000 0.000000
O O14 0.375854 0.797102 0.528689
O O15 0.500000 0.000000 0.500000
O O16 0.500000 0.500000 0.500000
O O17 0.688555 0.404936 0.301472
O O18 0.931809 0.636556 0.505049
#
# Coordination Sequence:
#
# PCOD9024636 Si02
#       8
#     2   2   2   2   2   2   2   2
#     4  12  26  42  65  98 135 171 221 275 328 402
#     4  11  22  42  70  94 129 173 223 269 330 397
#     4  10  22  40  65  95 131 175 209 274 336 387
#     4   8  20  42  66  95 125 173 226 267 325 393
#     4   9  21  38  58  92 133 168 220 261 325 401
#     4  10  22  42  68  95 135 173 226 273 329 402
#     4  11  24  41  64 101 134 175 218 271 335 400
#     4   9  23  45  63  97 126 171 222 268 334 380
#
# _framework density 21.932632999999999
#
# number of rings (size 3 to 8) (size 9 to 14) (size 15 to 20)
#    0.750    1.250    0.000    2.250    5.250    7.000 
#    0.000    3.750    0.000    0.000    0.000    0.000 
#    0.000    0.000    0.000    0.000    0.000    0.000 
#
# Total GULP energy -89124.084843 kJ/mol
# GULP energy per Si atom -5570.255303 kJ/mol
# Density = 2.188271 g / cm^3
# Si number density = 21.932633 Si / 1000 Ang^3
#
#
#
# Elastic Constant Matrix: (Units=GPa)
#
#
# Indices 1 2 3 4 5 6 
#
# 1 72.5355 37.1502 40.7729 10.9029 3.3751 28.6056
# 2 37.1502 69.1102 32.7921 0.5257 0.2529 18.2240
# 3 40.7729 32.7921 131.2607 16.5338 4.6519 27.3431
# 4 10.9029 0.5257 16.5338 34.7581 -4.9881 -1.1027
# 5 3.3751 0.2529 4.6519 -4.9881 28.1108 1.1211
# 6 28.6056 18.2240 27.3431 -1.1027 1.1211 47.3684
#
#
#
# Elastic Compliance Matrix: (Units=1/GPa)
#
#
# Indices 1 2 3 4 5 6 
#
# 1 0.025487 -0.009835 -0.002199 -0.007640 -0.003548 -0.010433
# 2 -0.009835 0.021168 -0.002745 0.004374 0.002244 -0.000571
# 3 -0.002199 -0.002745 0.010415 -0.004643 -0.002112 -0.003686
# 4 -0.007640 0.004374 -0.004643 0.034589 0.007535 0.006238
# 5 -0.003548 0.002244 -0.002112 0.007535 0.037595 0.001784
# 6 -0.010433 -0.000571 -0.003686 0.006238 0.001784 0.029862
#
#
# Mechanical properties :
#
#
# Convention : Reuss Voigt Hill
#
# Bulk Modulus (GPa) = 36.34682 54.92632 45.63657
# Shear Modulus (GPa) = 25.27252 32.86021 29.06636
#
# Velocity S-wave (km/s) = 3.39821 3.87490 3.64436
# Velocity P-wave (km/s) = 5.65730 6.71695 6.20977
#
# Compressibility (1/GPa) = 0.02751272
#
# Stress axis : x y z
#
# Youngs Moduli (GPa) = 39.23528 47.24068 96.01929
#
# Poissons Ratio (x) = 0.46463 0.21110
# Poissons Ratio (y) = 0.38589 0.26355
# Poissons Ratio (z) = 0.08626 0.12966
#
# Static dielectric constant tensor:
#      x y z
#    x 1.799960 -0.096120 0.036430 
#    y -0.096120 1.896280 -0.043800 
#    z 0.036430 -0.043800 1.835330 
# 
# From -- ./inp_files/367969.got.cif
#   From: 2010.05.17/outbox.cif.g08.bks.cpg/sg2_184_cif.got.tgz:367969.got - 2010.06.03 11:33:40.
