data_PCOD9024130
_publ_section_title
;
Structure prediction by ZEFSAII (Michael W. Deem and Ramdas Pophale) SiO2 
 PCOD9024130
Probable space group: P -1
;
_chemical_formula_sum "Si O2"
_cell_formula_units_Z 15
_cell_length_a 11.709647
_cell_length_b 6.649524
_cell_length_c 11.552938
_cell_angle_alpha 86.348816
_cell_angle_beta 45.276025
_cell_angle_gamma 98.096526
_cell_volume 615.588123
_symmetry_space_group_name_H-M "P -1"
_symmetry_group_IT_number 2
_symmetry_cell_setting 'triclinic'
loop_
_space_group_symop_operation_xyz
x,y,z
-x,-y,-z
loop_
_atom_site_type_symbol
_atom_site_label
_atom_site_fract_x
_atom_site_fract_y
_atom_site_fract_z
Si Si1 0.582194 0.270985 0.527726
Si Si2 0.660386 0.506844 0.011298
Si Si3 0.299511 0.460702 0.339650
Si Si4 0.286400 0.989602 0.409987
Si Si5 0.943389 0.916390 0.765996
Si Si6 0.740923 0.573308 0.218179
Si Si7 0.776710 0.237874 0.765279
Si Si8 0.000000 0.000000 0.000000
O O1 0.667542 0.417658 0.567894
O O2 0.586100 0.044671 0.580790
O O3 0.697287 0.365239 0.334332
O O4 0.397758 0.303161 0.648505
O O5 0.472450 0.522694 0.143023
O O6 0.704767 0.501677 0.115187
O O7 0.784085 0.720447 0.869671
O O8 0.684969 0.301476 0.939082
O O9 0.172753 0.544129 0.349221
O O10 0.274814 0.222191 0.394084
O O11 0.323399 0.908777 0.260583
O O12 0.104433 0.871628 0.592706
O O13 0.906683 0.118419 0.723558
O O14 0.970808 0.954209 0.881940
O O15 0.913977 0.746552 0.097940
#
# Coordination Sequence:
#
# PCOD9024130 Si02
#       8
#     2   2   2   2   2   2   2   1
#     4   9  20  40  66  91 125 162 200 251 307 362
#     4  10  23  40  61  92 126 157 201 254 309 365
#     4  10  22  40  63  94 123 157 206 254 304 366
#     4  11  24  41  64  92 123 163 209 251 300 364
#     4  11  25  42  61  91 124 162 207 251 306 366
#     4   9  19  41  65  93 125 160 203 251 306 368
#     4  11  24  41  65  89 124 166 203 254 307 361
#     4  10  22  40  64  90 124 156 200 256 302 360
#
# _framework density 24.366942000000002
#
# number of rings (size 3 to 8) (size 9 to 14) (size 15 to 20)
#    0.000    1.867    0.000    2.400    0.000   10.667 
#    0.000   12.000    0.000    0.000    0.000    0.000 
#    0.000    0.000    0.000    0.000    0.000    0.000 
#
# Total GULP energy -83591.921809 kJ/mol
# GULP energy per Si atom -5572.794787 kJ/mol
# Density = 2.431148 g / cm^3
# Si number density = 24.366942 Si / 1000 Ang^3
#
#
#
# Elastic Constant Matrix: (Units=GPa)
#
#
# Indices 1 2 3 4 5 6 
#
# 1 47.7373 23.1550 25.9447 -2.2471 9.2587 -3.2368
# 2 23.1550 91.8492 29.9670 -8.2890 5.9055 -16.8028
# 3 25.9447 29.9670 55.0193 -8.5638 -5.3266 4.3715
# 4 -2.2471 -8.2890 -8.5638 31.4757 -7.8003 3.8597
# 5 9.2587 5.9055 -5.3266 -7.8003 35.6915 -7.3194
# 6 -3.2368 -16.8028 4.3715 3.8597 -7.3194 31.9781
#
#
#
# Elastic Compliance Matrix: (Units=1/GPa)
#
#
# Indices 1 2 3 4 5 6 
#
# 1 0.033237 -0.002270 -0.016674 -0.005924 -0.011510 0.002531
# 2 -0.002270 0.015964 -0.008425 0.000303 -0.001408 0.008951
# 3 -0.016674 -0.008425 0.033947 0.009702 0.010975 -0.009414
# 4 -0.005924 0.000303 0.009702 0.037083 0.010239 -0.003899
# 5 -0.011510 -0.001408 0.010975 0.010239 0.035843 0.003563
# 6 0.002531 0.008951 -0.009414 -0.003899 0.003563 0.038804
#
#
# Mechanical properties :
#
#
# Convention : Reuss Voigt Hill
#
# Bulk Modulus (GPa) = 35.19904 39.19325 37.19615
# Shear Modulus (GPa) = 19.29865 27.53164 23.41514
#
# Velocity S-wave (km/s) = 2.81730 3.36501 3.10326
# Velocity P-wave (km/s) = 5.00597 5.58724 5.30457
#
# Compressibility (1/GPa) = 0.02840986
#
# Stress axis : x y z
#
# Youngs Moduli (GPa) = 30.08733 62.64171 29.45733
#
# Poissons Ratio (x) = 0.14222 0.49117
# Poissons Ratio (y) = 0.06831 0.24817
# Poissons Ratio (z) = 0.50168 0.52773
#
# Static dielectric constant tensor:
#      x y z
#    x 1.961820 -0.018680 0.003740 
#    y -0.018680 1.978400 -0.019910 
#    z 0.003740 -0.019910 1.943910 
# 
# From -- ./inp_files/410190.got.cif
#   From: 2010.05.17/outbox.cif.g08.bks.cpg/sg2_206_cif.got.tgz:410190.got - 2010.06.03 11:33:40.
