data_PCOD9024698
_publ_section_title
;
Structure prediction by ZEFSAII (Michael W. Deem and Ramdas Pophale) SiO2 
 PCOD9024698
Probable space group: P -1
;
_chemical_formula_sum "Si O2"
_cell_formula_units_Z 16
_cell_length_a 9.972379
_cell_length_b 14.157101
_cell_length_c 5.108596
_cell_angle_alpha 102.715010
_cell_angle_beta 90.162404
_cell_angle_gamma 110.649983
_cell_volume 655.781237
_symmetry_space_group_name_H-M "P -1"
_symmetry_group_IT_number 2
_symmetry_cell_setting 'triclinic'
loop_
_space_group_symop_operation_xyz
x,y,z
-x,-y,-z
loop_
_atom_site_type_symbol
_atom_site_label
_atom_site_fract_x
_atom_site_fract_y
_atom_site_fract_z
Si Si1 0.046279 0.723761 0.056948
Si Si2 0.219209 0.608722 0.204271
Si Si3 0.271741 0.324196 0.784042
Si Si4 0.324960 0.161223 0.373601
Si Si5 0.171992 0.936466 0.340091
Si Si6 0.006332 0.132843 0.194621
Si Si7 0.670983 0.541203 0.651085
Si Si8 0.401864 0.670477 0.716557
O O1 0.084217 0.627508 0.091599
O O2 0.182983 0.824452 0.220165
O O3 0.896874 0.722437 0.177499
O O4 0.024490 0.759433 0.785473
O O5 0.204152 0.494970 0.240458
O O6 0.282863 0.675941 0.507710
O O7 0.333617 0.638642 0.982032
O O8 0.331389 0.233442 0.668980
O O9 0.280816 0.390405 0.563274
O O10 0.357651 0.396019 0.066674
O O11 0.461639 0.224858 0.241096
O O12 0.174140 0.157223 0.244157
O O13 0.303644 0.043581 0.372809
O O14 0.091608 0.927684 0.606022
O O15 0.058214 0.930870 0.106310
O O16 0.566522 0.427448 0.477695
#
# Coordination Sequence:
#
# PCOD9024698 Si02
#       8
#     2   2   2   2   2   2   2   2
#     4  10  25  41  70  97 131 163 219 265 335 374
#     4  10  23  47  65  88 137 171 216 271 308 382
#     4  12  24  38  69 100 124 171 212 271 329 381
#     4  12  24  44  69  96 137 168 216 259 329 394
#     4  10  24  41  64 105 129 164 205 272 332 378
#     4  10  22  40  65  99 131 160 206 269 329 372
#     4  10  23  46  57 101 129 166 227 256 325 369
#     4  10  25  44  66  91 130 184 212 258 320 378
#
# _framework density 24.398382000000002
#
# number of rings (size 3 to 8) (size 9 to 14) (size 15 to 20)
#    1.500    0.000    2.500    1.500    1.750    7.000 
#    0.000    1.250    0.000    0.000    0.000    0.000 
#    0.000    0.000    0.000    0.000    0.000    0.000 
#
# Total GULP energy -89298.560685 kJ/mol
# GULP energy per Si atom -5581.160043 kJ/mol
# Density = 2.434285 g / cm^3
# Si number density = 24.398382 Si / 1000 Ang^3
#
#
#
# Elastic Constant Matrix: (Units=GPa)
#
#
# Indices 1 2 3 4 5 6 
#
# 1 30.3047 6.5369 7.5460 -0.9807 6.6665 7.4824
# 2 6.5369 105.3327 40.6990 -3.6400 16.0278 15.5752
# 3 7.5460 40.6990 139.2137 -26.5702 17.6954 4.9477
# 4 -0.9807 -3.6400 -26.5702 37.2670 3.2864 -4.6119
# 5 6.6665 16.0278 17.6954 3.2864 22.8385 -1.0390
# 6 7.4824 15.5752 4.9477 -4.6119 -1.0390 30.0845
#
#
#
# Elastic Compliance Matrix: (Units=1/GPa)
#
#
# Indices 1 2 3 4 5 6 
#
# 1 0.038103 0.001193 -0.000364 0.000657 -0.012243 -0.010357
# 2 0.001193 0.012540 -0.002749 -0.000902 -0.007194 -0.006723
# 3 -0.000364 -0.002749 0.010379 0.007842 -0.007099 0.000764
# 4 0.000657 -0.000902 0.007842 0.033737 -0.010316 0.003829
# 5 -0.012243 -0.007194 -0.007099 -0.010316 0.059776 0.008420
# 6 -0.010357 -0.006723 0.000764 0.003829 0.008420 0.040048
#
#
# Mechanical properties :
#
#
# Convention : Reuss Voigt Hill
#
# Bulk Modulus (GPa) = 17.48849 42.71276 30.10063
# Shear Modulus (GPa) = 22.99009 32.70929 27.84969
#
# Velocity S-wave (km/s) = 3.07299 3.66544 3.38221
# Velocity P-wave (km/s) = 4.44685 5.95469 5.25513
#
# Compressibility (1/GPa) = 0.05718047
#
# Stress axis : x y z
#
# Youngs Moduli (GPa) = 26.24454 79.74675 96.35120
#
# Poissons Ratio (x) = -0.09516 0.03512
# Poissons Ratio (y) = -0.03132 0.26490
# Poissons Ratio (z) = 0.00957 0.21925
#
# Static dielectric constant tensor:
#      x y z
#    x 2.004110 -0.051160 0.043600 
#    y -0.051160 2.065450 0.059200 
#    z 0.043600 0.059200 1.963660 
# 
# From -- ./inp_files/39357.got.cif
#   From: 2010.05.17/outbox.cif.g08.bks.cpg/sg2_20_cif.got.tgz:39357.got - 2010.06.03 11:33:40.
