data_PCOD9024851
_publ_section_title
;
Structure prediction by ZEFSAII (Michael W. Deem and Ramdas Pophale) SiO2 
 PCOD9024851
Probable space group: P -1
;
_chemical_formula_sum "Si O2"
_cell_formula_units_Z 16
_cell_length_a 9.132477
_cell_length_b 12.855890
_cell_length_c 6.806443
_cell_angle_alpha 108.943480
_cell_angle_beta 111.141554
_cell_angle_gamma 96.314234
_cell_volume 681.210531
_symmetry_space_group_name_H-M "P -1"
_symmetry_group_IT_number 2
_symmetry_cell_setting 'triclinic'
loop_
_space_group_symop_operation_xyz
x,y,z
-x,-y,-z
loop_
_atom_site_type_symbol
_atom_site_label
_atom_site_fract_x
_atom_site_fract_y
_atom_site_fract_z
Si Si1 0.525499 0.504533 0.747409
Si Si2 0.644964 0.189034 0.212944
Si Si3 0.750779 0.634473 0.237320
Si Si4 0.072901 0.720246 0.276144
Si Si5 0.347171 0.144045 0.592988
Si Si6 0.673635 0.313225 0.909766
Si Si7 0.684875 0.964560 0.875945
Si Si8 0.892810 0.913470 0.242747
O O1 0.500000 0.500000 0.500000
O O2 0.346622 0.464874 0.730234
O O3 0.611755 0.410703 0.822416
O O4 0.638499 0.617861 0.973686
O O5 0.785058 0.225590 0.467434
O O6 0.471769 0.140033 0.207917
O O7 0.665893 0.292561 0.129291
O O8 0.667218 0.081754 0.030474
O O9 0.742281 0.752716 0.411379
O O10 0.930048 0.629020 0.264061
O O11 0.154247 0.682273 0.101395
O O12 0.970880 0.808423 0.215884
O O13 0.536647 0.200520 0.710586
O O14 0.302650 0.042596 0.356427
O O15 0.285156 0.104500 0.753977
O O16 0.852687 0.947515 0.030647
O O17 0.000000 0.000000 0.500000
#
# Coordination Sequence:
#
# PCOD9024851 Si02
#       8
#     2   2   2   2   2   2   2   2
#     4  10  23  47  77  97 128 176 221 269 350 416
#     4  11  24  40  63 100 138 180 228 276 322 392
#     4   9  23  44  66 104 134 163 219 283 328 408
#     4  11  24  41  64 101 143 169 218 281 338 379
#     4  10  22  40  66  93 132 181 222 268 330 396
#     4  11  24  41  67  98 131 174 222 278 338 403
#     4  11  23  40  68  92 136 192 232 262 327 392
#     4  11  23  40  61  95 137 177 230 282 314 384
#
# _framework density 23.487597999999998
#
# number of rings (size 3 to 8) (size 9 to 14) (size 15 to 20)
#    0.000    1.500    3.750    0.000    1.750   11.500 
#    0.000    1.250    0.000    0.000    0.000    0.000 
#    0.000    0.000    0.000    0.000    0.000    0.000 
#
# Total GULP energy -89282.377387 kJ/mol
# GULP energy per Si atom -5580.148587 kJ/mol
# Density = 2.343414 g / cm^3
# Si number density = 23.487598 Si / 1000 Ang^3
#
#
#
# Elastic Constant Matrix: (Units=GPa)
#
#
# Indices 1 2 3 4 5 6 
#
# 1 132.4485 32.7885 18.2834 -14.9253 1.0829 28.5622
# 2 32.7885 68.7031 15.1258 -12.4712 1.4038 -6.0130
# 3 18.2834 15.1258 81.9548 -14.5013 0.8129 -0.5635
# 4 -14.9253 -12.4712 -14.5013 33.7372 3.4345 7.8008
# 5 1.0829 1.4038 0.8129 3.4345 32.7336 -3.2402
# 6 28.5622 -6.0130 -0.5635 7.8008 -3.2402 34.7548
#
#
#
# Elastic Compliance Matrix: (Units=1/GPa)
#
#
# Indices 1 2 3 4 5 6 
#
# 1 0.012627 -0.005816 -0.000686 0.006367 -0.002108 -0.013020
# 2 -0.005816 0.018719 -0.001781 0.001829 -0.000008 0.007578
# 3 -0.000686 -0.001781 0.013597 0.005145 -0.000853 -0.000759
# 4 0.006367 0.001829 0.005145 0.039231 -0.005938 -0.014191
# 5 -0.002108 -0.000008 -0.000853 -0.005938 0.031860 0.006020
# 6 -0.013020 0.007578 -0.000759 -0.014191 0.006020 0.044519
#
#
# Mechanical properties :
#
#
# Convention : Reuss Voigt Hill
#
# Bulk Modulus (GPa) = 35.24004 46.16689 40.70347
# Shear Modulus (GPa) = 26.79853 34.70571 30.75212
#
# Velocity S-wave (km/s) = 3.38148 3.84815 3.62234
# Velocity P-wave (km/s) = 5.50292 6.28036 5.90445
#
# Compressibility (1/GPa) = 0.02837681
#
# Stress axis : x y z
#
# Youngs Moduli (GPa) = 79.19563 53.42229 73.54461
#
# Poissons Ratio (x) = 0.31071 0.05042
# Poissons Ratio (y) = 0.46060 0.13101
# Poissons Ratio (z) = 0.05430 0.09517
#
# Static dielectric constant tensor:
#      x y z
#    x 1.918870 0.018320 -0.013780 
#    y 0.018320 2.037140 0.028860 
#    z -0.013780 0.028860 1.877380 
# 
# From -- ./inp_files/39543.got.cif
#   From: 2010.05.17/outbox.cif.g08.bks.cpg/sg2_20_cif.got.tgz:39543.got - 2010.06.03 11:33:40.
