data_PCOD9024774
_publ_section_title
;
Structure prediction by ZEFSAII (Michael W. Deem and Ramdas Pophale) SiO2 
 PCOD9024774
Probable space group: P -1
;
_chemical_formula_sum "Si O2"
_cell_formula_units_Z 14
_cell_length_a 7.210974
_cell_length_b 14.942435
_cell_length_c 13.218457
_cell_angle_alpha 127.197298
_cell_angle_beta 132.245930
_cell_angle_gamma 38.913763
_cell_volume 652.051955
_symmetry_space_group_name_H-M "P -1"
_symmetry_group_IT_number 2
_symmetry_cell_setting 'triclinic'
loop_
_space_group_symop_operation_xyz
x,y,z
-x,-y,-z
loop_
_atom_site_type_symbol
_atom_site_label
_atom_site_fract_x
_atom_site_fract_y
_atom_site_fract_z
Si Si1 0.654098 0.078513 0.615804
Si Si2 0.728525 0.459059 0.316500
Si Si3 0.539244 0.735193 0.519339
Si Si4 0.632718 0.627272 0.980747
Si Si5 0.752488 0.815753 0.065818
Si Si6 0.381034 0.889726 0.777829
Si Si7 0.497208 0.352928 0.823792
O O1 0.664761 0.133758 0.545777
O O2 0.465770 0.227769 0.710661
O O3 0.500000 0.000000 0.500000
O O4 0.008747 0.968193 0.718154
O O5 0.511944 0.608921 0.403113
O O6 0.578777 0.381218 0.183484
O O7 0.743767 0.516467 0.251514
O O8 0.080545 0.349142 0.418102
O O9 0.470251 0.793173 0.646701
O O10 0.615642 0.765775 0.060931
O O11 0.550850 0.609260 0.050659
O O12 0.000000 0.500000 0.000000
O O13 0.140148 0.716509 0.128059
O O14 0.619105 0.976454 0.151930
O O15 0.616123 0.811224 0.905197
#
# Coordination Sequence:
#
# PCOD9024774 Si02
#       7
#     2   2   2   2   2   2   2
#     4  10  23  39  60  90 120 159 207 248 304 364
#     4  10  22  41  60  94 123 161 206 244 311 358
#     4  10  22  40  66  82 123 169 195 254 306 353
#     4  12  24  36  68  92 123 162 205 246 306 370
#     4  10  23  42  62  98 118 160 207 248 309 361
#     4  10  22  42  64  85 127 157 203 258 299 360
#     4  10  22  43  61  89 131 156 196 265 299 352
#
# _framework density 21.470683000000001
#
# number of rings (size 3 to 8) (size 9 to 14) (size 15 to 20)
#    0.000    1.714    1.429    1.714    6.000    1.143 
#    0.000    3.571    0.000    0.000    0.000    0.000 
#    0.000    0.000    0.000    0.000    0.000    0.000 
#
# Total GULP energy -78181.635143 kJ/mol
# GULP energy per Si atom -5584.402510 kJ/mol
# Density = 2.142181 g / cm^3
# Si number density = 21.470683 Si / 1000 Ang^3
#
#
#
# Elastic Constant Matrix: (Units=GPa)
#
#
# Indices 1 2 3 4 5 6 
#
# 1 47.2388 11.0177 17.5410 12.7597 3.5294 13.0819
# 2 11.0177 31.5524 7.0016 -1.3218 3.2513 4.3052
# 3 17.5410 7.0016 109.0639 6.7847 2.9999 2.9576
# 4 12.7597 -1.3218 6.7847 46.9211 -2.1987 4.2156
# 5 3.5294 3.2513 2.9999 -2.1987 42.4147 8.5762
# 6 13.0819 4.3052 2.9576 4.2156 8.5762 19.8267
#
#
#
# Elastic Compliance Matrix: (Units=1/GPa)
#
#
# Indices 1 2 3 4 5 6 
#
# 1 0.030807 -0.008017 -0.003609 -0.006457 0.001472 -0.017312
# 2 -0.008017 0.035343 -0.001096 0.003489 -0.001298 -0.002402
# 3 -0.003609 -0.001096 0.009835 -0.000644 -0.000663 0.001576
# 4 -0.006457 0.003489 -0.000644 0.023558 0.001996 -0.002273
# 5 0.001472 -0.001298 -0.000663 0.001996 0.026201 -0.012348
# 6 -0.017312 -0.002402 0.001576 -0.002273 -0.012348 0.067971
#
#
# Mechanical properties :
#
#
# Convention : Reuss Voigt Hill
#
# Bulk Modulus (GPa) = 19.78543 28.77506 24.28025
# Shear Modulus (GPa) = 21.18579 31.98548 26.58564
#
# Velocity S-wave (km/s) = 3.14464 3.86389 3.52267
# Velocity P-wave (km/s) = 4.73498 5.77384 5.28003
#
# Compressibility (1/GPa) = 0.05054224
#
# Stress axis : x y z
#
# Youngs Moduli (GPa) = 32.45966 28.29375 101.67371
#
# Poissons Ratio (x) = 0.22682 0.36699
# Poissons Ratio (y) = 0.26022 0.11141
# Poissons Ratio (z) = 0.11716 0.03100
#
# Static dielectric constant tensor:
#      x y z
#    x 1.785200 0.024450 0.000490 
#    y 0.024450 1.818840 0.029840 
#    z 0.000490 0.029840 1.789800 
# 
# From -- ./inp_files/95694.got.cif
#   From: 2010.05.17/outbox.cif.g08.bks.cpg/sg2_48_cif.got.tgz:95694.got - 2010.06.03 11:33:40.
