data_PCOD9024854
_publ_section_title
;
Structure prediction by ZEFSAII (Michael W. Deem and Ramdas Pophale) SiO2 
 PCOD9024854
Probable space group: P -1
;
_chemical_formula_sum "Si O2"
_cell_formula_units_Z 16
_cell_length_a 11.522631
_cell_length_b 12.207705
_cell_length_c 21.985273
_cell_angle_alpha 148.677289
_cell_angle_beta 28.497271
_cell_angle_gamma 141.733899
_cell_volume 759.646258
_symmetry_space_group_name_H-M "P -1"
_symmetry_group_IT_number 2
_symmetry_cell_setting 'triclinic'
loop_
_space_group_symop_operation_xyz
x,y,z
-x,-y,-z
loop_
_atom_site_type_symbol
_atom_site_label
_atom_site_fract_x
_atom_site_fract_y
_atom_site_fract_z
Si Si1 0.298682 0.349828 0.982112
Si Si2 0.481140 0.611222 0.914160
Si Si3 0.448939 0.909743 0.665083
Si Si4 0.837839 0.829557 0.535972
Si Si5 0.027128 0.383786 0.236799
Si Si6 0.616684 0.867521 0.435732
Si Si7 0.714386 0.538878 0.646790
Si Si8 0.190144 0.997692 0.234205
O O1 0.291332 0.454950 0.968983
O O2 0.397627 0.127400 0.822723
O O3 0.500000 0.500000 0.000000
O O4 0.057176 0.337249 0.128961
O O5 0.576966 0.513053 0.762623
O O6 0.724667 0.657400 0.864627
O O7 0.363965 0.823077 0.056505
O O8 0.593435 0.780467 0.584801
O O9 0.189828 0.771715 0.707249
O O10 0.586130 0.954969 0.559413
O O11 0.973299 0.623889 0.384498
O O12 0.791072 0.937050 0.672362
O O13 0.000000 0.000000 0.500000
O O14 0.458400 0.632156 0.395785
O O15 0.908295 0.894953 0.302647
O O16 0.500000 0.000000 0.500000
O O17 0.000000 0.500000 0.500000
O O18 0.732826 0.782228 0.732268
#
# Coordination Sequence:
#
# PCOD9024854 Si02
#       8
#     2   2   2   2   2   2   2   2
#     4  10  22  40  66  93 134 181 217 273 346 408
#     4  11  24  47  67  99 142 182 227 282 357 409
#     4  12  24  43  69 103 137 177 235 289 341 417
#     4  12  22  42  71  99 138 179 229 282 350 409
#     4  11  24  41  69 104 138 181 228 289 348 414
#     4  12  26  44  73 105 136 185 240 283 346 415
#     4  12  25  47  73 100 138 182 235 287 345 411
#     4  12  26  45  72 102 141 183 232 290 346 415
#
# _framework density 21.062436000000002
#
# number of rings (size 3 to 8) (size 9 to 14) (size 15 to 20)
#    0.000    0.500    2.500    7.875    0.000    0.500 
#    2.250    0.000    0.000    0.000    0.000    0.000 
#    0.000    0.000    0.000    0.000    0.000    0.000 
#
# Total GULP energy -89461.381298 kJ/mol
# GULP energy per Si atom -5591.336331 kJ/mol
# Density = 2.101450 g / cm^3
# Si number density = 21.062436 Si / 1000 Ang^3
#
#
#
# Elastic Constant Matrix: (Units=GPa)
#
#
# Indices 1 2 3 4 5 6 
#
# 1 74.0034 0.0626 26.0588 1.7563 -3.6918 2.7337
# 2 0.0626 72.0402 19.0725 17.3468 -4.1097 4.0066
# 3 26.0588 19.0725 115.1746 10.2331 1.2604 1.1388
# 4 1.7563 17.3468 10.2331 30.0677 -17.1938 3.4799
# 5 -3.6918 -4.1097 1.2604 -17.1938 42.7017 -6.5280
# 6 2.7337 4.0066 1.1388 3.4799 -6.5280 33.0821
#
#
#
# Elastic Compliance Matrix: (Units=1/GPa)
#
#
# Indices 1 2 3 4 5 6 
#
# 1 0.014880 0.000864 -0.003603 0.000948 0.001709 -0.000973
# 2 0.000864 0.016860 -0.002015 -0.010452 -0.002677 -0.001473
# 3 -0.003603 -0.002015 0.010147 -0.003305 -0.002117 0.000122
# 4 0.000948 -0.010452 -0.003305 0.051823 0.020009 -0.000202
# 5 0.001709 -0.002677 -0.002117 0.020009 0.032114 0.004488
# 6 -0.000973 -0.001473 0.000122 -0.000202 0.004488 0.031389
#
#
# Mechanical properties :
#
#
# Convention : Reuss Voigt Hill
#
# Bulk Modulus (GPa) = 30.88453 39.06735 34.97594
# Shear Modulus (GPa) = 28.16699 35.57190 31.86944
#
# Velocity S-wave (km/s) = 3.66089 4.11406 3.89407
# Velocity P-wave (km/s) = 5.70654 6.41529 6.07127
#
# Compressibility (1/GPa) = 0.03237867
#
# Stress axis : x y z
#
# Youngs Moduli (GPa) = 67.20620 59.31287 98.55156
#
# Poissons Ratio (x) = -0.05126 0.35509
# Poissons Ratio (y) = -0.05808 0.19858
# Poissons Ratio (z) = 0.24215 0.11951
#
# Static dielectric constant tensor:
#      x y z
#    x 1.805050 -0.002250 0.031680 
#    y -0.002250 1.753000 -0.000960 
#    z 0.031680 -0.000960 1.712080 
# 
# From -- ./inp_files/259010.got.cif
#   From: 2010.05.17/outbox.cif.g08.bks.cpg/sg2_130_cif.got.tgz:259010.got - 2010.06.03 11:33:40.
