data_PCOD9024031
_publ_section_title
;
Structure prediction by ZEFSAII (Michael W. Deem and Ramdas Pophale) SiO2 
 PCOD9024031
Probable space group: P -1
;
_chemical_formula_sum "Si O2"
_cell_formula_units_Z 16
_cell_length_a 8.979431
_cell_length_b 12.306218
_cell_length_c 15.543240
_cell_angle_alpha 133.921819
_cell_angle_beta 69.844175
_cell_angle_gamma 73.687731
_cell_volume 742.584575
_symmetry_space_group_name_H-M "P -1"
_symmetry_group_IT_number 2
_symmetry_cell_setting 'triclinic'
loop_
_space_group_symop_operation_xyz
x,y,z
-x,-y,-z
loop_
_atom_site_type_symbol
_atom_site_label
_atom_site_fract_x
_atom_site_fract_y
_atom_site_fract_z
Si Si1 0.793151 0.920496 0.563955
Si Si2 0.254695 0.052244 0.845218
Si Si3 0.898743 0.501763 0.864668
Si Si4 0.538322 0.131332 0.112864
Si Si5 0.341600 0.132769 0.692454
Si Si6 0.376910 0.728458 0.103649
Si Si7 0.956576 0.376728 0.490486
Si Si8 0.064453 0.006186 0.155869
O O1 0.964180 0.706005 0.345843
O O2 0.829302 0.801914 0.579981
O O3 0.513669 0.136988 0.701760
O O4 0.834181 0.056129 0.669253
O O5 0.348847 0.011635 0.705486
O O6 0.437304 0.907884 0.811160
O O7 0.093035 0.321817 0.047738
O O8 0.113371 0.996751 0.840041
O O9 0.059066 0.352440 0.837330
O O10 0.609885 0.670213 0.009498
O O11 0.304033 0.408639 0.292477
O O12 0.500000 0.000000 0.000000
O O13 0.780325 0.035152 0.975056
O O14 0.500000 0.000000 0.500000
O O15 0.247174 0.800200 0.077900
O O16 0.500000 0.500000 0.000000
O O17 0.000000 0.500000 0.500000
O O18 0.947717 0.237105 0.354540
#
# Coordination Sequence:
#
# PCOD9024031 Si02
#       8
#     2   2   2   2   2   2   2   2
#     4  10  22  40  63 100 124 174 233 270 337 412
#     4  12  24  44  69  98 144 177 227 292 344 408
#     4  11  23  41  68  93 134 179 223 278 346 407
#     4  12  24  45  71  99 133 184 232 278 341 415
#     4  10  22  41  67  99 132 175 230 277 342 410
#     4  11  23  41  68  94 135 180 228 281 336 402
#     4  11  22  41  69  93 136 180 230 285 332 402
#     4  11  26  43  64 106 139 176 233 283 344 407
#
# _framework density 21.546368000000001
#
# number of rings (size 3 to 8) (size 9 to 14) (size 15 to 20)
#    0.000    1.000    2.500    4.500    1.750    1.000 
#    4.500    1.250    0.000    0.000    0.000    0.000 
#    0.000    0.000    0.000    0.000    0.000    0.000 
#
# Total GULP energy -89086.582808 kJ/mol
# GULP energy per Si atom -5567.911425 kJ/mol
# Density = 2.149733 g / cm^3
# Si number density = 21.546368 Si / 1000 Ang^3
#
#
#
# Elastic Constant Matrix: (Units=GPa)
#
#
# Indices 1 2 3 4 5 6 
#
# 1 93.7248 33.0875 31.2756 -6.6868 9.0558 -13.8421
# 2 33.0875 104.0818 23.8655 4.9456 16.4980 -16.9188
# 3 31.2756 23.8655 95.0808 -7.0440 13.4147 0.3841
# 4 -6.6868 4.9456 -7.0440 40.6489 -2.7905 -3.5728
# 5 9.0558 16.4980 13.4147 -2.7905 27.8039 8.2079
# 6 -13.8421 -16.9188 0.3841 -3.5728 8.2079 44.6427
#
#
#
# Elastic Compliance Matrix: (Units=1/GPa)
#
#
# Indices 1 2 3 4 5 6 
#
# 1 0.013678 -0.002727 -0.003370 0.002187 -0.002114 0.003800
# 2 -0.002727 0.013065 -0.001451 -0.002364 -0.007995 0.005399
# 3 -0.003370 -0.001451 0.012628 0.001476 -0.003720 -0.000902
# 4 0.002187 -0.002364 0.001476 0.025777 0.002141 0.001439
# 5 -0.002114 -0.007995 -0.003720 0.002141 0.046986 -0.012121
# 6 0.003800 0.005399 -0.000902 0.001439 -0.012121 0.027976
#
#
# Mechanical properties :
#
#
# Convention : Reuss Voigt Hill
#
# Bulk Modulus (GPa) = 41.19499 52.14942 46.67220
# Shear Modulus (GPa) = 30.61886 36.26300 33.44093
#
# Velocity S-wave (km/s) = 3.77380 4.10692 3.94387
# Velocity P-wave (km/s) = 6.17652 6.83702 6.51515
#
# Compressibility (1/GPa) = 0.02427480
#
# Stress axis : x y z
#
# Youngs Moduli (GPa) = 73.10910 76.54246 79.18947
#
# Poissons Ratio (x) = 0.20871 0.26687
# Poissons Ratio (y) = 0.19934 0.11493
# Poissons Ratio (z) = 0.24638 0.11109
#
# Static dielectric constant tensor:
#      x y z
#    x 1.861900 -0.016540 0.068280 
#    y -0.016540 1.829530 -0.068960 
#    z 0.068280 -0.068960 1.998630 
# 
# From -- ./inp_files/500814.got.cif
#   From: 2010.05.17/outbox.cif.g08.bks.cpg/sg2_251_cif.got.tgz:500814.got - 2010.06.03 11:33:40.
