data_PCOD9024629
_publ_section_title
;
Structure prediction by ZEFSAII (Michael W. Deem and Ramdas Pophale) SiO2 
 PCOD9024629
Probable space group: P -1
;
_chemical_formula_sum "Si O2"
_cell_formula_units_Z 14
_cell_length_a 9.578465
_cell_length_b 17.233798
_cell_length_c 5.179260
_cell_angle_alpha 115.981163
_cell_angle_beta 128.440835
_cell_angle_gamma 50.911542
_cell_volume 518.266439
_symmetry_space_group_name_H-M "P -1"
_symmetry_group_IT_number 2
_symmetry_cell_setting 'triclinic'
loop_
_space_group_symop_operation_xyz
x,y,z
-x,-y,-z
loop_
_atom_site_type_symbol
_atom_site_label
_atom_site_fract_x
_atom_site_fract_y
_atom_site_fract_z
Si Si1 0.939563 0.418094 0.749073
Si Si2 0.068773 0.127943 0.430290
Si Si3 0.539277 0.297383 0.479400
Si Si4 0.575115 0.884771 0.412732
Si Si5 0.673654 0.346194 0.224247
Si Si6 0.148485 0.307756 0.302078
Si Si7 0.193072 0.913083 0.320994
O O1 0.081602 0.355981 0.577760
O O2 0.717372 0.436827 0.431128
O O3 0.967620 0.361455 0.969640
O O4 0.000000 0.500000 0.000000
O O5 0.269266 0.141969 0.689494
O O6 0.876249 0.240365 0.392812
O O7 0.128994 0.025025 0.504138
O O8 0.995588 0.094015 0.032543
O O9 0.511359 0.348564 0.245670
O O10 0.324424 0.321803 0.392268
O O11 0.685311 0.175580 0.462186
O O12 0.638123 0.331368 0.866122
O O13 0.747177 0.810238 0.704698
O O14 0.371345 0.880795 0.251712
O O15 0.500000 0.000000 0.500000
#
# Coordination Sequence:
#
# PCOD9024629 Si02
#       7
#     2   2   2   2   2   2   2
#     4  12  26  45  69  98 129 173 228 281 337 400
#     4   9  16  32  56  86 126 173 212 263 322 380
#     4  10  22  40  65  95 129 170 213 268 332 398
#     4   9  17  34  61  95 130 173 220 262 323 404
#     4  11  22  40  65  92 127 170 220 271 330 396
#     4  11  23  45  69  96 135 176 215 280 340 390
#     4   8  17  30  55  88 129 165 217 261 313 392
#
# _framework density 27.013134999999998
#
# number of rings (size 3 to 8) (size 9 to 14) (size 15 to 20)
#    0.000    2.000    1.429    2.143    2.000    0.571 
#    0.000    5.000    3.143    0.000    0.000    0.000 
#    0.000    0.000    0.000    0.000    0.000    0.000 
#
# Total GULP energy -78104.123181 kJ/mol
# GULP energy per Si atom -5578.865942 kJ/mol
# Density = 2.695165 g / cm^3
# Si number density = 27.013135 Si / 1000 Ang^3
#
#
#
# Elastic Constant Matrix: (Units=GPa)
#
#
# Indices 1 2 3 4 5 6 
#
# 1 137.5782 7.4814 27.3005 9.7200 -2.4540 13.6107
# 2 7.4814 84.2286 39.8139 4.9132 -12.4684 9.2201
# 3 27.3005 39.8139 81.4241 16.9471 -18.4295 19.0926
# 4 9.7200 4.9132 16.9471 27.1847 1.8881 7.5751
# 5 -2.4540 -12.4684 -18.4295 1.8881 42.7064 1.5304
# 6 13.6107 9.2201 19.0926 7.5751 1.5304 34.0458
#
#
#
# Elastic Compliance Matrix: (Units=1/GPa)
#
#
# Indices 1 2 3 4 5 6 
#
# 1 0.007953 0.000653 -0.002450 -0.000922 -0.000305 -0.001764
# 2 0.000653 0.015661 -0.007890 0.001931 0.001140 -0.000559
# 3 -0.002450 -0.007890 0.022745 -0.010291 0.008103 -0.007714
# 4 -0.000922 0.001931 -0.010291 0.044717 -0.005761 -0.004074
# 5 -0.000305 0.001140 0.008103 -0.005761 0.027650 -0.004692
# 6 -0.001764 -0.000559 -0.007714 -0.004074 -0.004692 0.035672
#
#
# Mechanical properties :
#
#
# Convention : Reuss Voigt Hill
#
# Bulk Modulus (GPa) = 37.05473 50.26918 43.66196
# Shear Modulus (GPa) = 27.35728 36.02971 31.69349
#
# Velocity S-wave (km/s) = 3.18581 3.65606 3.42901
# Velocity P-wave (km/s) = 5.22299 6.03920 5.64586
#
# Compressibility (1/GPa) = 0.02698711
#
# Stress axis : x y z
#
# Youngs Moduli (GPa) = 125.73289 63.85265 43.96537
#
# Poissons Ratio (x) = -0.04171 0.10770
# Poissons Ratio (y) = -0.08212 0.34687
# Poissons Ratio (z) = 0.30801 0.50378
#
# Static dielectric constant tensor:
#      x y z
#    x 2.258590 -0.032510 0.060420 
#    y -0.032510 2.272550 -0.110950 
#    z 0.060420 -0.110950 2.122150 
# 
# From -- ./inp_files/48728.got.cif
#   From: 2010.05.17/outbox.cif.g08.bks.cpg/sg2_25_cif.got.tgz:48728.got - 2010.06.03 11:33:40.
