data_PCOD9024500
_publ_section_title
;
Structure prediction by ZEFSAII (Michael W. Deem and Ramdas Pophale) SiO2 
 PCOD9024500
Probable space group: P -1
;
_chemical_formula_sum "Si O2"
_cell_formula_units_Z 16
_cell_length_a 25.161292
_cell_length_b 8.354037
_cell_length_c 12.094629
_cell_angle_alpha 42.477825
_cell_angle_beta 30.695227
_cell_angle_gamma 33.608756
_cell_volume 716.271990
_symmetry_space_group_name_H-M "P -1"
_symmetry_group_IT_number 2
_symmetry_cell_setting 'triclinic'
loop_
_space_group_symop_operation_xyz
x,y,z
-x,-y,-z
loop_
_atom_site_type_symbol
_atom_site_label
_atom_site_fract_x
_atom_site_fract_y
_atom_site_fract_z
Si Si1 0.813600 0.317821 0.688026
Si Si2 0.544547 0.665124 0.110125
Si Si3 0.405477 0.345717 0.512809
Si Si4 0.042408 0.085224 0.993724
Si Si5 0.186718 0.749106 0.539842
Si Si6 0.307638 0.535534 0.838364
Si Si7 0.855855 0.684178 0.706114
Si Si8 0.966488 0.661241 0.745604
O O1 0.806130 0.321987 0.565619
O O2 0.900155 0.431947 0.500631
O O3 0.896968 0.984916 0.749307
O O4 0.675223 0.482931 0.900632
O O5 0.463419 0.534793 0.290523
O O6 0.578488 0.569062 0.227140
O O7 0.500000 0.000000 0.000000
O O8 0.284157 0.481474 0.579131
O O9 0.359613 0.398677 0.695037
O O10 0.500000 0.000000 0.500000
O O11 0.956879 0.089781 0.241218
O O12 0.999168 0.411976 0.896446
O O13 0.193655 0.871915 0.849385
O O14 0.000000 0.000000 0.000000
O O15 0.214138 0.992651 0.377396
O O16 0.228769 0.433751 0.094800
O O17 0.873630 0.685254 0.805794
O O18 0.000000 0.500000 0.500000
#
# Coordination Sequence:
#
# PCOD9024500 Si02
#       8
#     2   2   2   2   2   2   2   2
#     4  10  26  44  69  99 143 188 234 291 356 426
#     4  12  30  51  73 101 145 198 250 294 348 422
#     4  12  30  49  74 101 145 195 250 293 352 424
#     4  12  22  40  71 109 139 175 224 297 369 417
#     4  11  24  42  70 106 136 186 237 294 358 428
#     4  12  26  46  74 106 145 187 238 301 360 425
#     4  11  19  37  70 102 141 180 229 283 360 430
#     4  10  22  40  65 102 148 176 228 287 363 426
#
# _framework density 22.337883000000001
#
# number of rings (size 3 to 8) (size 9 to 14) (size 15 to 20)
#    0.000    0.750    3.750    1.875   12.250    2.000 
#    0.000    0.000    0.000    0.000    0.000    0.000 
#    0.000    0.000    0.000    0.000    0.000    0.000 
#
# Total GULP energy -89392.000469 kJ/mol
# GULP energy per Si atom -5587.000029 kJ/mol
# Density = 2.228704 g / cm^3
# Si number density = 22.337883 Si / 1000 Ang^3
#
#
#
# Elastic Constant Matrix: (Units=GPa)
#
#
# Indices 1 2 3 4 5 6 
#
# 1 97.4549 37.7969 15.1370 7.0486 12.7617 -13.3008
# 2 37.7969 135.0007 41.5110 -2.3181 15.1870 -21.7474
# 3 15.1370 41.5110 106.8781 9.8907 9.2016 12.4621
# 4 7.0486 -2.3181 9.8907 40.5748 7.0369 -1.0467
# 5 12.7617 15.1870 9.2016 7.0369 43.5771 -3.8340
# 6 -13.3008 -21.7474 12.4621 -1.0467 -3.8340 25.5169
#
#
#
# Elastic Compliance Matrix: (Units=1/GPa)
#
#
# Indices 1 2 3 4 5 6 
#
# 1 0.012284 -0.002106 -0.001178 -0.001505 -0.001947 0.004829
# 2 -0.002106 0.011951 -0.005853 0.003087 -0.001772 0.011807
# 3 -0.001178 -0.005853 0.013688 -0.003613 -0.001030 -0.012591
# 4 -0.001505 0.003087 -0.003613 0.026734 -0.003826 0.004133
# 5 -0.001947 -0.001772 -0.001030 -0.003826 0.025111 0.001594
# 6 0.004829 0.011807 -0.012591 0.004133 0.001594 0.058328
#
#
# Mechanical properties :
#
#
# Convention : Reuss Voigt Hill
#
# Bulk Modulus (GPa) = 50.89535 58.69149 54.79342
# Shear Modulus (GPa) = 28.91503 38.25966 33.58735
#
# Velocity S-wave (km/s) = 3.60173 4.14305 3.88184
# Velocity P-wave (km/s) = 6.33486 7.01555 6.68388
#
# Compressibility (1/GPa) = 0.01964816
#
# Stress axis : x y z
#
# Youngs Moduli (GPa) = 81.40845 83.67362 73.05772
#
# Poissons Ratio (x) = 0.17620 0.08607
# Poissons Ratio (y) = 0.17143 0.42764
# Poissons Ratio (z) = 0.09591 0.48978
#
# Static dielectric constant tensor:
#      x y z
#    x 1.908260 -0.004160 -0.017820 
#    y -0.004160 1.837260 -0.018160 
#    z -0.017820 -0.018160 1.825100 
# 
# From -- ./inp_files/476371.got.cif
#   From: 2010.05.17/outbox.cif.g08.bks.cpg/sg2_239_cif.got.tgz:476371.got - 2010.06.03 11:33:40.
