data_PCOD9024195
_publ_section_title
;
Structure prediction by ZEFSAII (Michael W. Deem and Ramdas Pophale) SiO2 
 PCOD9024195
Probable space group: P -1
;
_chemical_formula_sum "Si O2"
_cell_formula_units_Z 16
_cell_length_a 26.082971
_cell_length_b 5.034154
_cell_length_c 15.459572
_cell_angle_alpha 67.055666
_cell_angle_beta 27.429306
_cell_angle_gamma 85.713547
_cell_volume 662.039248
_symmetry_space_group_name_H-M "P -1"
_symmetry_group_IT_number 2
_symmetry_cell_setting 'triclinic'
loop_
_space_group_symop_operation_xyz
x,y,z
-x,-y,-z
loop_
_atom_site_type_symbol
_atom_site_label
_atom_site_fract_x
_atom_site_fract_y
_atom_site_fract_z
Si Si1 0.392698 0.700022 0.879408
Si Si2 0.824250 0.003015 0.146865
Si Si3 0.373235 0.579788 0.217166
Si Si4 0.655049 0.957334 0.556382
Si Si5 0.862204 0.719841 0.955115
Si Si6 0.622668 0.675475 0.220114
Si Si7 0.857823 0.470567 0.333809
Si Si8 0.805769 0.823011 0.615826
O O1 0.535349 0.961523 0.692529
O O2 0.431664 0.601899 0.744683
O O3 0.338805 0.934009 0.913283
O O4 0.269789 0.304769 0.161829
O O5 0.832443 0.328935 0.045893
O O6 0.972152 0.212931 0.952844
O O7 0.822769 0.763958 0.104821
O O8 0.698974 0.827955 0.426689
O O9 0.417172 0.340665 0.218884
O O10 0.229249 0.410183 0.510536
O O11 0.311220 0.538645 0.221098
O O12 0.500000 0.000000 0.000000
O O13 0.794198 0.313671 0.353369
O O14 0.760740 0.732276 0.042550
O O15 0.033827 0.044321 0.641001
O O16 0.500000 0.500000 0.500000
O O17 0.820508 0.142399 0.497193
#
# Coordination Sequence:
#
# PCOD9024195 Si02
#       8
#     2   2   2   2   2   2   2   2
#     4  12  27  43  72  98 132 174 226 274 326 406
#     4  11  23  42  70  99 134 177 224 267 336 402
#     4  11  22  39  66  91 142 176 219 271 326 390
#     4  11  25  39  63 103 133 181 223 272 325 399
#     4  11  24  46  71  94 137 176 216 289 335 388
#     4  12  27  48  70  99 131 171 224 283 341 387
#     4  10  22  40  63  97 139 178 213 274 325 395
#     4  10  24  43  64 102 132 175 225 263 338 396
#
# _framework density 24.167753000000001
#
# number of rings (size 3 to 8) (size 9 to 14) (size 15 to 20)
#    0.000    1.000    1.250    4.500    7.000    3.500 
#    0.000    0.000    0.000    0.000    0.000    0.000 
#    0.000    0.000    0.000    0.000    0.000    0.000 
#
# Total GULP energy -89567.457418 kJ/mol
# GULP energy per Si atom -5597.966089 kJ/mol
# Density = 2.411275 g / cm^3
# Si number density = 24.167753 Si / 1000 Ang^3
#
#
#
# Elastic Constant Matrix: (Units=GPa)
#
#
# Indices 1 2 3 4 5 6 
#
# 1 154.0517 33.8670 47.2637 6.0992 -22.2793 -20.2943
# 2 33.8670 67.5561 -2.6949 3.0878 -4.4323 -11.4920
# 3 47.2637 -2.6949 98.4847 8.7787 -8.1537 -13.1169
# 4 6.0992 3.0878 8.7787 34.4877 -2.2032 -1.2865
# 5 -22.2793 -4.4323 -8.1537 -2.2032 37.5305 9.9164
# 6 -20.2943 -11.4920 -13.1169 -1.2865 9.9164 43.5715
#
#
#
# Elastic Compliance Matrix: (Units=1/GPa)
#
#
# Indices 1 2 3 4 5 6 
#
# 1 0.009470 -0.004480 -0.004209 0.000087 0.003899 0.001077
# 2 -0.004480 0.017822 0.003196 -0.001537 -0.000940 0.003744
# 3 -0.004209 0.003196 0.012849 -0.002724 -0.000207 0.002717
# 4 0.000087 -0.001537 -0.002724 0.029866 0.001183 -0.000572
# 5 0.003899 -0.000940 -0.000207 0.001183 0.030287 -0.005353
# 6 0.001077 0.003744 0.002717 -0.000572 -0.005353 0.026460
#
#
# Mechanical properties :
#
#
# Convention : Reuss Voigt Hill
#
# Bulk Modulus (GPa) = 34.30131 52.99600 43.64865
# Shear Modulus (GPa) = 33.90824 39.22836 36.56830
#
# Velocity S-wave (km/s) = 3.74978 4.03323 3.89408
# Velocity P-wave (km/s) = 5.74209 6.60797 6.19019
#
# Compressibility (1/GPa) = 0.02915341
#
# Stress axis : x y z
#
# Youngs Moduli (GPa) = 105.59854 56.11191 77.82901
#
# Poissons Ratio (x) = 0.25139 0.32756
# Poissons Ratio (y) = 0.47310 -0.24871
# Poissons Ratio (z) = 0.44444 -0.17931
#
# Static dielectric constant tensor:
#      x y z
#    x 1.926010 -0.017970 0.043640 
#    y -0.017970 1.987470 -0.026920 
#    z 0.043640 -0.026920 1.925460 
# 
# From -- ./inp_files/77189.got.cif
#   From: 2010.05.17/outbox.cif.g08.bks.cpg/sg2_39_cif.got.tgz:77189.got - 2010.06.03 11:33:40.
