data_PCOD9024857
_publ_section_title
;
Structure prediction by ZEFSAII (Michael W. Deem and Ramdas Pophale) SiO2 
 PCOD9024857
Probable space group: P -1
;
_chemical_formula_sum "Si O2"
_cell_formula_units_Z 14
_cell_length_a 8.133657
_cell_length_b 5.821172
_cell_length_c 14.537025
_cell_angle_alpha 65.114883
_cell_angle_beta 123.965564
_cell_angle_gamma 115.206316
_cell_volume 500.923269
_symmetry_space_group_name_H-M "P -1"
_symmetry_group_IT_number 2
_symmetry_cell_setting 'triclinic'
loop_
_space_group_symop_operation_xyz
x,y,z
-x,-y,-z
loop_
_atom_site_type_symbol
_atom_site_label
_atom_site_fract_x
_atom_site_fract_y
_atom_site_fract_z
Si Si1 0.706012 0.174932 0.251922
Si Si2 0.076408 0.884837 0.184186
Si Si3 0.257648 0.855332 0.451746
Si Si4 0.737654 0.090710 0.073254
Si Si5 0.400143 0.639904 0.289317
Si Si6 0.647557 0.576748 0.881291
Si Si7 0.845155 0.674978 0.568128
O O1 0.785194 0.087781 0.195772
O O2 0.541569 0.337155 0.145548
O O3 0.918454 0.328812 0.338318
O O4 0.568315 0.918598 0.306099
O O5 0.180659 0.169137 0.132345
O O6 0.842328 0.876555 0.100348
O O7 0.158280 0.878671 0.315885
O O8 0.179643 0.699308 0.189664
O O9 0.223579 0.536212 0.501919
O O10 0.500000 0.000000 0.500000
O O11 0.156188 0.018789 0.465750
O O12 0.764975 0.380027 0.995102
O O13 0.500000 0.000000 0.000000
O O14 0.455103 0.520162 0.233581
O O15 0.325991 0.459260 0.384974
#
# Coordination Sequence:
#
# PCOD9024857 Si02
#       7
#     2   2   2   2   2   2   2
#     4  11  24  41  64  99 136 186 228 282 338 405
#     4  10  23  42  62  95 131 177 224 284 343 403
#     4  11  23  44  76 105 132 180 232 285 352 415
#     4  12  23  38  62  94 134 178 232 275 338 402
#     4  10  22  40  66  93 137 182 226 275 344 401
#     4  11  22  40  61  89 135 181 227 278 331 410
#     4  11  24  44  74 102 139 180 227 288 351 407
#
# _framework density 27.948391999999998
#
# number of rings (size 3 to 8) (size 9 to 14) (size 15 to 20)
#    0.000    1.143    4.286    1.286    6.000    0.571 
#    2.571    0.000    0.000   22.286    0.000    0.000 
#    0.000    0.000    0.000    0.000    0.000    0.000 
#
# Total GULP energy -78239.216825 kJ/mol
# GULP energy per Si atom -5588.515488 kJ/mol
# Density = 2.788478 g / cm^3
# Si number density = 27.948392 Si / 1000 Ang^3
#
#
#
# Elastic Constant Matrix: (Units=GPa)
#
#
# Indices 1 2 3 4 5 6 
#
# 1 62.0341 30.6272 36.2682 5.6406 12.3179 -2.9444
# 2 30.6272 125.0115 13.4514 3.7160 2.9568 -1.7042
# 3 36.2682 13.4514 78.5646 10.4509 13.5070 10.1141
# 4 5.6406 3.7160 10.4509 45.8867 11.7533 6.0422
# 5 12.3179 2.9568 13.5070 11.7533 55.4329 -2.8356
# 6 -2.9444 -1.7042 10.1141 6.0422 -2.8356 56.2070
#
#
#
# Elastic Compliance Matrix: (Units=1/GPa)
#
#
# Indices 1 2 3 4 5 6 
#
# 1 0.025636 -0.005003 -0.010919 0.000013 -0.002617 0.003023
# 2 -0.005003 0.009148 0.000712 -0.000420 0.000537 -0.000041
# 3 -0.010919 0.000712 0.018736 -0.001982 -0.001952 -0.003807
# 4 0.000013 -0.000420 -0.001982 0.023795 -0.004668 -0.002449
# 5 -0.002617 0.000537 -0.001952 -0.004668 0.020148 0.001749
# 6 0.003023 -0.000041 -0.003807 -0.002449 0.001749 0.018985
#
#
# Mechanical properties :
#
#
# Convention : Reuss Voigt Hill
#
# Bulk Modulus (GPa) = 43.28929 47.36709 45.32819
# Shear Modulus (GPa) = 32.34860 43.85623 38.10241
#
# Velocity S-wave (km/s) = 3.40581 3.96559 3.69631
# Velocity P-wave (km/s) = 5.56675 6.16058 5.87118
#
# Compressibility (1/GPa) = 0.02310040
#
# Stress axis : x y z
#
# Youngs Moduli (GPa) = 39.00788 109.31842 53.37273
#
# Poissons Ratio (x) = 0.54693 0.58276
# Poissons Ratio (y) = 0.19516 -0.03801
# Poissons Ratio (z) = 0.42591 -0.07785
#
# Static dielectric constant tensor:
#      x y z
#    x 2.203130 -0.011160 0.018600 
#    y -0.011160 2.236480 0.028230 
#    z 0.018600 0.028230 2.053070 
# 
# From -- ./inp_files/48658.got.cif
#   From: 2010.05.17/outbox.cif.g08.bks.cpg/sg2_25_cif.got.tgz:48658.got - 2010.06.03 11:33:40.
