data_PCOD9024064
_publ_section_title
;
Structure prediction by ZEFSAII (Michael W. Deem and Ramdas Pophale) SiO2 
 PCOD9024064
Probable space group: P -1
;
_chemical_formula_sum "Si O2"
_cell_formula_units_Z 16
_cell_length_a 13.378415
_cell_length_b 9.320330
_cell_length_c 9.072951
_cell_angle_alpha 47.337250
_cell_angle_beta 103.071265
_cell_angle_gamma 86.510853
_cell_volume 773.310404
_symmetry_space_group_name_H-M "P -1"
_symmetry_group_IT_number 2
_symmetry_cell_setting 'triclinic'
loop_
_space_group_symop_operation_xyz
x,y,z
-x,-y,-z
loop_
_atom_site_type_symbol
_atom_site_label
_atom_site_fract_x
_atom_site_fract_y
_atom_site_fract_z
Si Si1 0.682026 0.465030 0.727203
Si Si2 0.680457 0.234551 0.599485
Si Si3 0.529560 0.893782 0.426807
Si Si4 0.815120 0.381355 0.341417
Si Si5 0.009145 0.119430 0.769524
Si Si6 0.148679 0.803798 0.828125
Si Si7 0.773799 0.835802 0.083902
Si Si8 0.356719 0.902287 0.891195
O O1 0.684927 0.411264 0.593545
O O2 0.634857 0.697958 0.593198
O O3 0.797606 0.363298 0.911471
O O4 0.612354 0.324783 0.870776
O O5 0.565760 0.196695 0.587539
O O6 0.718084 0.292303 0.415111
O O7 0.759618 0.020032 0.834747
O O8 0.500000 0.000000 0.500000
O O9 0.553886 0.052656 0.210318
O O10 0.863571 0.299900 0.256226
O O11 0.771842 0.625302 0.159866
O O12 0.903813 0.292200 0.560271
O O13 0.111065 0.201231 0.774263
O O14 0.045007 0.958318 0.759053
O O15 0.000000 0.000000 0.000000
O O16 0.244137 0.911378 0.765469
O O17 0.681006 0.932516 0.105511
#
# Coordination Sequence:
#
# PCOD9024064 Si02
#       8
#     2   2   2   2   2   2   2   2
#     4   9  21  42  57  81 125 158 202 238 302 351
#     4  11  23  40  62  88 122 164 204 239 296 360
#     4  12  24  35  62  94 118 159 206 249 297 348
#     4  12  22  37  66  90 124 154 198 253 298 350
#     4  11  20  42  67  87 122 158 200 245 297 364
#     4   9  21  41  60  90 124 159 191 250 309 343
#     4  10  22  40  63  90 116 160 203 239 299 360
#     4   8  20  41  58  80 125 159 194 247 287 358
#
# _framework density 20.690268
#
# number of rings (size 3 to 8) (size 9 to 14) (size 15 to 20)
#    0.750    1.000    2.500    2.625    1.750    3.500 
#    0.000    0.625    0.000    0.000    0.000    0.000 
#    0.000    0.000    0.000    0.000    0.000    0.000 
#
# Total GULP energy -89251.482281 kJ/mol
# GULP energy per Si atom -5578.217643 kJ/mol
# Density = 2.064318 g / cm^3
# Si number density = 20.690268 Si / 1000 Ang^3
#
#
#
# Elastic Constant Matrix: (Units=GPa)
#
#
# Indices 1 2 3 4 5 6 
#
# 1 26.9299 -6.6628 -9.4382 8.3379 -7.0482 -5.1263
# 2 -6.6628 113.9751 35.1732 -0.9814 -18.9654 -17.3220
# 3 -9.4382 35.1732 25.2884 -6.2002 -3.9113 -5.4294
# 4 8.3379 -0.9814 -6.2002 28.8131 -9.3828 -0.4450
# 5 -7.0482 -18.9654 -3.9113 -9.3828 27.7170 10.1796
# 6 -5.1263 -17.3220 -5.4294 -0.4450 10.1796 16.9159
#
#
#
# Elastic Compliance Matrix: (Units=1/GPa)
#
#
# Indices 1 2 3 4 5 6 
#
# 1 0.053133 -0.000027 0.023147 -0.007774 0.007151 0.018995
# 2 -0.000027 0.017929 -0.023087 -0.002490 0.005348 0.007658
# 3 0.023147 -0.023087 0.085709 0.011998 0.002738 0.009551
# 4 -0.007774 -0.002490 0.011998 0.044786 0.016853 -0.010018
# 5 0.007151 0.005348 0.002738 0.016853 0.056940 -0.025300
# 6 0.018995 0.007658 0.009551 -0.010018 -0.025300 0.090741
#
#
# Mechanical properties :
#
#
# Convention : Reuss Voigt Hill
#
# Bulk Modulus (GPa) = 6.37601 22.70419 14.54010
# Shear Modulus (GPa) = 12.45475 24.49728 18.47602
#
# Velocity S-wave (km/s) = 2.45615 3.44466 2.99152
# Velocity P-wave (km/s) = 3.33645 5.17862 4.35603
#
# Compressibility (1/GPa) = 0.15683799
#
# Stress axis : x y z
#
# Youngs Moduli (GPa) = 18.82052 55.77479 11.66733
#
# Poissons Ratio (x) = 0.00151 -0.27006
# Poissons Ratio (y) = 0.00051 0.26936
# Poissons Ratio (z) = -0.43563 1.28766
#
# Static dielectric constant tensor:
#      x y z
#    x 1.764610 0.009420 0.012740 
#    y 0.009420 1.721870 0.010360 
#    z 0.012740 0.010360 1.767860 
# 
# From -- ./inp_files/294167.got.cif
#   From: 2010.05.17/outbox.cif.g08.bks.cpg/sg2_148_cif.got.tgz:294167.got - 2010.06.03 11:33:40.
