data_PCOD9024876
_publ_section_title
;
Structure prediction by ZEFSAII (Michael W. Deem and Ramdas Pophale) SiO2 
 PCOD9024876
Probable space group: P -1
;
_chemical_formula_sum "Si O2"
_cell_formula_units_Z 14
_cell_length_a 13.376845
_cell_length_b 13.961005
_cell_length_c 8.213153
_cell_angle_alpha 110.052305
_cell_angle_beta 129.139319
_cell_angle_gamma 30.438674
_cell_volume 517.579058
_symmetry_space_group_name_H-M "P -1"
_symmetry_group_IT_number 2
_symmetry_cell_setting 'triclinic'
loop_
_space_group_symop_operation_xyz
x,y,z
-x,-y,-z
loop_
_atom_site_type_symbol
_atom_site_label
_atom_site_fract_x
_atom_site_fract_y
_atom_site_fract_z
Si Si1 0.985311 0.313419 0.497624
Si Si2 0.515364 0.467716 0.803868
Si Si3 0.122953 0.039547 0.247178
Si Si4 0.649144 0.745864 0.412643
Si Si5 0.976657 0.417418 0.043106
Si Si6 0.750676 0.943575 0.087850
Si Si7 0.640907 0.206517 0.313783
O O1 0.728733 0.442743 0.412397
O O2 0.877574 0.500490 0.467387
O O3 0.037035 0.211104 0.331417
O O4 0.242334 0.115501 0.765131
O O5 0.424720 0.631814 0.708816
O O6 0.500000 0.500000 0.000000
O O7 0.835589 0.208134 0.959785
O O8 0.385806 0.875478 0.306565
O O9 0.212440 0.916089 0.432358
O O10 0.790159 0.727563 0.665986
O O11 0.526019 0.873557 0.194456
O O12 0.033564 0.271331 0.925110
O O13 0.000000 0.500000 0.000000
O O14 0.661387 0.634073 0.902929
O O15 0.797568 0.030366 0.231965
#
# Coordination Sequence:
#
# PCOD9024876 Si02
#       7
#     2   2   2   2   2   2   2
#     4  10  23  42  64  96 132 170 215 270 318 387
#     4  10  22  42  68  98 133 168 216 270 317 389
#     4  10  22  40  66  94 130 174 213 259 327 383
#     4  12  24  43  67  97 133 171 220 268 323 387
#     4  12  24  45  68  94 136 168 218 279 317 382
#     4  11  24  40  67  98 126 173 220 261 330 384
#     4  11  24  44  68  98 131 173 217 265 328 385
#
# _framework density 27.049008000000001
#
# number of rings (size 3 to 8) (size 9 to 14) (size 15 to 20)
#    0.000    1.143    2.857    3.000    0.000    9.143 
#    0.000    7.857    0.000    0.000    0.000    0.000 
#    0.000    0.000    0.000    0.000    0.000    0.000 
#
# Total GULP energy -78510.545147 kJ/mol
# GULP energy per Si atom -5607.896082 kJ/mol
# Density = 2.698744 g / cm^3
# Si number density = 27.049008 Si / 1000 Ang^3
#
#
#
# Elastic Constant Matrix: (Units=GPa)
#
#
# Indices 1 2 3 4 5 6 
#
# 1 157.9595 31.9258 51.5331 -28.7788 3.6220 20.3042
# 2 31.9258 143.2676 33.2255 -20.8348 -9.7556 11.5240
# 3 51.5331 33.2255 179.1115 -17.2749 -11.0760 11.1422
# 4 -28.7788 -20.8348 -17.2749 44.8440 -6.4746 -4.9268
# 5 3.6220 -9.7556 -11.0760 -6.4746 36.4918 -16.3616
# 6 20.3042 11.5240 11.1422 -4.9268 -16.3616 33.7334
#
#
#
# Elastic Compliance Matrix: (Units=1/GPa)
#
#
# Indices 1 2 3 4 5 6 
#
# 1 0.008463 -0.000782 -0.001853 0.003259 -0.003462 -0.005418
# 2 -0.000782 0.007995 -0.000777 0.003215 0.002379 -0.000380
# 3 -0.001853 -0.000777 0.006508 0.001386 0.002483 0.000638
# 4 0.003259 0.003215 0.001386 0.028046 0.007913 0.004417
# 5 -0.003462 0.002379 0.002483 0.007913 0.039949 0.020983
# 6 -0.005418 -0.000380 0.000638 0.004417 0.020983 0.043647
#
#
# Mechanical properties :
#
#
# Convention : Reuss Voigt Hill
#
# Bulk Modulus (GPa) = 61.95302 79.30082 70.62692
# Shear Modulus (GPa) = 34.05743 47.25746 40.65745
#
# Velocity S-wave (km/s) = 3.55223 4.18437 3.88119
# Velocity P-wave (km/s) = 6.30699 7.26130 6.80090
#
# Compressibility (1/GPa) = 0.01614126
#
# Stress axis : x y z
#
# Youngs Moduli (GPa) = 118.16471 125.08518 153.66199
#
# Poissons Ratio (x) = 0.09785 0.28466
# Poissons Ratio (y) = 0.09244 0.11941
# Poissons Ratio (z) = 0.21890 0.09721
#
# Static dielectric constant tensor:
#      x y z
#    x 2.103390 0.001180 0.031310 
#    y 0.001180 2.116280 -0.009320 
#    z 0.031310 -0.009320 2.065760 
# 
# From -- ./inp_files/314621.got.cif
#   From: 2010.05.17/outbox.cif.g08.bks.cpg/sg2_158_cif.got.tgz:314621.got - 2010.06.03 11:33:40.
