data_PCOD9024326
_publ_section_title
;
Structure prediction by ZEFSAII (Michael W. Deem and Ramdas Pophale) SiO2 
 PCOD9024326
Probable space group: P -1
;
_chemical_formula_sum "Si O2"
_cell_formula_units_Z 16
_cell_length_a 21.631720
_cell_length_b 5.281502
_cell_length_c 5.357782
_cell_angle_alpha 86.898513
_cell_angle_beta 75.276195
_cell_angle_gamma 90.698448
_cell_volume 590.934772
_symmetry_space_group_name_H-M "P -1"
_symmetry_group_IT_number 2
_symmetry_cell_setting 'triclinic'
loop_
_space_group_symop_operation_xyz
x,y,z
-x,-y,-z
loop_
_atom_site_type_symbol
_atom_site_label
_atom_site_fract_x
_atom_site_fract_y
_atom_site_fract_z
Si Si1 0.035301 0.325450 0.778836
Si Si2 0.562961 0.987243 0.101542
Si Si3 0.736525 0.508427 0.970513
Si Si4 0.602989 0.503140 0.324854
Si Si5 0.849923 0.759648 0.548647
Si Si6 0.206265 0.823365 0.745149
Si Si7 0.670585 0.167777 0.653006
Si Si8 0.916396 0.053192 0.855444
O O1 0.106992 0.437389 0.639185
O O2 0.972655 0.239489 0.686664
O O3 0.000000 0.500000 0.000000
O O4 0.059083 0.071492 0.908061
O O5 0.620202 0.974646 0.838405
O O6 0.576221 0.251262 0.222532
O O7 0.500000 0.000000 0.000000
O O8 0.560075 0.746854 0.307218
O O9 0.785971 0.659979 0.744626
O O10 0.716203 0.270227 0.825464
O O11 0.668917 0.598759 0.122134
O O12 0.774157 0.461534 0.195223
O O13 0.627464 0.392866 0.569998
O O14 0.829520 0.020677 0.432085
O O15 0.905047 0.828401 0.686340
O O16 0.280934 0.921676 0.610155
O O17 0.155556 0.855875 0.023816
#
# Coordination Sequence:
#
# PCOD9024326 Si02
#       8
#     2   2   2   2   2   2   2   2
#     4  10  24  42  64  91 128 173 223 274 341 423
#     4  11  24  44  70 105 144 186 237 286 341 417
#     4  10  23  39  65 101 126 173 226 274 347 407
#     4  10  24  43  69 101 143 183 235 288 342 419
#     4  11  23  41  68  93 131 176 217 287 352 404
#     4  10  22  40  64  92 132 162 221 278 334 410
#     4  10  23  41  66 100 138 183 222 288 350 404
#     4  10  23  42  62  95 127 167 223 283 339 409
#
# _framework density 27.075745000000001
#
# number of rings (size 3 to 8) (size 9 to 14) (size 15 to 20)
#    0.000    1.750    0.000    2.250    3.500   11.500 
#    2.250    0.000    0.000    0.000    0.000    0.000 
#    0.000    0.000    0.000    0.000    0.000    0.000 
#
# Total GULP energy -89144.586995 kJ/mol
# GULP energy per Si atom -5571.536687 kJ/mol
# Density = 2.701412 g / cm^3
# Si number density = 27.075745 Si / 1000 Ang^3
#
#
#
# Elastic Constant Matrix: (Units=GPa)
#
#
# Indices 1 2 3 4 5 6 
#
# 1 114.4256 20.7438 23.5544 -2.8644 23.2302 -5.8254
# 2 20.7438 70.1338 7.8526 -11.4074 15.6314 -11.0621
# 3 23.5544 7.8526 70.3951 -28.9154 10.2475 -8.2549
# 4 -2.8644 -11.4074 -28.9154 30.4478 -4.8368 15.4859
# 5 23.2302 15.6314 10.2475 -4.8368 32.0948 -4.1031
# 6 -5.8254 -11.0621 -8.2549 15.4859 -4.1031 36.8615
#
#
#
# Elastic Compliance Matrix: (Units=1/GPa)
#
#
# Indices 1 2 3 4 5 6 
#
# 1 0.011414 -0.002151 -0.005177 -0.006731 -0.006304 0.002125
# 2 -0.002151 0.017479 0.002845 0.007068 -0.006564 0.001843
# 3 -0.005177 0.002845 0.027343 0.029415 -0.002767 -0.006507
# 4 -0.006731 0.007068 0.029415 0.074949 0.000289 -0.023810
# 5 -0.006304 -0.006564 -0.002767 0.000289 0.039939 0.000739
# 6 0.002125 0.001843 -0.006507 -0.023810 0.000739 0.036645
#
#
# Mechanical properties :
#
#
# Convention : Reuss Voigt Hill
#
# Bulk Modulus (GPa) = 21.15532 39.91734 30.53633
# Shear Modulus (GPa) = 21.50599 33.40106 27.45353
#
# Velocity S-wave (km/s) = 2.82137 3.51610 3.18772
# Velocity P-wave (km/s) = 4.29463 5.59095 4.98511
#
# Compressibility (1/GPa) = 0.04726943
#
# Stress axis : x y z
#
# Youngs Moduli (GPa) = 87.60799 57.21034 36.57246
#
# Poissons Ratio (x) = 0.12306 0.18935
# Poissons Ratio (y) = 0.18845 -0.10404
# Poissons Ratio (z) = 0.45358 -0.16275
#
# Static dielectric constant tensor:
#      x y z
#    x 2.116530 0.018950 -0.048040 
#    y 0.018950 2.190150 0.110490 
#    z -0.048040 0.110490 2.530850 
# 
# From -- ./inp_files/114511.got.cif
#   From: 2010.05.17/outbox.cif.g08.bks.cpg/sg2_58_cif.got.tgz:114511.got - 2010.06.03 11:33:40.
