data_PCOD9024973
_publ_section_title
;
Structure prediction by ZEFSAII (Michael W. Deem and Ramdas Pophale) SiO2 
 PCOD9024973
Probable space group: P -1
;
_chemical_formula_sum "Si O2"
_cell_formula_units_Z 13
_cell_length_a 6.903589
_cell_length_b 6.963140
_cell_length_c 14.837992
_cell_angle_alpha 113.630385
_cell_angle_beta 111.963657
_cell_angle_gamma 57.986231
_cell_volume 541.975443
_symmetry_space_group_name_H-M "P -1"
_symmetry_group_IT_number 2
_symmetry_cell_setting 'triclinic'
loop_
_space_group_symop_operation_xyz
x,y,z
-x,-y,-z
loop_
_atom_site_type_symbol
_atom_site_label
_atom_site_fract_x
_atom_site_fract_y
_atom_site_fract_z
Si Si1 0.805571 0.411714 0.585433
Si Si2 0.706488 0.028197 0.590678
Si Si3 0.252594 0.870247 0.060490
Si Si4 0.691967 0.743670 0.301288
Si Si5 0.000000 0.500000 0.500000
Si Si6 0.467229 0.184890 0.244409
Si Si7 0.525441 0.436165 0.127300
O O1 0.792582 0.185540 0.576935
O O2 0.682750 0.618189 0.672874
O O3 0.087026 0.352306 0.609288
O O4 0.746738 0.487839 0.487323
O O5 0.560580 0.168404 0.679154
O O6 0.500000 0.000000 0.500000
O O7 0.905878 0.766218 0.585226
O O8 0.291278 0.663502 0.098994
O O9 0.324400 0.053783 0.153834
O O10 0.414140 0.739407 0.978699
O O11 0.000000 0.000000 0.000000
O O12 0.709198 0.545029 0.196713
O O13 0.681037 0.970742 0.291302
O O14 0.525329 0.307539 0.194610
#
# Coordination Sequence:
#
# PCOD9024973 Si02
#       7
#     2   2   2   2   1   2   2
#     4  12  26  44  68 100 131 177 226 270 336 392
#     4  12  26  46  66  96 133 171 224 278 331 396
#     4  10  22  40  66  98 133 171 218 263 323 396
#     4  11  24  43  65  96 135 172 220 276 324 391
#     4  12  26  44  68  94 128 178 222 272 338 390
#     4  11  23  42  67  97 134 175 216 271 328 386
#     4  10  22  42  64  96 135 172 216 269 324 388
#
# _framework density 23.986325000000001
#
# number of rings (size 3 to 8) (size 9 to 14) (size 15 to 20)
#    0.000    0.923    4.615    1.846    0.000    4.923 
#    0.000    0.000    0.000    0.000    0.000    0.000 
#    0.000    0.000    0.000    0.000    0.000    0.000 
#
# Total GULP energy -72521.298799 kJ/mol
# GULP energy per Si atom -5578.561446 kJ/mol
# Density = 2.393173 g / cm^3
# Si number density = 23.986325 Si / 1000 Ang^3
#
#
#
# Elastic Constant Matrix: (Units=GPa)
#
#
# Indices 1 2 3 4 5 6 
#
# 1 72.8271 74.1757 33.1206 2.0783 -11.6563 15.1904
# 2 74.1757 207.4370 37.6764 -0.0906 -5.3164 23.5913
# 3 33.1206 37.6764 107.1002 12.2357 -10.9576 -1.2091
# 4 2.0783 -0.0906 12.2357 49.9869 1.2521 -1.1359
# 5 -11.6563 -5.3164 -10.9576 1.2521 39.2024 -16.8465
# 6 15.1904 23.5913 -1.2091 -1.1359 -16.8465 48.7869
#
#
#
# Elastic Compliance Matrix: (Units=1/GPa)
#
#
# Indices 1 2 3 4 5 6 
#
# 1 0.024781 -0.007602 -0.004621 -0.000073 0.003830 -0.002834
# 2 -0.007602 0.007872 -0.000749 0.000522 -0.002396 -0.002274
# 3 -0.004621 -0.000749 0.011702 -0.002683 0.003232 0.003145
# 4 -0.000073 0.000522 -0.002683 0.020696 -0.001506 -0.000334
# 5 0.003830 -0.002396 0.003232 -0.001506 0.032032 0.011072
# 6 -0.002834 -0.002274 0.003145 -0.000334 0.011072 0.026372
#
#
# Mechanical properties :
#
#
# Convention : Reuss Voigt Hill
#
# Bulk Modulus (GPa) = 54.31076 75.25663 64.78370
# Shear Modulus (GPa) = 32.14648 43.75469 37.95058
#
# Velocity S-wave (km/s) = 3.66485 4.27564 3.98197
# Velocity P-wave (km/s) = 6.37179 7.47113 6.94325
#
# Compressibility (1/GPa) = 0.01841256
#
# Stress axis : x y z
#
# Youngs Moduli (GPa) = 40.35282 127.02630 85.45253
#
# Poissons Ratio (x) = 0.96561 0.39489
# Poissons Ratio (y) = 0.30675 0.06401
# Poissons Ratio (z) = 0.18648 0.09515
#
# Static dielectric constant tensor:
#      x y z
#    x 2.065270 0.068880 -0.142640 
#    y 0.068880 2.388170 -0.306830 
#    z -0.142640 -0.306830 2.263460 
# 
# From -- ./inp_files/4519.got.cif
#   From: 2010.05.17/outbox.cif.g08.bks.cpg/sg2_3_cif.got.tgz:4519.got - 2010.06.03 11:33:40.
