data_PCOD9024340
_publ_section_title
;
Structure prediction by ZEFSAII (Michael W. Deem and Ramdas Pophale) SiO2 
 PCOD9024340
Probable space group: P -1
;
_chemical_formula_sum "Si O2"
_cell_formula_units_Z 13
_cell_length_a 6.822359
_cell_length_b 18.126199
_cell_length_c 15.033065
_cell_angle_alpha 19.672970
_cell_angle_beta 70.624538
_cell_angle_gamma 69.788879
_cell_volume 587.189857
_symmetry_space_group_name_H-M "P -1"
_symmetry_group_IT_number 2
_symmetry_cell_setting 'triclinic'
loop_
_space_group_symop_operation_xyz
x,y,z
-x,-y,-z
loop_
_atom_site_type_symbol
_atom_site_label
_atom_site_fract_x
_atom_site_fract_y
_atom_site_fract_z
Si Si1 0.544857 0.430591 0.172596
Si Si2 0.080285 0.955917 0.437456
Si Si3 0.481695 0.371510 0.557587
Si Si4 0.790241 0.899071 0.380538
Si Si5 0.000000 0.500000 0.500000
Si Si6 0.420789 0.278421 0.999131
Si Si7 0.100559 0.828269 0.252561
O O1 0.752841 0.260564 0.341419
O O2 0.346885 0.305383 0.372849
O O3 0.570677 0.635586 0.999092
O O4 0.500000 0.500000 0.000000
O O5 0.893796 0.925414 0.431585
O O6 0.000000 0.000000 0.500000
O O7 0.214500 0.152955 0.162029
O O8 0.500000 0.500000 0.500000
O O9 0.562747 0.515421 0.301231
O O10 0.654572 0.161827 0.775980
O O11 0.234688 0.371326 0.586818
O O12 0.972616 0.872062 0.311888
O O13 0.626936 0.109824 0.143561
O O14 0.918382 0.408348 0.520856
O O15 0.000000 0.000000 0.000000
#
# Coordination Sequence:
#
# PCOD9024340 Si02
#       7
#     2   2   2   2   1   2   2
#     4  11  24  42  65  94 130 171 218 272 329 392
#     4  11  25  43  66  97 131 172 220 272 331 392
#     4  10  22  40  64  93 125 168 214 262 322 387
#     4  11  24  41  65  97 130 171 220 270 327 392
#     4  10  22  42  64  88 128 170 214 266 322 384
#     4  11  24  43  65  95 133 172 219 272 328 393
#     4  11  24  41  64  96 130 169 217 270 327 390
#
# _framework density 22.139347999999998
#
# number of rings (size 3 to 8) (size 9 to 14) (size 15 to 20)
#    0.000    1.231    0.000    5.538    0.000   15.385 
#    0.000    0.000    0.000    0.000    0.000    0.000 
#    0.000    0.000    0.000    0.000    0.000    0.000 
#
# Total GULP energy -72412.134404 kJ/mol
# GULP energy per Si atom -5570.164185 kJ/mol
# Density = 2.208896 g / cm^3
# Si number density = 22.139348 Si / 1000 Ang^3
#
#
#
# Elastic Constant Matrix: (Units=GPa)
#
#
# Indices 1 2 3 4 5 6 
#
# 1 137.7979 -6.7763 15.2491 1.8777 1.9885 -36.5319
# 2 -6.7763 88.1516 -5.2720 4.3714 -7.0919 -20.9964
# 3 15.2491 -5.2720 45.8223 1.6752 11.6146 -12.4571
# 4 1.8777 4.3714 1.6752 24.8726 15.1416 3.7511
# 5 1.9885 -7.0919 11.6146 15.1416 24.6862 -7.0994
# 6 -36.5319 -20.9964 -12.4571 3.7511 -7.0994 54.2488
#
#
#
# Elastic Compliance Matrix: (Units=1/GPa)
#
#
# Indices 1 2 3 4 5 6 
#
# 1 0.010351 0.004250 -0.002411 -0.008836 0.009804 0.009956
# 2 0.004250 0.017076 0.000027 -0.016501 0.018418 0.013028
# 3 -0.002411 0.000027 0.027203 0.008686 -0.017420 0.001753
# 4 -0.008836 -0.016501 0.008686 0.090258 -0.070914 -0.025864
# 5 0.009804 0.018418 -0.017420 -0.070914 0.104857 0.028357
# 6 0.009956 0.013028 0.001753 -0.025864 0.028357 0.036082
#
#
# Mechanical properties :
#
#
# Convention : Reuss Voigt Hill
#
# Bulk Modulus (GPa) = 17.13475 30.90817 24.02146
# Shear Modulus (GPa) = 16.58099 38.66626 27.62362
#
# Velocity S-wave (km/s) = 2.73964 4.18364 3.53613
# Velocity P-wave (km/s) = 4.21471 6.10968 5.24843
#
# Compressibility (1/GPa) = 0.05836092
#
# Stress axis : x y z
#
# Youngs Moduli (GPa) = 96.60774 58.56307 36.75999
#
# Poissons Ratio (x) = -0.24888 0.08864
# Poissons Ratio (y) = -0.41056 -0.00099
# Poissons Ratio (z) = 0.23295 -0.00158
#
# Static dielectric constant tensor:
#      x y z
#    x 1.780630 -0.008840 -0.013590 
#    y -0.008840 1.766200 -0.004150 
#    z -0.013590 -0.004150 1.871160 
# 
# From -- ./inp_files/99563.got.cif
#   From: 2010.05.17/outbox.cif.g08.bks.cpg/sg2_50_cif.got.tgz:99563.got - 2010.06.03 11:33:40.
