data_PCOD9024127
_publ_section_title
;
Structure prediction by ZEFSAII (Michael W. Deem and Ramdas Pophale) SiO2 
 PCOD9024127
Probable space group: P -1
;
_chemical_formula_sum "Si O2"
_cell_formula_units_Z 14
_cell_length_a 16.000806
_cell_length_b 9.325952
_cell_length_c 8.207477
_cell_angle_alpha 62.979337
_cell_angle_beta 89.112579
_cell_angle_gamma 39.399512
_cell_volume 557.371877
_symmetry_space_group_name_H-M "P -1"
_symmetry_group_IT_number 2
_symmetry_cell_setting 'triclinic'
loop_
_space_group_symop_operation_xyz
x,y,z
-x,-y,-z
loop_
_atom_site_type_symbol
_atom_site_label
_atom_site_fract_x
_atom_site_fract_y
_atom_site_fract_z
Si Si1 0.534292 0.095454 0.064837
Si Si2 0.766484 0.237278 0.437361
Si Si3 0.303236 0.000445 0.403882
Si Si4 0.076174 0.015784 0.757693
Si Si5 0.845749 0.428552 0.860568
Si Si6 0.804051 0.858261 0.296253
Si Si7 0.617905 0.675351 0.492621
O O1 0.705460 0.909538 0.146955
O O2 0.551704 0.960057 0.296540
O O3 0.386539 0.459976 0.834593
O O4 0.500000 0.000000 0.000000
O O5 0.741731 0.104936 0.590766
O O6 0.919303 0.969508 0.446338
O O7 0.749140 0.398651 0.496196
O O8 0.477866 0.773091 0.454735
O O9 0.186669 0.342982 0.184951
O O10 0.284724 0.022485 0.589367
O O11 0.210864 0.927905 0.851594
O O12 0.090868 0.800716 0.891533
O O13 0.946786 0.275804 0.768545
O O14 0.695951 0.575261 0.715600
O O15 0.000000 0.500000 0.500000
#
# Coordination Sequence:
#
# PCOD9024127 Si02
#       7
#     2   2   2   2   2   2   2
#     4  10  22  40  63  93 133 173 212 267 324 391
#     4  10  24  39  61  92 128 171 210 268 325 392
#     4  11  22  37  66  91 126 164 220 269 317 382
#     4  10  23  39  65  91 128 166 219 266 323 383
#     4  11  22  40  64  94 125 168 216 274 320 384
#     4  11  21  40  65  97 125 170 219 268 319 387
#     4  11  22  40  61  92 128 170 213 264 330 386
#
# _framework density 25.117877
#
# number of rings (size 3 to 8) (size 9 to 14) (size 15 to 20)
#    0.000    1.429    2.857    1.714    4.000    1.714 
#    0.000    1.429    0.000    5.143    0.000    0.000 
#    0.000    0.000    0.000    0.000    0.000    0.000 
#
# Total GULP energy -78014.366476 kJ/mol
# GULP energy per Si atom -5572.454748 kJ/mol
# Density = 2.506071 g / cm^3
# Si number density = 25.117877 Si / 1000 Ang^3
#
#
#
# Elastic Constant Matrix: (Units=GPa)
#
#
# Indices 1 2 3 4 5 6 
#
# 1 130.7047 53.0638 31.8986 -4.6546 -22.9675 9.6490
# 2 53.0638 104.5938 20.1287 1.6874 -15.6753 -5.1448
# 3 31.8986 20.1287 57.1836 -21.4368 -14.0741 2.0799
# 4 -4.6546 1.6874 -21.4368 17.1591 11.7201 -12.7027
# 5 -22.9675 -15.6753 -14.0741 11.7201 43.2357 -4.3774
# 6 9.6490 -5.1448 2.0799 -12.7027 -4.3774 37.1315
#
#
#
# Elastic Compliance Matrix: (Units=1/GPa)
#
#
# Indices 1 2 3 4 5 6 
#
# 1 0.013981 -0.002965 -0.015710 -0.030516 0.008231 -0.012633
# 2 -0.002965 0.013731 -0.008780 -0.018706 0.005352 -0.002604
# 3 -0.015710 -0.008780 0.071706 0.129562 -0.019165 0.040913
# 4 -0.030516 -0.018706 0.129562 0.332400 -0.060324 0.104683
# 5 0.008231 0.005352 -0.019165 -0.060324 0.037885 -0.016494
# 6 -0.012633 -0.002604 0.040913 0.104683 -0.016494 0.061429
#
#
# Mechanical properties :
#
#
# Convention : Reuss Voigt Hill
#
# Bulk Modulus (GPa) = 22.46757 55.85159 39.15958
# Shear Modulus (GPa) = 8.32118 31.99800 20.15959
#
# Velocity S-wave (km/s) = 1.82210 3.57306 2.83609
# Velocity P-wave (km/s) = 3.65937 6.26949 5.13310
#
# Compressibility (1/GPa) = 0.04450860
#
# Stress axis : x y z
#
# Youngs Moduli (GPa) = 71.52642 72.83045 13.94585
#
# Poissons Ratio (x) = 0.21596 0.21908
# Poissons Ratio (y) = 0.21209 0.12244
# Poissons Ratio (z) = 1.12366 0.63942
#
# Static dielectric constant tensor:
#      x y z
#    x 0.131780 0.063040 -2.695020 
#    y 0.063040 2.050040 0.049420 
#    z -2.695020 0.049420 -1.966890 
# 
# From -- ./inp_files/297623.got.cif
#   From: 2010.05.17/outbox.cif.g08.bks.cpg/sg2_149_cif.got.tgz:297623.got - 2010.06.03 11:33:40.
