data_PCOD9024842
_publ_section_title
;
Structure prediction by ZEFSAII (Michael W. Deem and Ramdas Pophale) SiO2 
 PCOD9024842
Probable space group: P -1
;
_chemical_formula_sum "Si O2"
_cell_formula_units_Z 16
_cell_length_a 17.536841
_cell_length_b 13.823676
_cell_length_c 10.770295
_cell_angle_alpha 28.789595
_cell_angle_beta 126.409707
_cell_angle_gamma 144.415062
_cell_volume 662.251439
_symmetry_space_group_name_H-M "P -1"
_symmetry_group_IT_number 2
_symmetry_cell_setting 'triclinic'
loop_
_space_group_symop_operation_xyz
x,y,z
-x,-y,-z
loop_
_atom_site_type_symbol
_atom_site_label
_atom_site_fract_x
_atom_site_fract_y
_atom_site_fract_z
Si Si1 0.468152 0.364489 0.758632
Si Si2 0.289053 0.709722 0.494673
Si Si3 0.367984 0.701071 0.128432
Si Si4 0.165753 0.296554 0.601574
Si Si5 0.657969 0.965443 0.416343
Si Si6 0.863279 0.195930 0.852812
Si Si7 0.493649 0.727544 0.762439
Si Si8 0.967844 0.343662 0.279149
O O1 0.500000 0.500000 0.500000
O O2 0.568096 0.328261 0.886686
O O3 0.299263 0.053376 0.964202
O O4 0.528379 0.628112 0.613024
O O5 0.259963 0.566088 0.492539
O O6 0.338732 0.588542 0.755183
O O7 0.421597 0.066591 0.265154
O O8 0.152852 0.649430 0.438781
O O9 0.264278 0.417182 0.440306
O O10 0.293590 0.778397 0.915042
O O11 0.500000 0.000000 0.000000
O O12 0.117774 0.006194 0.938393
O O13 0.043729 0.251527 0.483013
O O14 0.796922 0.049154 0.466877
O O15 0.597500 0.965428 0.482730
O O16 0.971937 0.421514 0.814808
O O17 0.500000 0.500000 0.000000
O O18 0.000000 0.500000 0.000000
#
# Coordination Sequence:
#
# PCOD9024842 Si02
#       8
#     2   2   2   2   2   2   2   2
#     4  12  21  33  59  93 121 160 210 256 305 385
#     4  10  22  40  66  93 122 162 216 268 325 370
#     4  12  21  34  59  93 129 162 205 258 319 378
#     4  11  22  38  62  89 128 178 213 251 316 386
#     4  12  25  41  61  97 131 164 214 262 321 377
#     4  11  22  41  63  90 129 172 215 256 320 382
#     4  11  23  42  68  94 127 164 214 278 328 367
#     4  11  24  41  60  91 139 178 206 253 314 390
#
# _framework density 24.160007
#
# number of rings (size 3 to 8) (size 9 to 14) (size 15 to 20)
#    0.000    0.750    3.750    6.000    0.000    2.500 
#    0.000    2.500    0.000    4.500    0.000    0.000 
#    0.000    0.000    0.000    0.000    0.000    0.000 
#
# Total GULP energy -89312.308587 kJ/mol
# GULP energy per Si atom -5582.019287 kJ/mol
# Density = 2.410502 g / cm^3
# Si number density = 24.160007 Si / 1000 Ang^3
#
#
#
# Elastic Constant Matrix: (Units=GPa)
#
#
# Indices 1 2 3 4 5 6 
#
# 1 78.4459 23.9015 19.2291 9.1964 31.9822 -2.0932
# 2 23.9015 109.0340 21.0783 23.0313 11.2018 -0.2514
# 3 19.2291 21.0783 91.8598 13.1473 36.4089 3.3151
# 4 9.1964 23.0313 13.1473 31.8698 11.4522 8.5162
# 5 31.9822 11.2018 36.4089 11.4522 52.2314 6.0960
# 6 -2.0932 -0.2514 3.3151 8.5162 6.0960 38.4143
#
#
#
# Elastic Compliance Matrix: (Units=1/GPa)
#
#
# Indices 1 2 3 4 5 6 
#
# 1 0.018222 -0.003025 0.001496 -0.000174 -0.011836 0.002761
# 2 -0.003025 0.011651 -0.001824 -0.007983 0.002201 0.001489
# 3 0.001496 -0.001824 0.015627 -0.001798 -0.011127 0.000885
# 4 -0.000174 -0.007983 -0.001798 0.042042 -0.005164 -0.008407
# 5 -0.011836 0.002201 -0.011127 -0.005164 0.035291 -0.004126
# 6 0.002761 0.001489 0.000885 -0.008407 -0.004126 0.028634
#
#
# Mechanical properties :
#
#
# Convention : Reuss Voigt Hill
#
# Bulk Modulus (GPa) = 25.77636 45.30637 35.54136
# Shear Modulus (GPa) = 29.22214 38.84517 34.03365
#
# Velocity S-wave (km/s) = 3.48160 4.01413 3.75731
# Velocity P-wave (km/s) = 5.18210 6.34646 5.79361
#
# Compressibility (1/GPa) = 0.03879524
#
# Stress axis : x y z
#
# Youngs Moduli (GPa) = 54.87867 85.83195 63.99091
#
# Poissons Ratio (x) = 0.25960 -0.09574
# Poissons Ratio (y) = 0.16598 0.11671
# Poissons Ratio (z) = -0.08210 0.15655
#
# Static dielectric constant tensor:
#      x y z
#    x 1.962570 0.031200 0.024160 
#    y 0.031200 1.945190 0.130450 
#    z 0.024160 0.130450 2.068080 
# 
# From -- ./inp_files/471673.got.cif
#   From: 2010.05.17/outbox.cif.g08.bks.cpg/sg2_236_cif.got.tgz:471673.got - 2010.06.03 11:33:40.
