data_PCOD9024756
_publ_section_title
;
Structure prediction by ZEFSAII (Michael W. Deem and Ramdas Pophale) SiO2 
 PCOD9024756
Probable space group: P -1
;
_chemical_formula_sum "Si O2"
_cell_formula_units_Z 10
_cell_length_a 14.341665
_cell_length_b 8.994382
_cell_length_c 16.231577
_cell_angle_alpha 48.849826
_cell_angle_beta 18.426234
_cell_angle_gamma 57.858109
_cell_volume 459.353098
_symmetry_space_group_name_H-M "P -1"
_symmetry_group_IT_number 2
_symmetry_cell_setting 'triclinic'
loop_
_space_group_symop_operation_xyz
x,y,z
-x,-y,-z
loop_
_atom_site_type_symbol
_atom_site_label
_atom_site_fract_x
_atom_site_fract_y
_atom_site_fract_z
Si Si1 0.121373 0.527530 0.644088
Si Si2 0.792580 0.423896 0.783521
Si Si3 0.535381 0.941542 0.230077
Si Si4 0.287446 0.423551 0.789005
Si Si5 0.704659 0.076444 0.218893
O O1 0.451704 0.487960 0.389338
O O2 0.005788 0.519388 0.651143
O O3 0.221360 0.757790 0.520846
O O4 0.859622 0.332338 0.983213
O O5 0.000000 0.500000 0.500000
O O6 0.500000 0.500000 0.000000
O O7 0.653131 0.166742 0.003797
O O8 0.509269 0.981983 0.333567
O O9 0.793693 0.829951 0.047347
O O10 0.500000 0.500000 0.500000
O O11 0.000000 0.500000 0.000000
O O12 0.500000 0.000000 0.500000
O O13 0.000000 0.000000 0.000000
#
# Coordination Sequence:
#
# PCOD9024756 Si02
#       5
#     2   2   2   2   2
#     4   9  24  46  67 106 143 185 243 294 347 434
#     4  11  26  49  73 100 137 188 248 310 364 406
#     4   9  24  46  67 106 143 185 243 294 347 434
#     4  10  22  40  66 102 144 182 226 276 349 434
#     4  11  24  41  64 100 144 192 226 276 349 430
#
# _framework density 21.769746999999999
#
# number of rings (size 3 to 8) (size 9 to 14) (size 15 to 20)
#    1.200    0.800    0.000    1.200    0.000   18.400 
#    0.000    3.000    0.000    0.000    0.000    0.000 
#    0.000    0.000    0.000    0.000    0.000    0.000 
#
# Total GULP energy -55892.886547 kJ/mol
# GULP energy per Si atom -5589.288655 kJ/mol
# Density = 2.172020 g / cm^3
# Si number density = 21.769747 Si / 1000 Ang^3
#
#
#
# Elastic Constant Matrix: (Units=GPa)
#
#
# Indices 1 2 3 4 5 6 
#
# 1 211.5280 84.4858 115.0138 -8.5397 3.5800 9.6594
# 2 84.4858 171.7201 111.2292 -18.0095 5.4940 -8.1511
# 3 115.0138 111.2292 179.9753 2.6777 28.2656 7.0127
# 4 -8.5397 -18.0095 2.6777 55.8441 -3.0575 -17.7198
# 5 3.5800 5.4940 28.2656 -3.0575 41.1549 -4.7766
# 6 9.6594 -8.1511 7.0127 -17.7198 -4.7766 47.2714
#
#
#
# Elastic Compliance Matrix: (Units=1/GPa)
#
#
# Indices 1 2 3 4 5 6 
#
# 1 0.007712 -0.000366 -0.005205 0.001477 0.003062 -0.000004
# 2 -0.000366 0.012528 -0.008759 0.006829 0.005656 0.006666
# 3 -0.005205 -0.008759 0.016376 -0.007113 -0.010925 -0.006646
# 4 0.001477 0.006829 -0.007113 0.024861 0.007081 0.011965
# 5 0.003062 0.005656 -0.010925 0.007081 0.032221 0.007880
# 6 -0.000004 0.006666 -0.006646 0.011965 0.007880 0.028572
#
#
# Mechanical properties :
#
#
# Convention : Reuss Voigt Hill
#
# Bulk Modulus (GPa) = 125.66730 131.63120 128.64925
# Shear Modulus (GPa) = 32.55618 45.68706 39.12162
#
# Velocity S-wave (km/s) = 3.87134 4.58607 4.24378
# Velocity P-wave (km/s) = 8.82236 9.41484 9.12341
#
# Compressibility (1/GPa) = 0.00795752
#
# Stress axis : x y z
#
# Youngs Moduli (GPa) = 129.67496 79.81844 61.06538
#
# Poissons Ratio (x) = 0.02922 0.31782
# Poissons Ratio (y) = 0.04747 0.53484
# Poissons Ratio (z) = 0.67490 0.69909
#
# Static dielectric constant tensor:
#      x y z
#    x 1.823420 0.036360 -0.038690 
#    y 0.036360 1.839880 -0.029070 
#    z -0.038690 -0.029070 1.800900 
# 
# From -- ./inp_files/526210.got.cif
#   From: 2010.05.17/outbox.cif.g08.bks.cpg/sg2_264_cif.got.tgz:526210.got - 2010.06.03 11:33:40.
