data_PCOD9024147
_publ_section_title
;
Structure prediction by ZEFSAII (Michael W. Deem and Ramdas Pophale) SiO2 
 PCOD9024147
Probable space group: P -1
;
_chemical_formula_sum "Si O2"
_cell_formula_units_Z 10
_cell_length_a 14.481062
_cell_length_b 13.651845
_cell_length_c 5.581368
_cell_angle_alpha 94.688769
_cell_angle_beta 95.069723
_cell_angle_gamma 19.428392
_cell_volume 365.581752
_symmetry_space_group_name_H-M "P -1"
_symmetry_group_IT_number 2
_symmetry_cell_setting 'triclinic'
loop_
_space_group_symop_operation_xyz
x,y,z
-x,-y,-z
loop_
_atom_site_type_symbol
_atom_site_label
_atom_site_fract_x
_atom_site_fract_y
_atom_site_fract_z
Si Si1 0.791307 0.134097 0.224048
Si Si2 0.524427 0.819172 0.999613
Si Si3 0.259563 0.219272 0.670073
Si Si4 0.691976 0.429902 0.473094
Si Si5 0.026455 0.206598 0.145494
O O1 0.678765 0.357472 0.251817
O O2 0.598116 0.268905 0.398289
O O3 0.101654 0.823641 0.336375
O O4 0.823721 0.040589 0.970802
O O5 0.773636 0.491889 0.967055
O O6 0.334974 0.041067 0.777029
O O7 0.703975 0.734211 0.107424
O O8 0.285117 0.023153 0.171441
O O9 0.000000 0.500000 0.500000
O O10 0.500000 0.000000 0.500000
O O11 0.851315 0.361516 0.376019
#
# Coordination Sequence:
#
# PCOD9024147 Si02
#       5
#     2   2   2   2   2
#     4  10  22  40  63  94 134 183 231 270 326 399
#     4  11  26  42  67 106 132 170 233 276 336 423
#     4  11  24  47  72  94 133 179 217 275 346 412
#     4  10  22  40  63  94 134 183 231 270 326 399
#     4  12  23  41  66  98 142 174 218 293 339 380
#
# _framework density 27.353660999999999
#
# number of rings (size 3 to 8) (size 9 to 14) (size 15 to 20)
#    0.000    1.200    0.000    5.400    0.000    9.600 
#    0.000    8.000    0.000    0.000    0.000    0.000 
#    0.000    0.000    0.000    0.000    0.000    0.000 
#
# Total GULP energy -55954.193487 kJ/mol
# GULP energy per Si atom -5595.419349 kJ/mol
# Density = 2.729140 g / cm^3
# Si number density = 27.353661 Si / 1000 Ang^3
#
#
#
# Elastic Constant Matrix: (Units=GPa)
#
#
# Indices 1 2 3 4 5 6 
#
# 1 77.8629 45.8405 16.6241 -4.4933 -15.0275 -13.2429
# 2 45.8405 223.9088 40.6728 -18.7398 -16.5354 -10.5712
# 3 16.6241 40.6728 70.6968 -3.0566 -17.0777 0.8668
# 4 -4.4933 -18.7398 -3.0566 60.1240 -10.7111 -9.1310
# 5 -15.0275 -16.5354 -17.0777 -10.7111 43.1392 11.7210
# 6 -13.2429 -10.5712 0.8668 -9.1310 11.7210 50.7591
#
#
#
# Elastic Compliance Matrix: (Units=1/GPa)
#
#
# Indices 1 2 3 4 5 6 
#
# 1 0.015895 -0.002463 -0.001441 0.001448 0.003539 0.003102
# 2 -0.002463 0.005632 -0.002471 0.001654 0.000530 0.000748
# 3 -0.001441 -0.002471 0.017504 0.000761 0.006354 -0.002520
# 4 0.001448 0.001654 0.000761 0.018671 0.005303 0.002843
# 5 0.003539 0.000530 0.006354 0.005303 0.029809 -0.005004
# 6 0.003102 0.000748 -0.002520 0.002843 -0.005004 0.022376
#
#
# Mechanical properties :
#
#
# Convention : Reuss Voigt Hill
#
# Bulk Modulus (GPa) = 38.04980 64.30482 51.17731
# Shear Modulus (GPa) = 38.05258 48.75986 43.40622
#
# Velocity S-wave (km/s) = 3.73384 4.22663 3.98785
# Velocity P-wave (km/s) = 5.70344 6.88323 6.32092
#
# Compressibility (1/GPa) = 0.02628135
#
# Stress axis : x y z
#
# Youngs Moduli (GPa) = 62.91177 177.55518 57.13049
#
# Poissons Ratio (x) = 0.43739 0.08232
# Poissons Ratio (y) = 0.15498 0.14114
# Poissons Ratio (z) = 0.09065 0.43866
#
# Static dielectric constant tensor:
#      x y z
#    x 2.345130 0.072720 0.053960 
#    y 0.072720 2.016250 -0.020490 
#    z 0.053960 -0.020490 2.121070 
# 
# From -- ./inp_files/95835.got.cif
#   From: 2010.05.17/outbox.cif.g08.bks.cpg/sg2_48_cif.got.tgz:95835.got - 2010.06.03 11:33:40.
