data_PCOD9024192
_publ_section_title
;
Structure prediction by ZEFSAII (Michael W. Deem and Ramdas Pophale) SiO2 
 PCOD9024192
Probable space group: P -1
;
_chemical_formula_sum "Si O2"
_cell_formula_units_Z 16
_cell_length_a 11.558351
_cell_length_b 11.314066
_cell_length_c 17.629033
_cell_angle_alpha 124.821156
_cell_angle_beta 28.959353
_cell_angle_gamma 138.115591
_cell_volume 721.825246
_symmetry_space_group_name_H-M "P -1"
_symmetry_group_IT_number 2
_symmetry_cell_setting 'triclinic'
loop_
_space_group_symop_operation_xyz
x,y,z
-x,-y,-z
loop_
_atom_site_type_symbol
_atom_site_label
_atom_site_fract_x
_atom_site_fract_y
_atom_site_fract_z
Si Si1 0.656913 0.236668 0.785155
Si Si2 0.168332 0.903506 0.687760
Si Si3 0.680334 0.638909 0.068243
Si Si4 0.294183 0.252607 0.751551
Si Si5 0.609879 0.145840 0.248189
Si Si6 0.225731 0.718825 0.958803
Si Si7 0.750504 0.364584 0.393137
Si Si8 0.554259 0.761190 0.938069
O O1 0.473616 0.298434 0.872295
O O2 0.000224 0.417517 0.668697
O O3 0.612709 0.074038 0.702759
O O4 0.507906 0.159837 0.925426
O O5 0.083519 0.724426 0.711363
O O6 0.905412 0.848764 0.760694
O O7 0.500000 0.000000 0.500000
O O8 0.208646 0.066481 0.769721
O O9 0.553150 0.606483 0.215264
O O10 0.612123 0.448561 0.017720
O O11 0.044192 0.786927 0.919939
O O12 0.508272 0.309168 0.577411
O O13 0.997644 0.227943 0.887219
O O14 0.589470 0.205114 0.197728
O O15 0.593301 0.259668 0.365627
O O16 0.420505 0.771385 0.941449
O O17 0.000000 0.500000 0.000000
#
# Coordination Sequence:
#
# PCOD9024192 Si02
#       8
#     2   2   2   2   2   2   2   2
#     4  12  23  38  68 101 131 173 223 275 338 398
#     4  10  22  40  63  97 134 170 214 275 338 395
#     4  11  20  39  65  98 129 168 221 278 327 393
#     4  10  23  41  66  94 133 182 217 270 336 387
#     4  11  23  40  65  98 133 174 225 274 329 396
#     4  11  22  44  68  95 132 179 232 274 317 393
#     4  11  22  44  64  98 140 173 216 279 343 391
#     4  12  21  40  71  95 129 176 225 269 330 394
#
# _framework density 22.166029000000002
#
# number of rings (size 3 to 8) (size 9 to 14) (size 15 to 20)
#    0.000    1.000    5.000    3.750    0.000    2.500 
#    4.500    2.500    0.000    4.500    0.000    0.000 
#    0.000    0.000    0.000    0.000    0.000    0.000 
#
# Total GULP energy -89372.832763 kJ/mol
# GULP energy per Si atom -5585.802048 kJ/mol
# Density = 2.211558 g / cm^3
# Si number density = 22.166029 Si / 1000 Ang^3
#
#
#
# Elastic Constant Matrix: (Units=GPa)
#
#
# Indices 1 2 3 4 5 6 
#
# 1 140.5035 -2.3118 39.4079 -5.6569 16.8307 16.4727
# 2 -2.3118 126.0160 26.5788 -9.1915 5.8539 10.5483
# 3 39.4079 26.5788 82.1871 0.0642 20.8757 14.4562
# 4 -5.6569 -9.1915 0.0642 21.3346 3.5792 0.5309
# 5 16.8307 5.8539 20.8757 3.5792 30.1985 3.6940
# 6 16.4727 10.5483 14.4562 0.5309 3.6940 31.0693
#
#
#
# Elastic Compliance Matrix: (Units=1/GPa)
#
#
# Indices 1 2 3 4 5 6 
#
# 1 0.009024 0.001593 -0.003499 0.003667 -0.002937 -0.003411
# 2 0.001593 0.009200 -0.003108 0.004585 -0.000759 -0.002510
# 3 -0.003499 -0.003108 0.017965 -0.000660 -0.009258 -0.004336
# 4 0.003667 0.004585 -0.000660 0.051270 -0.008174 -0.003098
# 5 -0.002937 -0.000759 -0.009258 -0.008174 0.042113 0.001255
# 6 -0.003411 -0.002510 -0.004336 -0.003098 0.001255 0.036768
#
#
# Mechanical properties :
#
#
# Convention : Reuss Voigt Hill
#
# Bulk Modulus (GPa) = 38.22595 52.89518 45.56056
# Shear Modulus (GPa) = 27.01385 35.52259 31.26822
#
# Velocity S-wave (km/s) = 3.49478 4.00755 3.75992
# Velocity P-wave (km/s) = 5.79374 6.73268 6.28078
#
# Compressibility (1/GPa) = 0.02616024
#
# Stress axis : x y z
#
# Youngs Moduli (GPa) = 110.81282 108.69409 55.66340
#
# Poissons Ratio (x) = -0.17315 0.19478
# Poissons Ratio (y) = -0.17652 0.17303
# Poissons Ratio (z) = 0.38775 0.33787
#
# Static dielectric constant tensor:
#      x y z
#    x 1.809980 0.005840 0.032650 
#    y 0.005840 1.930270 0.003560 
#    z 0.032650 0.003560 1.810120 
# 
# From -- ./inp_files/568801.got.cif
#   From: 2010.05.17/outbox.cif.g08.bks.cpg/sg2_285_cif.got.tgz:568801.got - 2010.06.03 11:33:40.
