data_PCOD9024149
_publ_section_title
;
Structure prediction by ZEFSAII (Michael W. Deem and Ramdas Pophale) SiO2 
 PCOD9024149
Probable space group: P -1
;
_chemical_formula_sum "Si O2"
_cell_formula_units_Z 16
_cell_length_a 15.293236
_cell_length_b 9.078416
_cell_length_c 8.316673
_cell_angle_alpha 92.749017
_cell_angle_beta 137.202645
_cell_angle_gamma 104.690384
_cell_volume 709.099523
_symmetry_space_group_name_H-M "P -1"
_symmetry_group_IT_number 2
_symmetry_cell_setting 'triclinic'
loop_
_space_group_symop_operation_xyz
x,y,z
-x,-y,-z
loop_
_atom_site_type_symbol
_atom_site_label
_atom_site_fract_x
_atom_site_fract_y
_atom_site_fract_z
Si Si1 0.473065 0.124004 0.095627
Si Si2 0.263722 0.541204 0.458993
Si Si3 0.086011 0.596622 0.462055
Si Si4 0.158568 0.052790 0.154331
Si Si5 0.370989 0.288209 0.705935
Si Si6 0.159460 0.337186 0.978277
Si Si7 0.659238 0.082497 0.786927
Si Si8 0.679738 0.380278 0.001362
O O1 0.619751 0.268463 0.373840
O O2 0.367896 0.013687 0.085765
O O3 0.395927 0.219821 0.903493
O O4 0.500000 0.000000 0.000000
O O5 0.113890 0.508420 0.340370
O O6 0.330988 0.440330 0.650996
O O7 0.223755 0.454327 0.226846
O O8 0.000000 0.500000 0.500000
O O9 0.002575 0.695723 0.284988
O O10 0.245080 0.666446 0.751449
O O11 0.254566 0.145458 0.438815
O O12 0.220924 0.932161 0.162684
O O13 0.177204 0.177706 0.040647
O O14 0.000000 0.000000 0.000000
O O15 0.518005 0.334806 0.813407
O O16 0.245182 0.434496 0.944156
O O17 0.697808 0.269601 0.880630
O O18 0.500000 0.000000 0.500000
#
# Coordination Sequence:
#
# PCOD9024149 Si02
#       8
#     2   2   2   2   2   2   2   2
#     4  12  23  40  65 105 138 176 225 286 352 401
#     4  11  23  39  68  98 132 180 229 285 340 406
#     4  10  22  40  63  94 136 176 224 283 341 408
#     4  11  27  47  68 100 145 181 228 291 347 412
#     4  11  24  43  67 102 138 174 234 290 337 413
#     4  10  25  42  69  97 135 179 231 279 343 409
#     4  12  24  43  70 101 136 185 228 283 349 414
#     4  11  22  43  68 100 135 175 234 287 338 411
#
# _framework density 22.563828999999998
#
# number of rings (size 3 to 8) (size 9 to 14) (size 15 to 20)
#    0.000    1.000    3.750    1.500    1.750   10.000 
#    0.000    1.250    0.000    0.000    0.000    0.000 
#    0.000    0.000    0.000    0.000    0.000    0.000 
#
# Total GULP energy -89314.219760 kJ/mol
# GULP energy per Si atom -5582.138735 kJ/mol
# Density = 2.251247 g / cm^3
# Si number density = 22.563829 Si / 1000 Ang^3
#
#
#
# Elastic Constant Matrix: (Units=GPa)
#
#
# Indices 1 2 3 4 5 6 
#
# 1 88.7125 13.2794 9.7326 4.2308 24.8845 -3.9915
# 2 13.2794 49.3337 -15.9895 -15.3697 -2.0100 0.1155
# 3 9.7326 -15.9895 81.9151 -19.8164 9.9137 -1.4787
# 4 4.2308 -15.3697 -19.8164 28.2193 4.3305 -2.6576
# 5 24.8845 -2.0100 9.9137 4.3305 35.3563 -4.9116
# 6 -3.9915 0.1155 -1.4787 -2.6576 -4.9116 36.0474
#
#
#
# Elastic Compliance Matrix: (Units=1/GPa)
#
#
# Indices 1 2 3 4 5 6 
#
# 1 0.016330 -0.009381 -0.004951 -0.009610 -0.009513 -0.000369
# 2 -0.009381 0.039427 0.017399 0.035310 -0.000061 0.002143
# 3 -0.004951 0.017399 0.023577 0.027747 -0.005301 0.001686
# 4 -0.009610 0.035310 0.027747 0.077228 -0.007831 0.004588
# 5 -0.009513 -0.000061 -0.005301 -0.007831 0.037881 0.003314
# 6 -0.000369 0.002143 0.001686 0.004588 0.003314 0.028552
#
#
# Mechanical properties :
#
#
# Convention : Reuss Voigt Hill
#
# Bulk Modulus (GPa) = 11.70051 26.00070 18.85061
# Shear Modulus (GPa) = 20.37897 34.12051 27.24974
#
# Velocity S-wave (km/s) = 3.00854 3.89289 3.47893
# Velocity P-wave (km/s) = 4.15514 5.63510 4.95073
#
# Compressibility (1/GPa) = 0.08546634
#
# Stress axis : x y z
#
# Youngs Moduli (GPa) = 61.23752 25.36305 42.41498
#
# Poissons Ratio (x) = 0.23793 0.21002
# Poissons Ratio (y) = 0.57447 -0.73797
# Poissons Ratio (z) = 0.30322 -0.44128
#
# Static dielectric constant tensor:
#      x y z
#    x 1.871760 0.011700 -0.108930 
#    y 0.011700 1.849900 0.079850 
#    z -0.108930 0.079850 1.822670 
# 
# From -- ./inp_files/298631.got.cif
#   From: 2010.05.17/outbox.cif.g08.bks.cpg/sg2_150_cif.got.tgz:298631.got - 2010.06.03 11:33:40.
