data_PCOD9024441
_publ_section_title
;
Structure prediction by ZEFSAII (Michael W. Deem and Ramdas Pophale) SiO2 
 PCOD9024441
Probable space group: P -1
;
_chemical_formula_sum "Si O2"
_cell_formula_units_Z 16
_cell_length_a 15.813671
_cell_length_b 16.129136
_cell_length_c 8.074250
_cell_angle_alpha 60.890143
_cell_angle_beta 102.527746
_cell_angle_gamma 152.893201
_cell_volume 688.494143
_symmetry_space_group_name_H-M "P -1"
_symmetry_group_IT_number 2
_symmetry_cell_setting 'triclinic'
loop_
_space_group_symop_operation_xyz
x,y,z
-x,-y,-z
loop_
_atom_site_type_symbol
_atom_site_label
_atom_site_fract_x
_atom_site_fract_y
_atom_site_fract_z
Si Si1 0.574980 0.706483 0.717706
Si Si2 0.672962 0.677043 0.250803
Si Si3 0.059919 0.210049 0.573457
Si Si4 0.386890 0.002682 0.276229
Si Si5 0.096771 0.463287 0.478605
Si Si6 0.771127 0.270978 0.027236
Si Si7 0.461872 0.128408 0.567990
Si Si8 0.482663 0.662999 0.082742
O O1 0.457155 0.499083 0.787726
O O2 0.557842 0.778279 0.515532
O O3 0.450596 0.609703 0.926898
O O4 0.830799 0.954059 0.635036
O O5 0.500000 0.500000 0.500000
O O6 0.871069 0.806645 0.258552
O O7 0.685462 0.801219 0.096094
O O8 0.261255 0.419143 0.325606
O O9 0.047857 0.304740 0.552166
O O10 0.573440 0.115179 0.205036
O O11 0.383628 0.023444 0.450951
O O12 0.137700 0.728329 0.387023
O O13 0.456083 0.166154 0.047794
O O14 0.283419 0.642543 0.522245
O O15 0.196480 0.629187 0.213571
O O16 0.312576 0.921515 0.838071
O O17 0.000000 0.500000 0.000000
#
# Coordination Sequence:
#
# PCOD9024441 Si02
#       8
#     2   2   2   2   2   2   2   2
#     4  11  22  43  66  92 134 169 217 268 326 385
#     4  10  23  41  66  97 131 167 222 268 319 391
#     4  11  21  42  66  90 133 173 213 270 325 378
#     4  11  24  45  65  96 137 168 219 268 327 387
#     4  12  23  44  66  94 136 173 214 276 322 382
#     4  12  24  45  72  96 132 174 216 268 329 392
#     4  11  24  42  66 100 127 174 219 265 328 384
#     4  10  22  40  64  97 124 175 217 264 322 387
#
# _framework density 23.239121999999998
#
# number of rings (size 3 to 8) (size 9 to 14) (size 15 to 20)
#    0.000    1.000    6.250    1.125    0.000    3.000 
#    2.250    7.500    0.000    0.000    0.000    0.000 
#    0.000    0.000    0.000    0.000    0.000    0.000 
#
# Total GULP energy -89528.705070 kJ/mol
# GULP energy per Si atom -5595.544067 kJ/mol
# Density = 2.318623 g / cm^3
# Si number density = 23.239122 Si / 1000 Ang^3
#
#
#
# Elastic Constant Matrix: (Units=GPa)
#
#
# Indices 1 2 3 4 5 6 
#
# 1 81.6468 24.7094 22.9203 1.6604 16.7554 23.5906
# 2 24.7094 160.6264 18.1124 -15.4457 6.1218 25.6518
# 3 22.9203 18.1124 78.1812 -3.4409 18.1640 13.7221
# 4 1.6604 -15.4457 -3.4409 32.2682 15.7035 -2.4622
# 5 16.7554 6.1218 18.1640 15.7035 47.3946 6.5840
# 6 23.5906 25.6518 13.7221 -2.4622 6.5840 33.6242
#
#
#
# Elastic Compliance Matrix: (Units=1/GPa)
#
#
# Indices 1 2 3 4 5 6 
#
# 1 0.016554 -0.000686 -0.002247 -0.000485 -0.003416 -0.009540
# 2 -0.000686 0.007519 -0.000266 0.003871 -0.001268 -0.004614
# 3 -0.002247 -0.000266 0.015697 0.004463 -0.006238 -0.003078
# 4 -0.000485 0.003871 0.004463 0.041230 -0.015937 0.001705
# 5 -0.003416 -0.001268 -0.006238 -0.015937 0.030308 -0.001191
# 6 -0.009540 -0.004614 -0.003078 0.001705 -0.001191 0.041569
#
#
# Mechanical properties :
#
#
# Convention : Reuss Voigt Hill
#
# Bulk Modulus (GPa) = 29.96561 50.21540 40.09050
# Shear Modulus (GPa) = 29.34300 39.63820 34.49060
#
# Velocity S-wave (km/s) = 3.55724 4.13445 3.85666
# Velocity P-wave (km/s) = 5.45843 6.66683 6.09266
#
# Compressibility (1/GPa) = 0.03337159
#
# Stress axis : x y z
#
# Youngs Moduli (GPa) = 60.40903 133.00345 63.70502
#
# Poissons Ratio (x) = 0.09124 0.14317
# Poissons Ratio (y) = 0.04144 0.01693
# Poissons Ratio (z) = 0.13576 0.03535
#
# Static dielectric constant tensor:
#      x y z
#    x 1.902240 0.022890 0.033930 
#    y 0.022890 1.832010 0.021960 
#    z 0.033930 0.021960 1.884440 
# 
# From -- ./inp_files/337607.got.cif
#   From: 2010.05.17/outbox.cif.g08.bks.cpg/sg2_169_cif.got.tgz:337607.got - 2010.06.03 11:33:40.
