data_PCOD9024684
_publ_section_title
;
Structure prediction by ZEFSAII (Michael W. Deem and Ramdas Pophale) SiO2 
 PCOD9024684
Probable space group: P -1
;
_chemical_formula_sum "Si O2"
_cell_formula_units_Z 16
_cell_length_a 8.892470
_cell_length_b 16.591928
_cell_length_c 6.055736
_cell_angle_alpha 49.723423
_cell_angle_beta 102.961456
_cell_angle_gamma 94.744546
_cell_volume 661.963741
_symmetry_space_group_name_H-M "P -1"
_symmetry_group_IT_number 2
_symmetry_cell_setting 'triclinic'
loop_
_space_group_symop_operation_xyz
x,y,z
-x,-y,-z
loop_
_atom_site_type_symbol
_atom_site_label
_atom_site_fract_x
_atom_site_fract_y
_atom_site_fract_z
Si Si1 0.297985 0.668104 0.680952
Si Si2 0.733088 0.822802 0.755658
Si Si3 0.866367 0.665861 0.754235
Si Si4 0.852586 0.483415 0.752279
Si Si5 0.018503 0.803418 0.230976
Si Si6 0.601507 0.418074 0.530735
Si Si7 0.160961 0.969167 0.732242
Si Si8 0.598278 0.192745 0.163167
O O1 0.427266 0.603257 0.695536
O O2 0.349092 0.770176 0.643860
O O3 0.157084 0.712280 0.397694
O O4 0.234228 0.588628 0.975243
O O5 0.740319 0.719379 0.784198
O O6 0.573973 0.842656 0.802789
O O7 0.753259 0.923833 0.426316
O O8 0.878958 0.807949 0.999620
O O9 0.977300 0.576735 0.075949
O O10 0.956938 0.765010 0.515263
O O11 0.830291 0.601378 0.634511
O O12 0.500000 0.500000 0.500000
O O13 0.767244 0.466052 0.528294
O O14 0.104213 0.911047 0.035984
O O15 0.588684 0.302355 0.832617
O O16 0.274761 0.887476 0.771110
O O17 0.000000 0.000000 0.500000
#
# Coordination Sequence:
#
# PCOD9024684 Si02
#       8
#     2   2   2   2   2   2   2   2
#     4  10  22  41  68  93 132 178 217 266 324 397
#     4  11  25  41  68  96 137 165 219 282 335 376
#     4  10  22  40  65  98 132 171 220 273 324 385
#     4   9  22  39  62  96 134 169 223 268 316 389
#     4  10  22  42  69  93 126 175 224 261 326 395
#     4  11  24  38  67  94 137 176 218 254 335 399
#     4  10  23  46  71  94 128 176 224 274 332 390
#     4  11  25  44  66  99 138 167 219 279 332 386
#
# _framework density 24.170508000000002
#
# number of rings (size 3 to 8) (size 9 to 14) (size 15 to 20)
#    0.000    1.750    1.250    1.125   14.000    1.500 
#    2.250    4.375    0.000    0.000    0.000    0.000 
#    0.000    0.000    0.000    0.000    0.000    0.000 
#
# Total GULP energy -89313.912940 kJ/mol
# GULP energy per Si atom -5582.119559 kJ/mol
# Density = 2.411549 g / cm^3
# Si number density = 24.170508 Si / 1000 Ang^3
#
#
#
# Elastic Constant Matrix: (Units=GPa)
#
#
# Indices 1 2 3 4 5 6 
#
# 1 99.7290 47.3902 37.2357 -9.5188 -1.7182 -11.7329
# 2 47.3902 105.4724 9.1315 -15.5097 6.7608 -26.3664
# 3 37.2357 9.1315 76.2580 -25.9218 -4.5823 -0.7778
# 4 -9.5188 -15.5097 -25.9218 28.4724 0.1876 1.5795
# 5 -1.7182 6.7608 -4.5823 0.1876 31.2023 -7.8235
# 6 -11.7329 -26.3664 -0.7778 1.5795 -7.8235 47.0636
#
#
#
# Elastic Compliance Matrix: (Units=1/GPa)
#
#
# Indices 1 2 3 4 5 6 
#
# 1 0.016670 -0.007818 -0.009681 -0.007512 0.001255 0.000077
# 2 -0.007818 0.015773 0.005530 0.010670 -0.001503 0.006371
# 3 -0.009681 0.005530 0.024923 0.022416 0.001962 0.000670
# 4 -0.007512 0.010670 0.022416 0.058677 0.000879 0.002652
# 5 0.001255 -0.001503 0.001962 0.000879 0.034012 0.005128
# 6 0.000077 0.006371 0.000670 0.002652 0.005128 0.025611
#
#
# Mechanical properties :
#
#
# Convention : Reuss Voigt Hill
#
# Bulk Modulus (GPa) = 29.91452 52.10823 41.01138
# Shear Modulus (GPa) = 23.72514 33.86112 28.79313
#
# Velocity S-wave (km/s) = 3.13641 3.74696 3.45519
# Velocity P-wave (km/s) = 5.05167 6.35020 5.73779
#
# Compressibility (1/GPa) = 0.03342859
#
# Stress axis : x y z
#
# Youngs Moduli (GPa) = 59.98645 63.39939 40.12406
#
# Poissons Ratio (x) = 0.49565 0.38844
# Poissons Ratio (y) = 0.46897 -0.22189
# Poissons Ratio (z) = 0.58073 -0.35061
#
# Static dielectric constant tensor:
#      x y z
#    x 2.024140 0.038290 0.043810 
#    y 0.038290 1.946110 0.045040 
#    z 0.043810 0.045040 2.000560 
# 
# From -- ./inp_files/46346.got.cif
#   From: 2010.05.17/outbox.cif.g08.bks.cpg/sg2_24_cif.got.tgz:46346.got - 2010.06.03 11:33:40.
