data_PCOD9024839
_publ_section_title
;
Structure prediction by ZEFSAII (Michael W. Deem and Ramdas Pophale) SiO2 
 PCOD9024839
Probable space group: P -1
;
_chemical_formula_sum "Si O2"
_cell_formula_units_Z 14
_cell_length_a 14.973480
_cell_length_b 7.627741
_cell_length_c 11.983492
_cell_angle_alpha 74.369578
_cell_angle_beta 26.929260
_cell_angle_gamma 82.349661
_cell_volume 578.665282
_symmetry_space_group_name_H-M "P -1"
_symmetry_group_IT_number 2
_symmetry_cell_setting 'triclinic'
loop_
_space_group_symop_operation_xyz
x,y,z
-x,-y,-z
loop_
_atom_site_type_symbol
_atom_site_label
_atom_site_fract_x
_atom_site_fract_y
_atom_site_fract_z
Si Si1 0.658925 0.813567 0.442940
Si Si2 0.738051 0.587755 0.196845
Si Si3 0.468012 0.282363 0.040075
Si Si4 0.868439 0.754446 0.421173
Si Si5 0.209077 0.792535 0.855050
Si Si6 0.219262 0.198884 0.119400
Si Si7 0.894433 0.233742 0.654099
O O1 0.782178 0.740058 0.219832
O O2 0.689735 0.695323 0.537255
O O3 0.423480 0.795464 0.678209
O O4 0.746792 0.038883 0.312561
O O5 0.500000 0.500000 0.500000
O O6 0.845301 0.415933 0.100234
O O7 0.755926 0.687970 0.041005
O O8 0.269803 0.164239 0.349140
O O9 0.414330 0.243902 0.976686
O O10 0.500000 0.500000 0.000000
O O11 0.675775 0.244127 0.855722
O O12 0.980946 0.644749 0.403273
O O13 0.050187 0.828198 0.117742
O O14 0.043158 0.247556 0.382064
O O15 0.150111 0.977935 0.210177
#
# Coordination Sequence:
#
# PCOD9024839 Si02
#       7
#     2   2   2   2   2   2   2
#     4  10  22  43  64  98 135 175 221 268 333 398
#     4  10  23  40  66  98 132 173 221 268 332 395
#     4  11  26  40  68  98 127 172 220 276 338 393
#     4  11  23  39  69  95 130 174 220 268 336 397
#     4  10  22  40  66  92 137 177 217 276 323 396
#     4  10  23  44  68  96 133 171 222 279 330 403
#     4  10  23  45  69  97 128 175 221 279 339 391
#
# _framework density 24.193605999999999
#
# number of rings (size 3 to 8) (size 9 to 14) (size 15 to 20)
#    0.000    1.714    0.000    2.571    8.000    4.000 
#    0.000    2.857    0.000    0.000    0.000    0.000 
#    0.000    0.000    0.000    0.000    0.000    0.000 
#
# Total GULP energy -78071.512484 kJ/mol
# GULP energy per Si atom -5576.536606 kJ/mol
# Density = 2.413854 g / cm^3
# Si number density = 24.193606 Si / 1000 Ang^3
#
#
#
# Elastic Constant Matrix: (Units=GPa)
#
#
# Indices 1 2 3 4 5 6 
#
# 1 150.9987 47.9306 46.8567 8.3825 -3.3977 -5.4998
# 2 47.9306 102.8306 32.3786 -0.8686 4.0736 -14.9801
# 3 46.8567 32.3786 107.6988 2.5017 -1.1430 -23.7028
# 4 8.3825 -0.8686 2.5017 26.3998 -10.2527 -10.6768
# 5 -3.3977 4.0736 -1.1430 -10.2527 53.9077 12.4140
# 6 -5.4998 -14.9801 -23.7028 -10.6768 12.4140 24.7455
#
#
#
# Elastic Compliance Matrix: (Units=1/GPa)
#
#
# Indices 1 2 3 4 5 6 
#
# 1 0.009357 -0.004216 -0.004358 -0.005184 0.001600 -0.007686
# 2 -0.004216 0.013406 0.000033 0.005055 -0.002803 0.010797
# 3 -0.004358 0.000033 0.014774 0.005821 -0.002799 0.017118
# 4 -0.005184 0.005055 0.005821 0.051685 0.002698 0.028430
# 5 0.001600 -0.002803 -0.002799 0.002698 0.022584 -0.014188
# 6 -0.007686 0.010797 0.017118 0.028430 -0.014188 0.081021
#
#
# Mechanical properties :
#
#
# Convention : Reuss Voigt Hill
#
# Bulk Modulus (GPa) = 48.88658 68.42886 58.65772
# Shear Modulus (GPa) = 23.07058 36.63475 29.85266
#
# Velocity S-wave (km/s) = 3.09136 3.89554 3.51651
# Velocity P-wave (km/s) = 5.74389 6.96985 6.38636
#
# Compressibility (1/GPa) = 0.02045551
#
# Stress axis : x y z
#
# Youngs Moduli (GPa) = 106.87308 74.59241 67.68838
#
# Poissons Ratio (x) = 0.31449 0.29495
# Poissons Ratio (y) = 0.45059 -0.00224
# Poissons Ratio (z) = 0.46570 -0.00247
#
# Static dielectric constant tensor:
#      x y z
#    x 2.068800 0.069100 -0.196040 
#    y 0.069100 2.006170 -0.076310 
#    z -0.196040 -0.076310 2.064240 
# 
# From -- ./inp_files/447045.got.cif
#   From: 2010.05.17/outbox.cif.g08.bks.cpg/sg2_224_cif.got.tgz:447045.got - 2010.06.03 11:33:40.
