data_PCOD9024153
_publ_section_title
;
Structure prediction by ZEFSAII (Michael W. Deem and Ramdas Pophale) SiO2 
 PCOD9024153
Probable space group: P -1
;
_chemical_formula_sum "Si O2"
_cell_formula_units_Z 16
_cell_length_a 15.358820
_cell_length_b 6.728098
_cell_length_c 8.365138
_cell_angle_alpha 83.111152
_cell_angle_beta 100.231493
_cell_angle_gamma 112.092591
_cell_volume 786.872977
_symmetry_space_group_name_H-M "P -1"
_symmetry_group_IT_number 2
_symmetry_cell_setting 'triclinic'
loop_
_space_group_symop_operation_xyz
x,y,z
-x,-y,-z
loop_
_atom_site_type_symbol
_atom_site_label
_atom_site_fract_x
_atom_site_fract_y
_atom_site_fract_z
Si Si1 0.104976 0.302496 0.046585
Si Si2 0.952326 0.801609 0.619178
Si Si3 0.546390 0.242245 0.923301
Si Si4 0.380030 0.393248 0.816418
Si Si5 0.731865 0.283918 0.782019
Si Si6 0.766889 0.494415 0.446341
Si Si7 0.903227 0.395883 0.243937
Si Si8 0.210646 0.019713 0.961833
O O1 0.047325 0.170395 0.191622
O O2 0.190311 0.503993 0.132429
O O3 0.057559 0.414503 0.893205
O O4 0.147831 0.155179 0.977740
O O5 0.844191 0.699343 0.536602
O O6 0.009639 0.640358 0.636446
O O7 0.000000 0.000000 0.500000
O O8 0.468748 0.325014 0.809320
O O9 0.631246 0.255882 0.830335
O O10 0.587364 0.408387 0.067388
O O11 0.500000 0.000000 0.000000
O O12 0.322299 0.456846 0.652848
O O13 0.304862 0.184830 0.896891
O O14 0.735303 0.315382 0.590738
O O15 0.760909 0.086848 0.864962
O O16 0.827244 0.442383 0.328582
O O17 0.844768 0.173668 0.156141
#
# Coordination Sequence:
#
# PCOD9024153 Si02
#       8
#     2   2   2   2   2   2   2   2
#     4  10  22  42  66  88 126 168 214 254 304 373
#     4  11  25  42  63  96 126 166 210 261 315 359
#     4  11  22  40  69  94 123 160 213 257 303 375
#     4  11  22  40  68  94 122 163 210 255 306 375
#     4  10  22  40  63  95 127 166 202 257 320 363
#     4  11  24  44  62  91 136 164 200 261 321 369
#     4  11  23  41  65  90 126 170 212 257 302 370
#     4  11  20  40  68  92 121 171 216 248 303 374
#
# _framework density 20.333649000000001
#
# number of rings (size 3 to 8) (size 9 to 14) (size 15 to 20)
#    0.000    1.250    3.750    2.250    1.750    1.000 
#    2.250    0.625    0.000    0.000    0.000    0.000 
#    0.000    0.000    0.000    0.000    0.000    0.000 
#
# Total GULP energy -89420.944483 kJ/mol
# GULP energy per Si atom -5588.809030 kJ/mol
# Density = 2.028737 g / cm^3
# Si number density = 20.333649 Si / 1000 Ang^3
#
#
#
# Elastic Constant Matrix: (Units=GPa)
#
#
# Indices 1 2 3 4 5 6 
#
# 1 66.2104 -15.6182 15.0456 -5.3534 18.2217 -3.1288
# 2 -15.6182 39.4349 11.4097 -10.6881 9.3066 0.1288
# 3 15.0456 11.4097 94.4993 -25.8738 14.8491 -1.0041
# 4 -5.3534 -10.6881 -25.8738 22.8257 1.8271 -1.3025
# 5 18.2217 9.3066 14.8491 1.8271 44.7525 -5.0602
# 6 -3.1288 0.1288 -1.0041 -1.3025 -5.0602 31.4045
#
#
#
# Elastic Compliance Matrix: (Units=1/GPa)
#
#
# Indices 1 2 3 4 5 6 
#
# 1 0.024088 0.016843 0.000535 0.015307 -0.014031 0.000722
# 2 0.016843 0.043274 0.002812 0.028834 -0.017980 -0.000111
# 3 0.000535 0.002812 0.017225 0.021574 -0.007365 0.000301
# 4 0.015307 0.028834 0.021574 0.087292 -0.022718 0.002056
# 5 -0.014031 -0.017980 -0.007365 -0.022718 0.035533 0.003223
# 6 0.000722 -0.000111 0.000301 0.002056 0.003223 0.032529
#
#
# Mechanical properties :
#
#
# Convention : Reuss Voigt Hill
#
# Bulk Modulus (GPa) = 8.00214 24.64654 16.32434
# Shear Modulus (GPa) = 20.72826 32.41704 26.57265
#
# Velocity S-wave (km/s) = 3.19628 3.99714 3.61893
# Velocity P-wave (km/s) = 4.19113 5.78362 5.05054
#
# Compressibility (1/GPa) = 0.12496658
#
# Stress axis : x y z
#
# Youngs Moduli (GPa) = 41.51411 23.10868 58.05625
#
# Poissons Ratio (x) = -0.38922 -0.03104
# Poissons Ratio (y) = -0.69922 -0.16327
# Poissons Ratio (z) = -0.02219 -0.06499
#
# Static dielectric constant tensor:
#      x y z
#    x 1.729930 0.009440 0.008000 
#    y 0.009440 1.712470 -0.002530 
#    z 0.008000 -0.002530 1.749480 
# 
# From -- ./inp_files/38533.got.cif
#   From: 2010.05.17/outbox.cif.g08.bks.cpg/sg2_20_cif.got.tgz:38533.got - 2010.06.03 11:33:40.
