data_PCOD9024798
_publ_section_title
;
Structure prediction by ZEFSAII (Michael W. Deem and Ramdas Pophale) SiO2 
 PCOD9024798
Probable space group: P -1
;
_chemical_formula_sum "Si O2"
_cell_formula_units_Z 16
_cell_length_a 7.806349
_cell_length_b 6.027030
_cell_length_c 27.318721
_cell_angle_alpha 73.057054
_cell_angle_beta 139.271599
_cell_angle_gamma 124.657437
_cell_volume 666.118491
_symmetry_space_group_name_H-M "P -1"
_symmetry_group_IT_number 2
_symmetry_cell_setting 'triclinic'
loop_
_space_group_symop_operation_xyz
x,y,z
-x,-y,-z
loop_
_atom_site_type_symbol
_atom_site_label
_atom_site_fract_x
_atom_site_fract_y
_atom_site_fract_z
Si Si1 0.956131 0.690804 0.517678
Si Si2 0.819545 0.774281 0.251603
Si Si3 0.764181 0.947508 0.043615
Si Si4 0.712719 0.274505 0.314673
Si Si5 0.796289 0.324332 0.739637
Si Si6 0.836189 0.463410 0.913909
Si Si7 0.278881 0.344360 0.370815
Si Si8 0.233957 0.539702 0.898770
O O1 0.585297 0.462596 0.462886
O O2 0.000000 0.500000 0.500000
O O3 0.198118 0.734319 0.609560
O O4 0.000000 0.000000 0.500000
O O5 0.665171 0.516706 0.273530
O O6 0.527821 0.764256 0.162847
O O7 0.999257 0.722473 0.251431
O O8 0.088737 0.045401 0.322193
O O9 0.759011 0.729953 0.092663
O O10 0.597157 0.790432 0.967084
O O11 0.101689 0.228961 0.096021
O O12 0.500000 0.000000 0.000000
O O13 0.014977 0.340797 0.345569
O O14 0.426775 0.960714 0.261271
O O15 0.609976 0.427161 0.662920
O O16 0.036179 0.566712 0.813044
O O17 0.042598 0.461950 0.913709
O O18 0.000000 0.500000 0.000000
#
# Coordination Sequence:
#
# PCOD9024798 Si02
#       8
#     2   2   2   2   2   2   2   2
#     4  12  27  48  82 118 155 203 250 305 376 450
#     4  11  27  43  69 105 140 193 241 306 365 444
#     4   9  21  39  61  90 121 170 230 285 361 426
#     4  11  25  48  74 105 151 191 243 301 367 440
#     4  11  24  44  71  99 142 188 242 299 364 442
#     4  11  25  41  62  98 138 177 240 298 366 434
#     4  11  26  46  74 110 145 192 245 292 372 437
#     4  10  22  40  66  90 128 181 229 291 368 424
#
# _framework density 24.019752
#
# number of rings (size 3 to 8) (size 9 to 14) (size 15 to 20)
#    0.000    1.250    1.250    2.625   10.500    6.000 
#    0.000    0.000    0.000    0.000    0.000    0.000 
#    0.000    0.000    0.000    0.000    0.000    0.000 
#
# Total GULP energy -89214.298803 kJ/mol
# GULP energy per Si atom -5575.893675 kJ/mol
# Density = 2.396508 g / cm^3
# Si number density = 24.019752 Si / 1000 Ang^3
#
#
#
# Elastic Constant Matrix: (Units=GPa)
#
#
# Indices 1 2 3 4 5 6 
#
# 1 57.2112 2.5704 2.3877 -0.9630 -1.1246 -12.0475
# 2 2.5704 112.3456 24.0645 19.6092 -1.6453 0.4164
# 3 2.3877 24.0645 119.1091 20.0749 -2.1842 -3.5150
# 4 -0.9630 19.6092 20.0749 40.6372 6.3727 5.7286
# 5 -1.1246 -1.6453 -2.1842 6.3727 37.9231 7.9511
# 6 -12.0475 0.4164 -3.5150 5.7286 7.9511 19.4752
#
#
#
# Elastic Compliance Matrix: (Units=1/GPa)
#
#
# Indices 1 2 3 4 5 6 
#
# 1 0.020335 -0.000413 0.000219 -0.001040 -0.002121 0.013800
# 2 -0.000413 0.009957 -0.001239 -0.004391 0.001050 0.000171
# 3 0.000219 -0.001239 0.009520 -0.004622 0.000654 0.002973
# 4 -0.001040 -0.004391 -0.004622 0.030837 -0.003803 -0.008901
# 5 -0.002121 0.001050 0.000654 -0.003803 0.029581 -0.012175
# 6 0.013800 0.000171 0.002973 -0.008901 -0.012175 0.068006
#
#
# Mechanical properties :
#
#
# Convention : Reuss Voigt Hill
#
# Bulk Modulus (GPa) = 27.06538 38.52344 32.79441
# Shear Modulus (GPa) = 27.26026 36.91665 32.08845
#
# Velocity S-wave (km/s) = 3.37250 3.92462 3.65899
# Velocity P-wave (km/s) = 5.14368 6.05061 5.61548
#
# Compressibility (1/GPa) = 0.03694757
#
# Stress axis : x y z
#
# Youngs Moduli (GPa) = 49.17580 100.43009 105.03896
#
# Poissons Ratio (x) = 0.04147 -0.02305
# Poissons Ratio (y) = 0.02031 0.13015
# Poissons Ratio (z) = -0.01079 0.12444
#
# Static dielectric constant tensor:
#      x y z
#    x 1.969460 -0.053070 -0.053860 
#    y -0.053070 2.040300 0.012670 
#    z -0.053860 0.012670 2.030920 
# 
# From -- ./inp_files/622199.got.cif
#   From: 2010.05.17/outbox.cif.g08.bks.cpg/sg2_312_cif.got.tgz:622199.got - 2010.06.03 11:33:40.
