data_PCOD9024249
_publ_section_title
;
Structure prediction by ZEFSAII (Michael W. Deem and Ramdas Pophale) SiO2 
 PCOD9024249
Probable space group: P -1
;
_chemical_formula_sum "Si O2"
_cell_formula_units_Z 16
_cell_length_a 11.030894
_cell_length_b 15.248010
_cell_length_c 7.711126
_cell_angle_alpha 119.651051
_cell_angle_beta 40.165295
_cell_angle_gamma 124.209030
_cell_volume 686.661185
_symmetry_space_group_name_H-M "P -1"
_symmetry_group_IT_number 2
_symmetry_cell_setting 'triclinic'
loop_
_space_group_symop_operation_xyz
x,y,z
-x,-y,-z
loop_
_atom_site_type_symbol
_atom_site_label
_atom_site_fract_x
_atom_site_fract_y
_atom_site_fract_z
Si Si1 0.708518 0.240925 0.595436
Si Si2 0.957860 0.684602 0.981504
Si Si3 0.843743 0.765351 0.539400
Si Si4 0.437898 0.466856 0.332864
Si Si5 0.246811 0.916382 0.363973
Si Si6 0.555961 0.852647 0.740768
Si Si7 0.139300 0.540435 0.219613
Si Si8 0.538372 0.685823 0.306969
O O1 0.671772 0.124172 0.594028
O O2 0.821702 0.331943 0.704820
O O3 0.514284 0.263289 0.758052
O O4 0.854674 0.263103 0.292866
O O5 0.943373 0.747721 0.231286
O O6 0.762098 0.683601 0.083583
O O7 0.944346 0.561515 0.917502
O O8 0.737715 0.644174 0.599139
O O9 0.673215 0.816343 0.729929
O O10 0.014824 0.848553 0.543023
O O11 0.500000 0.500000 0.500000
O O12 0.397950 0.564892 0.377445
O O13 0.632650 0.456098 0.018950
O O14 0.297601 0.042012 0.409377
O O15 0.368201 0.880900 0.043808
O O16 0.500985 0.755398 0.573684
O O17 0.000000 0.500000 0.500000
#
# Coordination Sequence:
#
# PCOD9024249 Si02
#       8
#     2   2   2   2   2   2   2   2
#     4  11  23  37  56  92 128 162 204 252 322 374
#     4   9  20  38  58  85 125 163 206 252 309 384
#     4  11  21  40  67  91 124 163 213 264 315 373
#     4  11  19  37  67  97 122 168 215 254 317 386
#     4  11  25  39  63  94 122 164 214 266 312 378
#     4  10  22  45  65  86 123 163 219 267 310 366
#     4   9  19  35  57  87 132 163 198 255 313 374
#     4  10  22  40  64  86 124 168 199 258 313 377
#
# _framework density 23.301158000000001
#
# number of rings (size 3 to 8) (size 9 to 14) (size 15 to 20)
#    0.000    1.750    3.750    1.875    0.000    7.500 
#    0.000    4.375    0.000    0.000    0.000    0.000 
#    0.000    0.000    0.000    0.000    0.000    0.000 
#
# Total GULP energy -89363.412630 kJ/mol
# GULP energy per Si atom -5585.213289 kJ/mol
# Density = 2.324812 g / cm^3
# Si number density = 23.301158 Si / 1000 Ang^3
#
#
#
# Elastic Constant Matrix: (Units=GPa)
#
#
# Indices 1 2 3 4 5 6 
#
# 1 77.2146 22.5135 1.7083 -15.0073 -18.5831 -19.8780
# 2 22.5135 134.1510 6.4378 -18.3642 -14.6611 -24.5314
# 3 1.7083 6.4378 74.7715 3.1947 -3.7128 11.1448
# 4 -15.0073 -18.3642 3.1947 22.2113 -1.1900 -13.2869
# 5 -18.5831 -14.6611 -3.7128 -1.1900 22.5051 -9.0941
# 6 -19.8780 -24.5314 11.1448 -13.2869 -9.0941 10.6990
#
#
#
# Elastic Compliance Matrix: (Units=1/GPa)
#
#
# Indices 1 2 3 4 5 6 
#
# 1 0.008153 -0.005872 0.002809 -0.009017 -0.003248 -0.015200
# 2 -0.005872 0.005715 0.000866 -0.004652 -0.004631 -0.008420
# 3 0.002809 0.000866 0.012829 0.003517 0.006796 0.003985
# 4 -0.009017 -0.004652 0.003517 0.014876 -0.021635 -0.030997
# 5 -0.003248 -0.004631 0.006796 -0.021635 0.027820 -0.026954
# 6 -0.015200 -0.008420 0.003985 -0.030997 -0.026954 -0.019638
#
#
# Mechanical properties :
#
#
# Convention : Reuss Voigt Hill
#
# Bulk Modulus (GPa) = 44.83708 38.60626 41.72167
# Shear Modulus (GPa) = 81.18920 28.11491 54.65206
#
# Velocity S-wave (km/s) = 5.90924 3.47737 4.84825
# Velocity P-wave (km/s) = 8.11437 5.72076 7.02033
#
# Compressibility (1/GPa) = 0.02230297
#
# Stress axis : x y z
#
# Youngs Moduli (GPa) = 122.64680 174.96374 77.95126
#
# Poissons Ratio (x) = 1.02740 -0.21895
# Poissons Ratio (y) = 0.72019 -0.06750
# Poissons Ratio (z) = -0.34450 -0.15151
#
# Static dielectric constant tensor:
#      x y z
#    x 1.928610 0.004740 0.002600 
#    y 0.004740 1.866140 -0.000860 
#    z 0.002600 -0.000860 1.865270 
# 
# From -- ./inp_files/273982.got.cif
#   From: 2010.05.17/outbox.cif.g08.bks.cpg/sg2_137_cif.got.tgz:273982.got - 2010.06.03 11:33:40.
