data_PCOD9024641
_publ_section_title
;
Structure prediction by ZEFSAII (Michael W. Deem and Ramdas Pophale) SiO2 
 PCOD9024641
Probable space group: P -1
;
_chemical_formula_sum "Si O2"
_cell_formula_units_Z 10
_cell_length_a 6.517548
_cell_length_b 11.741115
_cell_length_c 11.120557
_cell_angle_alpha 41.630948
_cell_angle_beta 78.314970
_cell_angle_gamma 53.069808
_cell_volume 400.246925
_symmetry_space_group_name_H-M "P -1"
_symmetry_group_IT_number 2
_symmetry_cell_setting 'triclinic'
loop_
_space_group_symop_operation_xyz
x,y,z
-x,-y,-z
loop_
_atom_site_type_symbol
_atom_site_label
_atom_site_fract_x
_atom_site_fract_y
_atom_site_fract_z
Si Si1 0.781019 0.166278 0.003771
Si Si2 0.632255 0.526445 0.574983
Si Si3 0.832040 0.747479 0.663580
Si Si4 0.161562 0.648490 0.938295
Si Si5 0.232969 0.183791 0.650809
O O1 0.943157 0.151500 0.110903
O O2 0.622254 0.081813 0.129803
O O3 0.584257 0.431581 0.769029
O O4 0.000000 0.000000 0.000000
O O5 0.500000 0.500000 0.500000
O O6 0.564835 0.764378 0.409854
O O7 0.979928 0.340154 0.656538
O O8 0.921517 0.730778 0.528328
O O9 0.999045 0.744360 0.754825
O O10 0.500000 0.000000 0.500000
O O11 0.858146 0.530775 0.861294
O O12 0.500000 0.500000 0.000000
#
# Coordination Sequence:
#
# PCOD9024641 Si02
#       5
#     2   2   2   2   2
#     4  10  22  42  66  99 135 178 231 283 353 413
#     4  10  22  40  65  95 134 174 225 284 343 411
#     4  11  25  44  70 102 142 186 235 289 356 418
#     4  11  25  45  71 102 143 185 238 294 347 424
#     4  10  22  41  64  95 132 176 228 280 345 411
#
# _framework density 24.984575
#
# number of rings (size 3 to 8) (size 9 to 14) (size 15 to 20)
#    0.000    1.600    2.000    1.200    2.800    7.200 
#    0.000    0.000    0.000    0.000    0.000    0.000 
#    0.000    0.000    0.000    0.000    0.000    0.000 
#
# Total GULP energy -55921.150428 kJ/mol
# GULP energy per Si atom -5592.115043 kJ/mol
# Density = 2.492771 g / cm^3
# Si number density = 24.984575 Si / 1000 Ang^3
#
#
#
# Elastic Constant Matrix: (Units=GPa)
#
#
# Indices 1 2 3 4 5 6 
#
# 1 146.9378 44.5016 106.7857 -0.5339 -8.2146 50.8992
# 2 44.5016 117.6847 25.5501 16.7452 5.4480 25.0424
# 3 106.7857 25.5501 164.7545 22.5438 -37.9268 17.7481
# 4 -0.5339 16.7452 22.5438 34.8550 2.3632 6.6982
# 5 -8.2146 5.4480 -37.9268 2.3632 60.7365 -9.1344
# 6 50.8992 25.0424 17.7481 6.6982 -9.1344 50.1876
#
#
#
# Elastic Compliance Matrix: (Units=1/GPa)
#
#
# Indices 1 2 3 4 5 6 
#
# 1 0.049006 -0.005525 -0.036813 0.037134 -0.023808 -0.043215
# 2 -0.005525 0.010929 0.002970 -0.007316 0.000435 0.000155
# 3 -0.036813 0.002970 0.035893 -0.032888 0.023227 0.031776
# 4 0.037134 -0.007316 -0.032888 0.062256 -0.022512 -0.034786
# 5 -0.023808 0.000435 0.023227 -0.022512 0.032284 0.024595
# 6 -0.043215 0.000155 0.031776 -0.034786 0.024595 0.061558
#
#
# Mechanical properties :
#
#
# Convention : Reuss Voigt Hill
#
# Bulk Modulus (GPa) = 58.49982 87.00574 72.75278
# Shear Modulus (GPa) = 14.86510 45.99178 30.42844
#
# Velocity S-wave (km/s) = 2.44185 4.29512 3.49361
# Velocity P-wave (km/s) = 5.60494 7.71341 6.74211
#
# Compressibility (1/GPa) = 0.01709407
#
# Stress axis : x y z
#
# Youngs Moduli (GPa) = 20.40579 91.49646 27.86056
#
# Poissons Ratio (x) = 0.50549 1.02563
# Poissons Ratio (y) = 0.11273 -0.08276
# Poissons Ratio (z) = 0.75119 -0.27179
#
# Static dielectric constant tensor:
#      x y z
#    x 1.971630 0.012900 -0.037680 
#    y 0.012900 2.071620 -0.071300 
#    z -0.037680 -0.071300 2.039560 
# 
# From -- ./inp_files/58050.got.cif
#   From: 2010.05.17/outbox.cif.g08.bks.cpg/sg2_30_cif.got.tgz:58050.got - 2010.06.03 11:33:40.
