data_PCOD9024760
_publ_section_title
;
Structure prediction by ZEFSAII (Michael W. Deem and Ramdas Pophale) SiO2 
 PCOD9024760
Probable space group: P -1
;
_chemical_formula_sum "Si O2"
_cell_formula_units_Z 16
_cell_length_a 9.227811
_cell_length_b 22.009808
_cell_length_c 8.962659
_cell_angle_alpha 25.896797
_cell_angle_beta 53.322650
_cell_angle_gamma 56.771182
_cell_volume 637.332309
_symmetry_space_group_name_H-M "P -1"
_symmetry_group_IT_number 2
_symmetry_cell_setting 'triclinic'
loop_
_space_group_symop_operation_xyz
x,y,z
-x,-y,-z
loop_
_atom_site_type_symbol
_atom_site_label
_atom_site_fract_x
_atom_site_fract_y
_atom_site_fract_z
Si Si1 0.106759 0.039309 0.492412
Si Si2 0.404447 0.651278 0.217800
Si Si3 0.508090 0.949175 0.439584
Si Si4 0.936913 0.434014 0.529347
Si Si5 0.171232 0.104528 0.805181
Si Si6 0.633791 0.364472 0.378257
Si Si7 0.680926 0.676425 0.559668
Si Si8 0.023356 0.278139 0.233730
O O1 0.089125 0.193628 0.233361
O O2 0.309077 0.998670 0.406240
O O3 0.000000 0.000000 0.500000
O O4 0.999470 0.956523 0.870202
O O5 0.500000 0.500000 0.500000
O O6 0.242285 0.650583 0.197774
O O7 0.344916 0.676280 0.371670
O O8 0.522182 0.781278 0.812717
O O9 0.683576 0.000498 0.132273
O O10 0.500000 0.000000 0.500000
O O11 0.000000 0.500000 0.500000
O O12 0.110886 0.348668 0.557010
O O13 0.898932 0.568476 0.151807
O O14 0.303303 0.188217 0.648249
O O15 0.085630 0.197970 0.519813
O O16 0.452936 0.314012 0.520174
O O17 0.807919 0.308386 0.303007
O O18 0.628067 0.534082 0.992330
#
# Coordination Sequence:
#
# PCOD9024760 Si02
#       8
#     2   2   2   2   2   2   2   2
#     4  12  30  49  75 108 149 201 255 312 380 449
#     4  12  25  43  73 108 148 192 251 308 376 452
#     4  12  28  48  77 110 150 199 253 306 378 453
#     4  11  24  41  71 105 150 195 249 315 376 443
#     4  12  26  49  76 105 149 196 250 313 371 453
#     4  10  22  40  68 102 144 190 241 306 373 443
#     4  10  22  40  66 103 142 190 243 304 376 440
#     4  11  24  45  73 103 147 195 251 307 379 445
#
# _framework density 25.104644
#
# number of rings (size 3 to 8) (size 9 to 14) (size 15 to 20)
#    0.000    0.750    1.250    5.625    7.000    4.500 
#    0.000    0.000    0.000    0.000    0.000    0.000 
#    0.000    0.000    0.000    0.000    0.000    0.000 
#
# Total GULP energy -89576.088243 kJ/mol
# GULP energy per Si atom -5598.505515 kJ/mol
# Density = 2.504750 g / cm^3
# Si number density = 25.104644 Si / 1000 Ang^3
#
#
#
# Elastic Constant Matrix: (Units=GPa)
#
#
# Indices 1 2 3 4 5 6 
#
# 1 129.6676 2.6038 -0.9979 -3.5446 -3.4551 0.5564
# 2 2.6038 97.9029 13.8948 -1.0126 8.4229 -11.2906
# 3 -0.9979 13.8948 79.0238 3.6974 -11.3345 -5.4574
# 4 -3.5446 -1.0126 3.6974 35.7244 8.2904 1.8602
# 5 -3.4551 8.4229 -11.3345 8.2904 27.1512 -3.1921
# 6 0.5564 -11.2906 -5.4574 1.8602 -3.1921 46.4252
#
#
#
# Elastic Compliance Matrix: (Units=1/GPa)
#
#
# Indices 1 2 3 4 5 6 
#
# 1 0.007763 -0.000342 0.000279 0.000493 0.001049 -0.000091
# 2 -0.000342 0.011265 -0.002618 0.001581 -0.004874 0.002038
# 3 0.000279 -0.002618 0.014589 -0.003560 0.008235 0.001784
# 4 0.000493 0.001581 -0.003560 0.031282 -0.011712 -0.002099
# 5 0.001049 -0.004874 0.008235 -0.011712 0.045889 0.003395
# 6 -0.000091 0.002038 0.001784 -0.002099 0.003395 0.022564
#
#
# Mechanical properties :
#
#
# Convention : Reuss Voigt Hill
#
# Bulk Modulus (GPa) = 35.38896 37.51064 36.44980
# Shear Modulus (GPa) = 33.75380 41.26640 37.51010
#
# Velocity S-wave (km/s) = 3.67075 4.05875 3.86962
# Velocity P-wave (km/s) = 5.66508 6.07772 5.87502
#
# Compressibility (1/GPa) = 0.02825740
#
# Stress axis : x y z
#
# Youngs Moduli (GPa) = 128.81847 88.76675 68.54446
#
# Poissons Ratio (x) = 0.03034 -0.01914
# Poissons Ratio (y) = 0.04402 0.17942
# Poissons Ratio (z) = -0.03598 0.23235
#
# Static dielectric constant tensor:
#      x y z
#    x 1.888420 0.063660 0.028670 
#    y 0.063660 1.983230 -0.014930 
#    z 0.028670 -0.014930 2.054020 
# 
# From -- ./inp_files/222830.got.cif
#   From: 2010.05.17/outbox.cif.g08.bks.cpg/sg2_112_cif.got.tgz:222830.got - 2010.06.03 11:33:40.
