data_PCOD9024936
_publ_section_title
;
Structure prediction by ZEFSAII (Michael W. Deem and Ramdas Pophale) SiO2 
 PCOD9024936
Probable space group: P -1
;
_chemical_formula_sum "Si O2"
_cell_formula_units_Z 14
_cell_length_a 8.305110
_cell_length_b 9.784588
_cell_length_c 17.681385
_cell_angle_alpha 58.211743
_cell_angle_beta 59.027828
_cell_angle_gamma 32.819336
_cell_volume 653.819869
_symmetry_space_group_name_H-M "P -1"
_symmetry_group_IT_number 2
_symmetry_cell_setting 'triclinic'
loop_
_space_group_symop_operation_xyz
x,y,z
-x,-y,-z
loop_
_atom_site_type_symbol
_atom_site_label
_atom_site_fract_x
_atom_site_fract_y
_atom_site_fract_z
Si Si1 0.334251 0.780067 0.948662
Si Si2 0.834113 0.003791 0.748304
Si Si3 0.366517 0.074345 0.425647
Si Si4 0.281195 0.220452 0.051597
Si Si5 0.334547 0.826073 0.757004
Si Si6 0.339845 0.457044 0.511179
Si Si7 0.570095 0.461035 0.311870
O O1 0.528794 0.781990 0.944548
O O2 0.329521 0.820285 0.849125
O O3 0.500000 0.500000 0.000000
O O4 0.000000 0.000000 0.000000
O O5 0.996056 0.041501 0.743624
O O6 0.072380 0.807593 0.681792
O O7 0.817915 0.859511 0.846969
O O8 0.517167 0.296575 0.722145
O O9 0.492598 0.136354 0.327333
O O10 0.007144 0.320164 0.447346
O O11 0.500000 0.000000 0.500000
O O12 0.487845 0.825031 0.435999
O O13 0.000000 0.500000 0.000000
O O14 0.500000 0.000000 0.000000
O O15 0.457729 0.583598 0.754821
O O16 0.500000 0.500000 0.500000
O O17 0.377315 0.475946 0.407965
#
# Coordination Sequence:
#
# PCOD9024936 Si02
#       7
#     2   2   2   2   2   2   2
#     4  12  28  46  71 103 137 175 232 288 335 402
#     4  10  22  40  67  92 134 172 229 262 351 401
#     4  12  24  44  74 100 137 184 232 278 341 411
#     4  12  25  45  69  98 133 179 220 283 350 408
#     4  10  25  41  72  98 137 175 234 280 340 397
#     4  12  26  43  66 103 145 178 226 284 340 403
#     4  10  22  40  66  96 134 181 217 276 340 395
#
# _framework density 21.412625999999999
#
# number of rings (size 3 to 8) (size 9 to 14) (size 15 to 20)
#    0.857    0.000    1.429    6.000    6.000    2.286 
#    0.000    0.000    0.000    0.000    0.000    0.000 
#    0.000    0.000    0.000    0.000    0.000    0.000 
#
# Total GULP energy -78225.150907 kJ/mol
# GULP energy per Si atom -5587.510779 kJ/mol
# Density = 2.136389 g / cm^3
# Si number density = 21.412626 Si / 1000 Ang^3
#
#
#
# Elastic Constant Matrix: (Units=GPa)
#
#
# Indices 1 2 3 4 5 6 
#
# 1 90.7926 45.7364 35.3590 27.0628 -15.4833 -5.4042
# 2 45.7364 194.6834 51.8867 4.9747 -16.5529 0.7158
# 3 35.3590 51.8867 133.8758 18.8068 -20.9234 -4.4422
# 4 27.0628 4.9747 18.8068 28.8900 5.2698 -2.1355
# 5 -15.4833 -16.5529 -20.9234 5.2698 41.4313 0.9190
# 6 -5.4042 0.7158 -4.4422 -2.1355 0.9190 27.8118
#
#
#
# Elastic Compliance Matrix: (Units=1/GPa)
#
#
# Indices 1 2 3 4 5 6 
#
# 1 0.020327 -0.003601 0.000295 -0.020053 0.008807 0.002259
# 2 -0.003601 0.006436 -0.002130 0.003638 -0.000293 -0.000917
# 3 0.000295 -0.002130 0.010113 -0.007384 0.005284 0.000986
# 4 -0.020053 0.003638 -0.007384 0.060777 -0.017502 0.000075
# 5 0.008807 -0.000293 0.005284 -0.017502 0.032202 0.000155
# 6 0.002259 -0.000917 0.000986 0.000075 0.000155 0.036577
#
#
# Mechanical properties :
#
#
# Convention : Reuss Voigt Hill
#
# Bulk Modulus (GPa) = 38.45625 76.14622 57.30124
# Shear Modulus (GPa) = 26.88587 38.71795 32.80191
#
# Velocity S-wave (km/s) = 3.54730 4.25689 3.91819
# Velocity P-wave (km/s) = 5.89715 7.73305 6.87664
#
# Compressibility (1/GPa) = 0.02600357
#
# Stress axis : x y z
#
# Youngs Moduli (GPa) = 49.19653 155.37904 98.88119
#
# Poissons Ratio (x) = 0.55954 -0.02922
# Poissons Ratio (y) = 0.17716 0.21066
# Poissons Ratio (z) = -0.01454 0.33102
#
# Static dielectric constant tensor:
#      x y z
#    x 1.794750 -0.045760 0.047690 
#    y -0.045760 1.855070 -0.017130 
#    z 0.047690 -0.017130 1.771380 
# 
# From -- ./inp_files/556976.got.cif
#   From: 2010.05.17/outbox.cif.g08.bks.cpg/sg2_279_cif.got.tgz:556976.got - 2010.06.03 11:33:40.
