data_PCOD9024856
_publ_section_title
;
Structure prediction by ZEFSAII (Michael W. Deem and Ramdas Pophale) SiO2 
 PCOD9024856
Probable space group: P -1
;
_chemical_formula_sum "Si O2"
_cell_formula_units_Z 14
_cell_length_a 14.059984
_cell_length_b 14.461711
_cell_length_c 13.499261
_cell_angle_alpha 49.648847
_cell_angle_beta 29.938803
_cell_angle_gamma 30.007510
_cell_volume 624.117613
_symmetry_space_group_name_H-M "P -1"
_symmetry_group_IT_number 2
_symmetry_cell_setting 'triclinic'
loop_
_space_group_symop_operation_xyz
x,y,z
-x,-y,-z
loop_
_atom_site_type_symbol
_atom_site_label
_atom_site_fract_x
_atom_site_fract_y
_atom_site_fract_z
Si Si1 0.320514 0.680360 0.111985
Si Si2 0.218707 0.188279 0.267148
Si Si3 0.475441 0.444125 0.326879
Si Si4 0.574657 0.806151 0.115796
Si Si5 0.255474 0.553400 0.753660
Si Si6 0.258016 0.935176 0.743116
Si Si7 0.690631 0.724593 0.672368
O O1 0.388868 0.585373 0.221688
O O2 0.500000 0.500000 0.000000
O O3 0.485750 0.725016 0.912621
O O4 0.952772 0.880422 0.271050
O O5 0.250758 0.211412 0.336072
O O6 0.852171 0.402424 0.423895
O O7 0.303513 0.007299 0.287408
O O8 0.438435 0.151555 0.017578
O O9 0.754796 0.358230 0.200113
O O10 0.559977 0.268752 0.331761
O O11 0.587447 0.656545 0.218696
O O12 0.904864 0.698225 0.931569
O O13 0.500000 0.500000 0.500000
O O14 0.493256 0.875976 0.651600
O O15 0.000000 0.000000 0.000000
O O16 0.000000 0.500000 0.500000
#
# Coordination Sequence:
#
# PCOD9024856 Si02
#       7
#     2   2   2   2   2   2   2
#     4  11  22  40  64  96 135 180 238 276 344 426
#     4  11  23  44  67 100 140 182 232 292 350 414
#     4  12  23  43  69  99 136 182 230 287 354 418
#     4  10  25  46  68 102 139 178 241 291 346 419
#     4  11  24  46  72 100 134 182 233 294 352 415
#     4  10  22  40  66  93 136 177 227 280 343 419
#     4  11  21  41  67  96 139 180 222 295 349 413
#
# _framework density 22.431668999999999
#
# number of rings (size 3 to 8) (size 9 to 14) (size 15 to 20)
#    0.000    1.143    5.714    0.857    4.000    1.714 
#    0.000    2.857    0.000    0.000    0.000    0.000 
#    0.000    0.000    0.000    0.000    0.000    0.000 
#
# Total GULP energy -78199.696270 kJ/mol
# GULP energy per Si atom -5585.692591 kJ/mol
# Density = 2.238061 g / cm^3
# Si number density = 22.431669 Si / 1000 Ang^3
#
#
#
# Elastic Constant Matrix: (Units=GPa)
#
#
# Indices 1 2 3 4 5 6 
#
# 1 147.1295 28.1234 21.4457 2.0991 6.0098 1.2746
# 2 28.1234 96.9580 15.9047 5.8625 14.1565 -1.5578
# 3 21.4457 15.9047 57.1532 1.9713 3.4668 5.6554
# 4 2.0991 5.8625 1.9713 43.1789 6.8775 7.5121
# 5 6.0098 14.1565 3.4668 6.8775 28.9965 3.8264
# 6 1.2746 -1.5578 5.6554 7.5121 3.8264 39.7473
#
#
#
# Elastic Compliance Matrix: (Units=1/GPa)
#
#
# Indices 1 2 3 4 5 6 
#
# 1 0.007480 -0.001727 -0.002306 0.000038 -0.000448 0.000056
# 2 -0.001727 0.012069 -0.002517 -0.000877 -0.005231 0.001556
# 3 -0.002306 -0.002517 0.019349 0.000094 -0.000264 -0.002770
# 4 0.000038 -0.000877 0.000094 0.024796 -0.004909 -0.004263
# 5 -0.000448 -0.005231 -0.000264 -0.004909 0.038719 -0.002953
# 6 0.000056 0.001556 -0.002770 -0.004263 -0.002953 0.026702
#
#
# Mechanical properties :
#
#
# Convention : Reuss Voigt Hill
#
# Bulk Modulus (GPa) = 38.76183 48.02094 43.39139
# Shear Modulus (GPa) = 33.15292 38.10233 35.62762
#
# Velocity S-wave (km/s) = 3.84858 4.12587 3.98964
# Velocity P-wave (km/s) = 6.08821 6.64464 6.37250
#
# Compressibility (1/GPa) = 0.02579857
#
# Stress axis : x y z
#
# Youngs Moduli (GPa) = 133.68443 82.85386 51.68140
#
# Poissons Ratio (x) = 0.14313 0.11917
# Poissons Ratio (y) = 0.23094 0.13008
# Poissons Ratio (z) = 0.30826 0.20854
#
# Static dielectric constant tensor:
#      x y z
#    x 1.700670 0.069220 -0.126540 
#    y 0.069220 1.706330 0.094000 
#    z -0.126540 0.094000 1.775100 
# 
# From -- ./inp_files/378776.got.cif
#   From: 2010.05.17/outbox.cif.g08.bks.cpg/sg2_190_cif.got.tgz:378776.got - 2010.06.03 11:33:40.
