data_PCOD9024638
_publ_section_title
;
Structure prediction by ZEFSAII (Michael W. Deem and Ramdas Pophale) SiO2 
 PCOD9024638
Probable space group: P -1
;
_chemical_formula_sum "Si O2"
_cell_formula_units_Z 16
_cell_length_a 9.246979
_cell_length_b 7.777256
_cell_length_c 10.180153
_cell_angle_alpha 88.676184
_cell_angle_beta 100.195566
_cell_angle_gamma 117.237909
_cell_volume 639.252220
_symmetry_space_group_name_H-M "P -1"
_symmetry_group_IT_number 2
_symmetry_cell_setting 'triclinic'
loop_
_space_group_symop_operation_xyz
x,y,z
-x,-y,-z
loop_
_atom_site_type_symbol
_atom_site_label
_atom_site_fract_x
_atom_site_fract_y
_atom_site_fract_z
Si Si1 0.331952 0.011669 0.471151
Si Si2 0.775626 0.283946 0.901416
Si Si3 0.036792 0.238583 0.610494
Si Si4 0.444743 0.244172 0.737179
Si Si5 0.365168 0.313287 0.248821
Si Si6 0.376658 0.096805 0.006815
Si Si7 0.121284 0.556628 0.817846
Si Si8 0.023215 0.181435 0.307163
O O1 0.330933 0.104376 0.609800
O O2 0.358138 0.165392 0.360559
O O3 0.500000 0.000000 0.500000
O O4 0.159975 0.819742 0.425431
O O5 0.616020 0.229633 0.786660
O O6 0.940712 0.416965 0.849886
O O7 0.779686 0.088902 0.954293
O O8 0.765373 0.386743 0.034584
O O9 0.142515 0.430512 0.707894
O O10 0.086152 0.258170 0.464690
O O11 0.029282 0.046550 0.681465
O O12 0.509743 0.465965 0.705694
O O13 0.360742 0.186632 0.866773
O O14 0.420559 0.254278 0.124068
O O15 0.174929 0.277772 0.225925
O O16 0.500000 0.000000 0.000000
O O17 0.109618 0.743793 0.754815
#
# Coordination Sequence:
#
# PCOD9024638 Si02
#       8
#     2   2   2   2   2   2   2   2
#     4  11  23  40  72  97 136 180 215 278 334 403
#     4  10  22  40  65  95 132 173 226 266 336 404
#     4  10  23  43  67 103 133 174 227 273 343 395
#     4  11  22  42  63  98 136 170 222 277 332 403
#     4  11  22  43  67  97 131 176 225 279 338 399
#     4  10  22  42  66  91 135 173 218 276 331 407
#     4  11  21  42  69  96 132 180 222 276 332 403
#     4  10  22  42  69  96 136 170 224 288 326 402
#
# _framework density 25.029243000000001
#
# number of rings (size 3 to 8) (size 9 to 14) (size 15 to 20)
#    0.000    1.500    1.250    4.875    1.750    0.000 
#    2.250    9.375    0.000    0.000    0.000    0.000 
#    0.000    0.000    0.000    0.000    0.000    0.000 
#
# Total GULP energy -89533.969270 kJ/mol
# GULP energy per Si atom -5595.873079 kJ/mol
# Density = 2.497228 g / cm^3
# Si number density = 25.029243 Si / 1000 Ang^3
#
#
#
# Elastic Constant Matrix: (Units=GPa)
#
#
# Indices 1 2 3 4 5 6 
#
# 1 85.3026 -0.3956 9.4185 0.4731 -7.8737 4.2321
# 2 -0.3956 48.5453 -5.4040 7.5993 -10.9712 1.1518
# 3 9.4185 -5.4040 111.6785 16.0887 -10.8627 0.6150
# 4 0.4731 7.5993 16.0887 47.8956 5.6004 -7.0716
# 5 -7.8737 -10.9712 -10.8627 5.6004 33.4461 2.5389
# 6 4.2321 1.1518 0.6150 -7.0716 2.5389 27.6394
#
#
#
# Elastic Compliance Matrix: (Units=1/GPa)
#
#
# Indices 1 2 3 4 5 6 
#
# 1 0.012220 0.000993 -0.000519 -0.000856 0.003362 -0.002429
# 2 0.000993 0.024548 0.003153 -0.006808 0.010752 -0.003975
# 3 -0.000519 0.003153 0.010378 -0.004893 0.005255 -0.002018
# 4 -0.000856 -0.006808 -0.004893 0.025833 -0.008953 0.007955
# 5 0.003362 0.010752 0.005255 -0.008953 0.037944 -0.006856
# 6 -0.002429 -0.003975 -0.002018 0.007955 -0.006856 0.039428
#
#
# Mechanical properties :
#
#
# Convention : Reuss Voigt Hill
#
# Bulk Modulus (GPa) = 18.38238 28.08490 23.23364
# Shear Modulus (GPa) = 31.01157 37.92338 34.46748
#
# Velocity S-wave (km/s) = 3.52378 3.89673 3.71494
# Velocity P-wave (km/s) = 4.89043 5.61170 5.26344
#
# Compressibility (1/GPa) = 0.05439991
#
# Stress axis : x y z
#
# Youngs Moduli (GPa) = 81.83024 40.73617 96.35950
#
# Poissons Ratio (x) = -0.04046 0.05000
# Poissons Ratio (y) = -0.08127 -0.30378
# Poissons Ratio (z) = 0.04246 -0.12842
#
# Static dielectric constant tensor:
#      x y z
#    x 2.150010 -0.026010 -0.013440 
#    y -0.026010 1.967900 0.021420 
#    z -0.013440 0.021420 1.957060 
# 
# From -- ./inp_files/239203.got.cif
#   From: 2010.05.17/outbox.cif.g08.bks.cpg/sg2_120_cif.got.tgz:239203.got - 2010.06.03 11:33:40.
