data_PCOD9024884
_publ_section_title
;
Structure prediction by ZEFSAII (Michael W. Deem and Ramdas Pophale) SiO2 
 PCOD9024884
Probable space group: P -1
;
_chemical_formula_sum "Si O2"
_cell_formula_units_Z 15
_cell_length_a 19.031865
_cell_length_b 12.003648
_cell_length_c 6.507488
_cell_angle_alpha 68.603230
_cell_angle_beta 59.295813
_cell_angle_gamma 27.577131
_cell_volume 577.186674
_symmetry_space_group_name_H-M "P -1"
_symmetry_group_IT_number 2
_symmetry_cell_setting 'triclinic'
loop_
_space_group_symop_operation_xyz
x,y,z
-x,-y,-z
loop_
_atom_site_type_symbol
_atom_site_label
_atom_site_fract_x
_atom_site_fract_y
_atom_site_fract_z
Si Si1 0.500000 0.500000 0.500000
Si Si2 0.171124 0.707107 0.936192
Si Si3 0.029366 0.585407 0.281565
Si Si4 0.365421 0.049203 0.131436
Si Si5 0.491356 0.295878 0.494324
Si Si6 0.219400 0.983677 0.333084
Si Si7 0.672045 0.629237 0.689924
Si Si8 0.953544 0.325322 0.188663
O O1 0.601471 0.272645 0.339577
O O2 0.382396 0.704674 0.344657
O O3 0.343486 0.548837 0.694585
O O4 0.128569 0.660788 0.861366
O O5 0.229321 0.579658 0.152373
O O6 0.000000 0.000000 0.000000
O O7 0.231746 0.326168 0.160267
O O8 0.000000 0.500000 0.500000
O O9 0.919003 0.823267 0.406855
O O10 0.986579 0.643903 0.066273
O O11 0.276449 0.047284 0.160755
O O12 0.429800 0.908813 0.344314
O O13 0.517418 0.888262 0.863963
O O14 0.413521 0.345053 0.373041
O O15 0.109526 0.073367 0.250698
O O16 0.805353 0.540953 0.428232
#
# Coordination Sequence:
#
# PCOD9024884 Si02
#       8
#     1   2   2   2   2   2   2   2
#     4  10  22  40  66  94 134 166 218 278 328 394
#     4  10  23  40  62  91 137 179 220 270 321 393
#     4  10  23  43  69  97 137 172 223 284 329 394
#     4   9  21  43  63  96 134 176 217 278 332 389
#     4   9  21  39  62  94 128 178 215 267 336 387
#     4  10  23  42  66 100 133 173 225 273 337 397
#     4  10  22  42  63  94 139 172 227 268 328 404
#     4  11  24  40  67 102 131 177 228 269 335 398
#
# _framework density 25.988125
#
# number of rings (size 3 to 8) (size 9 to 14) (size 15 to 20)
#    0.000    2.133    0.000    0.800    5.600    8.000 
#    0.000   12.000    0.000    0.000    0.000    0.000 
#    0.000    0.000    0.000    0.000    0.000    0.000 
#
# Total GULP energy -83688.753674 kJ/mol
# GULP energy per Si atom -5579.250245 kJ/mol
# Density = 2.592898 g / cm^3
# Si number density = 25.988125 Si / 1000 Ang^3
#
#
#
# Elastic Constant Matrix: (Units=GPa)
#
#
# Indices 1 2 3 4 5 6 
#
# 1 86.2672 28.7132 20.8519 -22.6238 21.0299 -18.4235
# 2 28.7132 195.1068 68.8097 -9.5279 22.8085 -1.9309
# 3 20.8519 68.8097 136.4086 -0.3015 21.1075 -3.0164
# 4 -22.6238 -9.5279 -0.3015 43.3776 -13.0045 2.1821
# 5 21.0299 22.8085 21.1075 -13.0045 35.9752 -15.5676
# 6 -18.4235 -1.9309 -3.0164 2.1821 -15.5676 42.0526
#
#
#
# Elastic Compliance Matrix: (Units=1/GPa)
#
#
# Indices 1 2 3 4 5 6 
#
# 1 0.015978 -0.001165 -0.001248 0.006882 -0.003060 0.005367
# 2 -0.001165 0.006550 -0.002795 0.000181 -0.002320 -0.001278
# 3 -0.001248 -0.002795 0.009628 -0.002546 -0.004768 -0.001617
# 4 0.006882 0.000181 -0.002546 0.029470 0.010213 0.005092
# 5 -0.003060 -0.002320 -0.004768 0.010213 0.043512 0.013789
# 6 0.005367 -0.001278 -0.001617 0.005092 0.013789 0.030797
#
#
# Mechanical properties :
#
#
# Convention : Reuss Voigt Hill
#
# Bulk Modulus (GPa) = 45.99522 72.72582 59.36052
# Shear Modulus (GPa) = 32.55291 44.24161 38.39726
#
# Velocity S-wave (km/s) = 3.54306 4.13046 3.84799
# Velocity P-wave (km/s) = 5.87151 7.12690 6.52945
#
# Compressibility (1/GPa) = 0.02174139
#
# Stress axis : x y z
#
# Youngs Moduli (GPa) = 62.58637 152.67558 103.86572
#
# Poissons Ratio (x) = 0.17780 0.12959
# Poissons Ratio (y) = 0.07288 0.29029
# Poissons Ratio (z) = 0.07809 0.42671
#
# Static dielectric constant tensor:
#      x y z
#    x 1.400500 0.039330 0.347310 
#    y 0.039330 2.012420 0.030260 
#    z 0.347310 0.030260 1.917160 
# 
# From -- ./inp_files/124128.got.cif
#   From: 2010.05.17/outbox.cif.g08.bks.cpg/sg2_63_cif.got.tgz:124128.got - 2010.06.03 11:33:40.
