data_PCOD9024178
_publ_section_title
;
Structure prediction by ZEFSAII (Michael W. Deem and Ramdas Pophale) SiO2 
 PCOD9024178
Probable space group: P -1
;
_chemical_formula_sum "Si O2"
_cell_formula_units_Z 14
_cell_length_a 12.182090
_cell_length_b 8.684500
_cell_length_c 19.039695
_cell_angle_alpha 134.986176
_cell_angle_beta 147.460745
_cell_angle_gamma 64.831701
_cell_volume 684.843542
_symmetry_space_group_name_H-M "P -1"
_symmetry_group_IT_number 2
_symmetry_cell_setting 'triclinic'
loop_
_space_group_symop_operation_xyz
x,y,z
-x,-y,-z
loop_
_atom_site_type_symbol
_atom_site_label
_atom_site_fract_x
_atom_site_fract_y
_atom_site_fract_z
Si Si1 0.426813 0.931362 0.726065
Si Si2 0.082671 0.554825 0.256800
Si Si3 0.954482 0.630211 0.451827
Si Si4 0.763507 0.843407 0.782055
Si Si5 0.319730 0.590765 0.902470
Si Si6 0.182956 0.687444 0.105984
Si Si7 0.323589 0.099572 0.579474
O O1 0.567671 0.813591 0.722780
O O2 0.189573 0.753429 0.575278
O O3 0.374436 0.074155 0.680676
O O4 0.580372 0.127294 0.929839
O O5 0.224228 0.407380 0.307575
O O6 0.915604 0.548019 0.226569
O O7 0.244359 0.834708 0.417711
O O8 0.919092 0.421672 0.060447
O O9 0.751547 0.464723 0.235138
O O10 0.877419 0.824116 0.504587
O O11 0.000000 0.500000 0.500000
O O12 0.772046 0.028275 0.783870
O O13 0.000000 0.000000 0.000000
O O14 0.500000 0.500000 0.000000
O O15 0.434938 0.709155 0.260033
O O16 0.000000 0.500000 0.000000
#
# Coordination Sequence:
#
# PCOD9024178 Si02
#       7
#     2   2   2   2   2   2   2
#     4  11  21  40  70  93 125 179 221 270 319 405
#     4  11  21  40  67  96 123 173 225 264 321 395
#     4  12  27  43  62 103 137 166 220 288 334 379
#     4   9  19  39  63  96 127 164 224 266 320 391
#     4  12  21  41  73  92 123 180 225 264 326 399
#     4  10  22  40  63  96 133 168 211 274 331 386
#     4  11  22  43  66  93 129 175 225 262 326 401
#
# _framework density 20.442626000000001
#
# number of rings (size 3 to 8) (size 9 to 14) (size 15 to 20)
#    0.000    1.143    7.143    1.286    0.000    5.714 
#    2.571    0.000    0.000    0.000    0.000    0.000 
#    0.000    0.000    0.000    0.000    0.000    0.000 
#
# Total GULP energy -78119.837326 kJ/mol
# GULP energy per Si atom -5579.988380 kJ/mol
# Density = 2.039610 g / cm^3
# Si number density = 20.442626 Si / 1000 Ang^3
#
#
#
# Elastic Constant Matrix: (Units=GPa)
#
#
# Indices 1 2 3 4 5 6 
#
# 1 80.6825 60.5334 39.2761 2.4683 33.0075 -11.4923
# 2 60.5334 109.5065 38.4100 -8.5399 15.4533 -24.4645
# 3 39.2761 38.4100 118.5970 3.0483 11.2866 -10.2186
# 4 2.4683 -8.5399 3.0483 27.0922 -7.6607 -0.9038
# 5 33.0075 15.4533 11.2866 -7.6607 51.3118 -6.6281
# 6 -11.4923 -24.4645 -10.2186 -0.9038 -6.6281 28.7174
#
#
#
# Elastic Compliance Matrix: (Units=1/GPa)
#
#
# Indices 1 2 3 4 5 6 
#
# 1 0.035427 -0.018175 -0.004294 -0.014248 -0.019504 -0.007784
# 2 -0.018175 0.022338 -0.001168 0.011761 0.008750 0.013731
# 3 -0.004294 -0.001168 0.010267 -0.000848 0.000873 0.001115
# 4 -0.014248 0.011761 -0.000848 0.046211 0.013828 0.008662
# 5 -0.019504 0.008750 0.000873 0.013828 0.032286 0.007847
# 6 -0.007784 0.013731 0.001115 0.008662 0.007847 0.045885
#
#
# Mechanical properties :
#
#
# Convention : Reuss Voigt Hill
#
# Bulk Modulus (GPa) = 48.17382 65.02498 56.59940
# Shear Modulus (GPa) = 20.27511 32.79539 26.53525
#
# Velocity S-wave (km/s) = 3.15271 4.00967 3.60673
# Velocity P-wave (km/s) = 6.07201 7.30166 6.71504
#
# Compressibility (1/GPa) = 0.02075816
#
# Stress axis : x y z
#
# Youngs Moduli (GPa) = 28.22686 44.76621 97.39921
#
# Poissons Ratio (x) = 0.81363 0.41828
# Poissons Ratio (y) = 0.51303 0.11372
# Poissons Ratio (z) = 0.12122 0.05227
#
# Static dielectric constant tensor:
#      x y z
#    x 1.747840 -0.035700 -0.015120 
#    y -0.035700 1.759490 0.009890 
#    z -0.015120 0.009890 1.790830 
# 
# From -- ./inp_files/272574.got.cif
#   From: 2010.05.17/outbox.cif.g08.bks.cpg/sg2_137_cif.got.tgz:272574.got - 2010.06.03 11:33:40.
