data_PCOD9024305
_publ_section_title
;
Structure prediction by ZEFSAII (Michael W. Deem and Ramdas Pophale) SiO2 
 PCOD9024305
Probable space group: P -1
;
_chemical_formula_sum "Si O2"
_cell_formula_units_Z 16
_cell_length_a 5.093588
_cell_length_b 15.190150
_cell_length_c 10.066840
_cell_angle_alpha 62.702840
_cell_angle_beta 73.362129
_cell_angle_gamma 69.447450
_cell_volume 640.709116
_symmetry_space_group_name_H-M "P -1"
_symmetry_group_IT_number 2
_symmetry_cell_setting 'triclinic'
loop_
_space_group_symop_operation_xyz
x,y,z
-x,-y,-z
loop_
_atom_site_type_symbol
_atom_site_label
_atom_site_fract_x
_atom_site_fract_y
_atom_site_fract_z
Si Si1 0.031420 0.904944 0.742799
Si Si2 0.407716 0.905715 0.928387
Si Si3 0.659349 0.861537 0.196764
Si Si4 0.213781 0.439702 0.331211
Si Si5 0.698551 0.574673 0.952729
Si Si6 0.914241 0.299471 0.621965
Si Si7 0.380666 0.422354 0.755669
Si Si8 0.172812 0.861047 0.460284
O O1 0.214616 0.871802 0.870808
O O2 0.155370 0.848567 0.628616
O O3 0.715357 0.896535 0.823795
O O4 0.012448 0.025176 0.632589
O O5 0.278241 0.027499 0.891719
O O6 0.470024 0.856503 0.098742
O O7 0.480947 0.857397 0.358714
O O8 0.934522 0.769194 0.230243
O O9 0.276618 0.376055 0.227540
O O10 0.904282 0.622273 0.498963
O O11 0.482268 0.480497 0.306812
O O12 0.944571 0.535922 0.269398
O O13 0.600572 0.632569 0.064460
O O14 0.500000 0.500000 0.000000
O O15 0.000000 0.500000 0.000000
O O16 0.919644 0.225601 0.547727
O O17 0.594219 0.356391 0.665587
#
# Coordination Sequence:
#
# PCOD9024305 Si02
#       8
#     2   2   2   2   2   2   2   2
#     4  10  22  43  68  91 127 177 226 262 331 394
#     4  10  22  43  68  91 127 177 226 262 331 394
#     4  10  24  39  65  95 133 172 217 278 328 385
#     4  10  22  40  64  91 128 174 212 262 327 394
#     4   8  16  36  62  84 113 164 212 247 310 386
#     4  12  24  38  62 100 137 164 222 271 332 382
#     4  10  22  40  64  91 128 174 212 262 327 394
#     4  10  24  39  65  95 133 172 217 278 328 385
#
# _framework density 24.972329999999999
#
# number of rings (size 3 to 8) (size 9 to 14) (size 15 to 20)
#    0.000    2.000    1.250    0.750    7.000    3.000 
#    0.000    2.500    2.750    0.000    0.000    0.000 
#    0.000    0.250    0.000    0.000    0.000    0.000 
#
# Total GULP energy -89604.995969 kJ/mol
# GULP energy per Si atom -5600.312248 kJ/mol
# Density = 2.491549 g / cm^3
# Si number density = 24.972330 Si / 1000 Ang^3
#
#
#
# Elastic Constant Matrix: (Units=GPa)
#
#
# Indices 1 2 3 4 5 6 
#
# 1 91.5447 4.9485 20.0356 -1.2415 6.7221 -11.0919
# 2 4.9485 49.7376 41.0386 10.4576 6.9022 -2.9017
# 3 20.0356 41.0386 149.5886 24.4714 1.5298 -11.7006
# 4 -1.2415 10.4576 24.4714 29.5814 -0.5403 3.8197
# 5 6.7221 6.9022 1.5298 -0.5403 42.2046 -1.5690
# 6 -11.0919 -2.9017 -11.7006 3.8197 -1.5690 25.5510
#
#
#
# Elastic Compliance Matrix: (Units=1/GPa)
#
#
# Indices 1 2 3 4 5 6 
#
# 1 0.011890 0.000323 -0.001503 0.001048 -0.001721 0.004248
# 2 0.000323 0.027114 -0.006719 -0.004156 -0.004277 0.000501
# 3 -0.001503 -0.006719 0.010134 -0.006604 0.001045 0.004277
# 4 0.001048 -0.004156 -0.006604 0.041995 0.000945 -0.009261
# 5 -0.001721 -0.004277 0.001045 0.000945 0.024665 0.000619
# 6 0.004248 0.000501 0.004277 -0.009261 0.000619 0.044419
#
#
# Mechanical properties :
#
#
# Convention : Reuss Voigt Hill
#
# Bulk Modulus (GPa) = 29.99314 46.99069 38.49192
# Shear Modulus (GPa) = 26.71978 34.45727 30.58853
#
# Velocity S-wave (km/s) = 3.27460 3.71862 3.50365
# Velocity P-wave (km/s) = 5.13166 6.10700 5.64045
#
# Compressibility (1/GPa) = 0.03334095
#
# Stress axis : x y z
#
# Youngs Moduli (GPa) = 84.10192 36.88170 98.68001
#
# Poissons Ratio (x) = -0.01192 0.14830
# Poissons Ratio (y) = -0.02719 0.66302
# Poissons Ratio (z) = 0.12639 0.24780
#
# Static dielectric constant tensor:
#      x y z
#    x 1.941710 0.009160 -0.014830 
#    y 0.009160 1.994610 0.013160 
#    z -0.014830 0.013160 2.009900 
# 
# From -- ./inp_files/122019.got.cif
#   From: 2010.05.17/outbox.cif.g08.bks.cpg/sg2_62_cif.got.tgz:122019.got - 2010.06.03 11:33:40.
