data_PCOD9024646
_publ_section_title
;
Structure prediction by ZEFSAII (Michael W. Deem and Ramdas Pophale) SiO2 
 PCOD9024646
Probable space group: P -1
;
_chemical_formula_sum "Si O2"
_cell_formula_units_Z 16
_cell_length_a 17.176370
_cell_length_b 7.931989
_cell_length_c 9.278003
_cell_angle_alpha 124.015642
_cell_angle_beta 120.003121
_cell_angle_gamma 36.171758
_cell_volume 615.355916
_symmetry_space_group_name_H-M "P -1"
_symmetry_group_IT_number 2
_symmetry_cell_setting 'triclinic'
loop_
_space_group_symop_operation_xyz
x,y,z
-x,-y,-z
loop_
_atom_site_type_symbol
_atom_site_label
_atom_site_fract_x
_atom_site_fract_y
_atom_site_fract_z
Si Si1 0.629965 0.437855 0.788019
Si Si2 0.260438 0.405538 0.822772
Si Si3 0.639581 0.730537 0.434811
Si Si4 0.018940 0.781489 0.632255
Si Si5 0.787427 0.401249 0.677953
Si Si6 0.864712 0.631096 0.064770
Si Si7 0.393000 0.682870 0.857784
Si Si8 0.878441 0.758842 0.722096
O O1 0.674606 0.455676 0.681943
O O2 0.478441 0.634549 0.780168
O O3 0.666438 0.560996 0.990041
O O4 0.725965 0.085998 0.748321
O O5 0.350293 0.181395 0.668186
O O6 0.193207 0.336839 0.815705
O O7 0.138775 0.715649 0.772918
O O8 0.737435 0.616556 0.601576
O O9 0.647046 0.477926 0.294039
O O10 0.500000 0.000000 0.500000
O O11 0.087454 0.481394 0.470168
O O12 0.936646 0.854646 0.732325
O O13 0.905338 0.066000 0.566662
O O14 0.853479 0.443144 0.873482
O O15 0.018252 0.438718 0.143056
O O16 0.743829 0.975535 0.066061
O O17 0.500000 0.500000 0.000000
#
# Coordination Sequence:
#
# PCOD9024646 Si02
#       8
#     2   2   2   2   2   2   2   2
#     4  10  22  40  68  93 125 169 214 253 311 379
#     4  10  22  41  66  92 127 167 207 256 314 372
#     4  12  27  42  60  91 134 163 209 261 318 365
#     4   9  18  36  64  95 129 157 207 262 313 366
#     4  10  22  40  65  96 125 165 209 260 312 373
#     4  10  22  42  71  92 124 169 214 252 310 381
#     4  12  25  44  65  92 129 166 212 263 312 370
#     4   9  18  37  64  98 123 161 213 261 304 369
#
# _framework density 26.001211000000001
#
# number of rings (size 3 to 8) (size 9 to 14) (size 15 to 20)
#    0.000    1.750    1.250    2.250    3.500    6.000 
#    0.000    0.625    0.000    0.000    0.000    0.000 
#    0.000    0.000    0.000    0.000    0.000    0.000 
#
# Total GULP energy -89445.766911 kJ/mol
# GULP energy per Si atom -5590.360432 kJ/mol
# Density = 2.594203 g / cm^3
# Si number density = 26.001211 Si / 1000 Ang^3
#
#
#
# Elastic Constant Matrix: (Units=GPa)
#
#
# Indices 1 2 3 4 5 6 
#
# 1 89.1680 -9.9837 -3.9418 4.6465 -16.1070 -9.5741
# 2 -9.9837 114.7606 -3.1269 8.8530 -4.2744 -10.8168
# 3 -3.9418 -3.1269 71.0572 -9.8744 -10.1522 2.2117
# 4 4.6465 8.8530 -9.8744 35.5223 -0.3642 -5.8445
# 5 -16.1070 -4.2744 -10.1522 -0.3642 37.5374 -3.4688
# 6 -9.5741 -10.8168 2.2117 -5.8445 -3.4688 33.1556
#
#
#
# Elastic Compliance Matrix: (Units=1/GPa)
#
#
# Indices 1 2 3 4 5 6 
#
# 1 0.013311 0.001990 0.001513 -0.000934 0.006795 0.004938
# 2 0.001990 0.009468 0.000496 -0.001874 0.002376 0.003549
# 3 0.001513 0.000496 0.015446 0.004159 0.005000 0.000825
# 4 -0.000934 -0.001874 0.004159 0.030628 0.001211 0.004367
# 5 0.006795 0.002376 0.005000 0.001211 0.031739 0.005938
# 6 0.004938 0.003549 0.000825 0.004367 0.005938 0.034080
#
#
# Mechanical properties :
#
#
# Convention : Reuss Voigt Hill
#
# Bulk Modulus (GPa) = 21.63504 26.76453 24.19979
# Shear Modulus (GPa) = 35.19120 40.71227 37.95173
#
# Velocity S-wave (km/s) = 3.68291 3.96129 3.82463
# Velocity P-wave (km/s) = 5.14042 5.58913 5.36946
#
# Compressibility (1/GPa) = 0.04622132
#
# Stress axis : x y z
#
# Youngs Moduli (GPa) = 75.12746 105.61980 64.74371
#
# Poissons Ratio (x) = -0.21016 -0.09797
# Poissons Ratio (y) = -0.14949 -0.03209
# Poissons Ratio (z) = -0.11368 -0.05234
#
# Static dielectric constant tensor:
#      x y z
#    x 2.185880 0.097780 0.048440 
#    y 0.097780 2.271450 0.069530 
#    z 0.048440 0.069530 2.153880 
# 
# From -- ./inp_files/223880.got.cif
#   From: 2010.05.17/outbox.cif.g08.bks.cpg/sg2_112_cif.got.tgz:223880.got - 2010.06.03 11:33:40.
