data_PCOD9024761
_publ_section_title
;
Structure prediction by ZEFSAII (Michael W. Deem and Ramdas Pophale) SiO2 
 PCOD9024761
Probable space group: P -1
;
_chemical_formula_sum "Si O2"
_cell_formula_units_Z 13
_cell_length_a 13.798619
_cell_length_b 6.856724
_cell_length_c 12.463407
_cell_angle_alpha 110.609735
_cell_angle_beta 148.212652
_cell_angle_gamma 87.492111
_cell_volume 497.297151
_symmetry_space_group_name_H-M "P -1"
_symmetry_group_IT_number 2
_symmetry_cell_setting 'triclinic'
loop_
_space_group_symop_operation_xyz
x,y,z
-x,-y,-z
loop_
_atom_site_type_symbol
_atom_site_label
_atom_site_fract_x
_atom_site_fract_y
_atom_site_fract_z
Si Si1 0.204306 0.807337 0.237209
Si Si2 0.983163 0.355955 0.349290
Si Si3 0.381842 0.295118 0.760040
Si Si4 0.000000 0.000000 0.000000
Si Si5 0.242972 0.131798 0.030764
Si Si6 0.497993 0.658852 0.355574
Si Si7 0.889563 0.229704 0.618656
O O1 0.341284 0.731614 0.281065
O O2 0.219929 0.783376 0.372852
O O3 0.269554 0.102163 0.346434
O O4 0.971423 0.721975 0.958145
O O5 0.179773 0.310085 0.530986
O O6 0.028452 0.534333 0.328274
O O7 0.000000 0.500000 0.500000
O O8 0.766480 0.090293 0.085699
O O9 0.514903 0.335086 0.783975
O O10 0.277759 0.018560 0.648728
O O11 0.500000 0.500000 0.000000
O O12 0.871462 0.994657 0.991450
O O13 0.093462 0.208453 0.840649
O O14 0.454727 0.396416 0.296888
#
# Coordination Sequence:
#
# PCOD9024761 Si02
#       7
#     2   2   2   1   2   2   2
#     4   9  21  43  68  94 133 172 207 267 329 374
#     4  11  26  44  67  92 127 177 221 260 323 388
#     4  10  24  44  66  94 131 164 221 272 319 381
#     4  10  22  40  66 104 124 170 222 252 312 404
#     4  10  24  39  66  96 130 168 216 266 317 385
#     4  10  22  43  62  96 133 170 204 271 330 373
#     4   9  22  44  64  92 131 169 210 270 316 389
#
# _framework density 26.141313
#
# number of rings (size 3 to 8) (size 9 to 14) (size 15 to 20)
#    0.000    2.154    0.000    0.923    8.615    3.692 
#    8.308    0.000    0.000    0.000    0.000    0.000 
#    0.000    0.000    0.000    0.000    0.000    0.000 
#
# Total GULP energy -72591.894054 kJ/mol
# GULP energy per Si atom -5583.991850 kJ/mol
# Density = 2.608181 g / cm^3
# Si number density = 26.141313 Si / 1000 Ang^3
#
#
#
# Elastic Constant Matrix: (Units=GPa)
#
#
# Indices 1 2 3 4 5 6 
#
# 1 106.6309 43.4197 39.7136 18.3843 -20.4923 -3.6908
# 2 43.4197 142.0471 75.7061 33.1987 -13.1199 7.3667
# 3 39.7136 75.7061 151.8073 46.7486 -21.1817 3.0100
# 4 18.3843 33.1987 46.7486 66.3508 -8.8341 0.9845
# 5 -20.4923 -13.1199 -21.1817 -8.8341 42.7788 0.0058
# 6 -3.6908 7.3667 3.0100 0.9845 0.0058 31.4737
#
#
#
# Elastic Compliance Matrix: (Units=1/GPa)
#
#
# Indices 1 2 3 4 5 6 
#
# 1 0.011834 -0.002628 -0.001019 -0.000717 0.004210 0.002122
# 2 -0.002628 0.010465 -0.004018 -0.001695 -0.000388 -0.002320
# 3 -0.001019 -0.004018 0.010736 -0.004927 0.002578 -0.000052
# 4 -0.000717 -0.001695 -0.004927 0.019689 0.000763 0.000168
# 5 0.004210 -0.000388 0.002578 0.000763 0.026707 0.000309
# 6 0.002122 -0.002320 -0.000052 0.000168 0.000309 0.032564
#
#
# Mechanical properties :
#
#
# Convention : Reuss Voigt Hill
#
# Bulk Modulus (GPa) = 56.48113 79.79602 68.13857
# Shear Modulus (GPa) = 37.53024 44.23038 40.88031
#
# Velocity S-wave (km/s) = 3.79313 4.11782 3.95881
# Velocity P-wave (km/s) = 6.39037 7.29382 6.85699
#
# Compressibility (1/GPa) = 0.01770503
#
# Stress axis : x y z
#
# Youngs Moduli (GPa) = 84.50340 95.55667 93.14746
#
# Poissons Ratio (x) = 0.25109 0.09494
# Poissons Ratio (y) = 0.22205 0.37425
# Poissons Ratio (z) = 0.08613 0.38393
#
# Static dielectric constant tensor:
#      x y z
#    x 2.070510 -0.035500 0.125500 
#    y -0.035500 2.277420 -0.027920 
#    z 0.125500 -0.027920 2.387990 
# 
# From -- ./inp_files/35413.got.cif
#   From: 2010.05.17/outbox.cif.g08.bks.cpg/sg2_18_cif.got.tgz:35413.got - 2010.06.03 11:33:40.
