data_PCOD9024015
_publ_section_title
;
Structure prediction by ZEFSAII (Michael W. Deem and Ramdas Pophale) SiO2 
 PCOD9024015
Probable space group: P -1
;
_chemical_formula_sum "Si O2"
_cell_formula_units_Z 12
_cell_length_a 19.446291
_cell_length_b 8.060295
_cell_length_c 8.695492
_cell_angle_alpha 50.628926
_cell_angle_beta 149.763511
_cell_angle_gamma 129.689079
_cell_volume 516.018110
_symmetry_space_group_name_H-M "P -1"
_symmetry_group_IT_number 2
_symmetry_cell_setting 'triclinic'
loop_
_space_group_symop_operation_xyz
x,y,z
-x,-y,-z
loop_
_atom_site_type_symbol
_atom_site_label
_atom_site_fract_x
_atom_site_fract_y
_atom_site_fract_z
Si Si1 0.072081 0.617664 0.722024
Si Si2 0.954483 0.815183 0.886088
Si Si3 0.148340 0.097610 0.868107
Si Si4 0.595335 0.553582 0.858410
Si Si5 0.395132 0.788209 0.159570
Si Si6 0.313285 0.186557 0.840366
O O1 0.000000 0.500000 0.500000
O O2 0.977426 0.787114 0.485694
O O3 0.058458 0.427586 0.932945
O O4 0.229686 0.714194 0.914633
O O5 0.805524 0.812858 0.517008
O O6 0.080614 0.893860 0.962517
O O7 0.000000 0.000000 0.000000
O O8 0.234407 0.050949 0.915411
O O9 0.268417 0.295459 0.056688
O O10 0.472351 0.671500 0.504732
O O11 0.570896 0.313925 0.876849
O O12 0.627410 0.586745 0.082767
O O13 0.424313 0.052585 0.074343
#
# Coordination Sequence:
#
# PCOD9024015 Si02
#       6
#     2   2   2   2   2   2
#     4  12  21  38  64  93 124 163 211 262 312 368
#     4  12  22  36  67  95 127 168 212 258 323 372
#     4  10  22  42  60  96 130 159 210 266 312 373
#     4   9  22  37  66  92 126 169 211 252 321 375
#     4  11  19  40  67  88 127 177 198 261 321 370
#     4  10  22  40  62  96 129 161 213 263 313 373
#
# _framework density 23.254998000000001
#
# number of rings (size 3 to 8) (size 9 to 14) (size 15 to 20)
#    1.000    0.333    5.000    1.000    0.000    0.667 
#    0.000    0.833    3.667    4.000    0.000    0.000 
#    0.000    0.000    0.000    0.000    0.000    0.000 
#
# Total GULP energy -66925.398284 kJ/mol
# GULP energy per Si atom -5577.116524 kJ/mol
# Density = 2.320207 g / cm^3
# Si number density = 23.254998 Si / 1000 Ang^3
#
#
#
# Elastic Constant Matrix: (Units=GPa)
#
#
# Indices 1 2 3 4 5 6 
#
# 1 61.6640 23.4710 27.6252 -9.8553 -11.7237 -13.9648
# 2 23.4710 65.5714 16.5205 -2.6917 -8.4505 -40.4276
# 3 27.6252 16.5205 78.7283 7.0555 3.4131 -18.8847
# 4 -9.8553 -2.6917 7.0555 38.2420 -1.9192 -6.3660
# 5 -11.7237 -8.4505 3.4131 -1.9192 35.1879 0.3855
# 6 -13.9648 -40.4276 -18.8847 -6.3660 0.3855 51.2079
#
#
#
# Elastic Compliance Matrix: (Units=1/GPa)
#
#
# Indices 1 2 3 4 5 6 
#
# 1 0.025079 -0.004914 -0.008706 0.008267 0.008463 0.000714
# 2 -0.004914 0.034501 0.000045 0.005917 0.006675 0.026600
# 3 -0.008706 0.000045 0.017236 -0.005095 -0.004877 0.003421
# 4 0.008267 0.005917 -0.005095 0.031434 0.006286 0.008907
# 5 0.008463 0.006675 -0.004877 0.006286 0.033588 0.006308
# 6 0.000714 0.026600 0.003421 0.008907 0.006308 0.043045
#
#
# Mechanical properties :
#
#
# Convention : Reuss Voigt Hill
#
# Bulk Modulus (GPa) = 20.13352 37.91079 29.02215
# Shear Modulus (GPa) = 21.87345 34.15070 28.01208
#
# Velocity S-wave (km/s) = 3.07023 3.83630 3.47444
# Velocity P-wave (km/s) = 4.60923 5.99671 5.34815
#
# Compressibility (1/GPa) = 0.04966842
#
# Stress axis : x y z
#
# Youngs Moduli (GPa) = 39.87383 28.98451 58.01856
#
# Poissons Ratio (x) = 0.14242 0.50509
# Poissons Ratio (y) = 0.19592 -0.00263
# Poissons Ratio (z) = 0.34713 -0.00131
#
# Static dielectric constant tensor:
#      x y z
#    x 1.876930 -0.007100 -0.033520 
#    y -0.007100 1.931950 0.099130 
#    z -0.033520 0.099130 1.820250 
# 
# From -- ./inp_files/343358.got.cif
#   From: 2010.05.17/outbox.cif.g08.bks.cpg/sg2_172_cif.got.tgz:343358.got - 2010.06.03 11:33:40.
