data_PCOD9024145
_publ_section_title
;
Structure prediction by ZEFSAII (Michael W. Deem and Ramdas Pophale) SiO2 
 PCOD9024145
Probable space group: P -1
;
_chemical_formula_sum "Si O2"
_cell_formula_units_Z 16
_cell_length_a 9.191869
_cell_length_b 11.701083
_cell_length_c 20.235642
_cell_angle_alpha 20.152354
_cell_angle_beta 71.964497
_cell_angle_gamma 73.365881
_cell_volume 712.915549
_symmetry_space_group_name_H-M "P -1"
_symmetry_group_IT_number 2
_symmetry_cell_setting 'triclinic'
loop_
_space_group_symop_operation_xyz
x,y,z
-x,-y,-z
loop_
_atom_site_type_symbol
_atom_site_label
_atom_site_fract_x
_atom_site_fract_y
_atom_site_fract_z
Si Si1 0.686097 0.701302 0.913207
Si Si2 0.478247 0.753262 0.424049
Si Si3 0.252339 0.100770 0.440739
Si Si4 0.831050 0.599771 0.318920
Si Si5 0.973072 0.524855 0.210718
Si Si6 0.040550 0.815114 0.368444
Si Si7 0.596412 0.074318 0.349365
Si Si8 0.872895 0.203316 0.079735
O O1 0.543905 0.886864 0.800565
O O2 0.794713 0.001721 0.761286
O O3 0.647362 0.432558 0.119986
O O4 0.772324 0.518614 0.940019
O O5 0.500000 0.500000 0.500000
O O6 0.322363 0.612545 0.554534
O O7 0.601765 0.807713 0.433767
O O8 0.417097 0.103958 0.379137
O O9 0.143917 0.408513 0.270488
O O10 0.141797 0.789159 0.608825
O O11 0.302697 0.054730 0.534695
O O12 0.897135 0.725292 0.172596
O O13 0.951407 0.341420 0.474752
O O14 0.802824 0.892265 0.217325
O O15 0.990370 0.690541 0.046607
O O16 0.000000 0.500000 0.500000
O O17 0.928581 0.087994 0.206932
#
# Coordination Sequence:
#
# PCOD9024145 Si02
#       8
#     2   2   2   2   2   2   2   2
#     4  11  23  38  66  97 127 168 223 275 326 396
#     4  11  23  42  64  94 133 175 217 270 338 401
#     4  10  24  39  68  94 130 180 223 277 327 399
#     4  10  22  40  63  94 132 174 216 272 338 392
#     4  11  22  41  65  95 133 173 226 274 335 385
#     4   9  21  39  61  96 133 165 212 269 337 390
#     4  11  22  43  65  98 131 175 228 268 332 394
#     4  11  22  38  65  99 129 169 218 280 330 391
#
# _framework density 22.443051000000001
#
# number of rings (size 3 to 8) (size 9 to 14) (size 15 to 20)
#    0.000    1.500    1.250    3.375    7.000    1.000 
#    4.500    0.000    0.000    2.250    0.000    0.000 
#    0.000    0.000    0.000    0.000    0.000    0.000 
#
# Total GULP energy -89335.138303 kJ/mol
# GULP energy per Si atom -5583.446144 kJ/mol
# Density = 2.239197 g / cm^3
# Si number density = 22.443051 Si / 1000 Ang^3
#
#
#
# Elastic Constant Matrix: (Units=GPa)
#
#
# Indices 1 2 3 4 5 6 
#
# 1 90.4679 36.0072 13.8988 2.1392 -10.3207 6.9567
# 2 36.0072 105.3351 30.9506 6.5286 2.8243 8.0830
# 3 13.8988 30.9506 89.2914 8.8025 -17.7596 0.8431
# 4 2.1392 6.5286 8.8025 30.3244 -7.0291 -5.4148
# 5 -10.3207 2.8243 -17.7596 -7.0291 37.6999 -1.7046
# 6 6.9567 8.0830 0.8431 -5.4148 -1.7046 29.2708
#
#
#
# Elastic Compliance Matrix: (Units=1/GPa)
#
#
# Indices 1 2 3 4 5 6 
#
# 1 0.013479 -0.004748 0.000343 0.000688 0.004266 -0.001526
# 2 -0.004748 0.012982 -0.004450 -0.002904 -0.005053 -0.003160
# 3 0.000343 -0.004450 0.014191 -0.001434 0.006884 0.000874
# 4 0.000688 -0.002904 -0.001434 0.037006 0.006989 0.007932
# 5 0.004266 -0.005053 0.006884 0.006989 0.032771 0.003384
# 6 -0.001526 -0.003160 0.000874 0.007932 0.003384 0.037038
#
#
# Mechanical properties :
#
#
# Convention : Reuss Voigt Hill
#
# Bulk Modulus (GPa) = 43.58935 49.64526 46.61730
# Shear Modulus (GPa) = 28.93130 33.07489 31.00309
#
# Velocity S-wave (km/s) = 3.59430 3.84308 3.72077
# Velocity P-wave (km/s) = 6.05720 6.47000 6.26700
#
# Compressibility (1/GPa) = 0.02294138
#
# Stress axis : x y z
#
# Youngs Moduli (GPa) = 74.19173 77.03005 70.46919
#
# Poissons Ratio (x) = 0.36575 -0.02417
# Poissons Ratio (y) = 0.35227 0.31356
# Poissons Ratio (z) = -0.02544 0.34276
#
# Static dielectric constant tensor:
#      x y z
#    x 1.873840 -0.032240 -0.001460 
#    y -0.032240 1.863500 0.010110 
#    z -0.001460 0.010110 1.845750 
# 
# From -- ./inp_files/589311.got.cif
#   From: 2010.05.17/outbox.cif.g08.bks.cpg/sg2_295_cif.got.tgz:589311.got - 2010.06.03 11:33:40.
