data_PCOD9024899
_publ_section_title
;
Structure prediction by ZEFSAII (Michael W. Deem and Ramdas Pophale) SiO2 
 PCOD9024899
Probable space group: P -1
;
_chemical_formula_sum "Si O2"
_cell_formula_units_Z 16
_cell_length_a 12.066524
_cell_length_b 8.705929
_cell_length_c 19.795390
_cell_angle_alpha 37.780495
_cell_angle_beta 38.167258
_cell_angle_gamma 34.311106
_cell_volume 662.404768
_symmetry_space_group_name_H-M "P -1"
_symmetry_group_IT_number 2
_symmetry_cell_setting 'triclinic'
loop_
_space_group_symop_operation_xyz
x,y,z
-x,-y,-z
loop_
_atom_site_type_symbol
_atom_site_label
_atom_site_fract_x
_atom_site_fract_y
_atom_site_fract_z
Si Si1 0.966026 0.034404 0.924243
Si Si2 0.422255 0.579528 0.799796
Si Si3 0.205862 0.324097 0.913483
Si Si4 0.592346 0.796906 0.272645
Si Si5 0.421178 0.154337 0.578261
Si Si6 0.285751 0.430783 0.230313
Si Si7 0.819279 0.208786 0.567491
Si Si8 0.115551 0.197029 0.509679
O O1 0.887703 0.348846 0.817060
O O2 0.196762 0.778286 0.876330
O O3 0.792053 0.974190 0.997508
O O4 0.000000 0.000000 0.000000
O O5 0.391201 0.352202 0.849520
O O6 0.618434 0.441074 0.806390
O O7 0.430627 0.848944 0.666627
O O8 0.216358 0.398426 0.803238
O O9 0.000000 0.500000 0.000000
O O10 0.632221 0.745842 0.351493
O O11 0.393517 0.777709 0.351475
O O12 0.491368 0.153558 0.191995
O O13 0.252643 0.446496 0.518592
O O14 0.659793 0.067604 0.478335
O O15 0.193748 0.278901 0.374838
O O16 0.949010 0.098077 0.613299
O O17 0.000000 0.000000 0.500000
O O18 0.000000 0.500000 0.500000
#
# Coordination Sequence:
#
# PCOD9024899 Si02
#       8
#     2   2   2   2   2   2   2   2
#     4  11  22  41  69  93 124 169 220 275 332 386
#     4   9  21  40  64  88 131 166 214 266 326 400
#     4  10  23  43  62  96 129 167 225 272 331 395
#     4  10  22  40  66  95 129 171 223 273 324 396
#     4  10  22  41  65  96 134 175 221 272 330 402
#     4  10  22  42  65  96 130 171 221 270 328 399
#     4  12  22  40  66  98 135 169 223 277 327 401
#     4  10  23  41  61  99 138 176 219 262 335 404
#
# _framework density 24.154413999999999
#
# number of rings (size 3 to 8) (size 9 to 14) (size 15 to 20)
#    0.000    2.000    2.500    2.625    3.500    3.000 
#    4.500    2.500    0.000    0.000    0.000    0.000 
#    0.000    0.000    0.000    0.000    0.000    0.000 
#
# Total GULP energy -89128.467233 kJ/mol
# GULP energy per Si atom -5570.529202 kJ/mol
# Density = 2.409944 g / cm^3
# Si number density = 24.154414 Si / 1000 Ang^3
#
#
#
# Elastic Constant Matrix: (Units=GPa)
#
#
# Indices 1 2 3 4 5 6 
#
# 1 140.5851 25.3476 40.1774 -6.2041 -20.0694 7.1448
# 2 25.3476 77.6591 20.1885 19.3153 21.2746 3.4667
# 3 40.1774 20.1885 54.0249 5.6996 -6.7019 1.7959
# 4 -6.2041 19.3153 5.6996 34.1654 8.3920 6.7331
# 5 -20.0694 21.2746 -6.7019 8.3920 51.7473 -0.6971
# 6 7.1448 3.4667 1.7959 6.7331 -0.6971 31.8937
#
#
#
# Elastic Compliance Matrix: (Units=1/GPa)
#
#
# Indices 1 2 3 4 5 6 
#
# 1 0.010543 -0.004008 -0.006243 0.004694 0.004133 -0.002475
# 2 -0.004008 0.020122 -0.004692 -0.009275 -0.008921 0.000738
# 3 -0.006243 -0.004692 0.025704 -0.003894 0.003486 0.001359
# 4 0.004694 -0.009275 -0.003894 0.037832 -0.001111 -0.007835
# 5 0.004133 -0.008921 0.003486 -0.001111 0.025235 0.000634
# 6 -0.002475 0.000738 0.001359 -0.007835 0.000634 0.033420
#
#
# Mechanical properties :
#
#
# Convention : Reuss Voigt Hill
#
# Bulk Modulus (GPa) = 37.75786 49.29955 43.52870
# Shear Modulus (GPa) = 26.10007 35.99831 31.04919
#
# Velocity S-wave (km/s) = 3.29074 3.86468 3.58920
# Velocity P-wave (km/s) = 5.48675 6.35365 5.93604
#
# Compressibility (1/GPa) = 0.02648455
#
# Stress axis : x y z
#
# Youngs Moduli (GPa) = 94.85014 49.69611 38.90398
#
# Poissons Ratio (x) = 0.19916 0.24289
# Poissons Ratio (y) = 0.38011 0.18253
# Poissons Ratio (z) = 0.59217 0.23316
#
# Static dielectric constant tensor:
#      x y z
#    x 2.018370 0.038820 -0.031950 
#    y 0.038820 1.923320 -0.013460 
#    z -0.031950 -0.013460 2.098300 
# 
# From -- ./inp_files/593948.got.cif
#   From: 2010.05.17/outbox.cif.g08.bks.cpg/sg2_297_cif.got.tgz:593948.got - 2010.06.03 11:33:40.
