data_PCOD9024594
_publ_section_title
;
Structure prediction by ZEFSAII (Michael W. Deem and Ramdas Pophale) SiO2 
 PCOD9024594
Probable space group: P -1
;
_chemical_formula_sum "Si O2"
_cell_formula_units_Z 14
_cell_length_a 9.849181
_cell_length_b 14.138239
_cell_length_c 19.643183
_cell_angle_alpha 20.382837
_cell_angle_beta 37.568569
_cell_angle_gamma 36.770902
_cell_volume 558.746127
_symmetry_space_group_name_H-M "P -1"
_symmetry_group_IT_number 2
_symmetry_cell_setting 'triclinic'
loop_
_space_group_symop_operation_xyz
x,y,z
-x,-y,-z
loop_
_atom_site_type_symbol
_atom_site_label
_atom_site_fract_x
_atom_site_fract_y
_atom_site_fract_z
Si Si1 0.228014 0.985649 0.461989
Si Si2 0.115168 0.551672 0.631471
Si Si3 0.776132 0.383038 0.798159
Si Si4 0.353865 0.803603 0.881382
Si Si5 0.159377 0.048847 0.054443
Si Si6 0.206798 0.047659 0.191509
Si Si7 0.696958 0.387648 0.196078
O O1 0.283195 0.697157 0.675953
O O2 0.461307 0.015608 0.315790
O O3 0.000000 0.000000 0.500000
O O4 0.124400 0.250323 0.374746
O O5 0.205407 0.306757 0.816634
O O6 0.020683 0.443149 0.673485
O O7 0.259517 0.764728 0.406536
O O8 0.544900 0.642456 0.714687
O O9 0.740098 0.209652 0.996078
O O10 0.767273 0.222878 0.839712
O O11 0.500000 0.500000 0.000000
O O12 0.120221 0.894024 0.869053
O O13 0.264878 0.012077 0.112730
O O14 0.928416 0.187760 0.207636
O O15 0.297292 0.288543 0.030081
#
# Coordination Sequence:
#
# PCOD9024594 Si02
#       7
#     2   2   2   2   2   2   2
#     4  11  23  39  67  98 125 161 214 271 322 369
#     4  10  22  40  65  94 123 165 215 262 312 378
#     4  11  24  41  63  94 134 165 213 258 320 387
#     4  11  21  39  69  94 122 168 216 264 320 363
#     4  11  23  43  65  94 133 169 211 264 312 388
#     4  10  23  41  68  88 131 166 217 265 319 361
#     4  10  24  41  63  98 126 164 216 267 315 380
#
# _framework density 25.056103
#
# number of rings (size 3 to 8) (size 9 to 14) (size 15 to 20)
#    0.000    1.429    2.857    3.429    8.000    2.286 
#    2.571    0.714    0.000    0.000    0.000    0.000 
#    0.000    0.000    0.000    0.000    0.000    0.000 
#
# Total GULP energy -78276.649685 kJ/mol
# GULP energy per Si atom -5591.189263 kJ/mol
# Density = 2.499907 g / cm^3
# Si number density = 25.056103 Si / 1000 Ang^3
#
#
#
# Elastic Constant Matrix: (Units=GPa)
#
#
# Indices 1 2 3 4 5 6 
#
# 1 80.4274 -4.2045 24.3121 6.6654 12.8771 0.1185
# 2 -4.2045 66.8850 0.2872 6.7404 -15.5681 -0.6243
# 3 24.3121 0.2872 135.9012 12.0689 -1.5173 -0.7659
# 4 6.6654 6.7404 12.0689 34.3167 -2.3359 -4.7636
# 5 12.8771 -15.5681 -1.5173 -2.3359 12.6275 3.5805
# 6 0.1185 -0.6243 -0.7659 -4.7636 3.5805 44.1074
#
#
#
# Elastic Compliance Matrix: (Units=1/GPa)
#
#
# Indices 1 2 3 4 5 6 
#
# 1 0.017237 -0.004206 -0.003080 -0.002872 -0.024086 0.001486
# 2 -0.004206 0.022414 0.001245 -0.002168 0.032384 -0.002513
# 3 -0.003080 0.001245 0.008161 -0.002220 0.005391 -0.000510
# 4 -0.002872 -0.002168 -0.002220 0.031655 0.005008 0.002951
# 5 -0.024086 0.032384 0.005391 0.005008 0.148339 -0.010884
# 6 0.001486 -0.002513 -0.000510 0.002951 -0.010884 0.023826
#
#
# Mechanical properties :
#
#
# Convention : Reuss Voigt Hill
#
# Bulk Modulus (GPa) = 27.98824 36.00036 31.99430
# Shear Modulus (GPa) = 18.14057 35.73157 26.93607
#
# Velocity S-wave (km/s) = 2.69364 3.78042 3.28232
# Velocity P-wave (km/s) = 4.56823 5.78399 5.21168
#
# Compressibility (1/GPa) = 0.03572929
#
# Stress axis : x y z
#
# Youngs Moduli (GPa) = 58.01487 44.61508 122.53124
#
# Poissons Ratio (x) = 0.18766 0.37742
# Poissons Ratio (y) = 0.24402 -0.15255
# Poissons Ratio (z) = 0.17870 -0.05555
#
# Static dielectric constant tensor:
#      x y z
#    x 2.033270 0.035480 -0.080980 
#    y 0.035480 2.034930 -0.032860 
#    z -0.080980 -0.032860 2.109170 
# 
# From -- ./inp_files/157715.got.cif
#   From: 2010.05.17/outbox.cif.g08.bks.cpg/sg2_79_cif.got.tgz:157715.got - 2010.06.03 11:33:40.
