data_PCOD9024337
_publ_section_title
;
Structure prediction by ZEFSAII (Michael W. Deem and Ramdas Pophale) SiO2 
 PCOD9024337
Probable space group: P -1
;
_chemical_formula_sum "Si O2"
_cell_formula_units_Z 16
_cell_length_a 16.055461
_cell_length_b 8.755222
_cell_length_c 18.945549
_cell_angle_alpha 136.227959
_cell_angle_beta 148.326984
_cell_angle_gamma 32.601660
_cell_volume 753.298748
_symmetry_space_group_name_H-M "P -1"
_symmetry_group_IT_number 2
_symmetry_cell_setting 'triclinic'
loop_
_space_group_symop_operation_xyz
x,y,z
-x,-y,-z
loop_
_atom_site_type_symbol
_atom_site_label
_atom_site_fract_x
_atom_site_fract_y
_atom_site_fract_z
Si Si1 0.969122 0.224603 0.290560
Si Si2 0.308898 0.800056 0.028624
Si Si3 0.942933 0.709392 0.877339
Si Si4 0.811018 0.338782 0.667475
Si Si5 0.335963 0.184507 0.758079
Si Si6 0.359015 0.317592 0.972790
Si Si7 0.531085 0.419547 0.378360
Si Si8 0.321609 0.981008 0.350063
O O1 0.842601 0.551157 0.328716
O O2 0.049156 0.997103 0.333622
O O3 0.159959 0.124076 0.345481
O O4 0.817168 0.208443 0.127299
O O5 0.461161 0.852859 0.126963
O O6 0.144398 0.059327 0.047398
O O7 0.430966 0.497630 0.057271
O O8 0.924474 0.468524 0.803104
O O9 0.175839 0.537983 0.966554
O O10 0.799655 0.873917 0.760852
O O11 0.699222 0.421758 0.539610
O O12 0.640222 0.475906 0.650961
O O13 0.276253 0.281758 0.828600
O O14 0.376095 0.894119 0.679936
O O15 0.500000 0.000000 0.000000
O O16 0.426877 0.648286 0.317574
O O17 0.500000 0.000000 0.500000
#
# Coordination Sequence:
#
# PCOD9024337 Si02
#       8
#     2   2   2   2   2   2   2   2
#     4  10  23  41  63  91 136 166 210 264 323 381
#     4  11  24  42  65  94 130 173 212 255 323 391
#     4  12  23  42  66  97 127 169 217 262 319 381
#     4  10  22  40  64  93 122 168 215 260 308 384
#     4  11  23  44  63  94 131 172 206 265 324 380
#     4  11  26  41  63  95 136 164 212 269 323 379
#     4  10  22  41  64  92 124 166 219 257 311 384
#     4  11  22  42  65  90 130 174 210 270 315 371
#
# _framework density 21.239912
#
# number of rings (size 3 to 8) (size 9 to 14) (size 15 to 20)
#    0.000    1.250    5.000    1.875    5.250    2.000 
#    0.000    2.500    0.000    0.000    0.000    0.000 
#    0.000    0.000    0.000    0.000    0.000    0.000 
#
# Total GULP energy -89389.499694 kJ/mol
# GULP energy per Si atom -5586.843731 kJ/mol
# Density = 2.119157 g / cm^3
# Si number density = 21.239912 Si / 1000 Ang^3
#
#
#
# Elastic Constant Matrix: (Units=GPa)
#
#
# Indices 1 2 3 4 5 6 
#
# 1 42.2903 18.6590 5.3678 -0.8340 5.0081 -6.7967
# 2 18.6590 148.8920 5.9519 6.1095 0.7766 -0.3072
# 3 5.3678 5.9519 31.4123 3.8759 13.2998 -1.8711
# 4 -0.8340 6.1095 3.8759 36.9394 8.6722 -4.0221
# 5 5.0081 0.7766 13.2998 8.6722 20.2213 -0.6705
# 6 -6.7967 -0.3072 -1.8711 -4.0221 -0.6705 34.1739
#
#
#
# Elastic Compliance Matrix: (Units=1/GPa)
#
#
# Indices 1 2 3 4 5 6 
#
# 1 0.027133 -0.003459 -0.001008 0.003610 -0.007287 0.005592
# 2 -0.003459 0.007273 -0.001627 -0.001763 0.002374 -0.000872
# 3 -0.001008 -0.001627 0.044963 0.002890 -0.030434 0.001990
# 4 0.003610 -0.001763 0.002890 0.031368 -0.016039 0.004238
# 5 -0.007287 0.002374 -0.030434 -0.016039 0.077947 -0.003452
# 6 0.005592 -0.000872 0.001990 0.004238 -0.003452 0.030906
#
#
# Mechanical properties :
#
#
# Convention : Reuss Voigt Hill
#
# Bulk Modulus (GPa) = 14.88519 31.39466 23.13992
# Shear Modulus (GPa) = 19.67183 31.10799 25.38991
#
# Velocity S-wave (km/s) = 3.04661 3.83116 3.46119
# Velocity P-wave (km/s) = 4.40444 5.86374 5.18568
#
# Compressibility (1/GPa) = 0.06718089
#
# Stress axis : x y z
#
# Youngs Moduli (GPa) = 36.85572 137.49739 22.24071
#
# Poissons Ratio (x) = 0.47554 0.02243
# Poissons Ratio (y) = 0.12747 0.03618
# Poissons Ratio (z) = 0.03717 0.22367
#
# Static dielectric constant tensor:
#      x y z
#    x 1.763450 0.022310 0.006440 
#    y 0.022310 1.798840 -0.020060 
#    z 0.006440 -0.020060 1.751330 
# 
# From -- ./inp_files/214356.got.cif
#   From: 2010.05.17/outbox.cif.g08.bks.cpg/sg2_108_cif.got.tgz:214356.got - 2010.06.03 11:33:40.
