data_PCOD9024577
_publ_section_title
;
Structure prediction by ZEFSAII (Michael W. Deem and Ramdas Pophale) SiO2 
 PCOD9024577
Probable space group: P -1
;
_chemical_formula_sum "Si O2"
_cell_formula_units_Z 16
_cell_length_a 11.297081
_cell_length_b 11.868712
_cell_length_c 6.288332
_cell_angle_alpha 108.029526
_cell_angle_beta 61.281376
_cell_angle_gamma 113.024182
_cell_volume 672.767610
_symmetry_space_group_name_H-M "P -1"
_symmetry_group_IT_number 2
_symmetry_cell_setting 'triclinic'
loop_
_space_group_symop_operation_xyz
x,y,z
-x,-y,-z
loop_
_atom_site_type_symbol
_atom_site_label
_atom_site_fract_x
_atom_site_fract_y
_atom_site_fract_z
Si Si1 0.197919 0.533429 0.640470
Si Si2 0.378643 0.938586 0.736264
Si Si3 0.965385 0.958923 0.264909
Si Si4 0.394892 0.726179 0.906069
Si Si5 0.232084 0.128563 0.929988
Si Si6 0.039269 0.268556 0.676278
Si Si7 0.325382 0.337703 0.251303
Si Si8 0.804990 0.259558 0.533269
O O1 0.283622 0.624247 0.799497
O O2 0.081061 0.415100 0.768941
O O3 0.305195 0.472890 0.381045
O O4 0.139443 0.612734 0.569607
O O5 0.420905 0.855968 0.832995
O O6 0.256821 0.844951 0.648026
O O7 0.500000 0.000000 0.500000
O O8 0.322044 0.051628 0.927041
O O9 0.801975 0.919994 0.309686
O O10 0.003921 0.827823 0.152093
O O11 0.000000 0.000000 0.500000
O O12 0.072104 0.072362 0.115965
O O13 0.532341 0.680613 0.792394
O O14 0.323925 0.735620 0.199000
O O15 0.297506 0.272879 0.004965
O O16 0.188905 0.258238 0.454041
O O17 0.922320 0.239046 0.577656
#
# Coordination Sequence:
#
# PCOD9024577 Si02
#       8
#     2   2   2   2   2   2   2   2
#     4   9  23  43  66  92 128 166 214 268 318 379
#     4  11  26  41  64  92 131 171 211 262 317 388
#     4  11  21  39  62  93 130 164 206 263 315 379
#     4  11  24  44  66  92 126 174 215 259 325 379
#     4  11  24  39  65  96 127 170 212 255 328 379
#     4  10  22  40  65  93 128 163 206 270 318 370
#     4  10  23  42  64  96 127 163 217 262 315 385
#     4  11  23  43  66  92 130 164 216 267 317 382
#
# _framework density 23.782354999999999
#
# number of rings (size 3 to 8) (size 9 to 14) (size 15 to 20)
#    0.750    0.750    1.250    3.000    3.500    5.000 
#    0.000    0.000    0.000    0.000    0.000    0.000 
#    0.000    0.000    0.000    0.000    0.000    0.000 
#
# Total GULP energy -89303.341239 kJ/mol
# GULP energy per Si atom -5581.458827 kJ/mol
# Density = 2.372823 g / cm^3
# Si number density = 23.782355 Si / 1000 Ang^3
#
#
#
# Elastic Constant Matrix: (Units=GPa)
#
#
# Indices 1 2 3 4 5 6 
#
# 1 84.6241 1.5878 0.6924 -9.7780 3.5330 -9.1295
# 2 1.5878 102.4969 11.4352 -6.4397 7.6653 -15.1322
# 3 0.6924 11.4352 36.1853 3.8123 -4.7454 0.9001
# 4 -9.7780 -6.4397 3.8123 36.4795 -3.7116 2.8354
# 5 3.5330 7.6653 -4.7454 -3.7116 33.1741 0.6403
# 6 -9.1295 -15.1322 0.9001 2.8354 0.6403 36.5096
#
#
#
# Elastic Compliance Matrix: (Units=1/GPa)
#
#
# Indices 1 2 3 4 5 6 
#
# 1 0.012591 0.000706 -0.001062 0.003220 -0.001358 0.003241
# 2 0.000706 0.011308 -0.004330 0.001935 -0.003185 0.004876
# 3 -0.001062 -0.004330 0.030122 -0.003476 0.005084 -0.002622
# 4 0.003220 0.001935 -0.003476 0.029231 0.001995 -0.000612
# 5 -0.001358 -0.003185 0.005084 0.001995 0.032023 -0.002502
# 6 0.003241 0.004876 -0.002622 -0.000612 -0.002502 0.030377
#
#
# Mechanical properties :
#
#
# Convention : Reuss Voigt Hill
#
# Bulk Modulus (GPa) = 22.39686 27.85969 25.12828
# Shear Modulus (GPa) = 29.42760 35.20535 32.31648
#
# Velocity S-wave (km/s) = 3.52144 3.85166 3.69025
# Velocity P-wave (km/s) = 5.09627 5.61429 5.36154
#
# Compressibility (1/GPa) = 0.04464912
#
# Stress axis : x y z
#
# Youngs Moduli (GPa) = 79.42272 88.43195 33.19797
#
# Poissons Ratio (x) = -0.06242 0.03526
# Poissons Ratio (y) = -0.05606 0.14374
# Poissons Ratio (z) = 0.08435 0.38290
#
# Static dielectric constant tensor:
#      x y z
#    x 1.907790 -0.021580 0.046850 
#    y -0.021580 1.938100 0.021150 
#    z 0.046850 0.021150 2.054110 
# 
# From -- ./inp_files/71118.got.cif
#   From: 2010.05.17/outbox.cif.g08.bks.cpg/sg2_36_cif.got.tgz:71118.got - 2010.06.03 11:33:40.
