data_PCOD9024017
_publ_section_title
;
Structure prediction by ZEFSAII (Michael W. Deem and Ramdas Pophale) SiO2 
 PCOD9024017
Probable space group: P -1
;
_chemical_formula_sum "Si O2"
_cell_formula_units_Z 13
_cell_length_a 8.375298
_cell_length_b 14.343490
_cell_length_c 11.748678
_cell_angle_alpha 139.674261
_cell_angle_beta 142.882348
_cell_angle_gamma 53.072402
_cell_volume 551.072940
_symmetry_space_group_name_H-M "P -1"
_symmetry_group_IT_number 2
_symmetry_cell_setting 'triclinic'
loop_
_space_group_symop_operation_xyz
x,y,z
-x,-y,-z
loop_
_atom_site_type_symbol
_atom_site_label
_atom_site_fract_x
_atom_site_fract_y
_atom_site_fract_z
Si Si1 0.000000 0.500000 0.000000
Si Si2 0.240920 0.742691 0.534994
Si Si3 0.538510 0.192610 0.518112
Si Si4 0.655807 0.352652 0.931894
Si Si5 0.547955 0.725382 0.922263
Si Si6 0.282301 0.117321 0.626734
Si Si7 0.987014 0.333479 0.305295
O O1 0.091155 0.601186 0.265282
O O2 0.274930 0.412332 0.084297
O O3 0.383210 0.810034 0.569536
O O4 0.456863 0.727514 0.742368
O O5 0.014811 0.850671 0.549287
O O6 0.705161 0.319752 0.796475
O O7 0.238690 0.244318 0.401125
O O8 0.612257 0.042428 0.475812
O O9 0.462745 0.229166 0.760488
O O10 0.500000 0.500000 0.000000
O O11 0.924913 0.337400 0.139770
O O12 0.271350 0.723403 0.830630
O O13 0.704668 0.849046 0.197920
O O14 0.000000 0.500000 0.500000
#
# Coordination Sequence:
#
# PCOD9024017 Si02
#       7
#     1   2   2   2   2   2   2
#     4  10  22  40  62  96 132 172 220 272 324 390
#     4  11  24  40  67  97 135 174 221 270 336 399
#     4  12  25  42  67 101 133 175 223 273 339 391
#     4  11  24  43  69  94 130 176 223 275 331 389
#     4  10  23  42  64  95 132 177 218 273 336 389
#     4  10  25  45  66  96 137 176 221 276 327 402
#     4  11  23  40  66  96 129 170 224 277 325 396
#
# _framework density 23.590344999999999
#
# number of rings (size 3 to 8) (size 9 to 14) (size 15 to 20)
#    0.000    1.231    1.538    3.231    4.308    6.769 
#    0.000    0.000    0.000    0.000    0.000    0.000 
#    0.000    0.000    0.000    0.000    0.000    0.000 
#
# Total GULP energy -72454.975121 kJ/mol
# GULP energy per Si atom -5573.459625 kJ/mol
# Density = 2.353665 g / cm^3
# Si number density = 23.590345 Si / 1000 Ang^3
#
#
#
# Elastic Constant Matrix: (Units=GPa)
#
#
# Indices 1 2 3 4 5 6 
#
# 1 39.5389 23.6880 4.0427 -7.6791 -17.0984 -6.0062
# 2 23.6880 176.3551 63.5927 4.3292 -13.5963 -27.9800
# 3 4.0427 63.5927 70.1657 -25.2508 -28.8081 3.3602
# 4 -7.6791 4.3292 -25.2508 44.5382 3.3947 -4.8589
# 5 -17.0984 -13.5963 -28.8081 3.3947 37.3930 -13.7857
# 6 -6.0062 -27.9800 3.3602 -4.8589 -13.7857 47.3519
#
#
#
# Elastic Compliance Matrix: (Units=1/GPa)
#
#
# Indices 1 2 3 4 5 6 
#
# 1 0.113878 -0.044502 0.113034 0.081241 0.124734 0.024778
# 2 -0.044502 0.030552 -0.062876 -0.042474 -0.055130 -0.003539
# 3 0.113034 -0.062876 0.167838 0.111269 0.156200 0.022166
# 4 0.081241 -0.042474 0.111269 0.097613 0.105183 0.017950
# 5 0.124734 -0.055130 0.156200 0.105183 0.188467 0.037824
# 6 0.024778 -0.003539 0.022166 0.017950 0.037824 0.033451
#
#
# Mechanical properties :
#
#
# Convention : Reuss Voigt Hill
#
# Bulk Modulus (GPa) = 3.09043 52.07849 27.58446
# Shear Modulus (GPa) = 6.86484 38.83903 22.85194
#
# Velocity S-wave (km/s) = 1.70773 4.06198 3.11577
# Velocity P-wave (km/s) = 2.28064 6.64257 4.96614
#
# Compressibility (1/GPa) = 0.32357936
#
# Stress axis : x y z
#
# Youngs Moduli (GPa) = 8.78129 32.73131 5.95812
#
# Poissons Ratio (x) = 1.45662 -0.67347
# Poissons Ratio (y) = 0.39079 0.37463
# Poissons Ratio (z) = -0.99259 2.05803
#
# Static dielectric constant tensor:
#      x y z
#    x 1.986810 0.059710 -0.065750 
#    y 0.059710 1.823580 0.005200 
#    z -0.065750 0.005200 1.954850 
# 
# From -- ./inp_files/173796.got.cif
#   From: 2010.05.17/outbox.cif.g08.bks.cpg/sg2_87_cif.got.tgz:173796.got - 2010.06.03 11:33:40.
