data_PCOD9024392
_publ_section_title
;
Structure prediction by ZEFSAII (Michael W. Deem and Ramdas Pophale) SiO2 
 PCOD9024392
Probable space group: P -1
;
_chemical_formula_sum "Si O2"
_cell_formula_units_Z 12
_cell_length_a 15.482305
_cell_length_b 9.292532
_cell_length_c 21.020174
_cell_angle_alpha 46.907943
_cell_angle_beta 162.730768
_cell_angle_gamma 120.911020
_cell_volume 503.929373
_symmetry_space_group_name_H-M "P -1"
_symmetry_group_IT_number 2
_symmetry_cell_setting 'triclinic'
loop_
_space_group_symop_operation_xyz
x,y,z
-x,-y,-z
loop_
_atom_site_type_symbol
_atom_site_label
_atom_site_fract_x
_atom_site_fract_y
_atom_site_fract_z
Si Si1 0.552905 0.732991 0.160357
Si Si2 0.478144 0.721581 0.382863
Si Si3 0.664874 0.981516 0.347988
Si Si4 0.654942 0.951733 0.694538
Si Si5 0.667489 0.225617 0.399738
Si Si6 0.393423 0.902254 0.858481
O O1 0.616137 0.751491 0.124700
O O2 0.622334 0.476538 0.298248
O O3 0.776071 0.806542 0.332522
O O4 0.108707 0.970111 0.792984
O O5 0.500000 0.500000 0.500000
O O6 0.678391 0.757844 0.455596
O O7 0.557429 0.828967 0.466741
O O8 0.063193 0.876793 0.011566
O O9 0.550796 0.181302 0.263374
O O10 0.077828 0.869116 0.648080
O O11 0.416866 0.139593 0.063389
O O12 0.609327 0.753697 0.750271
O O13 0.500000 0.000000 0.500000
#
# Coordination Sequence:
#
# PCOD9024392 Si02
#       6
#     2   2   2   2   2   2
#     4  10  22  40  64  95 128 167 218 271 330 398
#     4  10  23  42  68  95 134 172 227 281 332 400
#     4   9  20  40  61  93 128 172 215 271 334 393
#     4  10  24  42  64  99 130 178 224 277 341 398
#     4  10  23  41  66  93 132 169 217 278 330 399
#     4   9  20  37  64  92 129 168 216 267 331 395
#
# _framework density 23.812861000000002
#
# number of rings (size 3 to 8) (size 9 to 14) (size 15 to 20)
#    0.000    2.333    0.000    0.000    9.333    8.667 
#    0.000    3.333    0.000    0.000    0.000    0.000 
#    0.000    0.000    0.000    0.000    0.000    0.000 
#
# Total GULP energy -66810.708760 kJ/mol
# GULP energy per Si atom -5567.559063 kJ/mol
# Density = 2.375866 g / cm^3
# Si number density = 23.812861 Si / 1000 Ang^3
#
#
#
# Elastic Constant Matrix: (Units=GPa)
#
#
# Indices 1 2 3 4 5 6 
#
# 1 161.0094 65.7590 31.1983 18.3263 -31.1827 19.2531
# 2 65.7590 173.5379 36.5959 -10.8711 -9.5856 35.5896
# 3 31.1983 36.5959 60.2374 0.7438 -1.4257 -3.4546
# 4 18.3263 -10.8711 0.7438 31.9467 -5.5839 -7.9876
# 5 -31.1827 -9.5856 -1.4257 -5.5839 24.5297 12.9412
# 6 19.2531 35.5896 -3.4546 -7.9876 12.9412 46.2217
#
#
#
# Elastic Compliance Matrix: (Units=1/GPa)
#
#
# Indices 1 2 3 4 5 6 
#
# 1 0.015664 -0.000042 -0.008278 -0.008231 0.025864 -0.015775
# 2 -0.000042 0.009937 -0.006415 0.002635 0.009501 -0.010318
# 3 -0.008278 -0.006415 0.025220 0.002616 -0.019509 0.016187
# 4 -0.008231 0.002635 0.002616 0.038312 -0.005742 0.009823
# 5 0.025864 0.009501 -0.019509 -0.005742 0.100616 -0.048710
# 6 -0.015775 -0.010318 0.016187 0.009823 -0.048710 0.052695
#
#
# Mechanical properties :
#
#
# Convention : Reuss Voigt Hill
#
# Bulk Modulus (GPa) = 46.83545 73.54345 60.18945
# Shear Modulus (GPa) = 17.91917 37.95505 27.93711
#
# Velocity S-wave (km/s) = 2.74615 3.99668 3.42891
# Velocity P-wave (km/s) = 5.45582 7.22834 6.40371
#
# Compressibility (1/GPa) = 0.02135135
#
# Stress axis : x y z
#
# Youngs Moduli (GPa) = 63.83966 100.63573 39.65109
#
# Poissons Ratio (x) = 0.00419 0.32825
# Poissons Ratio (y) = 0.00266 0.25435
# Poissons Ratio (z) = 0.52850 0.64555
#
# Static dielectric constant tensor:
#      x y z
#    x 1.952990 -0.001160 -0.010030 
#    y -0.001160 1.983950 0.064020 
#    z -0.010030 0.064020 2.195160 
# 
# From -- ./inp_files/110168.got.cif
#   From: 2010.05.17/outbox.cif.g08.bks.cpg/sg2_56_cif.got.tgz:110168.got - 2010.06.03 11:33:40.
