data_PCOD9024292
_publ_section_title
;
Structure prediction by ZEFSAII (Michael W. Deem and Ramdas Pophale) SiO2 
 PCOD9024292
Probable space group: P -1
;
_chemical_formula_sum "Si O2"
_cell_formula_units_Z 14
_cell_length_a 20.472867
_cell_length_b 5.163949
_cell_length_c 5.487641
_cell_angle_alpha 86.716575
_cell_angle_beta 78.731887
_cell_angle_gamma 68.061484
_cell_volume 527.693626
_symmetry_space_group_name_H-M "P -1"
_symmetry_group_IT_number 2
_symmetry_cell_setting 'triclinic'
loop_
_space_group_symop_operation_xyz
x,y,z
-x,-y,-z
loop_
_atom_site_type_symbol
_atom_site_label
_atom_site_fract_x
_atom_site_fract_y
_atom_site_fract_z
Si Si1 0.419038 0.727552 0.748603
Si Si2 0.680749 0.827487 0.875161
Si Si3 0.948752 0.826756 0.528407
Si Si4 0.214672 0.434317 0.815721
Si Si5 0.716722 0.168082 0.456739
Si Si6 0.916398 0.695517 0.056372
Si Si7 0.447571 0.266452 0.174090
O O1 0.365187 0.689737 0.590811
O O2 0.500118 0.712458 0.648027
O O3 0.428012 0.522172 0.983977
O O4 0.372667 0.033831 0.871385
O O5 0.627061 0.773391 0.723102
O O6 0.710764 0.049911 0.732167
O O7 0.746238 0.575716 0.953609
O O8 0.906522 0.870344 0.302905
O O9 0.000000 0.500000 0.500000
O O10 0.902117 0.867004 0.805498
O O11 0.000000 0.000000 0.500000
O O12 0.240705 0.628361 0.616456
O O13 0.131123 0.494762 0.894068
O O14 0.244305 0.114925 0.711959
O O15 0.000000 0.500000 0.000000
O O16 0.500000 0.000000 0.000000
#
# Coordination Sequence:
#
# PCOD9024292 Si02
#       7
#     2   2   2   2   2   2   2
#     4   9  19  38  59  92 130 169 224 286 336 409
#     4  10  22  40  64  90 131 181 222 283 346 413
#     4  10  22  42  71 103 140 179 226 286 356 422
#     4  11  26  44  65  98 137 175 232 285 348 421
#     4  11  25  42  67  95 134 180 231 277 351 420
#     4  10  24  47  73 108 144 189 237 302 360 431
#     4   9  17  35  63  89 129 168 221 286 339 401
#
# _framework density 26.530546000000001
#
# number of rings (size 3 to 8) (size 9 to 14) (size 15 to 20)
#    0.000    2.000    1.429    0.429    4.000    5.143 
#    0.000    6.429    0.000    0.000    0.000    0.000 
#    0.000    0.000    0.000    0.000    0.000    0.000 
#
# Total GULP energy -78354.037911 kJ/mol
# GULP energy per Si atom -5596.716994 kJ/mol
# Density = 2.647016 g / cm^3
# Si number density = 26.530546 Si / 1000 Ang^3
#
#
#
# Elastic Constant Matrix: (Units=GPa)
#
#
# Indices 1 2 3 4 5 6 
#
# 1 205.2496 50.1825 43.2142 -8.8371 -24.0545 22.1660
# 2 50.1825 90.5291 18.5204 -5.9768 -2.5509 22.1895
# 3 43.2142 18.5204 139.7357 -13.0339 2.7197 24.0531
# 4 -8.8371 -5.9768 -13.0339 36.0567 21.6026 -5.5184
# 5 -24.0545 -2.5509 2.7197 21.6026 34.5632 -4.6977
# 6 22.1660 22.1895 24.0531 -5.5184 -4.6977 54.8896
#
#
#
# Elastic Compliance Matrix: (Units=1/GPa)
#
#
# Indices 1 2 3 4 5 6 
#
# 1 0.006830 -0.003347 -0.002130 -0.003948 0.007106 -0.000260
# 2 -0.003347 0.014038 0.000336 0.003354 -0.004025 -0.004478
# 3 -0.002130 0.000336 0.009016 0.006179 -0.006459 -0.003158
# 4 -0.003948 0.003354 0.006179 0.050067 -0.034330 -0.000374
# 5 0.007106 -0.004025 -0.006459 -0.034330 0.055944 0.002924
# 6 -0.000260 -0.004478 -0.003158 -0.000374 0.002924 0.021730
#
#
# Mechanical properties :
#
#
# Convention : Reuss Voigt Hill
#
# Bulk Modulus (GPa) = 51.01259 73.26095 62.13677
# Shear Modulus (GPa) = 28.66286 46.67504 37.66895
#
# Velocity S-wave (km/s) = 3.29047 4.19894 3.77216
# Velocity P-wave (km/s) = 5.80567 7.15416 6.51490
#
# Compressibility (1/GPa) = 0.01960301
#
# Stress axis : x y z
#
# Youngs Moduli (GPa) = 146.41508 71.23406 110.91005
#
# Poissons Ratio (x) = 0.23840 0.23628
# Poissons Ratio (y) = 0.49002 -0.03732
# Poissons Ratio (z) = 0.31192 -0.02397
#
# Static dielectric constant tensor:
#      x y z
#    x 1.757150 -0.261720 -0.665760 
#    y -0.261720 1.860110 -0.535420 
#    z -0.665760 -0.535420 0.595010 
# 
# From -- ./inp_files/7937.got.cif
#   From: 2010.05.17/outbox.cif.g08.bks.cpg/sg2_4_cif.got.tgz:7937.got - 2010.06.03 11:33:40.
