data_PCOD9024116
_publ_section_title
;
Structure prediction by ZEFSAII (Michael W. Deem and Ramdas Pophale) SiO2 
 PCOD9024116
Probable space group: P -1
;
_chemical_formula_sum "Si O2"
_cell_formula_units_Z 16
_cell_length_a 14.355460
_cell_length_b 12.089718
_cell_length_c 14.187392
_cell_angle_alpha 38.523403
_cell_angle_beta 29.389241
_cell_angle_gamma 52.880577
_cell_volume 727.549690
_symmetry_space_group_name_H-M "P -1"
_symmetry_group_IT_number 2
_symmetry_cell_setting 'triclinic'
loop_
_space_group_symop_operation_xyz
x,y,z
-x,-y,-z
loop_
_atom_site_type_symbol
_atom_site_label
_atom_site_fract_x
_atom_site_fract_y
_atom_site_fract_z
Si Si1 0.725399 0.893598 0.880129
Si Si2 0.119508 0.149785 0.660344
Si Si3 0.718316 0.079827 0.963136
Si Si4 0.334062 0.897577 0.533338
Si Si5 0.394999 0.287007 0.482823
Si Si6 0.359969 0.526552 0.190375
Si Si7 0.611773 0.447269 0.527714
Si Si8 0.875169 0.209352 0.391634
O O1 0.904219 0.797678 0.779802
O O2 0.751392 0.023463 0.864216
O O3 0.745562 0.025954 0.682848
O O4 0.532430 0.729159 0.175980
O O5 0.208702 0.150065 0.686866
O O6 0.160452 0.366716 0.458440
O O7 0.900095 0.061041 0.880287
O O8 0.265853 0.066628 0.523700
O O9 0.684140 0.281161 0.876210
O O10 0.519421 0.949931 0.265267
O O11 0.418818 0.793514 0.609715
O O12 0.161943 0.794871 0.684787
O O13 0.454057 0.455880 0.245751
O O14 0.339490 0.376635 0.566171
O O15 0.500000 0.500000 0.000000
O O16 0.500000 0.500000 0.500000
O O17 0.803858 0.381065 0.377243
#
# Coordination Sequence:
#
# PCOD9024116 Si02
#       8
#     2   2   2   2   2   2   2   2
#     4  11  25  40  67  99 123 174 218 270 321 378
#     4  10  24  40  66  92 129 163 214 259 314 382
#     4  12  21  41  68  93 128 165 217 262 319 378
#     4  12  22  43  67  92 130 170 211 264 318 385
#     4  10  24  42  62  96 133 169 209 260 323 381
#     4  10  22  40  63  93 127 166 208 261 316 372
#     4  12  23  44  67  94 135 168 214 267 327 382
#     4  11  24  42  64  97 128 168 223 265 321 381
#
# _framework density 21.991624999999999
#
# number of rings (size 3 to 8) (size 9 to 14) (size 15 to 20)
#    0.750    0.250    5.000    1.875    1.750    1.000 
#    0.000    1.250    0.000    0.000    0.000    0.000 
#    0.000    0.000    0.000    0.000    0.000    0.000 
#
# Total GULP energy -89300.099251 kJ/mol
# GULP energy per Si atom -5581.256203 kJ/mol
# Density = 2.194157 g / cm^3
# Si number density = 21.991625 Si / 1000 Ang^3
#
#
#
# Elastic Constant Matrix: (Units=GPa)
#
#
# Indices 1 2 3 4 5 6 
#
# 1 116.5081 29.9653 9.0057 12.9026 -1.1082 -6.1412
# 2 29.9653 141.4008 10.6613 12.8966 1.7975 -10.2134
# 3 9.0057 10.6613 27.0149 9.2934 -0.3623 -3.2592
# 4 12.9026 12.8966 9.2934 21.5821 0.0919 -3.7322
# 5 -1.1082 1.7975 -0.3623 0.0919 24.4863 -0.0542
# 6 -6.1412 -10.2134 -3.2592 -3.7322 -0.0542 46.6008
#
#
#
# Elastic Compliance Matrix: (Units=1/GPa)
#
#
# Indices 1 2 3 4 5 6 
#
# 1 0.009562 -0.001528 -0.001048 -0.004266 0.000547 0.000511
# 2 -0.001528 0.007869 -0.001444 -0.002959 -0.000654 0.001184
# 3 -0.001048 -0.001444 0.044034 -0.017260 0.000778 0.001244
# 4 -0.004266 -0.002959 -0.017260 0.058479 -0.000446 0.002265
# 5 0.000547 -0.000654 0.000778 -0.000446 0.040925 -0.000005
# 6 0.000511 0.001184 0.001244 0.002265 -0.000005 0.022054
#
#
# Mechanical properties :
#
#
# Convention : Reuss Voigt Hill
#
# Bulk Modulus (GPa) = 18.71813 42.68762 30.70287
# Shear Modulus (GPa) = 23.94975 34.21994 29.08484
#
# Velocity S-wave (km/s) = 3.30364 3.94895 3.64062
# Velocity P-wave (km/s) = 4.80437 6.34392 5.62705
#
# Compressibility (1/GPa) = 0.05342414
#
# Stress axis : x y z
#
# Youngs Moduli (GPa) = 104.58398 127.08790 22.70982
#
# Poissons Ratio (x) = 0.19422 0.02380
# Poissons Ratio (y) = 0.15983 0.03279
# Poissons Ratio (z) = 0.10959 0.18349
#
# Static dielectric constant tensor:
#      x y z
#    x 1.851290 0.013590 0.012720 
#    y 0.013590 1.786040 -0.023440 
#    z 0.012720 -0.023440 1.841360 
# 
# From -- ./inp_files/532312.got.cif
#   From: 2010.05.17/outbox.cif.g08.bks.cpg/sg2_267_cif.got.tgz:532312.got - 2010.06.03 11:33:40.
