data_PCOD9024593
_publ_section_title
;
Structure prediction by ZEFSAII (Michael W. Deem and Ramdas Pophale) SiO2 
 PCOD9024593
Probable space group: P -1
;
_chemical_formula_sum "Si O2"
_cell_formula_units_Z 14
_cell_length_a 6.881957
_cell_length_b 11.090646
_cell_length_c 9.882096
_cell_angle_alpha 77.940702
_cell_angle_beta 64.693543
_cell_angle_gamma 119.389882
_cell_volume 503.229109
_symmetry_space_group_name_H-M "P -1"
_symmetry_group_IT_number 2
_symmetry_cell_setting 'triclinic'
loop_
_space_group_symop_operation_xyz
x,y,z
-x,-y,-z
loop_
_atom_site_type_symbol
_atom_site_label
_atom_site_fract_x
_atom_site_fract_y
_atom_site_fract_z
Si Si1 0.496439 0.897213 0.336900
Si Si2 0.861928 0.701627 0.205252
Si Si3 0.551910 0.846217 0.749574
Si Si4 0.919590 0.596122 0.664872
Si Si5 0.583647 0.220559 0.900371
Si Si6 0.991681 0.762419 0.859788
Si Si7 0.625302 0.670834 0.550753
O O1 0.561861 0.875814 0.171996
O O2 0.262691 0.728881 0.522937
O O3 0.345524 0.975519 0.344924
O O4 0.786865 0.046091 0.288873
O O5 0.272746 0.264033 0.646762
O O6 0.168171 0.354057 0.191778
O O7 0.189444 0.800983 0.121278
O O8 0.831001 0.733873 0.052342
O O9 0.210256 0.734602 0.850241
O O10 0.661317 0.791681 0.620283
O O11 0.591630 0.823609 0.899216
O O12 0.776048 0.411115 0.764259
O O13 0.812095 0.623788 0.556300
O O14 0.687506 0.507643 0.309699
#
# Coordination Sequence:
#
# PCOD9024593 Si02
#       7
#     2   2   2   2   2   2   2
#     4  10  22  40  65  94 121 165 212 259 296 372
#     4  10  22  41  64  92 125 168 210 250 304 381
#     4   9  22  40  66  88 126 164 210 249 306 375
#     4  12  23  38  67  98 126 158 206 267 312 357
#     4  11  21  41  69  91 121 167 218 251 299 370
#     4   9  22  42  66  88 124 166 215 248 304 371
#     4  11  23  39  62  99 129 158 204 263 317 363
#
# _framework density 27.820329999999998
#
# number of rings (size 3 to 8) (size 9 to 14) (size 15 to 20)
#    0.857    0.857    1.429    3.000    0.000    5.143 
#    0.000    0.000    0.000    2.571    0.000    0.000 
#    0.000    0.000    0.000    0.000    0.000    0.000 
#
# Total GULP energy -78526.028282 kJ/mol
# GULP energy per Si atom -5609.002020 kJ/mol
# Density = 2.775701 g / cm^3
# Si number density = 27.820330 Si / 1000 Ang^3
#
#
#
# Elastic Constant Matrix: (Units=GPa)
#
#
# Indices 1 2 3 4 5 6 
#
# 1 69.6692 8.4930 21.9627 6.2971 5.7178 4.1428
# 2 8.4930 163.8563 59.6245 24.1167 10.4632 -10.3547
# 3 21.9627 59.6245 152.5634 25.2753 20.0284 -9.3440
# 4 6.2971 24.1167 25.2753 64.7383 4.4257 4.6756
# 5 5.7178 10.4632 20.0284 4.4257 47.4894 7.9813
# 6 4.1428 -10.3547 -9.3440 4.6756 7.9813 39.2904
#
#
#
# Elastic Compliance Matrix: (Units=1/GPa)
#
#
# Indices 1 2 3 4 5 6 
#
# 1 0.015239 -0.000028 -0.002157 -0.000451 -0.000547 -0.001962
# 2 -0.000028 0.007407 -0.002367 -0.001909 -0.000750 0.001771
# 3 -0.002157 -0.002367 0.008739 -0.002294 -0.003126 0.002590
# 4 -0.000451 -0.001909 -0.002294 0.017299 0.000356 -0.003132
# 5 -0.000547 -0.000750 -0.003126 0.000356 0.023533 -0.005706
# 6 -0.001962 0.001771 0.002590 -0.003132 -0.005706 0.028273
#
#
# Mechanical properties :
#
#
# Convention : Reuss Voigt Hill
#
# Bulk Modulus (GPa) = 44.88051 62.91657 53.89854
# Shear Modulus (GPa) = 42.72756 50.03752 46.38254
#
# Velocity S-wave (km/s) = 3.92323 4.24559 4.08759
# Velocity P-wave (km/s) = 6.05719 6.83358 6.45706
#
# Compressibility (1/GPa) = 0.02228139
#
# Stress axis : x y z
#
# Youngs Moduli (GPa) = 65.62058 135.01494 114.42509
#
# Poissons Ratio (x) = 0.00376 0.24676
# Poissons Ratio (y) = 0.00183 0.27090
# Poissons Ratio (z) = 0.14151 0.31964
#
# Static dielectric constant tensor:
#      x y z
#    x 2.252410 -0.042530 -0.038530 
#    y -0.042530 2.052400 0.012210 
#    z -0.038530 0.012210 2.120570 
# 
# From -- ./inp_files/387267.got.cif
#   From: 2010.05.17/outbox.cif.g08.bks.cpg/sg2_194_cif.got.tgz:387267.got - 2010.06.03 11:33:40.
