data_PCOD9024527
_publ_section_title
;
Structure prediction by ZEFSAII (Michael W. Deem and Ramdas Pophale) SiO2 
 PCOD9024527
Probable space group: P -1
;
_chemical_formula_sum "Si O2"
_cell_formula_units_Z 16
_cell_length_a 9.280294
_cell_length_b 9.348766
_cell_length_c 17.213575
_cell_angle_alpha 97.745230
_cell_angle_beta 113.984251
_cell_angle_gamma 33.942481
_cell_volume 699.315553
_symmetry_space_group_name_H-M "P -1"
_symmetry_group_IT_number 2
_symmetry_cell_setting 'triclinic'
loop_
_space_group_symop_operation_xyz
x,y,z
-x,-y,-z
loop_
_atom_site_type_symbol
_atom_site_label
_atom_site_fract_x
_atom_site_fract_y
_atom_site_fract_z
Si Si1 0.900802 0.063102 0.893770
Si Si2 0.056168 0.234400 0.958038
Si Si3 0.718922 0.588280 0.233061
Si Si4 0.171262 0.810976 0.419957
Si Si5 0.120436 0.154052 0.517892
Si Si6 0.784247 0.598660 0.074655
Si Si7 0.357423 0.250969 0.615706
Si Si8 0.992678 0.918559 0.741112
O O1 0.636846 0.152644 0.842337
O O2 0.104425 0.861871 0.849192
O O3 0.841768 0.278165 0.879355
O O4 0.000000 0.000000 0.000000
O O5 0.915353 0.388215 0.022408
O O6 0.412949 0.902133 0.011637
O O7 0.070783 0.363690 0.917144
O O8 0.865188 0.501113 0.174751
O O9 0.787757 0.643477 0.321651
O O10 0.787250 0.375219 0.265745
O O11 0.500000 0.500000 0.500000
O O12 0.081516 0.888061 0.315507
O O13 0.940138 0.886757 0.419577
O O14 0.153840 0.994033 0.454724
O O15 0.383448 0.069031 0.574715
O O16 0.842006 0.480746 0.459196
O O17 0.676320 0.078448 0.685272
#
# Coordination Sequence:
#
# PCOD9024527 Si02
#       8
#     2   2   2   2   2   2   2   2
#     4  11  23  39  63  93 128 172 217 274 332 399
#     4  10  22  41  62  92 123 174 225 271 340 400
#     4  11  23  39  64  92 134 165 222 275 330 394
#     4  11  22  41  66  93 129 173 212 271 336 401
#     4  10  22  40  67  91 130 167 214 269 339 399
#     4  10  22  40  65  88 128 171 223 280 334 401
#     4  10  22  41  61  98 126 168 217 270 329 408
#     4  11  24  39  62  96 129 167 223 270 329 404
#
# _framework density 22.879512999999999
#
# number of rings (size 3 to 8) (size 9 to 14) (size 15 to 20)
#    0.000    1.500    3.750    0.750    3.500    3.500 
#    0.000    1.250    0.000    0.000    0.000    0.000 
#    0.000    0.000    0.000    0.000    0.000    0.000 
#
# Total GULP energy -89114.867725 kJ/mol
# GULP energy per Si atom -5569.679233 kJ/mol
# Density = 2.282744 g / cm^3
# Si number density = 22.879513 Si / 1000 Ang^3
#
#
#
# Elastic Constant Matrix: (Units=GPa)
#
#
# Indices 1 2 3 4 5 6 
#
# 1 89.8827 29.7912 37.5386 22.7491 -21.1442 8.5188
# 2 29.7912 75.9690 8.1387 7.3588 -7.0935 15.2383
# 3 37.5386 8.1387 73.7045 9.2157 -28.5869 4.5030
# 4 22.7491 7.3588 9.2157 29.2673 6.1136 1.2566
# 5 -21.1442 -7.0935 -28.5869 6.1136 34.2223 6.5440
# 6 8.5188 15.2383 4.5030 1.2566 6.5440 37.6731
#
#
#
# Elastic Compliance Matrix: (Units=1/GPa)
#
#
# Indices 1 2 3 4 5 6 
#
# 1 0.022211 -0.004257 -0.002382 -0.018382 0.015096 -0.005025
# 2 -0.004257 0.016639 0.003112 -0.002647 0.005222 -0.006958
# 3 -0.002382 0.003112 0.025802 -0.011803 0.024294 -0.007630
# 4 -0.018382 -0.002647 -0.011803 0.059575 -0.034441 0.010633
# 5 0.015096 0.005222 0.024294 -0.034441 0.069786 -0.019403
# 6 -0.005025 -0.006958 -0.007630 0.010633 -0.019403 0.034423
#
#
# Mechanical properties :
#
#
# Convention : Reuss Voigt Hill
#
# Bulk Modulus (GPa) = 17.36163 43.38814 30.37489
# Shear Modulus (GPa) = 19.63180 31.17170 25.40175
#
# Velocity S-wave (km/s) = 2.93243 3.69511 3.33564
# Velocity P-wave (km/s) = 4.36695 6.10001 5.30473
#
# Compressibility (1/GPa) = 0.05759827
#
# Stress axis : x y z
#
# Youngs Moduli (GPa) = 45.02266 60.10017 38.75705
#
# Poissons Ratio (x) = 0.25584 0.09232
# Poissons Ratio (y) = 0.19166 -0.12062
# Poissons Ratio (z) = 0.10724 -0.18704
#
# Static dielectric constant tensor:
#      x y z
#    x 1.887570 -0.047880 0.021120 
#    y -0.047880 1.944060 -0.014980 
#    z 0.021120 -0.014980 2.008880 
# 
# From -- ./inp_files/484497.got.cif
#   From: 2010.05.17/outbox.cif.g08.bks.cpg/sg2_243_cif.got.tgz:484497.got - 2010.06.03 11:33:40.
