data_PCOD9024596
_publ_section_title
;
Structure prediction by ZEFSAII (Michael W. Deem and Ramdas Pophale) SiO2 
 PCOD9024596
Probable space group: P -1
;
_chemical_formula_sum "Si O2"
_cell_formula_units_Z 12
_cell_length_a 6.973450
_cell_length_b 11.073418
_cell_length_c 8.708021
_cell_angle_alpha 114.858264
_cell_angle_beta 124.834237
_cell_angle_gamma 51.824852
_cell_volume 431.523695
_symmetry_space_group_name_H-M "P -1"
_symmetry_group_IT_number 2
_symmetry_cell_setting 'triclinic'
loop_
_space_group_symop_operation_xyz
x,y,z
-x,-y,-z
loop_
_atom_site_type_symbol
_atom_site_label
_atom_site_fract_x
_atom_site_fract_y
_atom_site_fract_z
Si Si1 0.170761 0.714005 0.710987
Si Si2 0.144083 0.753804 0.222491
Si Si3 0.712624 0.574396 0.508197
Si Si4 0.877064 0.461976 0.123495
Si Si5 0.261871 0.194387 0.674038
Si Si6 0.703356 0.026648 0.003802
O O1 0.231540 0.614231 0.842261
O O2 0.862250 0.800229 0.547514
O O3 0.314371 0.577433 0.577802
O O4 0.270585 0.832706 0.843472
O O5 0.446401 0.708968 0.380454
O O6 0.949981 0.818897 0.315570
O O7 0.995077 0.875523 0.082241
O O8 0.155941 0.597731 0.085962
O O9 0.805415 0.617620 0.728343
O O10 0.000000 0.500000 0.500000
O O11 0.760846 0.642816 0.196535
O O12 0.561466 0.065816 0.793636
O O13 0.500000 0.000000 0.000000
#
# Coordination Sequence:
#
# PCOD9024596 Si02
#       6
#     2   2   2   2   2   2
#     4  10  22  41  65  89 126 169 207 256 312 368
#     4  11  23  38  63  94 127 164 208 256 309 372
#     4   9  21  40  63  90 121 158 206 259 310 361
#     4  10  22  40  65  94 124 161 211 263 311 363
#     4  10  22  41  65  92 125 166 209 256 310 370
#     4  10  24  41  61  92 130 167 205 252 312 376
#
# _framework density 27.808439
#
# number of rings (size 3 to 8) (size 9 to 14) (size 15 to 20)
#    0.000    2.000    0.000    3.000    0.000   20.000 
#    0.000    4.167    0.000    0.000    0.000    0.000 
#    0.000    0.000    0.000    0.000    0.000    0.000 
#
# Total GULP energy -67117.314295 kJ/mol
# GULP energy per Si atom -5593.109525 kJ/mol
# Density = 2.774515 g / cm^3
# Si number density = 27.808439 Si / 1000 Ang^3
#
#
#
# Elastic Constant Matrix: (Units=GPa)
#
#
# Indices 1 2 3 4 5 6 
#
# 1 96.0004 33.9905 32.4565 4.4124 20.6072 -4.2108
# 2 33.9905 117.6575 57.5254 -30.2768 17.4521 3.7236
# 3 32.4565 57.5254 178.2847 -40.7145 34.7609 -6.5191
# 4 4.4124 -30.2768 -40.7145 82.9500 0.6605 4.9988
# 5 20.6072 17.4521 34.7609 0.6605 46.4951 1.1645
# 6 -4.2108 3.7236 -6.5191 4.9988 1.1645 34.3088
#
#
#
# Elastic Compliance Matrix: (Units=1/GPa)
#
#
# Indices 1 2 3 4 5 6 
#
# 1 0.012995 -0.003426 -0.001036 -0.002557 -0.003720 0.002269
# 2 -0.003426 0.011748 -0.002212 0.003550 -0.001223 -0.002592
# 3 -0.001036 -0.002212 0.008279 0.003268 -0.004981 0.001379
# 4 -0.002557 0.003550 0.003268 0.015246 -0.002804 -0.002204
# 5 -0.003720 -0.001223 -0.004981 -0.002804 0.027424 -0.001793
# 6 0.002269 -0.002592 0.001379 -0.002204 -0.001793 0.030351
#
#
# Mechanical properties :
#
#
# Convention : Reuss Voigt Hill
#
# Bulk Modulus (GPa) = 50.83040 71.09860 60.96450
# Shear Modulus (GPa) = 39.69811 50.61545 45.15678
#
# Velocity S-wave (km/s) = 3.78240 4.27095 4.03408
# Velocity P-wave (km/s) = 6.11505 7.06711 6.60825
#
# Compressibility (1/GPa) = 0.01967327
#
# Stress axis : x y z
#
# Youngs Moduli (GPa) = 76.95001 85.12401 120.78091
#
# Poissons Ratio (x) = 0.29162 0.12516
# Poissons Ratio (y) = 0.26362 0.26723
# Poissons Ratio (z) = 0.07974 0.18834
#
# Static dielectric constant tensor:
#      x y z
#    x 2.341960 0.041760 -0.008950 
#    y 0.041760 2.223830 -0.047680 
#    z -0.008950 -0.047680 2.204790 
# 
# From -- ./inp_files/392916.got.cif
#   From: 2010.05.17/outbox.cif.g08.bks.cpg/sg2_197_cif.got.tgz:392916.got - 2010.06.03 11:33:40.
