data_PCOD9024649
_publ_section_title
;
Structure prediction by ZEFSAII (Michael W. Deem and Ramdas Pophale) SiO2 
 PCOD9024649
Probable space group: P -1
;
_chemical_formula_sum "Si O2"
_cell_formula_units_Z 10
_cell_length_a 9.162998
_cell_length_b 8.112462
_cell_length_c 7.032586
_cell_angle_alpha 79.402873
_cell_angle_beta 96.820425
_cell_angle_gamma 132.207767
_cell_volume 380.605642
_symmetry_space_group_name_H-M "P -1"
_symmetry_group_IT_number 2
_symmetry_cell_setting 'triclinic'
loop_
_space_group_symop_operation_xyz
x,y,z
-x,-y,-z
loop_
_atom_site_type_symbol
_atom_site_label
_atom_site_fract_x
_atom_site_fract_y
_atom_site_fract_z
Si Si1 0.683155 0.775316 0.643583
Si Si2 0.400465 0.186300 0.975040
Si Si3 0.196239 0.674861 0.116855
Si Si4 0.282847 0.548903 0.508488
Si Si5 0.914204 0.847823 0.211908
O O1 0.613001 0.704136 0.867111
O O2 0.510424 0.764117 0.541365
O O3 0.701215 0.609998 0.580638
O O4 0.903997 0.009980 0.645648
O O5 0.275655 0.924388 0.063325
O O6 0.619382 0.295313 0.937607
O O7 0.277862 0.179861 0.787574
O O8 0.177578 0.602340 0.347907
O O9 0.000000 0.500000 0.000000
O O10 0.173519 0.404349 0.714377
O O11 0.000000 0.000000 0.000000
#
# Coordination Sequence:
#
# PCOD9024649 Si02
#       5
#     2   2   2   2   2
#     4  10  22  40  65  96 127 162 211 263 311 374
#     4  10  23  42  64  93 131 169 207 258 320 376
#     4  11  25  44  64  92 132 171 210 261 316 376
#     4  11  23  39  66  96 125 168 216 257 311 378
#     4  10  22  41  66  94 125 164 210 264 315 369
#
# _framework density 26.273916
#
# number of rings (size 3 to 8) (size 9 to 14) (size 15 to 20)
#    0.000    1.600    0.000    4.200    0.000   14.400 
#    0.000    7.000    0.000    0.000    0.000    0.000 
#    0.000    0.000    0.000    0.000    0.000    0.000 
#
# Total GULP energy -55894.743166 kJ/mol
# GULP energy per Si atom -5589.474317 kJ/mol
# Density = 2.621412 g / cm^3
# Si number density = 26.273916 Si / 1000 Ang^3
#
#
#
# Elastic Constant Matrix: (Units=GPa)
#
#
# Indices 1 2 3 4 5 6 
#
# 1 130.4918 46.4585 49.9175 4.2526 24.0924 23.0883
# 2 46.4585 98.0076 67.5156 6.4089 23.3336 45.4830
# 3 49.9175 67.5156 152.1225 -28.7350 38.5155 21.6959
# 4 4.2526 6.4089 -28.7350 56.2914 11.3706 12.2914
# 5 24.0924 23.3336 38.5155 11.3706 71.2390 13.6119
# 6 23.0883 45.4830 21.6959 12.2914 13.6119 55.4448
#
#
#
# Elastic Compliance Matrix: (Units=1/GPa)
#
#
# Indices 1 2 3 4 5 6 
#
# 1 0.009664 -0.002780 -0.001742 -0.000945 -0.001157 -0.000569
# 2 -0.002780 0.024594 -0.008989 -0.004183 0.001255 -0.014881
# 3 -0.001742 -0.008989 0.014053 0.009076 -0.005902 0.002037
# 4 -0.000945 -0.004183 0.009076 0.025066 -0.006514 -0.003684
# 5 -0.001157 0.001255 -0.005902 -0.006514 0.018503 -0.001337
# 6 -0.000569 -0.014881 0.002037 -0.003684 -0.001337 0.030828
#
#
# Mechanical properties :
#
#
# Convention : Reuss Voigt Hill
#
# Bulk Modulus (GPa) = 46.97131 78.71168 62.84149
# Shear Modulus (GPa) = 31.88242 51.04374 41.46308
#
# Velocity S-wave (km/s) = 3.48726 4.41245 3.97685
# Velocity P-wave (km/s) = 5.84217 7.48216 6.71244
#
# Compressibility (1/GPa) = 0.02128959
#
# Stress axis : x y z
#
# Youngs Moduli (GPa) = 103.47218 40.66071 71.15966
#
# Poissons Ratio (x) = 0.11304 0.12396
# Poissons Ratio (y) = 0.28766 0.63963
# Poissons Ratio (z) = 0.18025 0.36549
#
# Static dielectric constant tensor:
#      x y z
#    x 2.105580 0.052240 -0.105270 
#    y 0.052240 2.058460 0.000520 
#    z -0.105270 0.000520 2.144810 
# 
# From -- ./inp_files/157739.got.cif
#   From: 2010.05.17/outbox.cif.g08.bks.cpg/sg2_79_cif.got.tgz:157739.got - 2010.06.03 11:33:40.
