data_PCOD9024823
_publ_section_title
;
Structure prediction by ZEFSAII (Michael W. Deem and Ramdas Pophale) SiO2 
 PCOD9024823
Probable space group: P -1
;
_chemical_formula_sum "Si O2"
_cell_formula_units_Z 16
_cell_length_a 9.431648
_cell_length_b 23.057218
_cell_length_c 8.765267
_cell_angle_alpha 80.503628
_cell_angle_beta 128.166838
_cell_angle_gamma 56.080261
_cell_volume 775.994423
_symmetry_space_group_name_H-M "P -1"
_symmetry_group_IT_number 2
_symmetry_cell_setting 'triclinic'
loop_
_space_group_symop_operation_xyz
x,y,z
-x,-y,-z
loop_
_atom_site_type_symbol
_atom_site_label
_atom_site_fract_x
_atom_site_fract_y
_atom_site_fract_z
Si Si1 0.848739 0.403597 0.183222
Si Si2 0.475910 0.844625 0.246297
Si Si3 0.287305 0.152430 0.301818
Si Si4 0.367229 0.022695 0.612456
Si Si5 0.844106 0.155494 0.747749
Si Si6 0.951234 0.962962 0.354363
Si Si7 0.358992 0.596369 0.275739
Si Si8 0.761727 0.590894 0.669430
O O1 0.166950 0.280622 0.521907
O O2 0.008375 0.423434 0.252789
O O3 0.500000 0.500000 0.000000
O O4 0.746675 0.399439 0.960455
O O5 0.560667 0.853744 0.455546
O O6 0.224315 0.864754 0.137560
O O7 0.325341 0.929999 0.986530
O O8 0.567949 0.053459 0.411637
O O9 0.180214 0.122309 0.335945
O O10 0.993015 0.271551 0.970887
O O11 0.172285 0.058954 0.619728
O O12 0.759150 0.934311 0.947181
O O13 0.568300 0.284263 0.529914
O O14 0.787409 0.135575 0.558835
O O15 0.000000 0.000000 0.500000
O O16 0.500000 0.500000 0.500000
O O17 0.635547 0.572124 0.487563
O O18 0.000000 0.500000 0.000000
#
# Coordination Sequence:
#
# PCOD9024823 Si02
#       8
#     2   2   2   2   2   2   2   2
#     4  10  24  44  67  98 134 171 223 281 344 391
#     4  10  23  42  65  89 133 171 212 268 333 398
#     4  10  22  40  66  92 128 174 217 265 333 400
#     4  11  23  39  67  96 129 168 219 267 331 392
#     4  11  23  43  66  93 132 177 216 268 338 400
#     4  12  26  40  62 102 136 168 220 271 330 400
#     4  11  22  42  70  98 129 179 232 274 334 405
#     4  11  23  44  68  96 132 176 229 278 327 404
#
# _framework density 20.618704000000001
#
# number of rings (size 3 to 8) (size 9 to 14) (size 15 to 20)
#    0.000    1.250    3.750    1.500    3.500    2.500 
#    4.500    0.000    0.000    0.000    0.000    0.000 
#    0.000    0.000    0.000    0.000    0.000    0.000 
#
# Total GULP energy -89191.966727 kJ/mol
# GULP energy per Si atom -5574.497920 kJ/mol
# Density = 2.057178 g / cm^3
# Si number density = 20.618704 Si / 1000 Ang^3
#
#
#
# Elastic Constant Matrix: (Units=GPa)
#
#
# Indices 1 2 3 4 5 6 
#
# 1 96.6032 48.0733 37.3743 -18.9555 -0.5578 -2.7616
# 2 48.0733 103.1624 40.1776 -7.1003 8.4988 15.3209
# 3 37.3743 40.1776 89.7908 -10.0507 -7.9117 12.2838
# 4 -18.9555 -7.1003 -10.0507 46.2890 13.7715 3.3477
# 5 -0.5578 8.4988 -7.9117 13.7715 37.3392 1.1902
# 6 -2.7616 15.3209 12.2838 3.3477 1.1902 32.7747
#
#
#
# Elastic Compliance Matrix: (Units=1/GPa)
#
#
# Indices 1 2 3 4 5 6 
#
# 1 0.016192 -0.006286 -0.004249 0.004685 -0.001130 0.005458
# 2 -0.006286 0.015431 -0.003742 0.000766 -0.004482 -0.006256
# 3 -0.004249 -0.003742 0.015599 0.000164 0.004180 -0.004624
# 4 0.004685 0.000766 0.000164 0.026786 -0.009872 -0.002402
# 5 -0.001130 -0.004482 0.004180 -0.009872 0.032303 0.000269
# 6 0.005458 -0.006256 -0.004624 -0.002402 0.000269 0.035864
#
#
# Mechanical properties :
#
#
# Convention : Reuss Voigt Hill
#
# Bulk Modulus (GPa) = 53.56267 60.08964 56.82615
# Shear Modulus (GPa) = 28.25623 34.20932 31.23278
#
# Velocity S-wave (km/s) = 3.70593 4.07767 3.89624
# Velocity P-wave (km/s) = 6.65928 7.16774 6.91818
#
# Compressibility (1/GPa) = 0.01866972
#
# Stress axis : x y z
#
# Youngs Moduli (GPa) = 61.75736 64.80490 64.10646
#
# Poissons Ratio (x) = 0.40735 0.27239
# Poissons Ratio (y) = 0.38819 0.23986
# Poissons Ratio (z) = 0.26241 0.24247
#
# Static dielectric constant tensor:
#      x y z
#    x 1.768430 0.064310 0.041420 
#    y 0.064310 1.807510 0.017520 
#    z 0.041420 0.017520 1.756860 
# 
# From -- ./inp_files/223626.got.cif
#   From: 2010.05.17/outbox.cif.g08.bks.cpg/sg2_112_cif.got.tgz:223626.got - 2010.06.03 11:33:40.
