data_PCOD9024213
_publ_section_title
;
Structure prediction by ZEFSAII (Michael W. Deem and Ramdas Pophale) SiO2 
 PCOD9024213
Probable space group: P -1
;
_chemical_formula_sum "Si O2"
_cell_formula_units_Z 15
_cell_length_a 10.735382
_cell_length_b 8.800699
_cell_length_c 8.984000
_cell_angle_alpha 48.648980
_cell_angle_beta 84.433611
_cell_angle_gamma 99.651880
_cell_volume 602.889598
_symmetry_space_group_name_H-M "P -1"
_symmetry_group_IT_number 2
_symmetry_cell_setting 'triclinic'
loop_
_space_group_symop_operation_xyz
x,y,z
-x,-y,-z
loop_
_atom_site_type_symbol
_atom_site_label
_atom_site_fract_x
_atom_site_fract_y
_atom_site_fract_z
Si Si1 0.922360 0.757551 0.768963
Si Si2 0.576247 0.826332 0.918317
Si Si3 0.004197 0.811600 0.408748
Si Si4 0.700295 0.185112 0.901462
Si Si5 0.799052 0.266299 0.150721
Si Si6 0.386661 0.602808 0.719846
Si Si7 0.500000 0.000000 0.500000
Si Si8 0.167675 0.492612 0.570565
O O1 0.908442 0.792072 0.573941
O O2 0.075529 0.774209 0.765397
O O3 0.837117 0.522653 0.974048
O O4 0.902127 0.947405 0.745356
O O5 0.672338 0.991238 0.915167
O O6 0.574004 0.920112 0.694942
O O7 0.434390 0.795742 0.029528
O O8 0.595087 0.594117 0.068186
O O9 0.925777 0.740149 0.311649
O O10 0.078672 0.636879 0.540256
O O11 0.770968 0.393838 0.662917
O O12 0.781347 0.173959 0.047554
O O13 0.662080 0.216972 0.292765
O O14 0.280483 0.513242 0.663034
O O15 0.515136 0.785340 0.535550
#
# Coordination Sequence:
#
# PCOD9024213 Si02
#       8
#     2   2   2   2   2   2   1   2
#     4  10  22  40  64 100 133 176 223 281 324 407
#     4  11  27  47  70 101 134 176 233 276 339 402
#     4  10  22  41  65 101 133 175 231 266 334 408
#     4  11  24  46  65 100 140 174 222 285 333 402
#     4  11  23  42  65  98 137 174 223 278 334 397
#     4  12  26  46  70 102 132 185 222 279 340 400
#     4  12  24  48  70  98 134 170 232 280 326 404
#     4  11  23  44  67  99 139 178 221 281 333 401
#
# _framework density 24.880175999999999
#
# number of rings (size 3 to 8) (size 9 to 14) (size 15 to 20)
#    0.000    1.067    5.333    0.400    3.733    0.533 
#    2.400    1.333    0.000    0.000    0.000    0.000 
#    0.000    0.000    0.000    0.000    0.000    0.000 
#
# Total GULP energy -83736.944176 kJ/mol
# GULP energy per Si atom -5582.462945 kJ/mol
# Density = 2.482355 g / cm^3
# Si number density = 24.880176 Si / 1000 Ang^3
#
#
#
# Elastic Constant Matrix: (Units=GPa)
#
#
# Indices 1 2 3 4 5 6 
#
# 1 59.7777 55.8942 28.3387 7.5038 -3.3021 -0.0244
# 2 55.8942 186.4979 72.5778 -9.6277 23.7867 31.9414
# 3 28.3387 72.5778 133.7882 -16.9340 6.8500 7.4417
# 4 7.5038 -9.6277 -16.9340 55.6749 3.9092 5.1485
# 5 -3.3021 23.7867 6.8500 3.9092 27.9845 9.3206
# 6 -0.0244 31.9414 7.4417 5.1485 9.3206 41.3769
#
#
#
# Elastic Compliance Matrix: (Units=1/GPa)
#
#
# Indices 1 2 3 4 5 6 
#
# 1 0.030350 -0.011533 -0.002296 -0.008365 0.012605 0.007535
# 2 -0.011533 0.012736 -0.003020 0.004214 -0.009476 -0.007685
# 3 -0.002296 -0.003020 0.009973 0.002836 -0.000651 0.000330
# 4 -0.008365 0.004214 0.002836 0.021604 -0.006628 -0.004963
# 5 0.012605 -0.009476 -0.000651 -0.006628 0.047146 -0.002356
# 6 0.007535 -0.007685 0.000330 -0.004963 -0.002356 0.031194
#
#
# Mechanical properties :
#
#
# Convention : Reuss Voigt Hill
#
# Bulk Modulus (GPa) = 51.64761 77.07614 64.36188
# Shear Modulus (GPa) = 25.88605 39.89079 32.88842
#
# Velocity S-wave (km/s) = 3.22907 4.00849 3.63970
# Velocity P-wave (km/s) = 5.89119 7.24363 6.60213
#
# Compressibility (1/GPa) = 0.01936198
#
# Stress axis : x y z
#
# Youngs Moduli (GPa) = 32.94928 78.51667 100.26982
#
# Poissons Ratio (x) = 0.90550 0.23018
# Poissons Ratio (y) = 0.37999 0.30284
# Poissons Ratio (z) = 0.07564 0.23714
#
# Static dielectric constant tensor:
#      x y z
#    x 2.100180 0.053260 -0.107730 
#    y 0.053260 2.040830 -0.049940 
#    z -0.107730 -0.049940 1.973350 
# 
# From -- ./inp_files/242168.got.cif
#   From: 2010.05.17/outbox.cif.g08.bks.cpg/sg2_122_cif.got.tgz:242168.got - 2010.06.03 11:33:40.
