data_PCOD9024388
_publ_section_title
;
Structure prediction by ZEFSAII (Michael W. Deem and Ramdas Pophale) SiO2 
 PCOD9024388
Probable space group: P -1
;
_chemical_formula_sum "Si O2"
_cell_formula_units_Z 16
_cell_length_a 18.978087
_cell_length_b 12.143456
_cell_length_c 5.021567
_cell_angle_alpha 121.201941
_cell_angle_beta 52.072623
_cell_angle_gamma 132.053006
_cell_volume 666.542140
_symmetry_space_group_name_H-M "P -1"
_symmetry_group_IT_number 2
_symmetry_cell_setting 'triclinic'
loop_
_space_group_symop_operation_xyz
x,y,z
-x,-y,-z
loop_
_atom_site_type_symbol
_atom_site_label
_atom_site_fract_x
_atom_site_fract_y
_atom_site_fract_z
Si Si1 0.474477 0.177840 0.266878
Si Si2 0.283892 0.374824 0.186592
Si Si3 0.004515 0.696233 0.531450
Si Si4 0.043700 0.175166 0.679091
Si Si5 0.165563 0.635286 0.362395
Si Si6 0.634308 0.106387 0.510402
Si Si7 0.660587 0.332242 0.360531
Si Si8 0.396879 0.360320 0.422581
O O1 0.562110 0.314650 0.411340
O O2 0.417031 0.224304 0.248868
O O3 0.396083 0.053658 0.503893
O O4 0.547650 0.133011 0.882631
O O5 0.165999 0.271341 0.433607
O O6 0.314827 0.549258 0.315498
O O7 0.362294 0.370628 0.218195
O O8 0.302457 0.328605 0.798618
O O9 0.015194 0.771207 0.317147
O O10 0.915858 0.518892 0.496573
O O11 0.104428 0.694207 0.403978
O O12 0.973062 0.780679 0.930160
O O13 0.000000 0.000000 0.500000
O O14 0.248965 0.769883 0.519689
O O15 0.235723 0.597368 0.964580
O O16 0.632037 0.163063 0.289663
O O17 0.500000 0.500000 0.500000
#
# Coordination Sequence:
#
# PCOD9024388 Si02
#       8
#     2   2   2   2   2   2   2   2
#     4  10  23  39  61  96 134 178 218 278 333 406
#     4  12  26  43  71  97 134 180 232 278 338 400
#     4  11  25  46  73 103 133 173 234 281 347 402
#     4  12  27  48  72  99 142 184 228 284 347 410
#     4  10  24  40  70 101 129 174 223 291 333 407
#     4  10  22  40  64  94 137 173 221 270 351 398
#     4  11  21  40  67  93 133 174 225 273 341 404
#     4  12  25  44  68 102 135 178 233 280 327 403
#
# _framework density 24.004483
#
# number of rings (size 3 to 8) (size 9 to 14) (size 15 to 20)
#    0.000    1.000    2.500    3.375    5.250    3.000 
#    0.000    0.000    0.000    0.000    0.000    0.000 
#    0.000    0.000    0.000    0.000    0.000    0.000 
#
# Total GULP energy -89539.546509 kJ/mol
# GULP energy per Si atom -5596.221657 kJ/mol
# Density = 2.394985 g / cm^3
# Si number density = 24.004483 Si / 1000 Ang^3
#
#
#
# Elastic Constant Matrix: (Units=GPa)
#
#
# Indices 1 2 3 4 5 6 
#
# 1 109.9177 34.9628 5.0193 -2.6810 -14.4979 -11.4799
# 2 34.9628 95.0204 -0.3601 -2.2255 -20.1456 -0.5417
# 3 5.0193 -0.3601 48.4539 -4.5510 4.0864 11.4323
# 4 -2.6810 -2.2255 -4.5510 18.3597 -7.3299 2.7195
# 5 -14.4979 -20.1456 4.0864 -7.3299 25.7749 -3.0226
# 6 -11.4799 -0.5417 11.4323 2.7195 -3.0226 43.5051
#
#
#
# Elastic Compliance Matrix: (Units=1/GPa)
#
#
# Indices 1 2 3 4 5 6 
#
# 1 0.011324 -0.002913 -0.002340 0.002388 0.005589 0.003806
# 2 -0.002913 0.014043 0.000068 0.005684 0.010919 -0.000208
# 3 -0.002340 0.000068 0.023452 0.004783 -0.004487 -0.007390
# 4 0.002388 0.005684 0.004783 0.066567 0.023597 -0.003078
# 5 0.005589 0.010919 -0.004487 0.023597 0.058528 0.005381
# 6 0.003806 -0.000208 -0.007390 -0.003078 0.005381 0.026496
#
#
# Mechanical properties :
#
#
# Convention : Reuss Voigt Hill
#
# Bulk Modulus (GPa) = 26.00730 36.95955 31.48342
# Shear Modulus (GPa) = 22.36177 31.77926 27.07052
#
# Velocity S-wave (km/s) = 3.05547 3.64248 3.36181
# Velocity P-wave (km/s) = 4.82760 5.75504 5.31160
#
# Compressibility (1/GPa) = 0.03845074
#
# Stress axis : x y z
#
# Youngs Moduli (GPa) = 88.30778 71.21018 42.63970
#
# Poissons Ratio (x) = 0.20743 0.09976
# Poissons Ratio (y) = 0.25723 -0.00291
# Poissons Ratio (z) = 0.20661 -0.00486
#
# Static dielectric constant tensor:
#      x y z
#    x 1.941290 -0.013680 0.024620 
#    y -0.013680 1.921810 0.026930 
#    z 0.024620 0.026930 1.929820 
# 
# From -- ./inp_files/77767.got.cif
#   From: 2010.05.17/outbox.cif.g08.bks.cpg/sg2_39_cif.got.tgz:77767.got - 2010.06.03 11:33:40.
