data_PCOD9024067
_publ_section_title
;
Structure prediction by ZEFSAII (Michael W. Deem and Ramdas Pophale) SiO2 
 PCOD9024067
Probable space group: P -1
;
_chemical_formula_sum "Si O2"
_cell_formula_units_Z 14
_cell_length_a 12.298603
_cell_length_b 10.208353
_cell_length_c 10.531143
_cell_angle_alpha 59.227656
_cell_angle_beta 115.584133
_cell_angle_gamma 74.702617
_cell_volume 799.412792
_symmetry_space_group_name_H-M "P -1"
_symmetry_group_IT_number 2
_symmetry_cell_setting 'triclinic'
loop_
_space_group_symop_operation_xyz
x,y,z
-x,-y,-z
loop_
_atom_site_type_symbol
_atom_site_label
_atom_site_fract_x
_atom_site_fract_y
_atom_site_fract_z
Si Si1 0.358331 0.719360 0.676580
Si Si2 0.358003 0.717092 0.968723
Si Si3 0.671142 0.932768 0.111348
Si Si4 0.143862 0.689620 0.728718
Si Si5 0.860974 0.714272 0.563134
Si Si6 0.176796 0.318289 0.937822
Si Si7 0.673150 0.925073 0.612723
O O1 0.501266 0.503109 0.811046
O O2 0.208848 0.731060 0.620564
O O3 0.330691 0.889324 0.495886
O O4 0.397817 0.739226 0.832598
O O5 0.335933 0.880323 0.962922
O O6 0.204559 0.737681 0.855586
O O7 0.500000 0.000000 0.000000
O O8 0.770475 0.786471 0.350496
O O9 0.748819 0.825943 0.071374
O O10 0.224605 0.459693 0.887398
O O11 0.964055 0.789455 0.585173
O O12 0.750815 0.799415 0.586123
O O13 0.991231 0.480447 0.751915
O O14 0.230109 0.204496 0.152719
O O15 0.500000 0.000000 0.500000
#
# Coordination Sequence:
#
# PCOD9024067 Si02
#       7
#     2   2   2   2   2   2   2
#     4   9  18  35  61  91 113 154 209 249 284 348
#     4   9  18  35  61  91 113 154 209 249 284 348
#     4  12  22  36  61  93 123 162 201 249 305 366
#     4   8  18  36  64  82 118 150 209 246 286 345
#     4  10  22  40  63  90 121 162 206 250 302 359
#     4  10  23  38  58  97 125 151 196 259 313 352
#     4  12  22  36  61  93 123 162 201 249 305 366
#
# _framework density 17.512854999999998
#
# number of rings (size 3 to 8) (size 9 to 14) (size 15 to 20)
#    1.714    0.286    1.429    3.429    0.000    2.286 
#    0.000    0.714    0.000    5.143    0.000    0.000 
#    0.000    0.000    0.000    0.000    0.000    0.000 
#
# Total GULP energy -77979.542278 kJ/mol
# GULP energy per Si atom -5569.967306 kJ/mol
# Density = 1.747300 g / cm^3
# Si number density = 17.512855 Si / 1000 Ang^3
#
#
#
# Elastic Constant Matrix: (Units=GPa)
#
#
# Indices 1 2 3 4 5 6 
#
# 1 75.6723 -4.3257 10.8223 -7.8114 -1.6461 5.6393
# 2 -4.3257 55.9914 -15.7112 -11.1471 -16.0068 18.9704
# 3 10.8223 -15.7112 50.9208 -15.9972 -16.2026 9.4186
# 4 -7.8114 -11.1471 -15.9972 26.4297 3.3241 0.7657
# 5 -1.6461 -16.0068 -16.2026 3.3241 35.4401 -2.6151
# 6 5.6393 18.9704 9.4186 0.7657 -2.6151 28.1574
#
#
#
# Elastic Compliance Matrix: (Units=1/GPa)
#
#
# Indices 1 2 3 4 5 6 
#
# 1 0.010177 -0.036035 -0.038779 -0.033118 -0.027953 0.033516
# 2 -0.036035 -0.343554 -0.353465 -0.346618 -0.260685 0.342127
# 3 -0.038779 -0.353465 -0.332897 -0.339703 -0.256493 0.342675
# 4 -0.033118 -0.346618 -0.339703 -0.300810 -0.260257 0.337798
# 5 -0.027953 -0.260685 -0.256493 -0.260257 -0.164578 0.258818
# 6 0.033516 0.342127 0.342675 0.337798 0.258818 -0.301471
#
#
# Mechanical properties :
#
#
# Convention : Reuss Voigt Hill
#
# Bulk Modulus (GPa) = -0.65667 18.23947 8.79140
# Shear Modulus (GPa) = -4.61176 30.79203 13.09013
#
# Velocity S-wave (km/s) = -1.62452 4.19770 2.73693
# Velocity P-wave (km/s) = 1.97346 5.82510 3.87539
#
# Compressibility (1/GPa) = -1.52283354
#
# Stress axis : x y z
#
# Youngs Moduli (GPa) = 98.26542 -2.91075 -3.00393
#
# Poissons Ratio (x) = -0.10489 -0.11649
# Poissons Ratio (y) = 3.54103 -1.06179
# Poissons Ratio (z) = 3.81066 -1.02885
#
# Static dielectric constant tensor:
#      x y z
#    x 1.609090 0.007620 0.019750 
#    y 0.007620 1.597050 -0.028940 
#    z 0.019750 -0.028940 1.595450 
# 
# From -- ./inp_files/252180.got.cif
#   From: 2010.05.17/outbox.cif.g08.bks.cpg/sg2_127_cif.got.tgz:252180.got - 2010.06.03 11:33:40.
