data_PCOD9024068
_publ_section_title
;
Structure prediction by ZEFSAII (Michael W. Deem and Ramdas Pophale) SiO2 
 PCOD9024068
Probable space group: P -1
;
_chemical_formula_sum "Si O2"
_cell_formula_units_Z 16
_cell_length_a 12.361222
_cell_length_b 13.617871
_cell_length_c 7.930804
_cell_angle_alpha 144.804569
_cell_angle_beta 81.842661
_cell_angle_gamma 110.206044
_cell_volume 697.368972
_symmetry_space_group_name_H-M "P -1"
_symmetry_group_IT_number 2
_symmetry_cell_setting 'triclinic'
loop_
_space_group_symop_operation_xyz
x,y,z
-x,-y,-z
loop_
_atom_site_type_symbol
_atom_site_label
_atom_site_fract_x
_atom_site_fract_y
_atom_site_fract_z
Si Si1 0.472819 0.922991 0.584441
Si Si2 0.632275 0.442591 0.451931
Si Si3 0.079071 0.394821 0.762958
Si Si4 0.697175 0.870760 0.035185
Si Si5 0.602664 0.806852 0.636902
Si Si6 0.057549 0.026332 0.709334
Si Si7 0.345445 0.527454 0.920464
Si Si8 0.100999 0.426263 0.408522
O O1 0.581752 0.958854 0.739248
O O2 0.500000 0.000000 0.500000
O O3 0.378044 0.004154 0.771650
O O4 0.418457 0.702992 0.262950
O O5 0.518312 0.293493 0.363797
O O6 0.631764 0.421608 0.216286
O O7 0.760841 0.459001 0.515853
O O8 0.634288 0.648937 0.773301
O O9 0.208484 0.467959 0.920436
O O10 0.108126 0.436709 0.621421
O O11 0.016056 0.173149 0.473584
O O12 0.000000 0.500000 0.000000
O O13 0.805760 0.946459 0.247573
O O14 0.717154 0.873909 0.832153
O O15 0.620132 0.645970 0.302347
O O16 0.000000 0.000000 0.500000
O O17 0.057978 0.214912 0.054747
O O18 0.000000 0.500000 0.500000
#
# Coordination Sequence:
#
# PCOD9024068 Si02
#       8
#     2   2   2   2   2   2   2   2
#     4  12  24  37  59  97 132 162 208 265 319 387
#     4   9  20  41  65  88 124 170 213 259 321 394
#     4  11  23  42  64  93 131 175 222 273 332 397
#     4  10  22  41  62  89 123 166 214 264 319 387
#     4  11  22  41  65  90 126 175 212 255 325 395
#     4  11  24  42  66  95 129 172 222 279 336 395
#     4  10  22  40  63  90 124 165 213 267 323 387
#     4  10  22  40  65  98 131 171 223 274 331 398
#
# _framework density 22.943379
#
# number of rings (size 3 to 8) (size 9 to 14) (size 15 to 20)
#    0.000    1.500    0.000    6.375    0.000    6.000 
#    0.000    2.500    0.000    0.000    0.000    0.000 
#    0.000    0.000    0.000    0.000    0.000    0.000 
#
# Total GULP energy -89299.100910 kJ/mol
# GULP energy per Si atom -5581.193807 kJ/mol
# Density = 2.289116 g / cm^3
# Si number density = 22.943379 Si / 1000 Ang^3
#
#
#
# Elastic Constant Matrix: (Units=GPa)
#
#
# Indices 1 2 3 4 5 6 
#
# 1 151.2064 31.7604 43.8995 -1.0458 -12.2443 -25.4555
# 2 31.7604 44.2183 -13.6897 -1.7484 6.0984 -14.5836
# 3 43.8995 -13.6897 88.8601 -15.6741 -9.5067 -5.7862
# 4 -1.0458 -1.7484 -15.6741 14.5495 -6.9491 -1.0583
# 5 -12.2443 6.0984 -9.5067 -6.9491 45.9112 0.9639
# 6 -25.4555 -14.5836 -5.7862 -1.0583 0.9639 40.6730
#
#
#
# Elastic Compliance Matrix: (Units=1/GPa)
#
#
# Indices 1 2 3 4 5 6 
#
# 1 0.012004 -0.011392 -0.009102 -0.009533 0.001348 0.001853
# 2 -0.011392 0.040199 0.015943 0.020910 -0.002125 0.010147
# 3 -0.009102 0.015943 0.024324 0.030139 0.004966 0.004147
# 4 -0.009533 0.020910 0.030139 0.112092 0.017713 0.008316
# 5 0.001348 -0.002125 0.004966 0.017713 0.026119 0.000630
# 6 0.001853 0.010147 0.004147 0.008316 0.000630 0.030176
#
#
# Mechanical properties :
#
#
# Convention : Reuss Voigt Hill
#
# Bulk Modulus (GPa) = 14.83121 45.35835 30.09478
# Shear Modulus (GPa) = 18.08374 35.04771 26.56572
#
# Velocity S-wave (km/s) = 2.81052 3.91266 3.40646
# Velocity P-wave (km/s) = 4.12436 6.34228 5.34952
#
# Compressibility (1/GPa) = 0.06742537
#
# Stress axis : x y z
#
# Youngs Moduli (GPa) = 83.30535 24.87614 41.11164
#
# Poissons Ratio (x) = 0.28338 0.37419
# Poissons Ratio (y) = 0.94897 -0.65542
# Poissons Ratio (z) = 0.75824 -0.39659
#
# Static dielectric constant tensor:
#      x y z
#    x 1.953340 -0.020800 0.123610 
#    y -0.020800 1.892680 0.011430 
#    z 0.123610 0.011430 1.711740 
# 
# From -- ./inp_files/274878.got.cif
#   From: 2010.05.17/outbox.cif.g08.bks.cpg/sg2_138_cif.got.tgz:274878.got - 2010.06.03 11:33:40.
