data_PCOD9024203
_publ_section_title
;
Structure prediction by ZEFSAII (Michael W. Deem and Ramdas Pophale) SiO2 
 PCOD9024203
Probable space group: P -1
;
_chemical_formula_sum "Si O2"
_cell_formula_units_Z 15
_cell_length_a 8.008615
_cell_length_b 5.152850
_cell_length_c 19.351867
_cell_angle_alpha 75.099188
_cell_angle_beta 45.898600
_cell_angle_gamma 89.598452
_cell_volume 536.913878
_symmetry_space_group_name_H-M "P -1"
_symmetry_group_IT_number 2
_symmetry_cell_setting 'triclinic'
loop_
_space_group_symop_operation_xyz
x,y,z
-x,-y,-z
loop_
_atom_site_type_symbol
_atom_site_label
_atom_site_fract_x
_atom_site_fract_y
_atom_site_fract_z
Si Si1 0.308090 0.868313 0.821878
Si Si2 0.240011 0.670303 0.294593
Si Si3 0.572686 0.050361 0.594380
Si Si4 0.745653 0.844626 0.424402
Si Si5 0.085915 0.355860 0.226792
Si Si6 0.511535 0.803090 0.946450
Si Si7 0.000000 0.500000 0.500000
Si Si8 0.988629 0.692520 0.097949
O O1 0.549194 0.054067 0.775479
O O2 0.390454 0.913450 0.715005
O O3 0.104926 0.034939 0.882355
O O4 0.195559 0.537498 0.878294
O O5 0.252549 0.536778 0.225475
O O6 0.221686 0.470207 0.379225
O O7 0.969631 0.712522 0.378992
O O8 0.629762 0.859971 0.530213
O O9 0.819469 0.219752 0.543737
O O10 0.441377 0.256461 0.576035
O O11 0.868270 0.162079 0.343994
O O12 0.229720 0.144488 0.167158
O O13 0.019057 0.548243 0.173216
O O14 0.500000 0.500000 0.000000
O O15 0.257524 0.772668 0.983213
O O16 0.500000 0.000000 0.000000
#
# Coordination Sequence:
#
# PCOD9024203 Si02
#       8
#     2   2   2   2   2   2   1   2
#     4  11  25  43  68  98 142 185 228 281 350 409
#     4  11  26  41  66  95 141 188 229 284 341 412
#     4  10  22  40  63  99 129 184 224 288 333 414
#     4  11  23  42  64  98 134 176 236 280 345 401
#     4  11  23  43  69 101 134 177 231 291 343 409
#     4  10  23  41  73 104 136 173 230 291 351 403
#     4  10  22  42  56  94 134 176 228 270 338 398
#     4  11  23  45  70 102 134 180 235 291 343 413
#
# _framework density 27.937442999999998
#
# number of rings (size 3 to 8) (size 9 to 14) (size 15 to 20)
#    0.000    1.333    2.667    2.400    5.600    4.800 
#    0.000    1.333    0.000    0.000    0.000    0.000 
#    0.000    0.000    0.000    0.000    0.000    0.000 
#
# Total GULP energy -83872.990298 kJ/mol
# GULP energy per Si atom -5591.532687 kJ/mol
# Density = 2.787386 g / cm^3
# Si number density = 27.937443 Si / 1000 Ang^3
#
#
#
# Elastic Constant Matrix: (Units=GPa)
#
#
# Indices 1 2 3 4 5 6 
#
# 1 91.9449 26.9100 12.5432 14.7453 -9.6640 9.9024
# 2 26.9100 132.9895 37.1073 18.4572 -10.2225 28.8475
# 3 12.5432 37.1073 125.5404 8.3343 -19.8753 1.5121
# 4 14.7453 18.4572 8.3343 52.5256 -1.4545 2.0279
# 5 -9.6640 -10.2225 -19.8753 -1.4545 47.8465 3.9152
# 6 9.9024 28.8475 1.5121 2.0279 3.9152 65.2808
#
#
#
# Elastic Compliance Matrix: (Units=1/GPa)
#
#
# Indices 1 2 3 4 5 6 
#
# 1 0.012151 -0.001613 -0.000222 -0.002708 0.002030 -0.001163
# 2 -0.001613 0.009792 -0.002359 -0.002430 0.001041 -0.004015
# 3 -0.000222 -0.002359 0.009219 -0.000509 0.003209 0.000686
# 4 -0.002708 -0.002430 -0.000509 0.020679 -0.000722 0.000897
# 5 0.002030 0.001041 0.003209 -0.000722 0.023024 -0.002201
# 6 -0.001163 -0.004015 0.000686 0.000897 -0.002201 0.017357
#
#
# Mechanical properties :
#
#
# Convention : Reuss Voigt Hill
#
# Bulk Modulus (GPa) = 43.90789 55.95510 49.93149
# Shear Modulus (GPa) = 46.21070 51.39153 48.80112
#
# Velocity S-wave (km/s) = 4.07145 4.29362 4.18401
# Velocity P-wave (km/s) = 6.15247 6.68224 6.42282
#
# Compressibility (1/GPa) = 0.02277495
#
# Stress axis : x y z
#
# Youngs Moduli (GPa) = 82.29554 102.12438 108.47739
#
# Poissons Ratio (x) = 0.16468 0.02410
# Poissons Ratio (y) = 0.13271 0.25586
# Poissons Ratio (z) = 0.01829 0.24088
#
# Static dielectric constant tensor:
#      x y z
#    x -1.221740 1.498740 -1.693290 
#    y 1.498740 1.500270 0.734820 
#    z -1.693290 0.734820 1.324690 
# 
# From -- ./inp_files/585264.got.cif
#   From: 2010.05.17/outbox.cif.g08.bks.cpg/sg2_293_cif.got.tgz:585264.got - 2010.06.03 11:33:40.
