data_PCOD9024373
_publ_section_title
;
Structure prediction by ZEFSAII (Michael W. Deem and Ramdas Pophale) SiO2 
 PCOD9024373
Probable space group: P -1
;
_chemical_formula_sum "Si O2"
_cell_formula_units_Z 16
_cell_length_a 21.303633
_cell_length_b 19.513847
_cell_length_c 12.606943
_cell_angle_alpha 31.017822
_cell_angle_beta 22.890004
_cell_angle_gamma 21.055049
_cell_volume 732.227536
_symmetry_space_group_name_H-M "P -1"
_symmetry_group_IT_number 2
_symmetry_cell_setting 'triclinic'
loop_
_space_group_symop_operation_xyz
x,y,z
-x,-y,-z
loop_
_atom_site_type_symbol
_atom_site_label
_atom_site_fract_x
_atom_site_fract_y
_atom_site_fract_z
Si Si1 0.196137 0.493812 0.733299
Si Si2 0.997246 0.674277 0.020223
Si Si3 0.890858 0.212837 0.913407
Si Si4 0.402136 0.939820 0.304548
Si Si5 0.930757 0.925016 0.966218
Si Si6 0.148258 0.740651 0.310313
Si Si7 0.467469 0.970398 0.409046
Si Si8 0.875505 0.633570 0.619484
O O1 0.432677 0.282781 0.679356
O O2 0.227622 0.571038 0.481643
O O3 0.000000 0.500000 0.000000
O O4 0.096662 0.632857 0.803548
O O5 0.006784 0.797294 0.916332
O O6 0.726959 0.797890 0.268707
O O7 0.114842 0.478930 0.153432
O O8 0.003266 0.297284 0.629221
O O9 0.864754 0.206891 0.088252
O O10 0.737923 0.315510 0.909272
O O11 0.000000 0.000000 0.000000
O O12 0.438083 0.935931 0.380385
O O13 0.128929 0.104049 0.488983
O O14 0.500000 0.000000 0.000000
O O15 0.711249 0.988815 0.284237
O O16 0.845335 0.124620 0.815631
O O17 0.385503 0.171663 0.262698
O O18 0.000000 0.500000 0.500000
#
# Coordination Sequence:
#
# PCOD9024373 Si02
#       8
#     2   2   2   2   2   2   2   2
#     4  12  24  40  65  97 119 171 219 262 314 376
#     4  12  23  41  64  94 135 158 220 267 310 391
#     4   9  18  36  61  88 125 165 200 250 322 373
#     4  12  22  40  67  93 123 167 221 265 314 377
#     4  10  22  40  64  94 127 176 198 265 344 368
#     4  11  22  43  64  90 134 163 215 265 319 388
#     4  11  22  39  64  96 127 164 209 266 325 371
#     4  11  20  35  61  94 122 162 208 255 316 375
#
# _framework density 21.851130999999999
#
# number of rings (size 3 to 8) (size 9 to 14) (size 15 to 20)
#    0.000    1.000    7.500    1.875    0.000    0.500 
#    0.000    6.250    0.000    0.000    0.000    0.000 
#    0.000    0.000    0.000    0.000    0.000    0.000 
#
# Total GULP energy -89180.563945 kJ/mol
# GULP energy per Si atom -5573.785247 kJ/mol
# Density = 2.180140 g / cm^3
# Si number density = 21.851131 Si / 1000 Ang^3
#
#
#
# Elastic Constant Matrix: (Units=GPa)
#
#
# Indices 1 2 3 4 5 6 
#
# 1 122.7382 13.1852 24.8367 -0.0821 11.1398 33.6248
# 2 13.1852 83.9098 32.5520 -7.1363 0.8948 -6.1072
# 3 24.8367 32.5520 61.4028 -22.6613 11.6414 -6.4984
# 4 -0.0821 -7.1363 -22.6613 42.4352 3.3955 5.7042
# 5 11.1398 0.8948 11.6414 3.3955 31.0504 -3.8193
# 6 33.6248 -6.1072 -6.4984 5.7042 -3.8193 36.8540
#
#
#
# Elastic Compliance Matrix: (Units=1/GPa)
#
#
# Indices 1 2 3 4 5 6 
#
# 1 0.013707 -0.000797 -0.006283 -0.001254 -0.004122 -0.013979
# 2 -0.000797 0.015666 -0.009681 -0.003208 0.004127 0.002540
# 3 -0.006283 -0.009681 0.032409 0.015661 -0.010553 0.006325
# 4 -0.001254 -0.003208 0.015661 0.032473 -0.009201 -0.002606
# 5 -0.004122 0.004127 -0.010553 -0.009201 0.039525 0.008104
# 6 -0.013979 0.002540 0.006325 -0.002606 0.008104 0.042668
#
#
# Mechanical properties :
#
#
# Convention : Reuss Voigt Hill
#
# Bulk Modulus (GPa) = 35.38268 45.46653 40.42461
# Shear Modulus (GPa) = 22.79040 35.23304 29.01172
#
# Velocity S-wave (km/s) = 3.23303 4.01984 3.64771
# Velocity P-wave (km/s) = 5.49221 6.51138 6.02339
#
# Compressibility (1/GPa) = 0.02826242
#
# Stress axis : x y z
#
# Youngs Moduli (GPa) = 72.95389 63.83113 30.85522
#
# Poissons Ratio (x) = 0.05085 0.19386
# Poissons Ratio (y) = 0.05812 0.29870
# Poissons Ratio (z) = 0.45836 0.61794
#
# Static dielectric constant tensor:
#      x y z
#    x 1.854440 0.009570 -0.021580 
#    y 0.009570 1.865950 0.051470 
#    z -0.021580 0.051470 1.858780 
# 
# From -- ./inp_files/472662.got.cif
#   From: 2010.05.17/outbox.cif.g08.bks.cpg/sg2_237_cif.got.tgz:472662.got - 2010.06.03 11:33:40.
