data_PCOD9024569
_publ_section_title
;
Structure prediction by ZEFSAII (Michael W. Deem and Ramdas Pophale) SiO2 
 PCOD9024569
Probable space group: P -1
;
_chemical_formula_sum "Si O2"
_cell_formula_units_Z 14
_cell_length_a 11.717538
_cell_length_b 12.340616
_cell_length_c 8.632238
_cell_angle_alpha 124.486916
_cell_angle_beta 145.501345
_cell_angle_gamma 46.433577
_cell_volume 512.259022
_symmetry_space_group_name_H-M "P -1"
_symmetry_group_IT_number 2
_symmetry_cell_setting 'triclinic'
loop_
_space_group_symop_operation_xyz
x,y,z
-x,-y,-z
loop_
_atom_site_type_symbol
_atom_site_label
_atom_site_fract_x
_atom_site_fract_y
_atom_site_fract_z
Si Si1 0.945906 0.243747 0.878080
Si Si2 0.240033 0.941536 0.308136
Si Si3 0.627841 0.663652 0.047666
Si Si4 0.063101 0.206656 0.531426
Si Si5 0.706819 0.007018 0.141462
Si Si6 0.310008 0.558823 0.545625
Si Si7 0.289738 0.299502 0.480074
O O1 0.780491 0.175830 0.690815
O O2 0.831172 0.354407 0.693848
O O3 0.186203 0.104599 0.972024
O O4 0.050689 0.300192 0.178172
O O5 0.472142 0.853333 0.401480
O O6 0.209902 0.097961 0.469814
O O7 0.000000 0.000000 0.000000
O O8 0.820495 0.692652 0.204441
O O9 0.700478 0.641800 0.290193
O O10 0.562425 0.543021 0.809546
O O11 0.403427 0.823367 0.894389
O O12 0.089261 0.078034 0.576094
O O13 0.802617 0.332859 0.340573
O O14 0.500000 0.000000 0.000000
O O15 0.303268 0.409330 0.454633
#
# Coordination Sequence:
#
# PCOD9024569 Si02
#       7
#     2   2   2   2   2   2   2
#     4  11  24  42  65  92 131 171 208 262 319 372
#     4  12  25  41  66  99 129 164 212 264 323 381
#     4  11  22  39  65  92 127 167 210 266 317 365
#     4  10  22  40  65  93 123 162 214 264 314 376
#     4   9  18  36  63  91 117 156 208 258 308 364
#     4  11  25  43  64  93 127 171 219 255 307 383
#     4  12  26  42  63  95 133 169 210 260 316 379
#
# _framework density 27.329922
#
# number of rings (size 3 to 8) (size 9 to 14) (size 15 to 20)
#    0.000    1.143    0.000    6.857    0.000    8.571 
#    0.000    0.000    0.000    0.000    0.000    0.000 
#    0.000    0.000    0.000    0.000    0.000    0.000 
#
# Total GULP energy -78290.652835 kJ/mol
# GULP energy per Si atom -5592.189488 kJ/mol
# Density = 2.726772 g / cm^3
# Si number density = 27.329922 Si / 1000 Ang^3
#
#
#
# Elastic Constant Matrix: (Units=GPa)
#
#
# Indices 1 2 3 4 5 6 
#
# 1 97.7843 32.4819 14.3015 -9.8479 13.8115 3.5586
# 2 32.4819 90.7337 18.2484 -12.6988 4.9125 10.1734
# 3 14.3015 18.2484 111.3789 -2.5924 8.9657 5.3628
# 4 -9.8479 -12.6988 -2.5924 40.3192 9.4227 7.0283
# 5 13.8115 4.9125 8.9657 9.4227 43.1664 -5.9858
# 6 3.5586 10.1734 5.3628 7.0283 -5.9858 63.7586
#
#
#
# Elastic Compliance Matrix: (Units=1/GPa)
#
#
# Indices 1 2 3 4 5 6 
#
# 1 0.012430 -0.003601 -0.000559 0.002990 -0.004214 -0.000797
# 2 -0.003601 0.013497 -0.001437 0.003998 -0.001290 -0.002394
# 3 -0.000559 -0.001437 0.009487 0.000593 -0.001865 -0.000778
# 4 0.002990 0.003998 0.000593 0.029728 -0.008710 -0.004949
# 5 -0.004214 -0.001290 -0.001865 -0.008710 0.027524 0.004142
# 6 -0.000797 -0.002394 -0.000778 -0.004949 0.004142 0.017110
#
#
# Mechanical properties :
#
#
# Convention : Reuss Voigt Hill
#
# Bulk Modulus (GPa) = 41.28817 47.77341 44.53079
# Shear Modulus (GPa) = 38.74638 45.10653 41.92645
#
# Velocity S-wave (km/s) = 3.76936 4.06697 3.92099
# Velocity P-wave (km/s) = 5.83817 6.29062 6.06861
#
# Compressibility (1/GPa) = 0.02422002
#
# Stress axis : x y z
#
# Youngs Moduli (GPa) = 80.45052 74.08925 105.40827
#
# Poissons Ratio (x) = 0.26683 0.05890
# Poissons Ratio (y) = 0.28974 0.15145
# Poissons Ratio (z) = 0.04495 0.10645
#
# Static dielectric constant tensor:
#      x y z
#    x 2.171850 -0.031470 -0.040780 
#    y -0.031470 2.124610 0.039500 
#    z -0.040780 0.039500 2.196960 
# 
# From -- ./inp_files/263245.got.cif
#   From: 2010.05.17/outbox.cif.g08.bks.cpg/sg2_132_cif.got.tgz:263245.got - 2010.06.03 11:33:40.
