data_PCOD9024844
_publ_section_title
;
Structure prediction by ZEFSAII (Michael W. Deem and Ramdas Pophale) SiO2 
 PCOD9024844
Probable space group: P -1
;
_chemical_formula_sum "Si O2"
_cell_formula_units_Z 16
_cell_length_a 19.875623
_cell_length_b 8.464494
_cell_length_c 5.591846
_cell_angle_alpha 83.727896
_cell_angle_beta 81.153001
_cell_angle_gamma 42.715553
_cell_volume 630.567910
_symmetry_space_group_name_H-M "P -1"
_symmetry_group_IT_number 2
_symmetry_cell_setting 'triclinic'
loop_
_space_group_symop_operation_xyz
x,y,z
-x,-y,-z
loop_
_atom_site_type_symbol
_atom_site_label
_atom_site_fract_x
_atom_site_fract_y
_atom_site_fract_z
Si Si1 0.846129 0.175850 0.968145
Si Si2 0.668214 0.818025 0.492292
Si Si3 0.671482 0.484723 0.330871
Si Si4 0.790456 0.776242 0.083671
Si Si5 0.703778 0.190076 0.764326
Si Si6 0.950384 0.696125 0.198504
Si Si7 0.476779 0.672707 0.279879
Si Si8 0.118668 0.572453 0.295519
O O1 0.776398 0.364112 0.185972
O O2 0.920243 0.917728 0.068358
O O3 0.757673 0.238999 0.864979
O O4 0.900096 0.209056 0.762790
O O5 0.633725 0.696117 0.481260
O O6 0.690325 0.869791 0.221994
O O7 0.778101 0.618295 0.586398
O O8 0.595766 0.060181 0.633026
O O9 0.697001 0.278865 0.492458
O O10 0.580479 0.587687 0.191504
O O11 0.845176 0.782908 0.261474
O O12 0.856735 0.527354 0.971413
O O13 0.772774 0.925864 0.848173
O O14 0.593983 0.307807 0.862449
O O15 0.022501 0.625377 0.390361
O O16 0.000000 0.500000 0.000000
O O17 0.500000 0.500000 0.500000
#
# Coordination Sequence:
#
# PCOD9024844 Si02
#       8
#     2   2   2   2   2   2   2   2
#     4  11  22  41  70  94 132 169 214 259 325 383
#     4  12  23  43  67  94 134 168 215 262 321 382
#     4  11  24  43  64  96 130 168 216 265 321 379
#     4  10  22  40  66  93 126 171 213 256 322 378
#     4  10  22  41  63  95 126 171 207 265 315 370
#     4   9  22  40  66  95 130 168 213 262 317 382
#     4  10  24  42  64  95 131 167 215 272 311 374
#     4  11  21  42  64  96 130 169 210 270 321 373
#
# _framework density 25.373951999999999
#
# number of rings (size 3 to 8) (size 9 to 14) (size 15 to 20)
#    0.000    1.500    3.750    0.750    7.000    1.000 
#    2.250    6.875    0.000    0.000    0.000    0.000 
#    0.000    0.000    0.000    0.000    0.000    0.000 
#
# Total GULP energy -89179.362222 kJ/mol
# GULP energy per Si atom -5573.710139 kJ/mol
# Density = 2.531620 g / cm^3
# Si number density = 25.373952 Si / 1000 Ang^3
#
#
#
# Elastic Constant Matrix: (Units=GPa)
#
#
# Indices 1 2 3 4 5 6 
#
# 1 168.2552 41.1361 19.8218 -11.6719 18.3077 5.3042
# 2 41.1361 101.2946 12.4025 -12.4121 7.5176 10.5369
# 3 19.8218 12.4025 20.6201 -5.6502 11.2223 2.2999
# 4 -11.6719 -12.4121 -5.6502 30.8310 -0.7117 3.3033
# 5 18.3077 7.5176 11.2223 -0.7117 45.5421 -7.8545
# 6 5.3042 10.5369 2.2999 3.3033 -7.8545 35.2155
#
#
#
# Elastic Compliance Matrix: (Units=1/GPa)
#
#
# Indices 1 2 3 4 5 6 
#
# 1 0.007247 -0.002075 -0.004497 0.001115 -0.001553 -0.000628
# 2 -0.002075 0.012032 -0.003296 0.003823 -0.000907 -0.003633
# 3 -0.004497 -0.003296 0.066375 0.009529 -0.015049 -0.006922
# 4 0.001115 0.003823 0.009529 0.036722 -0.003932 -0.006256
# 5 -0.001553 -0.000907 -0.015049 -0.003932 0.027767 0.008050
# 6 -0.000628 -0.003633 -0.006922 -0.006256 0.008050 0.032413
#
#
# Mechanical properties :
#
#
# Convention : Reuss Voigt Hill
#
# Bulk Modulus (GPa) = 15.17053 48.54342 31.85698
# Shear Modulus (GPa) = 22.29516 36.77170 29.53343
#
# Velocity S-wave (km/s) = 2.96744 3.81095 3.41534
# Velocity P-wave (km/s) = 4.21102 6.20784 5.30424
#
# Compressibility (1/GPa) = 0.06591726
#
# Stress axis : x y z
#
# Youngs Moduli (GPa) = 137.99533 83.11123 15.06591
#
# Poissons Ratio (x) = 0.17246 0.06775
# Poissons Ratio (y) = 0.28634 0.04966
# Poissons Ratio (z) = 0.62056 0.27396
#
# Static dielectric constant tensor:
#      x y z
#    x 2.066950 -0.067890 0.023120 
#    y -0.067890 2.039130 0.013910 
#    z 0.023120 0.013910 2.095510 
# 
# From -- ./inp_files/106729.got.cif
#   From: 2010.05.17/outbox.cif.g08.bks.cpg/sg2_54_cif.got.tgz:106729.got - 2010.06.03 11:33:40.
