data_PCOD9024550
_publ_section_title
;
Structure prediction by ZEFSAII (Michael W. Deem and Ramdas Pophale) SiO2 
 PCOD9024550
Probable space group: P -1
;
_chemical_formula_sum "Si O2"
_cell_formula_units_Z 16
_cell_length_a 9.694410
_cell_length_b 17.048895
_cell_length_c 4.974917
_cell_angle_alpha 102.458676
_cell_angle_beta 124.045807
_cell_angle_gamma 96.079925
_cell_volume 638.616534
_symmetry_space_group_name_H-M "P -1"
_symmetry_group_IT_number 2
_symmetry_cell_setting 'triclinic'
loop_
_space_group_symop_operation_xyz
x,y,z
-x,-y,-z
loop_
_atom_site_type_symbol
_atom_site_label
_atom_site_fract_x
_atom_site_fract_y
_atom_site_fract_z
Si Si1 0.007760 0.920185 0.271138
Si Si2 0.817279 0.832199 0.495698
Si Si3 0.411757 0.944331 0.615778
Si Si4 0.852888 0.340953 0.239381
Si Si5 0.768444 0.645801 0.294229
Si Si6 0.459533 0.382106 0.506037
Si Si7 0.182153 0.568236 0.246026
Si Si8 0.459490 0.785980 0.295775
O O1 0.908661 0.848359 0.319108
O O2 0.205275 0.926528 0.416201
O O3 0.904036 0.901587 0.863908
O O4 0.000000 0.000000 0.500000
O O5 0.831048 0.742023 0.537279
O O6 0.612613 0.822766 0.277943
O O7 0.454529 0.856595 0.555278
O O8 0.500000 0.000000 0.500000
O O9 0.500000 0.000000 0.000000
O O10 0.765730 0.396166 0.374189
O O11 0.049251 0.370251 0.574227
O O12 0.853763 0.361971 0.942164
O O13 0.731077 0.247161 0.069165
O O14 0.655869 0.593373 0.371380
O O15 0.651149 0.640056 0.901255
O O16 0.645428 0.448213 0.702624
O O17 0.501465 0.296290 0.591689
O O18 0.000000 0.500000 0.000000
#
# Coordination Sequence:
#
# PCOD9024550 Si02
#       8
#     2   2   2   2   2   2   2   2
#     4  12  24  40  58  85 120 162 205 255 321 380
#     4  11  22  38  62  85 117 159 201 260 311 369
#     4  12  26  42  62  91 127 167 212 268 319 378
#     4  11  24  41  68  96 127 167 213 265 310 375
#     4  11  22  41  63  96 126 160 213 261 313 369
#     4  10  22  40  65  91 127 169 209 260 314 380
#     4  11  23  43  66  96 131 171 211 256 315 379
#     4  10  23  43  66  94 125 169 218 261 319 382
#
# _framework density 25.054155999999999
#
# number of rings (size 3 to 8) (size 9 to 14) (size 15 to 20)
#    0.000    1.000    0.000    8.250    0.000    7.000 
#    0.000    3.750    0.000    0.000    0.000    0.000 
#    0.000    0.000    0.000    0.000    0.000    0.000 
#
# Total GULP energy -89558.087967 kJ/mol
# GULP energy per Si atom -5597.380498 kJ/mol
# Density = 2.499713 g / cm^3
# Si number density = 25.054156 Si / 1000 Ang^3
#
#
#
# Elastic Constant Matrix: (Units=GPa)
#
#
# Indices 1 2 3 4 5 6 
#
# 1 199.5593 39.9850 64.5575 3.9271 22.4865 37.9685
# 2 39.9850 54.3598 22.8177 13.0867 1.3140 16.3225
# 3 64.5575 22.8177 141.2301 2.7531 7.6316 30.0743
# 4 3.9271 13.0867 2.7531 32.3543 3.2585 -3.6866
# 5 22.4865 1.3140 7.6316 3.2585 61.4840 10.5051
# 6 37.9685 16.3225 30.0743 -3.6866 10.5051 46.0514
#
#
#
# Elastic Compliance Matrix: (Units=1/GPa)
#
#
# Indices 1 2 3 4 5 6 
#
# 1 0.007113 -0.003676 -0.001975 0.000657 -0.001834 -0.002801
# 2 -0.003676 0.026290 -0.000969 -0.011196 0.002722 -0.007172
# 3 -0.001975 -0.000969 0.008991 -0.000628 0.000349 -0.004030
# 4 0.000657 -0.011196 -0.000628 0.036579 -0.003140 0.007481
# 5 -0.001834 0.002722 0.000349 -0.003140 0.017677 -0.003964
# 6 -0.002801 -0.007172 -0.004030 0.007481 -0.003964 0.030701
#
#
# Mechanical properties :
#
#
# Convention : Reuss Voigt Hill
#
# Bulk Modulus (GPa) = 34.29922 72.20775 53.25348
# Shear Modulus (GPa) = 33.26473 45.83054 39.54764
#
# Velocity S-wave (km/s) = 3.64773 4.28162 3.97733
# Velocity P-wave (km/s) = 5.60901 7.30249 6.51104
#
# Compressibility (1/GPa) = 0.02915518
#
# Stress axis : x y z
#
# Youngs Moduli (GPa) = 140.58581 38.03784 111.21670
#
# Poissons Ratio (x) = 0.13983 0.21963
# Poissons Ratio (y) = 0.51679 0.10774
# Poissons Ratio (z) = 0.27763 0.03685
#
# Static dielectric constant tensor:
#      x y z
#    x 2.013000 0.001380 0.069930 
#    y 0.001380 2.088830 -0.002240 
#    z 0.069930 -0.002240 1.932050 
# 
# From -- ./inp_files/53584.got.cif
#   From: 2010.05.17/outbox.cif.g08.bks.cpg/sg2_27_cif.got.tgz:53584.got - 2010.06.03 11:33:40.
