data_PCOD9024077
_publ_section_title
;
Structure prediction by ZEFSAII (Michael W. Deem and Ramdas Pophale) SiO2 
 PCOD9024077
Probable space group: P -1
;
_chemical_formula_sum "Si O2"
_cell_formula_units_Z 12
_cell_length_a 8.193546
_cell_length_b 9.098214
_cell_length_c 13.053911
_cell_angle_alpha 140.252710
_cell_angle_beta 118.132273
_cell_angle_gamma 63.358329
_cell_volume 542.309217
_symmetry_space_group_name_H-M "P -1"
_symmetry_group_IT_number 2
_symmetry_cell_setting 'triclinic'
loop_
_space_group_symop_operation_xyz
x,y,z
-x,-y,-z
loop_
_atom_site_type_symbol
_atom_site_label
_atom_site_fract_x
_atom_site_fract_y
_atom_site_fract_z
Si Si1 0.694006 0.083901 0.580362
Si Si2 0.483460 0.881647 0.039919
Si Si3 0.394300 0.758706 0.592951
Si Si4 0.098958 0.734352 0.893643
Si Si5 0.686684 0.458163 0.957577
Si Si6 0.982243 0.349679 0.515185
O O1 0.676343 0.178659 0.509584
O O2 0.699181 0.278003 0.772063
O O3 0.500000 0.000000 0.500000
O O4 0.853966 0.862744 0.525938
O O5 0.472475 0.068038 0.228952
O O6 0.303849 0.746843 0.910941
O O7 0.669313 0.705714 0.030256
O O8 0.500000 0.000000 0.000000
O O9 0.500000 0.500000 0.500000
O O10 0.206449 0.761946 0.604698
O O11 0.987174 0.548162 0.708899
O O12 0.145818 0.637414 0.969045
O O13 0.000000 0.000000 0.000000
O O14 0.500000 0.500000 0.000000
O O15 0.000000 0.500000 0.500000
#
# Coordination Sequence:
#
# PCOD9024077 Si02
#       6
#     2   2   2   2   2   2
#     4  12  23  42  68  97 133 176 218 275 334 390
#     4  11  22  41  64  91 125 167 213 264 319 385
#     4  12  25  43  66  99 134 173 220 272 329 395
#     4  11  22  41  64  91 125 167 213 264 319 385
#     4  10  22  40  63  91 124 168 215 263 325 392
#     4  12  25  43  66  99 134 173 220 272 329 395
#
# _framework density 22.127597999999999
#
# number of rings (size 3 to 8) (size 9 to 14) (size 15 to 20)
#    0.000    0.667    0.000   10.500    0.000    0.000 
#    0.000    2.500    0.000    0.000    0.000    0.000 
#    0.000    0.000    0.000    0.000    0.000    0.000 
#
# Total GULP energy -67042.464282 kJ/mol
# GULP energy per Si atom -5586.872023 kJ/mol
# Density = 2.207724 g / cm^3
# Si number density = 22.127598 Si / 1000 Ang^3
#
#
#
# Elastic Constant Matrix: (Units=GPa)
#
#
# Indices 1 2 3 4 5 6 
#
# 1 49.6408 12.7224 -31.4182 -3.7262 4.1189 1.2704
# 2 12.7224 220.6470 30.6025 -3.0177 -26.8825 -3.3555
# 3 -31.4182 30.6025 110.3236 0.9854 -13.5610 2.1257
# 4 -3.7262 -3.0177 0.9854 50.2645 2.0924 -16.8974
# 5 4.1189 -26.8825 -13.5610 2.0924 29.7055 1.1342
# 6 1.2704 -3.3555 2.1257 -16.8974 1.1342 46.1871
#
#
#
# Elastic Compliance Matrix: (Units=1/GPa)
#
#
# Indices 1 2 3 4 5 6 
#
# 1 0.026303 -0.002948 0.007969 0.001500 -0.002756 -0.000688
# 2 -0.002948 0.005518 -0.001822 0.000128 0.004542 0.000501
# 3 0.007969 -0.001822 0.012216 -0.000238 0.002880 -0.001072
# 4 0.001500 0.000128 -0.000238 0.022939 -0.002139 0.008424
# 5 -0.002756 0.004542 0.002880 -0.002139 0.039678 -0.001484
# 6 -0.000688 0.000501 -0.001072 0.008424 -0.001484 0.024874
#
#
# Mechanical properties :
#
#
# Convention : Reuss Voigt Hill
#
# Bulk Modulus (GPa) = 19.82744 44.93608 32.38176
# Shear Modulus (GPa) = 35.22589 49.81176 42.51883
#
# Velocity S-wave (km/s) = 3.99425 4.74974 4.38828
# Velocity P-wave (km/s) = 5.50018 7.10154 6.35153
#
# Compressibility (1/GPa) = 0.05043516
#
# Stress axis : x y z
#
# Youngs Moduli (GPa) = 38.01855 181.23915 81.85903
#
# Poissons Ratio (x) = 0.53423 -0.65236
# Poissons Ratio (y) = 0.11206 0.14918
# Poissons Ratio (z) = -0.30298 0.33030
#
# Static dielectric constant tensor:
#      x y z
#    x 1.825170 -0.020390 -0.026120 
#    y -0.020390 1.706930 0.039300 
#    z -0.026120 0.039300 1.922780 
# 
# From -- ./inp_files/151147.got.cif
#   From: 2010.05.17/outbox.cif.g08.bks.cpg/sg2_76_cif.got.tgz:151147.got - 2010.06.03 11:33:40.
