data_PCOD9024880
_publ_section_title
;
Structure prediction by ZEFSAII (Michael W. Deem and Ramdas Pophale) SiO2 
 PCOD9024880
Probable space group: P -1
;
_chemical_formula_sum "Si O2"
_cell_formula_units_Z 11
_cell_length_a 8.704545
_cell_length_b 4.953106
_cell_length_c 13.819041
_cell_angle_alpha 89.828304
_cell_angle_beta 98.358139
_cell_angle_gamma 136.118984
_cell_volume 404.076599
_symmetry_space_group_name_H-M "P -1"
_symmetry_group_IT_number 2
_symmetry_cell_setting 'triclinic'
loop_
_space_group_symop_operation_xyz
x,y,z
-x,-y,-z
loop_
_atom_site_type_symbol
_atom_site_label
_atom_site_fract_x
_atom_site_fract_y
_atom_site_fract_z
Si Si1 0.111021 0.771318 0.181248
Si Si2 0.353622 0.474948 0.064578
Si Si3 0.445302 0.831882 0.275344
Si Si4 0.000000 0.500000 0.000000
Si Si5 0.788349 0.043252 0.456171
Si Si6 0.926278 0.964474 0.649276
O O1 0.363401 0.028097 0.242208
O O2 0.163656 0.006375 0.085121
O O3 0.981296 0.720823 0.260372
O O4 0.981771 0.375310 0.114010
O O5 0.475131 0.719925 0.175869
O O6 0.500000 0.500000 0.000000
O O7 0.236017 0.593071 0.011628
O O8 0.210187 0.424543 0.300903
O O9 0.879390 0.920024 0.396645
O O10 0.000000 0.500000 0.500000
O O11 0.618397 0.999400 0.376518
O O12 0.743823 0.865343 0.558507
#
# Coordination Sequence:
#
# PCOD9024880 Si02
#       6
#     2   2   2   1   2   2
#     4  10  22  43  64  95 128 173 218 276 334 394
#     4  10  23  43  64  99 131 178 221 273 340 404
#     4  10  23  43  65  95 134 176 222 276 334 400
#     4  10  22  40  66  94 132 170 220 272 330 398
#     4  11  24  41  65 100 129 177 225 275 334 399
#     4  10  23  42  64  93 135 176 221 271 339 395
#
# _framework density 27.222560999999999
#
# number of rings (size 3 to 8) (size 9 to 14) (size 15 to 20)
#    0.000    1.818    0.000    2.182    2.545   11.636 
#   13.091    0.000    0.000    0.000    0.000    0.000 
#    0.000    0.000    0.000    0.000    0.000    0.000 
#
# Total GULP energy -61329.666228 kJ/mol
# GULP energy per Si atom -5575.424203 kJ/mol
# Density = 2.716060 g / cm^3
# Si number density = 27.222561 Si / 1000 Ang^3
#
#
#
# Elastic Constant Matrix: (Units=GPa)
#
#
# Indices 1 2 3 4 5 6 
#
# 1 133.2328 17.5276 83.4796 15.7092 28.2562 -23.0993
# 2 17.5276 43.1376 21.7261 6.7065 4.4821 -2.7631
# 3 83.4796 21.7261 220.5642 34.5537 0.7965 1.6178
# 4 15.7092 6.7065 34.5537 47.8317 -4.5745 4.5301
# 5 28.2562 4.4821 0.7965 -4.5745 79.5474 16.6276
# 6 -23.0993 -2.7631 1.6178 4.5301 16.6276 28.6058
#
#
#
# Elastic Compliance Matrix: (Units=1/GPa)
#
#
# Indices 1 2 3 4 5 6 
#
# 1 0.018429 -0.000985 -0.006282 -0.004596 -0.011394 0.022493
# 2 -0.000985 0.025241 -0.001749 -0.002435 -0.001866 0.003212
# 3 -0.006282 -0.001749 0.007439 -0.002000 0.003708 -0.007501
# 4 -0.004596 -0.002435 -0.002000 0.025798 0.005611 -0.011180
# 5 -0.011394 -0.001866 0.003708 0.005611 0.021855 -0.023182
# 6 0.022493 0.003212 -0.007501 -0.011180 -0.023182 0.069101
#
#
# Mechanical properties :
#
#
# Convention : Reuss Voigt Hill
#
# Bulk Modulus (GPa) = 30.23233 71.37790 50.80512
# Shear Modulus (GPa) = 25.39101 49.47708 37.43405
#
# Velocity S-wave (km/s) = 3.05736 4.26784 3.71227
# Velocity P-wave (km/s) = 4.85726 7.11077 6.08917
#
# Compressibility (1/GPa) = 0.03307718
#
# Stress axis : x y z
#
# Youngs Moduli (GPa) = 54.26128 39.61834 134.43277
#
# Poissons Ratio (x) = 0.03903 0.84449
# Poissons Ratio (y) = 0.05346 0.23510
# Poissons Ratio (z) = 0.34086 0.06928
#
# Static dielectric constant tensor:
#      x y z
#    x 2.376720 -0.354340 -0.043230 
#    y -0.354340 5.354700 1.419240 
#    z -0.043230 1.419240 2.824410 
# 
# From -- ./inp_files/483201.got.cif
#   From: 2010.05.17/outbox.cif.g08.bks.cpg/sg2_242_cif.got.tgz:483201.got - 2010.06.03 11:33:40.
