data_PCOD9024170
_publ_section_title
;
Structure prediction by ZEFSAII (Michael W. Deem and Ramdas Pophale) SiO2 
 PCOD9024170
Probable space group: P -1
;
_chemical_formula_sum "Si O2"
_cell_formula_units_Z 16
_cell_length_a 6.530104
_cell_length_b 28.438655
_cell_length_c 12.586718
_cell_angle_alpha 28.125907
_cell_angle_beta 52.605247
_cell_angle_gamma 43.454452
_cell_volume 753.949255
_symmetry_space_group_name_H-M "P -1"
_symmetry_group_IT_number 2
_symmetry_cell_setting 'triclinic'
loop_
_space_group_symop_operation_xyz
x,y,z
-x,-y,-z
loop_
_atom_site_type_symbol
_atom_site_label
_atom_site_fract_x
_atom_site_fract_y
_atom_site_fract_z
Si Si1 0.835546 0.635915 0.754179
Si Si2 0.307729 0.014945 0.219948
Si Si3 0.184580 0.824983 0.098128
Si Si4 0.863588 0.422593 0.663561
Si Si5 0.013661 0.171339 0.614067
Si Si6 0.775887 0.405983 0.481191
Si Si7 0.254943 0.162315 0.141692
Si Si8 0.167610 0.820569 0.583810
O O1 0.941479 0.716210 0.622653
O O2 0.477384 0.700489 0.745800
O O3 0.943158 0.638886 0.594757
O O4 0.000000 0.500000 0.000000
O O5 0.220794 0.080757 0.228818
O O6 0.665200 0.944023 0.242083
O O7 0.217440 0.918280 0.425837
O O8 0.136065 0.103369 0.001373
O O9 0.310475 0.693220 0.286148
O O10 0.168896 0.823893 0.232899
O O11 0.401955 0.869470 0.901896
O O12 0.851054 0.427576 0.530637
O O13 0.519554 0.480834 0.693975
O O14 0.000000 0.500000 0.500000
O O15 0.063220 0.292209 0.898331
O O16 0.880690 0.165207 0.555602
O O17 0.120451 0.166221 0.291568
#
# Coordination Sequence:
#
# PCOD9024170 Si02
#       8
#     2   2   2   2   2   2   2   2
#     4  10  23  43  68  93 130 175 213 262 324 384
#     4  11  24  44  66  92 131 172 220 270 322 380
#     4  11  23  41  69  95 127 171 217 268 326 382
#     4  11  22  39  64  98 129 162 210 269 320 380
#     4  10  25  44  66  97 130 168 220 268 322 386
#     4  10  22  40  63  96 128 166 215 264 319 381
#     4  12  25  40  67  97 130 172 216 264 332 383
#     4  11  26  44  64  97 133 171 217 268 320 389
#
# _framework density 21.221589000000002
#
# number of rings (size 3 to 8) (size 9 to 14) (size 15 to 20)
#    0.000    1.250    2.500    2.250    1.750    8.500 
#    0.000    0.000    0.000    0.000    0.000    0.000 
#    0.000    0.000    0.000    0.000    0.000    0.000 
#
# Total GULP energy -89426.898180 kJ/mol
# GULP energy per Si atom -5589.181136 kJ/mol
# Density = 2.117329 g / cm^3
# Si number density = 21.221589 Si / 1000 Ang^3
#
#
#
# Elastic Constant Matrix: (Units=GPa)
#
#
# Indices 1 2 3 4 5 6 
#
# 1 88.7359 52.9396 26.0805 1.8579 0.7347 15.4692
# 2 52.9396 107.1149 28.1849 -4.2347 -9.8905 19.0486
# 3 26.0805 28.1849 46.6319 -16.6682 7.5019 0.1692
# 4 1.8579 -4.2347 -16.6682 42.3627 -7.7501 3.5430
# 5 0.7347 -9.8905 7.5019 -7.7501 21.6304 -2.2348
# 6 15.4692 19.0486 0.1692 3.5430 -2.2348 29.1910
#
#
#
# Elastic Compliance Matrix: (Units=1/GPa)
#
#
# Indices 1 2 3 4 5 6 
#
# 1 0.018469 -0.006814 -0.007279 -0.004552 -0.003367 -0.005004
# 2 -0.006814 0.016905 -0.007521 0.001499 0.010408 -0.006762
# 3 -0.007279 -0.007521 0.035770 0.011104 -0.010961 0.006371
# 4 -0.004552 0.001499 0.011104 0.029838 0.007507 -0.001677
# 5 -0.003367 0.010408 -0.010961 0.007507 0.057445 -0.001457
# 6 -0.005004 -0.006762 0.006371 -0.001677 -0.001457 0.041377
#
#
# Mechanical properties :
#
#
# Convention : Reuss Voigt Hill
#
# Bulk Modulus (GPa) = 35.81917 50.76586 43.29251
# Shear Modulus (GPa) = 19.81475 27.65532 23.73503
#
# Velocity S-wave (km/s) = 3.05898 3.61386 3.34793
# Velocity P-wave (km/s) = 5.42141 6.43328 5.94890
#
# Compressibility (1/GPa) = 0.02791801
#
# Stress axis : x y z
#
# Youngs Moduli (GPa) = 54.14364 59.15337 27.95617
#
# Poissons Ratio (x) = 0.40306 0.20348
# Poissons Ratio (y) = 0.36893 0.21025
# Poissons Ratio (z) = 0.39410 0.44488
#
# Static dielectric constant tensor:
#      x y z
#    x 1.761500 -0.036580 -0.018570 
#    y -0.036580 1.781600 -0.009040 
#    z -0.018570 -0.009040 1.771370 
# 
# From -- ./inp_files/85135.got.cif
#   From: 2010.05.17/outbox.cif.g08.bks.cpg/sg2_43_cif.got.tgz:85135.got - 2010.06.03 11:33:40.
