data_PCOD9024934
_publ_section_title
;
Structure prediction by ZEFSAII (Michael W. Deem and Ramdas Pophale) SiO2 
 PCOD9024934
Probable space group: P -1
;
_chemical_formula_sum "Si O2"
_cell_formula_units_Z 15
_cell_length_a 8.946676
_cell_length_b 8.518710
_cell_length_c 12.465646
_cell_angle_alpha 100.670809
_cell_angle_beta 115.401033
_cell_angle_gamma 61.302526
_cell_volume 752.537621
_symmetry_space_group_name_H-M "P -1"
_symmetry_group_IT_number 2
_symmetry_cell_setting 'triclinic'
loop_
_space_group_symop_operation_xyz
x,y,z
-x,-y,-z
loop_
_atom_site_type_symbol
_atom_site_label
_atom_site_fract_x
_atom_site_fract_y
_atom_site_fract_z
Si Si1 0.866437 0.476015 0.043258
Si Si2 0.000000 0.000000 0.500000
Si Si3 0.112854 0.467339 0.301209
Si Si4 0.802979 0.211007 0.675592
Si Si5 0.441848 0.151974 0.911039
Si Si6 0.564634 0.789381 0.487230
Si Si7 0.794219 0.773301 0.361378
Si Si8 0.195389 0.852838 0.086770
O O1 0.692903 0.660592 0.049075
O O2 0.999900 0.403821 0.178670
O O3 0.796396 0.337991 0.962626
O O4 0.000000 0.500000 0.000000
O O5 0.863069 0.903214 0.457183
O O6 0.048956 0.919110 0.380610
O O7 0.166623 0.612162 0.280136
O O8 0.290955 0.309776 0.387176
O O9 0.970241 0.587461 0.363540
O O10 0.604956 0.259097 0.567828
O O11 0.806057 0.129324 0.782679
O O12 0.317981 0.141230 0.772051
O O13 0.629014 0.140467 0.914510
O O14 0.500000 0.000000 0.000000
O O15 0.664391 0.731204 0.396009
O O16 0.500000 0.000000 0.500000
O O17 0.000000 0.000000 0.000000
#
# Coordination Sequence:
#
# PCOD9024934 Si02
#       8
#     2   1   2   2   2   2   2   2
#     4  11  23  45  67 100 138 180 231 284 346 419
#     4  10  22  40  66  96 132 182 214 276 328 402
#     4  10  24  42  67  91 134 179 217 275 344 406
#     4  11  23  45  66  97 141 173 232 273 342 408
#     4  11  25  45  70 102 138 182 235 289 350 413
#     4  12  23  40  66  99 129 173 227 279 334 396
#     4  10  22  43  65  93 136 169 223 274 332 405
#     4  12  26  43  72 102 140 183 233 293 351 412
#
# _framework density 19.932559000000001
#
# number of rings (size 3 to 8) (size 9 to 14) (size 15 to 20)
#    0.000    1.067    4.000    2.000    5.600    1.067 
#    0.000    0.000    0.000    0.000    0.000    0.000 
#    0.000    0.000    0.000    0.000    0.000    0.000 
#
# Total GULP energy -83542.558683 kJ/mol
# GULP energy per Si atom -5569.503912 kJ/mol
# Density = 1.988719 g / cm^3
# Si number density = 19.932559 Si / 1000 Ang^3
#
#
#
# Elastic Constant Matrix: (Units=GPa)
#
#
# Indices 1 2 3 4 5 6 
#
# 1 123.0076 19.8459 17.5161 -3.3592 -10.9498 -11.7639
# 2 19.8459 54.4239 44.4800 -6.0855 -4.4831 -8.5906
# 3 17.5161 44.4800 100.5350 -7.6162 -4.1154 -10.4043
# 4 -3.3592 -6.0855 -7.6162 35.0821 3.7571 10.6703
# 5 -10.9498 -4.4831 -4.1154 3.7571 39.1154 0.6410
# 6 -11.7639 -8.5906 -10.4043 10.6703 0.6410 26.8103
#
#
#
# Elastic Compliance Matrix: (Units=1/GPa)
#
#
# Indices 1 2 3 4 5 6 
#
# 1 0.009065 -0.002660 -0.000024 -0.000878 0.002259 0.003412
# 2 -0.002660 0.030263 -0.012454 0.001186 0.001247 0.003195
# 3 -0.000024 -0.012454 0.015706 0.000680 0.000123 0.001820
# 4 -0.000878 0.001186 0.000680 0.032988 -0.002997 -0.012799
# 5 0.002259 0.001247 0.000123 -0.002997 0.026609 0.001995
# 6 0.003412 0.003195 0.001820 -0.012799 0.001995 0.045572
#
#
# Mechanical properties :
#
#
# Convention : Reuss Voigt Hill
#
# Bulk Modulus (GPa) = 40.39038 49.07229 44.73133
# Shear Modulus (GPa) = 25.15960 33.27651 29.21805
#
# Velocity S-wave (km/s) = 3.55665 4.09033 3.83279
# Velocity P-wave (km/s) = 6.09704 6.85422 6.48669
#
# Compressibility (1/GPa) = 0.02475837
#
# Stress axis : x y z
#
# Youngs Moduli (GPa) = 110.30841 33.04410 63.66986
#
# Poissons Ratio (x) = 0.08790 0.00150
# Poissons Ratio (y) = 0.29344 0.79296
# Poissons Ratio (z) = 0.00259 0.41154
#
# Static dielectric constant tensor:
#      x y z
#    x 1.717080 -0.006030 0.002340 
#    y -0.006030 1.688490 0.003690 
#    z 0.002340 0.003690 1.708380 
# 
# From -- ./inp_files/169992.got.cif
#   From: 2010.05.17/outbox.cif.g08.bks.cpg/sg2_85_cif.got.tgz:169992.got - 2010.06.03 11:33:40.
