data_PCOD9024493
_publ_section_title
;
Structure prediction by ZEFSAII (Michael W. Deem and Ramdas Pophale) SiO2 
 PCOD9024493
Probable space group: P -1
;
_chemical_formula_sum "Si O2"
_cell_formula_units_Z 11
_cell_length_a 17.052633
_cell_length_b 4.885762
_cell_length_c 5.050477
_cell_angle_alpha 90.238749
_cell_angle_beta 79.928444
_cell_angle_gamma 106.214654
_cell_volume 397.372861
_symmetry_space_group_name_H-M "P -1"
_symmetry_group_IT_number 2
_symmetry_cell_setting 'triclinic'
loop_
_space_group_symop_operation_xyz
x,y,z
-x,-y,-z
loop_
_atom_site_type_symbol
_atom_site_label
_atom_site_fract_x
_atom_site_fract_y
_atom_site_fract_z
Si Si1 0.189746 0.714061 0.142109
Si Si2 0.301139 0.046569 0.699985
Si Si3 0.983913 0.291284 0.758252
Si Si4 0.413753 0.666582 0.526708
Si Si5 0.157135 0.292015 0.653726
Si Si6 0.500000 0.000000 0.000000
O O1 0.179503 0.506254 0.394675
O O2 0.114111 0.860802 0.186972
O O3 0.275450 0.948720 0.017772
O O4 0.176054 0.495929 0.900436
O O5 0.371339 0.340109 0.624521
O O6 0.217045 0.089526 0.626196
O O7 0.543336 0.278267 0.782865
O O8 0.338535 0.811408 0.554277
O O9 0.057480 0.139549 0.711934
O O10 0.000000 0.500000 0.500000
O O11 0.000000 0.500000 0.000000
O O12 0.468144 0.816882 0.744132
#
# Coordination Sequence:
#
# PCOD9024493 Si02
#       6
#     2   2   2   2   2   1
#     4  10  22  40  65 101 143 192 238 292 341 403
#     4  12  26  46  74 114 142 186 232 294 356 410
#     4   8  16  35  60  90 137 191 243 280 336 398
#     4  11  28  48  80 105 142 180 230 283 354 438
#     4  10  22  40  65 101 143 192 238 292 341 403
#     4  10  28  56  76 108 138 184 224 282 356 442
#
# _framework density 27.681811
#
# number of rings (size 3 to 8) (size 9 to 14) (size 15 to 20)
#    0.000    1.818    1.818    0.000    2.545   10.909 
#    0.000    0.000    0.000   13.091    0.000    0.000 
#    0.000    0.000    0.000    0.000    0.000    0.182 
#
# Total GULP energy -61478.653637 kJ/mol
# GULP energy per Si atom -5588.968512 kJ/mol
# Density = 2.761881 g / cm^3
# Si number density = 27.681811 Si / 1000 Ang^3
#
#
#
# Elastic Constant Matrix: (Units=GPa)
#
#
# Indices 1 2 3 4 5 6 
#
# 1 102.2646 41.6612 45.1249 -1.3205 -8.9893 -30.0165
# 2 41.6612 111.2798 49.8020 -20.0365 -24.9232 -5.0934
# 3 45.1249 49.8020 256.3452 -31.4357 8.9845 6.9617
# 4 -1.3205 -20.0365 -31.4357 38.5986 9.1849 -11.3759
# 5 -8.9893 -24.9232 8.9845 9.1849 41.7528 -4.3995
# 6 -30.0165 -5.0934 6.9617 -11.3759 -4.3995 64.6449
#
#
#
# Elastic Compliance Matrix: (Units=1/GPa)
#
#
# Indices 1 2 3 4 5 6 
#
# 1 0.014474 -0.003932 -0.002300 -0.002088 0.002404 0.006455
# 2 -0.003932 0.013475 -0.001679 0.004067 0.006726 0.000590
# 3 -0.002300 -0.001679 0.005260 0.003796 -0.003606 -0.001344
# 4 -0.002088 0.004067 0.003796 0.033738 -0.005788 0.004485
# 5 0.002404 0.006726 -0.003606 -0.005788 0.030860 0.003116
# 6 0.006455 0.000590 -0.001344 0.004485 0.003116 0.019659
#
#
# Mechanical properties :
#
#
# Convention : Reuss Voigt Hill
#
# Bulk Modulus (GPa) = 57.50805 82.56287 70.03546
# Shear Modulus (GPa) = 35.94953 51.21938 43.58446
#
# Velocity S-wave (km/s) = 3.60762 4.30617 3.97228
# Velocity P-wave (km/s) = 6.17843 7.39016 6.81129
#
# Compressibility (1/GPa) = 0.01738887
#
# Stress axis : x y z
#
# Youngs Moduli (GPa) = 69.08983 74.20908 190.10153
#
# Poissons Ratio (x) = 0.29178 0.43716
# Poissons Ratio (y) = 0.27165 0.31916
# Poissons Ratio (z) = 0.15888 0.12459
#
# Static dielectric constant tensor:
#      x y z
#    x 2.278520 0.001050 0.011340 
#    y 0.001050 2.094030 0.037150 
#    z 0.011340 0.037150 2.139820 
# 
# From -- ./inp_files/5801.got.cif
#   From: 2010.05.17/outbox.cif.g08.bks.cpg/sg2_3_cif.got.tgz:5801.got - 2010.06.03 11:33:40.
