data_PCOD9024552
_publ_section_title
;
Structure prediction by ZEFSAII (Michael W. Deem and Ramdas Pophale) SiO2 
 PCOD9024552
Probable space group: P -1
;
_chemical_formula_sum "Si O2"
_cell_formula_units_Z 16
_cell_length_a 8.785509
_cell_length_b 8.126894
_cell_length_c 20.105256
_cell_angle_alpha 42.474709
_cell_angle_beta 119.860681
_cell_angle_gamma 132.313061
_cell_volume 716.800992
_symmetry_space_group_name_H-M "P -1"
_symmetry_group_IT_number 2
_symmetry_cell_setting 'triclinic'
loop_
_space_group_symop_operation_xyz
x,y,z
-x,-y,-z
loop_
_atom_site_type_symbol
_atom_site_label
_atom_site_fract_x
_atom_site_fract_y
_atom_site_fract_z
Si Si1 0.831815 0.647341 0.982420
Si Si2 0.727709 0.251145 0.950460
Si Si3 0.946308 0.742212 0.614029
Si Si4 0.321953 0.741534 0.694863
Si Si5 0.614072 0.400487 0.741164
Si Si6 0.510204 0.213130 0.150336
Si Si7 0.348258 0.619250 0.448621
Si Si8 0.656505 0.340386 0.416887
O O1 0.798322 0.489889 0.951541
O O2 0.710493 0.817318 0.902369
O O3 0.689178 0.407943 0.078018
O O4 0.079948 0.801933 0.001493
O O5 0.692751 0.356824 0.841084
O O6 0.500000 0.000000 0.000000
O O7 0.790262 0.677457 0.658373
O O8 0.816766 0.479645 0.615028
O O9 0.146821 0.776137 0.680108
O O10 0.000000 0.000000 0.500000
O O11 0.406521 0.636661 0.803975
O O12 0.222274 0.627768 0.634036
O O13 0.515278 0.043355 0.627397
O O14 0.443828 0.482442 0.683964
O O15 0.531498 0.105676 0.770680
O O16 0.500000 0.500000 0.500000
O O17 0.256647 0.534881 0.528211
O O18 0.500000 0.000000 0.500000
#
# Coordination Sequence:
#
# PCOD9024552 Si02
#       8
#     2   2   2   2   2   2   2   2
#     4  10  24  45  70  98 141 176 226 286 354 406
#     4  11  23  46  70 104 138 177 225 289 348 420
#     4  12  23  38  67  95 126 182 227 279 342 402
#     4  11  22  39  61  93 130 167 226 276 338 404
#     4  12  23  42  69  97 133 182 230 278 345 410
#     4  11  22  44  69  99 135 187 227 287 340 418
#     4  11  19  40  62  87 129 168 223 279 324 404
#     4  10  22  40  65  91 133 180 217 286 338 389
#
# _framework density 22.321399
#
# number of rings (size 3 to 8) (size 9 to 14) (size 15 to 20)
#    0.000    1.000    5.000    2.250    0.000    1.000 
#    4.500    0.000    0.000    0.000    0.000    0.000 
#    0.000    0.000    0.000    0.000    0.000    0.000 
#
# Total GULP energy -89084.451921 kJ/mol
# GULP energy per Si atom -5567.778245 kJ/mol
# Density = 2.227059 g / cm^3
# Si number density = 22.321399 Si / 1000 Ang^3
#
#
#
# Elastic Constant Matrix: (Units=GPa)
#
#
# Indices 1 2 3 4 5 6 
#
# 1 87.4967 17.6257 22.6378 -0.1074 0.4344 18.5405
# 2 17.6257 44.4528 24.1647 16.9299 -7.9059 7.6331
# 3 22.6378 24.1647 73.0447 24.0709 -3.4102 3.1113
# 4 -0.1074 16.9299 24.0709 39.1434 -13.1074 -4.8800
# 5 0.4344 -7.9059 -3.4102 -13.1074 44.7864 13.1626
# 6 18.5405 7.6331 3.1113 -4.8800 13.1626 38.0494
#
#
#
# Elastic Compliance Matrix: (Units=1/GPa)
#
#
# Indices 1 2 3 4 5 6 
#
# 1 0.014577 -0.003600 -0.004339 0.004138 0.001914 -0.006157
# 2 -0.003600 0.033058 -0.006010 -0.009967 0.004632 -0.007267
# 3 -0.004339 -0.006010 0.020383 -0.010791 -0.003010 0.001311
# 4 0.004138 -0.009967 -0.010791 0.039590 0.008036 0.003163
# 5 0.001914 0.004632 -0.003010 0.008036 0.028299 -0.010374
# 6 -0.006157 -0.007267 0.001311 0.003163 -0.010374 0.034627
#
#
# Mechanical properties :
#
#
# Convention : Reuss Voigt Hill
#
# Bulk Modulus (GPa) = 24.92535 37.09452 31.00993
# Shear Modulus (GPa) = 23.60658 33.76689 28.68674
#
# Velocity S-wave (km/s) = 3.25557 3.89364 3.58881
# Velocity P-wave (km/s) = 5.03214 6.07193 5.57632
#
# Compressibility (1/GPa) = 0.04011979
#
# Stress axis : x y z
#
# Youngs Moduli (GPa) = 68.60105 30.25026 49.06010
#
# Poissons Ratio (x) = 0.10889 0.21287
# Poissons Ratio (y) = 0.24694 0.29487
# Poissons Ratio (z) = 0.29766 0.18182
#
# Static dielectric constant tensor:
#      x y z
#    x 1.733930 0.053460 0.015030 
#    y 0.053460 2.048940 -0.040840 
#    z 0.015030 -0.040840 1.814140 
# 
# From -- ./inp_files/587164.got.cif
#   From: 2010.05.17/outbox.cif.g08.bks.cpg/sg2_294_cif.got.tgz:587164.got - 2010.06.03 11:33:40.
