data_PCOD9024727
_publ_section_title
;
Structure prediction by ZEFSAII (Michael W. Deem and Ramdas Pophale) SiO2 
 PCOD9024727
Probable space group: P -1
;
_chemical_formula_sum "Si O2"
_cell_formula_units_Z 16
_cell_length_a 9.603509
_cell_length_b 13.747168
_cell_length_c 8.064731
_cell_angle_alpha 94.580872
_cell_angle_beta 74.795697
_cell_angle_gamma 41.515716
_cell_volume 614.230729
_symmetry_space_group_name_H-M "P -1"
_symmetry_group_IT_number 2
_symmetry_cell_setting 'triclinic'
loop_
_space_group_symop_operation_xyz
x,y,z
-x,-y,-z
loop_
_atom_site_type_symbol
_atom_site_label
_atom_site_fract_x
_atom_site_fract_y
_atom_site_fract_z
Si Si1 0.331822 0.554952 0.408575
Si Si2 0.896863 0.051392 0.268525
Si Si3 0.120651 0.276082 0.224187
Si Si4 0.725291 0.707380 0.132169
Si Si5 0.357775 0.759112 0.294296
Si Si6 0.004880 0.165729 0.023811
Si Si7 0.660456 0.934070 0.595906
Si Si8 0.091496 0.644288 0.206591
O O1 0.500000 0.500000 0.500000
O O2 0.335043 0.657820 0.324313
O O3 0.315111 0.496940 0.235943
O O4 0.133418 0.603848 0.590473
O O5 0.738402 0.138876 0.492842
O O6 0.865653 0.168400 0.191485
O O7 0.172876 0.890037 0.223880
O O8 0.844665 0.989490 0.157253
O O9 0.311729 0.168183 0.296799
O O10 0.160059 0.338727 0.089758
O O11 0.151703 0.160788 0.089620
O O12 0.628925 0.650047 0.171959
O O13 0.909050 0.658940 0.198148
O O14 0.474386 0.904372 0.250033
O O15 0.860119 0.313077 0.961424
O O16 0.922699 0.799109 0.410852
O O17 0.500000 0.000000 0.500000
#
# Coordination Sequence:
#
# PCOD9024727 Si02
#       8
#     2   2   2   2   2   2   2   2
#     4  11  23  43  64  77 110 164 212 242 284 345
#     4  10  20  31  57  86 132 152 181 244 293 361
#     4  10  20  36  56  84 119 154 198 237 290 355
#     4  10  20  32  58  86 120 147 184 245 299 355
#     4  11  21  37  58  89 118 158 198 233 299 349
#     4  10  17  31  53  85 118 153 178 232 301 348
#     4   9  17  30  51  84 121 160 182 217 290 372
#     4   9  19  36  56  83 119 153 198 234 287 359
#
# _framework density 26.048845
#
# number of rings (size 3 to 8) (size 9 to 14) (size 15 to 20)
#    0.000    2.000    2.500    1.875    3.500    3.000 
#    0.000    7.500    0.000    0.000    0.000    0.000 
#    0.000    0.000    0.000    0.000    0.000    0.000 
#
# Total GULP energy -89243.921550 kJ/mol
# GULP energy per Si atom -5577.745097 kJ/mol
# Density = 2.598956 g / cm^3
# Si number density = 26.048845 Si / 1000 Ang^3
#
#
#
# Elastic Constant Matrix: (Units=GPa)
#
#
# Indices 1 2 3 4 5 6 
#
# 1 115.4798 31.7576 57.2768 -24.5855 -28.7603 -20.4756
# 2 31.7576 62.7964 43.8914 -18.0672 -3.8253 -20.1067
# 3 57.2768 43.8914 132.9284 -31.3056 -17.5688 -16.1990
# 4 -24.5855 -18.0672 -31.3056 45.5975 -11.1019 17.6395
# 5 -28.7603 -3.8253 -17.5688 -11.1019 42.1295 -0.4419
# 6 -20.4756 -20.1067 -16.1990 17.6395 -0.4419 47.1340
#
#
#
# Elastic Compliance Matrix: (Units=1/GPa)
#
#
# Indices 1 2 3 4 5 6 
#
# 1 0.015274 -0.002690 -0.002141 0.007695 0.011338 0.001979
# 2 -0.002690 0.023635 -0.005878 0.000903 -0.001835 0.006539
# 3 -0.002141 -0.005878 0.012486 0.006975 0.005031 -0.001710
# 4 0.007695 0.000903 0.006975 0.038905 0.018409 -0.008262
# 5 0.011338 -0.001835 0.005031 0.018409 0.038252 -0.000659
# 6 0.001979 0.006539 -0.001710 -0.008262 -0.000659 0.027363
#
#
# Mechanical properties :
#
#
# Convention : Reuss Voigt Hill
#
# Bulk Modulus (GPa) = 33.35979 64.11736 48.73858
# Shear Modulus (GPa) = 26.69150 38.85746 32.77448
#
# Velocity S-wave (km/s) = 3.20452 3.86646 3.55095
# Velocity P-wave (km/s) = 5.15038 6.67836 5.96351
#
# Compressibility (1/GPa) = 0.02997620
#
# Stress axis : x y z
#
# Youngs Moduli (GPa) = 65.46971 42.31063 80.09170
#
# Poissons Ratio (x) = 0.11380 0.17151
# Poissons Ratio (y) = 0.17609 0.47079
# Poissons Ratio (z) = 0.14020 0.24871
#
# Static dielectric constant tensor:
#      x y z
#    x 2.047770 -0.043470 0.004650 
#    y -0.043470 2.390380 0.056420 
#    z 0.004650 0.056420 2.071390 
# 
# From -- ./inp_files/217467.got.cif
#   From: 2010.05.17/outbox.cif.g08.bks.cpg/sg2_109_cif.got.tgz:217467.got - 2010.06.03 11:33:40.
