data_PCOD9024562
_publ_section_title
;
Structure prediction by ZEFSAII (Michael W. Deem and Ramdas Pophale) SiO2 
 PCOD9024562
Probable space group: P -1
;
_chemical_formula_sum "Si O2"
_cell_formula_units_Z 16
_cell_length_a 8.884134
_cell_length_b 20.466527
_cell_length_c 5.416375
_cell_angle_alpha 118.489542
_cell_angle_beta 54.661552
_cell_angle_gamma 104.514716
_cell_volume 705.661608
_symmetry_space_group_name_H-M "P -1"
_symmetry_group_IT_number 2
_symmetry_cell_setting 'triclinic'
loop_
_space_group_symop_operation_xyz
x,y,z
-x,-y,-z
loop_
_atom_site_type_symbol
_atom_site_label
_atom_site_fract_x
_atom_site_fract_y
_atom_site_fract_z
Si Si1 0.196528 0.466264 0.839713
Si Si2 0.553120 0.311316 0.397555
Si Si3 0.534667 0.404230 0.097429
Si Si4 0.075194 0.795401 0.402049
Si Si5 0.774604 0.809283 0.082855
Si Si6 0.942019 0.084959 0.734285
Si Si7 0.149821 0.315256 0.858302
Si Si8 0.653031 0.181686 0.401919
O O1 0.327865 0.432123 0.431357
O O2 0.329730 0.527371 0.936282
O O3 0.148527 0.402580 0.968719
O O4 0.000000 0.500000 0.000000
O O5 0.605201 0.358459 0.193253
O O6 0.342916 0.290399 0.501385
O O7 0.648936 0.233837 0.255053
O O8 0.541744 0.359720 0.751144
O O9 0.024700 0.722886 0.163567
O O10 0.124304 0.873211 0.373589
O O11 0.223106 0.777710 0.441597
O O12 0.875372 0.817683 0.747097
O O13 0.825865 0.724817 0.973054
O O14 0.557131 0.823657 0.326181
O O15 0.886318 0.865835 0.251606
O O16 0.767334 0.104714 0.111228
O O17 0.000000 0.000000 0.500000
#
# Coordination Sequence:
#
# PCOD9024562 Si02
#       8
#     2   2   2   2   2   2   2   2
#     4  10  23  40  64  93 132 174 222 272 343 400
#     4  10  23  42  72  91 134 175 228 278 338 387
#     4  10  24  45  62  95 132 176 220 287 334 396
#     4  10  22  40  65  92 129 166 220 270 325 394
#     4   9  21  41  63  95 124 168 220 271 330 389
#     4  10  23  43  62  94 139 170 208 271 333 398
#     4   9  21  38  61  91 127 166 215 274 327 387
#     4  10  23  38  68  98 123 176 225 268 330 400
#
# _framework density 22.673759
#
# number of rings (size 3 to 8) (size 9 to 14) (size 15 to 20)
#    0.000    2.250    0.000    0.000   10.500   11.000 
#    0.000    6.875    0.000    0.000    0.000    0.000 
#    0.000    0.000    0.000    0.000    0.000    0.000 
#
# Total GULP energy -89243.732803 kJ/mol
# GULP energy per Si atom -5577.733300 kJ/mol
# Density = 2.262215 g / cm^3
# Si number density = 22.673759 Si / 1000 Ang^3
#
#
#
# Elastic Constant Matrix: (Units=GPa)
#
#
# Indices 1 2 3 4 5 6 
#
# 1 120.1044 30.0990 41.1687 12.4084 -23.7025 -3.6695
# 2 30.0990 101.4528 41.8810 16.7460 -5.3225 -7.2515
# 3 41.1687 41.8810 104.6198 16.1327 -17.7322 -8.4970
# 4 12.4084 16.7460 16.1327 35.7593 -2.9280 -8.6295
# 5 -23.7025 -5.3225 -17.7322 -2.9280 41.0750 -4.5261
# 6 -3.6695 -7.2515 -8.4970 -8.6295 -4.5261 28.8678
#
#
#
# Elastic Compliance Matrix: (Units=1/GPa)
#
#
# Indices 1 2 3 4 5 6 
#
# 1 0.010699 -0.001640 -0.002483 -0.001282 0.004864 0.000596
# 2 -0.001640 0.012544 -0.004008 -0.003470 -0.001240 0.000531
# 3 -0.002483 -0.004008 0.013376 -0.002365 0.003932 0.002524
# 4 -0.001282 -0.003470 -0.002365 0.033209 0.001079 0.008365
# 5 0.004864 -0.001240 0.003932 0.001079 0.029472 0.006407
# 6 0.000596 0.000531 0.002524 0.008365 0.006407 0.039098
#
#
# Mechanical properties :
#
#
# Convention : Reuss Voigt Hill
#
# Bulk Modulus (GPa) = 49.12385 61.38605 55.25495
# Shear Modulus (GPa) = 30.97043 35.34231 33.15637
#
# Velocity S-wave (km/s) = 3.69984 3.95236 3.82818
# Velocity P-wave (km/s) = 6.32173 6.92536 6.63042
#
# Compressibility (1/GPa) = 0.02035671
#
# Stress axis : x y z
#
# Youngs Moduli (GPa) = 93.46971 79.72231 74.75984
#
# Poissons Ratio (x) = 0.13071 0.18564
# Poissons Ratio (y) = 0.15325 0.29964
# Poissons Ratio (z) = 0.23210 0.31953
#
# Static dielectric constant tensor:
#      x y z
#    x 1.850970 -0.019950 0.007470 
#    y -0.019950 1.838120 -0.021270 
#    z 0.007470 -0.021270 1.952280 
# 
# From -- ./inp_files/51904.got.cif
#   From: 2010.05.17/outbox.cif.g08.bks.cpg/sg2_26_cif.got.tgz:51904.got - 2010.06.03 11:33:40.
