data_PCOD9024415
_publ_section_title
;
Structure prediction by ZEFSAII (Michael W. Deem and Ramdas Pophale) SiO2 
 PCOD9024415
Probable space group: P -1
;
_chemical_formula_sum "Si O2"
_cell_formula_units_Z 15
_cell_length_a 19.095848
_cell_length_b 17.099190
_cell_length_c 6.392716
_cell_angle_alpha 113.434943
_cell_angle_beta 111.356447
_cell_angle_gamma 21.276708
_cell_volume 694.839893
_symmetry_space_group_name_H-M "P -1"
_symmetry_group_IT_number 2
_symmetry_cell_setting 'triclinic'
loop_
_space_group_symop_operation_xyz
x,y,z
-x,-y,-z
loop_
_atom_site_type_symbol
_atom_site_label
_atom_site_fract_x
_atom_site_fract_y
_atom_site_fract_z
Si Si1 0.089095 0.831154 0.784719
Si Si2 0.163405 0.010272 0.600940
Si Si3 0.418653 0.491544 0.458175
Si Si4 0.018240 0.638820 0.424911
Si Si5 0.672455 0.702839 0.295048
Si Si6 0.151604 0.650046 0.048208
Si Si7 0.000000 0.500000 0.000000
Si Si8 0.233885 0.209723 0.378099
O O1 0.289309 0.638973 0.680530
O O2 0.931915 0.973601 0.588309
O O3 0.126257 0.715004 0.860487
O O4 0.000000 0.000000 0.000000
O O5 0.088387 0.164090 0.537622
O O6 0.057053 0.134751 0.838612
O O7 0.390830 0.764807 0.585418
O O8 0.500000 0.500000 0.500000
O O9 0.283671 0.579956 0.243757
O O10 0.902721 0.712340 0.564172
O O11 0.237115 0.418054 0.510385
O O12 0.001431 0.598236 0.160589
O O13 0.737562 0.735257 0.382101
O O14 0.442810 0.949499 0.299423
O O15 0.754188 0.542950 0.064931
O O16 0.857537 0.665625 0.807869
#
# Coordination Sequence:
#
# PCOD9024415 Si02
#       8
#     2   2   2   2   2   2   1   2
#     4  11  24  46  71  97 133 177 217 277 345 402
#     4  11  26  42  68 102 136 175 222 285 326 405
#     4  11  26  46  68 103 135 171 229 275 337 410
#     4  11  24  41  66  96 136 172 229 271 331 393
#     4  10  22  45  64  95 137 178 217 284 325 394
#     4  11  25  42  68  98 137 175 225 273 341 399
#     4  10  22  40  64  96 124 178 216 270 324 388
#     4  10  24  43  66  96 136 175 231 271 331 395
#
# _framework density 21.587707000000002
#
# number of rings (size 3 to 8) (size 9 to 14) (size 15 to 20)
#    0.000    1.333    1.333    3.200    7.467    5.333 
#    0.000    4.000    0.000    0.000    0.000    0.000 
#    0.000    0.000    0.000    0.000    0.000    0.000 
#
# Total GULP energy -83511.695125 kJ/mol
# GULP energy per Si atom -5567.446342 kJ/mol
# Density = 2.153857 g / cm^3
# Si number density = 21.587707 Si / 1000 Ang^3
#
#
#
# Elastic Constant Matrix: (Units=GPa)
#
#
# Indices 1 2 3 4 5 6 
#
# 1 75.2235 32.5081 43.4108 6.2618 -10.6908 4.1399
# 2 32.5081 138.0453 48.2818 7.3658 -4.3623 -12.8023
# 3 43.4108 48.2818 106.6740 18.4419 16.9971 -5.2517
# 4 6.2618 7.3658 18.4419 37.2806 7.1959 3.7159
# 5 -10.6908 -4.3623 16.9971 7.1959 38.1857 9.2660
# 6 4.1399 -12.8023 -5.2517 3.7159 9.2660 33.1190
#
#
#
# Elastic Compliance Matrix: (Units=1/GPa)
#
#
# Indices 1 2 3 4 5 6 
#
# 1 0.022862 -0.001972 -0.011030 0.000361 0.013228 -0.009110
# 2 -0.001972 0.009227 -0.003381 -0.000375 0.001365 0.002937
# 3 -0.011030 -0.003381 0.018598 -0.004966 -0.012536 0.007085
# 4 0.000361 -0.000375 -0.004966 0.030145 -0.002526 -0.003653
# 5 0.013228 0.001365 -0.012536 -0.002526 0.039469 -0.013873
# 6 -0.009110 0.002937 0.007085 -0.003653 -0.013873 0.037883
#
#
# Mechanical properties :
#
#
# Convention : Reuss Voigt Hill
#
# Bulk Modulus (GPa) = 55.80262 63.14936 59.47599
# Shear Modulus (GPa) = 25.39033 34.76655 30.07844
#
# Velocity S-wave (km/s) = 3.43322 4.01743 3.73676
# Velocity P-wave (km/s) = 6.45146 7.12991 6.79916
#
# Compressibility (1/GPa) = 0.01792031
#
# Stress axis : x y z
#
# Youngs Moduli (GPa) = 43.73983 108.38110 53.76894
#
# Poissons Ratio (x) = 0.21377 0.59305
# Poissons Ratio (y) = 0.08627 0.18182
# Poissons Ratio (z) = 0.48243 0.36649
#
# Static dielectric constant tensor:
#      x y z
#    x 1.869430 0.027390 0.006280 
#    y 0.027390 1.785890 0.006950 
#    z 0.006280 0.006950 1.833240 
# 
# From -- ./inp_files/120128.got.cif
#   From: 2010.05.17/outbox.cif.g08.bks.cpg/sg2_61_cif.got.tgz:120128.got - 2010.06.03 11:33:40.
