data_PCOD9024422
_publ_section_title
;
Structure prediction by ZEFSAII (Michael W. Deem and Ramdas Pophale) SiO2 
 PCOD9024422
Probable space group: P -1
;
_chemical_formula_sum "Si O2"
_cell_formula_units_Z 12
_cell_length_a 12.070003
_cell_length_b 12.088460
_cell_length_c 9.479118
_cell_angle_alpha 86.025857
_cell_angle_beta 81.452733
_cell_angle_gamma 22.965572
_cell_volume 525.413467
_symmetry_space_group_name_H-M "P -1"
_symmetry_group_IT_number 2
_symmetry_cell_setting 'triclinic'
loop_
_space_group_symop_operation_xyz
x,y,z
-x,-y,-z
loop_
_atom_site_type_symbol
_atom_site_label
_atom_site_fract_x
_atom_site_fract_y
_atom_site_fract_z
Si Si1 0.663598 0.195893 0.364247
Si Si2 0.154200 0.736633 0.622567
Si Si3 0.101485 0.257983 0.553738
Si Si4 0.472614 0.745435 0.209280
Si Si5 0.704903 0.716483 0.351826
Si Si6 0.687787 0.225794 0.037587
O O1 0.372756 0.497312 0.478978
O O2 0.607738 0.253967 0.203788
O O3 0.816881 0.938604 0.390077
O O4 0.875664 0.103969 0.373744
O O5 0.332217 0.533814 0.744953
O O6 0.832292 0.979120 0.670155
O O7 0.110315 0.339323 0.672921
O O8 0.831811 0.528780 0.476792
O O9 0.373296 0.046402 0.423726
O O10 0.665171 0.675851 0.225306
O O11 0.371498 0.815661 0.063605
O O12 0.500000 0.500000 0.000000
O O13 0.000000 0.000000 0.000000
#
# Coordination Sequence:
#
# PCOD9024422 Si02
#       6
#     2   2   2   2   2   2
#     4  11  24  43  66  98 135 170 222 270 326 390
#     4  11  25  38  66  97 134 163 225 271 326 380
#     4  10  22  40  65  95 129 170 214 282 318 384
#     4  12  22  44  63  97 132 176 212 271 326 395
#     4  10  22  40  64  96 129 166 222 269 335 371
#     4  12  25  44  62  92 138 180 212 258 336 400
#
# _framework density 22.839155000000002
#
# number of rings (size 3 to 8) (size 9 to 14) (size 15 to 20)
#    0.000    1.000    5.000    1.000    0.000    6.667 
#    0.000    0.833    0.000    0.000    0.000   11.667 
#    0.000    0.167    0.000    0.000    0.000    0.000 
#
# Total GULP energy -66997.983494 kJ/mol
# GULP energy per Si atom -5583.165291 kJ/mol
# Density = 2.278717 g / cm^3
# Si number density = 22.839155 Si / 1000 Ang^3
#
#
#
# Elastic Constant Matrix: (Units=GPa)
#
#
# Indices 1 2 3 4 5 6 
#
# 1 145.4891 35.5304 62.7059 -13.3378 49.4858 22.4520
# 2 35.5304 129.0724 18.4024 -22.4611 6.8807 1.2727
# 3 62.7059 18.4024 152.2507 -18.0670 42.2598 8.7072
# 4 -13.3378 -22.4611 -18.0670 25.0211 -3.2964 4.4288
# 5 49.4858 6.8807 42.2598 -3.2964 41.1097 -9.7806
# 6 22.4520 1.2727 8.7072 4.4288 -9.7806 43.8129
#
#
#
# Elastic Compliance Matrix: (Units=1/GPa)
#
#
# Indices 1 2 3 4 5 6 
#
# 1 0.020721 -0.002506 0.002626 0.009976 -0.030939 -0.018983
# 2 -0.002506 0.009618 0.000182 0.007576 0.001980 0.000645
# 3 0.002626 0.000182 0.011543 0.009207 -0.016272 -0.008208
# 4 0.009976 0.007576 0.009207 0.058998 -0.022319 -0.018108
# 5 -0.030939 0.001980 -0.016272 -0.022319 0.085796 0.040440
# 6 -0.018983 0.000645 -0.008208 -0.018108 0.040440 0.045023
#
#
# Mechanical properties :
#
#
# Convention : Reuss Voigt Hill
#
# Bulk Modulus (GPa) = 23.53695 73.34329 48.44012
# Shear Modulus (GPa) = 20.38680 42.66699 31.52690
#
# Velocity S-wave (km/s) = 2.99092 4.32690 3.71939
# Velocity P-wave (km/s) = 4.71756 7.55946 6.30083
#
# Compressibility (1/GPa) = 0.04248638
#
# Stress axis : x y z
#
# Youngs Moduli (GPa) = 48.26012 103.97266 86.63087
#
# Poissons Ratio (x) = 0.26053 -0.22748
# Poissons Ratio (y) = 0.12093 -0.01577
# Poissons Ratio (z) = -0.12672 -0.01893
#
# Static dielectric constant tensor:
#      x y z
#    x 2.046130 0.008230 0.100180 
#    y 0.008230 1.831080 0.011290 
#    z 0.100180 0.011290 1.920250 
# 
# From -- ./inp_files/313345.got.cif
#   From: 2010.05.17/outbox.cif.g08.bks.cpg/sg2_157_cif.got.tgz:313345.got - 2010.06.03 11:33:40.
