data_PCOD9024707
_publ_section_title
;
Structure prediction by ZEFSAII (Michael W. Deem and Ramdas Pophale) SiO2 
 PCOD9024707
Probable space group: P -1
;
_chemical_formula_sum "Si O2"
_cell_formula_units_Z 12
_cell_length_a 11.844326
_cell_length_b 8.734450
_cell_length_c 12.563170
_cell_angle_alpha 112.508215
_cell_angle_beta 22.665765
_cell_angle_gamma 112.106209
_cell_volume 461.722727
_symmetry_space_group_name_H-M "P -1"
_symmetry_group_IT_number 2
_symmetry_cell_setting 'triclinic'
loop_
_space_group_symop_operation_xyz
x,y,z
-x,-y,-z
loop_
_atom_site_type_symbol
_atom_site_label
_atom_site_fract_x
_atom_site_fract_y
_atom_site_fract_z
Si Si1 0.945983 0.895916 0.626857
Si Si2 0.479946 0.156169 0.780608
Si Si3 0.240181 0.170885 0.561570
Si Si4 0.870980 0.814230 0.094941
Si Si5 0.589386 0.630677 0.744625
Si Si6 0.968544 0.596843 0.776383
O O1 0.681758 0.769427 0.788057
O O2 0.238410 0.805310 0.380511
O O3 0.000000 0.000000 0.500000
O O4 0.953610 0.051026 0.743569
O O5 0.441748 0.202778 0.701468
O O6 0.202421 0.252237 0.089007
O O7 0.504728 0.959077 0.695321
O O8 0.177980 0.222316 0.749140
O O9 0.342046 0.299525 0.415565
O O10 0.054770 0.679821 0.837462
O O11 0.000000 0.000000 0.000000
O O12 0.268266 0.552390 0.026871
O O13 0.804272 0.480310 0.519555
#
# Coordination Sequence:
#
# PCOD9024707 Si02
#       6
#     2   2   2   2   2   2
#     4   8  18  40  67  94 129 177 223 268 330 400
#     4   8  20  39  62  97 121 179 222 260 330 390
#     4   9  20  41  69  91 133 182 220 270 327 396
#     4  10  22  40  66 100 132 174 233 269 329 402
#     4  11  23  46  63 103 141 168 223 277 336 398
#     4  10  26  40  68 101 133 178 217 280 342 379
#
# _framework density 25.989623999999999
#
# number of rings (size 3 to 8) (size 9 to 14) (size 15 to 20)
#    2.000    0.667    0.000    0.500    2.333    4.000 
#    3.000    4.167    0.000    0.000    0.000    0.000 
#    0.000    0.000    0.000    0.000    0.000    0.000 
#
# Total GULP energy -66895.894508 kJ/mol
# GULP energy per Si atom -5574.657876 kJ/mol
# Density = 2.593047 g / cm^3
# Si number density = 25.989624 Si / 1000 Ang^3
#
#
#
# Elastic Constant Matrix: (Units=GPa)
#
#
# Indices 1 2 3 4 5 6 
#
# 1 133.4247 18.2955 31.1226 -13.3442 18.8260 -0.3144
# 2 18.2955 82.2701 5.9675 -13.4331 -1.1458 10.3812
# 3 31.1226 5.9675 97.1531 -8.6326 17.8015 1.2245
# 4 -13.3442 -13.4331 -8.6326 19.6949 -2.2512 -9.0872
# 5 18.8260 -1.1458 17.8015 -2.2512 22.4734 -2.0287
# 6 -0.3144 10.3812 1.2245 -9.0872 -2.0287 46.4315
#
#
#
# Elastic Compliance Matrix: (Units=1/GPa)
#
#
# Indices 1 2 3 4 5 6 
#
# 1 0.009354 -0.001464 -0.001369 0.004497 -0.006282 0.001032
# 2 -0.001464 0.014045 -0.000154 0.008177 0.002755 -0.001425
# 3 -0.001369 -0.000154 0.012611 0.003530 -0.008496 0.000012
# 4 0.004497 0.008177 0.003530 0.066258 0.001497 0.011142
# 5 -0.006282 0.002755 -0.008496 0.001497 0.056992 0.002349
# 6 0.001032 -0.001425 0.000012 0.011142 0.002349 0.024146
#
#
# Mechanical properties :
#
#
# Convention : Reuss Voigt Hill
#
# Bulk Modulus (GPa) = 33.29314 47.06880 40.18097
# Shear Modulus (GPa) = 25.07626 34.88411 29.98019
#
# Velocity S-wave (km/s) = 3.10958 3.66762 3.40007
# Velocity P-wave (km/s) = 5.07254 6.00710 5.55949
#
# Compressibility (1/GPa) = 0.03003622
#
# Stress axis : x y z
#
# Youngs Moduli (GPa) = 106.91139 71.19802 79.29476
#
# Poissons Ratio (x) = 0.10425 0.10853
# Poissons Ratio (y) = 0.15655 0.01220
# Poissons Ratio (z) = 0.14633 0.01096
#
# Static dielectric constant tensor:
#      x y z
#    x 2.103340 -0.001620 -0.018210 
#    y -0.001620 2.077710 -0.064170 
#    z -0.018210 -0.064170 2.136580 
# 
# From -- ./inp_files/368777.got.cif
#   From: 2010.05.17/outbox.cif.g08.bks.cpg/sg2_185_cif.got.tgz:368777.got - 2010.06.03 11:33:40.
