data_PCOD9024406
_publ_section_title
;
Structure prediction by ZEFSAII (Michael W. Deem and Ramdas Pophale) SiO2 
 PCOD9024406
Probable space group: P -1
;
_chemical_formula_sum "Si O2"
_cell_formula_units_Z 16
_cell_length_a 9.417578
_cell_length_b 13.952413
_cell_length_c 5.390354
_cell_angle_alpha 84.741158
_cell_angle_beta 108.686228
_cell_angle_gamma 96.919065
_cell_volume 664.998637
_symmetry_space_group_name_H-M "P -1"
_symmetry_group_IT_number 2
_symmetry_cell_setting 'triclinic'
loop_
_space_group_symop_operation_xyz
x,y,z
-x,-y,-z
loop_
_atom_site_type_symbol
_atom_site_label
_atom_site_fract_x
_atom_site_fract_y
_atom_site_fract_z
Si Si1 0.617629 0.794109 0.327374
Si Si2 0.180184 0.367194 0.299026
Si Si3 0.709765 0.225622 0.656113
Si Si4 0.173550 0.663246 0.808137
Si Si5 0.964512 0.111013 0.939249
Si Si6 0.598437 0.653149 0.950131
Si Si7 0.649015 0.479415 0.333574
Si Si8 0.090451 0.106173 0.515692
O O1 0.729247 0.715042 0.498180
O O2 0.468645 0.796573 0.404143
O O3 0.729723 0.891512 0.389261
O O4 0.573999 0.755028 0.035874
O O5 0.232893 0.351258 0.051386
O O6 0.251209 0.473664 0.399411
O O7 0.005641 0.356453 0.265650
O O8 0.769900 0.267265 0.412351
O O9 0.794434 0.130424 0.788146
O O10 0.764082 0.296683 0.900296
O O11 0.242782 0.564751 0.793776
O O12 0.054194 0.155305 0.742310
O O13 0.024479 0.152788 0.224107
O O14 0.000000 0.000000 0.000000
O O15 0.481520 0.608605 0.684449
O O16 0.571870 0.570929 0.163705
O O17 0.000000 0.000000 0.500000
#
# Coordination Sequence:
#
# PCOD9024406 Si02
#       8
#     2   2   2   2   2   2   2   2
#     4  11  24  41  67  99 137 180 232 276 343 410
#     4  11  24  39  67  94 134 190 233 283 340 396
#     4  12  26  44  67 102 137 179 225 284 339 405
#     4  12  27  42  67 100 140 178 235 284 335 395
#     4  10  22  45  70  99 134 172 216 275 342 410
#     4  10  22  40  64  95 132 188 229 284 340 398
#     4  10  22  41  60  96 136 183 232 287 336 395
#     4  10  23  44  73 102 134 171 219 279 342 412
#
# _framework density 24.060198
#
# number of rings (size 3 to 8) (size 9 to 14) (size 15 to 20)
#    0.000    1.250    1.250    3.750    8.750    0.500 
#    0.000    5.000    0.000    0.000    0.000    0.000 
#    0.000    0.000    0.000    0.000    0.000    0.000 
#
# Total GULP energy -89321.363202 kJ/mol
# GULP energy per Si atom -5582.585200 kJ/mol
# Density = 2.400544 g / cm^3
# Si number density = 24.060198 Si / 1000 Ang^3
#
#
#
# Elastic Constant Matrix: (Units=GPa)
#
#
# Indices 1 2 3 4 5 6 
#
# 1 211.1689 32.1545 42.2173 -1.5196 12.8327 30.5618
# 2 32.1545 84.0482 20.2621 13.0746 12.0556 10.0563
# 3 42.2173 20.2621 109.1561 -2.2825 -13.9221 26.1206
# 4 -1.5196 13.0746 -2.2825 20.1748 2.8334 12.6323
# 5 12.8327 12.0556 -13.9221 2.8334 41.3886 2.7857
# 6 30.5618 10.0563 26.1206 12.6323 2.7857 39.0949
#
#
#
# Elastic Compliance Matrix: (Units=1/GPa)
#
#
# Indices 1 2 3 4 5 6 
#
# 1 0.006115 -0.002113 -0.000791 0.005279 -0.001551 -0.005304
# 2 -0.002113 0.015909 -0.004253 -0.013462 -0.004831 0.005095
# 3 -0.000791 -0.004253 0.014042 0.010640 0.006256 -0.011553
# 4 0.005279 -0.013462 0.010640 0.080870 0.002622 -0.034091
# 5 -0.001551 -0.004831 0.006256 0.002622 0.028283 -0.004587
# 6 -0.005304 0.005095 -0.011553 -0.034091 -0.004587 0.047475
#
#
# Mechanical properties :
#
#
# Convention : Reuss Voigt Hill
#
# Bulk Modulus (GPa) = 45.97254 65.96014 55.96634
# Shear Modulus (GPa) = 23.33625 40.78094 32.05859
#
# Velocity S-wave (km/s) = 3.11772 4.12145 3.65421
# Velocity P-wave (km/s) = 5.66648 7.07973 6.41216
#
# Compressibility (1/GPa) = 0.02175212
#
# Stress axis : x y z
#
# Youngs Moduli (GPa) = 163.52424 62.85760 71.21640
#
# Poissons Ratio (x) = 0.13281 0.05635
# Poissons Ratio (y) = 0.34552 0.30286
# Poissons Ratio (z) = 0.12939 0.26732
#
# Static dielectric constant tensor:
#      x y z
#    x 1.960360 -0.117590 -0.023720 
#    y -0.117590 3.188450 0.163510 
#    z -0.023720 0.163510 2.082560 
# 
# From -- ./inp_files/39032.got.cif
#   From: 2010.05.17/outbox.cif.g08.bks.cpg/sg2_20_cif.got.tgz:39032.got - 2010.06.03 11:33:40.
