data_PCOD9024442
_publ_section_title
;
Structure prediction by ZEFSAII (Michael W. Deem and Ramdas Pophale) SiO2 
 PCOD9024442
Probable space group: P -1
;
_chemical_formula_sum "Si O2"
_cell_formula_units_Z 16
_cell_length_a 14.846960
_cell_length_b 8.986065
_cell_length_c 7.196213
_cell_angle_alpha 126.103539
_cell_angle_beta 118.104595
_cell_angle_gamma 83.126928
_cell_volume 667.234350
_symmetry_space_group_name_H-M "P -1"
_symmetry_group_IT_number 2
_symmetry_cell_setting 'triclinic'
loop_
_space_group_symop_operation_xyz
x,y,z
-x,-y,-z
loop_
_atom_site_type_symbol
_atom_site_label
_atom_site_fract_x
_atom_site_fract_y
_atom_site_fract_z
Si Si1 0.826945 0.242365 0.794756
Si Si2 0.637139 0.660893 0.186919
Si Si3 0.408222 0.695268 0.386192
Si Si4 0.866272 0.862828 0.424136
Si Si5 0.479822 0.924518 0.134361
Si Si6 0.011572 0.713394 0.737663
Si Si7 0.348432 0.567990 0.626747
Si Si8 0.125205 0.382516 0.101701
O O1 0.704038 0.241447 0.677341
O O2 0.887895 0.443452 0.916774
O O3 0.853586 0.076867 0.573651
O O4 0.869785 0.213512 0.021614
O O5 0.758930 0.744965 0.325075
O O6 0.567242 0.807618 0.179659
O O7 0.623460 0.588172 0.329051
O O8 0.603183 0.474636 0.891599
O O9 0.415500 0.612581 0.538245
O O10 0.498377 0.883105 0.585163
O O11 0.961749 0.827008 0.618537
O O12 0.870898 0.781705 0.162829
O O13 0.371191 0.767429 0.907776
O O14 0.500000 0.000000 0.000000
O O15 0.948383 0.701162 0.860899
O O16 0.000000 0.500000 0.500000
O O17 0.232398 0.482952 0.382042
#
# Coordination Sequence:
#
# PCOD9024442 Si02
#       8
#     2   2   2   2   2   2   2   2
#     4  11  23  43  66  97 134 171 223 271 323 392
#     4  12  21  42  68  91 134 175 214 271 330 381
#     4  10  22  43  65  94 131 174 216 269 333 383
#     4  12  24  43  68  95 135 180 214 275 328 385
#     4  10  23  42  67  96 132 170 222 270 322 397
#     4  12  24  45  72  98 133 174 219 271 332 390
#     4  10  22  40  64  97 127 170 219 268 319 392
#     4  11  24  46  65  98 135 172 221 266 334 387
#
# _framework density 23.979579000000001
#
# number of rings (size 3 to 8) (size 9 to 14) (size 15 to 20)
#    0.000    1.000    6.250    1.125    0.000    3.000 
#    2.250    5.000    0.000    0.000    0.000    0.000 
#    0.000    0.000    0.000    0.000    0.000    0.000 
#
# Total GULP energy -89535.696570 kJ/mol
# GULP energy per Si atom -5595.981036 kJ/mol
# Density = 2.392500 g / cm^3
# Si number density = 23.979579 Si / 1000 Ang^3
#
#
#
# Elastic Constant Matrix: (Units=GPa)
#
#
# Indices 1 2 3 4 5 6 
#
# 1 64.6119 27.7241 32.4343 -3.4159 -8.9860 -1.9778
# 2 27.7241 95.4628 38.1477 -13.7103 -10.5758 -9.6641
# 3 32.4343 38.1477 129.8911 9.9005 -0.1441 -15.4976
# 4 -3.4159 -13.7103 9.9005 40.0808 -13.6647 -10.7863
# 5 -8.9860 -10.5758 -0.1441 -13.6647 22.7803 3.6679
# 6 -1.9778 -9.6641 -15.4976 -10.7863 3.6679 32.5577
#
#
#
# Elastic Compliance Matrix: (Units=1/GPa)
#
#
# Indices 1 2 3 4 5 6 
#
# 1 0.020696 -0.002071 -0.005115 0.005686 0.010761 -0.001121
# 2 -0.002071 0.016952 -0.004798 0.013011 0.013964 0.005359
# 3 -0.005115 -0.004798 0.011191 -0.007288 -0.008897 0.002180
# 4 0.005686 0.013011 -0.007288 0.046685 0.034253 0.012346
# 5 0.010761 0.013964 -0.008897 0.034253 0.074550 0.003513
# 6 -0.001121 0.005359 0.002180 0.012346 0.003513 0.036969
#
#
# Mechanical properties :
#
#
# Convention : Reuss Voigt Hill
#
# Bulk Modulus (GPa) = 40.20801 54.06423 47.13612
# Shear Modulus (GPa) = 20.89403 31.86109 26.37756
#
# Velocity S-wave (km/s) = 2.95503 3.64906 3.32022
# Velocity P-wave (km/s) = 5.33356 6.35209 5.86498
#
# Compressibility (1/GPa) = 0.02487067
#
# Stress axis : x y z
#
# Youngs Moduli (GPa) = 48.31790 58.98861 89.35871
#
# Poissons Ratio (x) = 0.12219 0.45705
# Poissons Ratio (y) = 0.10009 0.42877
# Poissons Ratio (z) = 0.24713 0.28304
#
# Static dielectric constant tensor:
#      x y z
#    x 1.931640 -0.012070 0.038400 
#    y -0.012070 1.899130 -0.008640 
#    z 0.038400 -0.008640 1.953180 
# 
# From -- ./inp_files/329667.got.cif
#   From: 2010.05.17/outbox.cif.g08.bks.cpg/sg2_165_cif.got.tgz:329667.got - 2010.06.03 11:33:40.
