data_PCOD9024640
_publ_section_title
;
Structure prediction by ZEFSAII (Michael W. Deem and Ramdas Pophale) SiO2 
 PCOD9024640
Probable space group: P -1
;
_chemical_formula_sum "Si O2"
_cell_formula_units_Z 16
_cell_length_a 18.013263
_cell_length_b 11.976864
_cell_length_c 8.528701
_cell_angle_alpha 65.296884
_cell_angle_beta 129.528019
_cell_angle_gamma 150.374310
_cell_volume 655.882289
_symmetry_space_group_name_H-M "P -1"
_symmetry_group_IT_number 2
_symmetry_cell_setting 'triclinic'
loop_
_space_group_symop_operation_xyz
x,y,z
-x,-y,-z
loop_
_atom_site_type_symbol
_atom_site_label
_atom_site_fract_x
_atom_site_fract_y
_atom_site_fract_z
Si Si1 0.044871 0.911590 0.554099
Si Si2 0.367565 0.714534 0.839153
Si Si3 0.892030 0.379335 0.592963
Si Si4 0.735094 0.280543 0.976209
Si Si5 0.844529 0.874327 0.741787
Si Si6 0.842881 0.616068 0.745622
Si Si7 0.442475 0.296817 0.017313
Si Si8 0.749948 0.975023 0.769903
O O1 0.896512 0.679118 0.599620
O O2 0.053437 0.929277 0.368551
O O3 0.250888 0.091736 0.778928
O O4 0.000000 0.000000 0.500000
O O5 0.245270 0.657755 0.586609
O O6 0.285970 0.656207 0.934868
O O7 0.396133 0.603372 0.909694
O O8 0.575558 0.003348 0.937448
O O9 0.772273 0.124505 0.614372
O O10 0.000000 0.500000 0.500000
O O11 0.061724 0.562860 0.838564
O O12 0.720710 0.362631 0.770111
O O13 0.767839 0.666539 0.675665
O O14 0.710980 0.817576 0.694629
O O15 0.000000 0.000000 0.000000
O O16 0.043345 0.818900 0.990467
O O17 0.500000 0.500000 0.000000
O O18 0.395482 0.184474 0.188273
#
# Coordination Sequence:
#
# PCOD9024640 Si02
#       8
#     2   2   2   2   2   2   2   2
#     4   9  19  40  61  93 130 165 224 269 328 403
#     4  10  22  40  65  95 134 174 224 281 325 398
#     4   9  19  40  64  93 127 168 222 273 337 391
#     4   9  19  39  66  96 128 170 225 277 333 398
#     4   9  17  32  63  95 126 166 213 279 326 389
#     4   8  16  34  61  92 129 163 216 271 334 394
#     4  11  25  44  61  91 143 178 217 277 335 388
#     4   9  19  37  61  90 131 170 224 268 320 410
#
# _framework density 24.394621000000001
#
# number of rings (size 3 to 8) (size 9 to 14) (size 15 to 20)
#    0.000    2.750    0.000    0.750    1.750    3.500 
#   18.000    7.500    0.000    0.000    0.000    0.000 
#    0.000    0.000    0.000    0.000    0.000    0.000 
#
# Total GULP energy -89474.644033 kJ/mol
# GULP energy per Si atom -5592.165252 kJ/mol
# Density = 2.433910 g / cm^3
# Si number density = 24.394621 Si / 1000 Ang^3
#
#
#
# Elastic Constant Matrix: (Units=GPa)
#
#
# Indices 1 2 3 4 5 6 
#
# 1 85.1735 -2.6293 55.2419 2.5697 20.2125 -10.2877
# 2 -2.6293 46.7950 36.9680 -21.3673 2.2625 4.5060
# 3 55.2419 36.9680 110.6271 -28.1221 4.4567 5.6274
# 4 2.5697 -21.3673 -28.1221 42.6007 11.1240 -0.8092
# 5 20.2125 2.2625 4.4567 11.1240 42.8379 -8.3685
# 6 -10.2877 4.5060 5.6274 -0.8092 -8.3685 30.0305
#
#
#
# Elastic Compliance Matrix: (Units=1/GPa)
#
#
# Indices 1 2 3 4 5 6 
#
# 1 0.029761 0.015828 -0.021633 -0.005504 -0.009421 0.009101
# 2 0.015828 0.042658 -0.019033 0.010620 -0.010510 -0.000054
# 3 -0.021633 -0.019033 0.028929 0.009642 0.004020 -0.008596
# 4 -0.005504 0.010620 0.009642 0.038035 -0.010233 -0.007113
# 5 -0.009421 -0.010510 0.004020 -0.010233 0.031790 0.006180
# 6 0.009101 -0.000054 -0.008596 -0.007113 0.006180 0.039567
#
#
# Mechanical properties :
#
#
# Convention : Reuss Voigt Hill
#
# Bulk Modulus (GPa) = 19.35286 46.86187 33.10737
# Shear Modulus (GPa) = 18.00903 33.29481 25.65192
#
# Velocity S-wave (km/s) = 2.72000 3.69839 3.24626
# Velocity P-wave (km/s) = 4.22078 6.12283 5.25852
#
# Compressibility (1/GPa) = 0.05167195
#
# Stress axis : x y z
#
# Youngs Moduli (GPa) = 33.60091 23.44239 34.56795
#
# Poissons Ratio (x) = -0.37105 0.74781
# Poissons Ratio (y) = -0.53184 0.65792
# Poissons Ratio (z) = 0.72689 0.44617
#
# Static dielectric constant tensor:
#      x y z
#    x 1.905900 0.003160 -0.028950 
#    y 0.003160 1.951510 0.039110 
#    z -0.028950 0.039110 1.947000 
# 
# From -- ./inp_files/333065.got.cif
#   From: 2010.05.17/outbox.cif.g08.bks.cpg/sg2_167_cif.got.tgz:333065.got - 2010.06.03 11:33:40.
