data_PCOD9024682
_publ_section_title
;
Structure prediction by ZEFSAII (Michael W. Deem and Ramdas Pophale) SiO2 
 PCOD9024682
Probable space group: P -1
;
_chemical_formula_sum "Si O2"
_cell_formula_units_Z 16
_cell_length_a 11.228143
_cell_length_b 5.771428
_cell_length_c 15.173869
_cell_angle_alpha 123.412995
_cell_angle_beta 58.062987
_cell_angle_gamma 127.352352
_cell_volume 623.681980
_symmetry_space_group_name_H-M "P -1"
_symmetry_group_IT_number 2
_symmetry_cell_setting 'triclinic'
loop_
_space_group_symop_operation_xyz
x,y,z
-x,-y,-z
loop_
_atom_site_type_symbol
_atom_site_label
_atom_site_fract_x
_atom_site_fract_y
_atom_site_fract_z
Si Si1 0.746656 0.459052 0.087830
Si Si2 0.914693 0.052429 0.928243
Si Si3 0.272483 0.767600 0.295014
Si Si4 0.366312 0.606897 0.069260
Si Si5 0.415274 0.235856 0.667513
Si Si6 0.177318 0.025261 0.553616
Si Si7 0.624343 0.382874 0.458811
Si Si8 0.865462 0.905748 0.718682
O O1 0.632375 0.545500 0.210503
O O2 0.904511 0.785613 0.078050
O O3 0.822355 0.235444 0.043214
O O4 0.654886 0.301386 0.001425
O O5 0.804771 0.687682 0.908616
O O6 0.925193 0.096000 0.826510
O O7 0.405895 0.844095 0.184768
O O8 0.255664 0.432546 0.267985
O O9 0.249961 0.910245 0.423735
O O10 0.171012 0.883244 0.292559
O O11 0.500000 0.500000 0.000000
O O12 0.278725 0.086851 0.615415
O O13 0.578057 0.356763 0.574416
O O14 0.405523 0.923142 0.647799
O O15 0.204485 0.361253 0.577183
O O16 0.999187 0.832784 0.607337
O O17 0.500000 0.500000 0.500000
#
# Coordination Sequence:
#
# PCOD9024682 Si02
#       8
#     2   2   2   2   2   2   2   2
#     4  11  22  44  71 100 135 182 242 293 356 420
#     4  10  23  44  70 101 137 179 241 297 350 422
#     4  11  26  44  68 101 143 181 236 290 351 429
#     4  11  26  44  66 102 140 191 231 290 361 427
#     4  10  22  40  65  98 130 180 233 293 352 417
#     4  11  23  39  68  96 132 181 226 291 360 421
#     4   9  22  40  59  93 134 171 229 285 346 422
#     4  11  23  45  68 105 138 180 235 293 354 421
#
# _framework density 25.654101000000001
#
# number of rings (size 3 to 8) (size 9 to 14) (size 15 to 20)
#    0.000    1.500    2.500    1.125    3.500    6.500 
#    2.250    0.000    0.000    0.000    0.000    0.000 
#    0.000    0.000    0.000    0.000    0.000    0.000 
#
# Total GULP energy -89139.017156 kJ/mol
# GULP energy per Si atom -5571.188572 kJ/mol
# Density = 2.559571 g / cm^3
# Si number density = 25.654101 Si / 1000 Ang^3
#
#
#
# Elastic Constant Matrix: (Units=GPa)
#
#
# Indices 1 2 3 4 5 6 
#
# 1 89.3137 9.2468 31.1474 -11.5361 2.9368 -18.0531
# 2 9.2468 70.4760 1.1826 13.1588 -1.2101 -1.5713
# 3 31.1474 1.1826 180.4233 12.7534 -3.4904 -13.9746
# 4 -11.5361 13.1588 12.7534 18.7580 -10.6030 -3.6988
# 5 2.9368 -1.2101 -3.4904 -10.6030 37.1230 0.2699
# 6 -18.0531 -1.5713 -13.9746 -3.6988 0.2699 21.6250
#
#
#
# Elastic Compliance Matrix: (Units=1/GPa)
#
#
# Indices 1 2 3 4 5 6 
#
# 1 0.020230 -0.007052 -0.003798 0.026579 0.005270 0.018403
# 2 -0.007052 0.019253 0.002112 -0.023696 -0.005332 -0.007110
# 3 -0.003798 0.002112 0.006802 -0.009437 -0.001685 -0.000214
# 4 0.026579 -0.023696 -0.009437 0.115790 0.029064 0.033811
# 5 0.005270 -0.005332 -0.001685 0.029064 0.034435 0.007465
# 6 0.018403 -0.007110 -0.000214 0.033811 0.007465 0.066641
#
#
# Mechanical properties :
#
#
# Convention : Reuss Voigt Hill
#
# Bulk Modulus (GPa) = 34.70951 47.04073 40.87512
# Shear Modulus (GPa) = 17.22766 35.41028 26.31897
#
# Velocity S-wave (km/s) = 2.59421 3.71927 3.20647
# Velocity P-wave (km/s) = 4.74683 6.06797 5.44760
#
# Compressibility (1/GPa) = 0.02881054
#
# Stress axis : x y z
#
# Youngs Moduli (GPa) = 49.43033 51.93910 147.01247
#
# Poissons Ratio (x) = 0.36630 0.55831
# Poissons Ratio (y) = 0.34860 -0.31055
# Poissons Ratio (z) = 0.18772 -0.10972
#
# Static dielectric constant tensor:
#      x y z
#    x 2.107230 -0.067410 0.092180 
#    y -0.067410 2.275930 0.019160 
#    z 0.092180 0.019160 2.039680 
# 
# From -- ./inp_files/511234.got.cif
#   From: 2010.05.17/outbox.cif.g08.bks.cpg/sg2_256_cif.got.tgz:511234.got - 2010.06.03 11:33:40.
