data_PCOD9024530
_publ_section_title
;
Structure prediction by ZEFSAII (Michael W. Deem and Ramdas Pophale) SiO2 
 PCOD9024530
Probable space group: P -1
;
_chemical_formula_sum "Si O2"
_cell_formula_units_Z 14
_cell_length_a 28.713634
_cell_length_b 16.369024
_cell_length_c 16.080036
_cell_angle_alpha 18.811047
_cell_angle_beta 161.883091
_cell_angle_gamma 161.568946
_cell_volume 660.959059
_symmetry_space_group_name_H-M "P -1"
_symmetry_group_IT_number 2
_symmetry_cell_setting 'triclinic'
loop_
_space_group_symop_operation_xyz
x,y,z
-x,-y,-z
loop_
_atom_site_type_symbol
_atom_site_label
_atom_site_fract_x
_atom_site_fract_y
_atom_site_fract_z
Si Si1 0.687076 0.038358 0.284335
Si Si2 0.586043 0.177225 0.717803
Si Si3 0.097821 0.404340 0.822569
Si Si4 0.677743 0.178267 0.680269
Si Si5 0.093027 0.129307 0.622862
Si Si6 0.746682 0.835846 0.414813
Si Si7 0.751412 0.886814 0.724650
O O1 0.823715 0.377689 0.178646
O O2 0.718299 0.851911 0.448962
O O3 0.718147 0.972877 0.493633
O O4 0.500000 0.000000 0.000000
O O5 0.631344 0.161776 0.714632
O O6 0.691068 0.509151 0.608141
O O7 0.389903 0.107504 0.462713
O O8 0.633575 0.964565 0.055084
O O9 0.000000 0.500000 0.500000
O O10 0.247897 0.405686 0.019434
O O11 0.944513 0.088923 0.891797
O O12 0.786520 0.521885 0.512359
O O13 0.500000 0.000000 0.500000
O O14 0.794624 0.024916 0.016192
O O15 0.000000 0.000000 0.500000
O O16 0.940401 0.038808 0.517119
#
# Coordination Sequence:
#
# PCOD9024530 Si02
#       7
#     2   2   2   2   2   2   2
#     4  11  22  39  63  97 131 171 223 276 321 396
#     4  12  24  43  68 101 132 178 220 279 349 400
#     4   9  21  41  58  87 131 179 221 267 336 388
#     4  12  26  47  73 105 138 177 232 290 347 412
#     4  12  23  48  73  98 139 182 224 288 346 411
#     4  12  26  40  71 102 131 177 230 272 340 407
#     4  10  22  40  65  88 137 178 215 277 332 400
#
# _framework density 21.181342000000001
#
# number of rings (size 3 to 8) (size 9 to 14) (size 15 to 20)
#    0.000    0.857    4.286    2.571    4.000    2.286 
#    7.714    0.000    0.000    0.000    0.000    0.000 
#    0.000    0.000    0.000    0.000    0.000    0.000 
#
# Total GULP energy -78192.983103 kJ/mol
# GULP energy per Si atom -5585.213079 kJ/mol
# Density = 2.113313 g / cm^3
# Si number density = 21.181342 Si / 1000 Ang^3
#
#
#
# Elastic Constant Matrix: (Units=GPa)
#
#
# Indices 1 2 3 4 5 6 
#
# 1 65.4403 9.3097 3.3585 6.3349 24.6478 4.9861
# 2 9.3097 116.7238 34.9299 4.3062 -1.6141 -11.2152
# 3 3.3585 34.9299 128.6773 2.0709 24.3954 -0.3951
# 4 6.3349 4.3062 2.0709 36.9930 6.9538 6.4237
# 5 24.6478 -1.6141 24.3954 6.9538 32.9119 7.7770
# 6 4.9861 -11.2152 -0.3951 6.4237 7.7770 33.2647
#
#
#
# Elastic Compliance Matrix: (Units=1/GPa)
#
#
# Indices 1 2 3 4 5 6 
#
# 1 0.023415 -0.003415 0.004289 0.000038 -0.020957 0.000282
# 2 -0.003415 0.010405 -0.003744 -0.001990 0.005540 0.003065
# 3 0.004289 -0.003744 0.010920 0.001196 -0.011928 0.000782
# 4 0.000038 -0.001990 0.001196 0.029171 -0.006021 -0.004888
# 5 -0.020957 0.005540 -0.011928 -0.006021 0.058258 -0.007590
# 6 0.000282 0.003065 0.000782 -0.004888 -0.007590 0.033781
#
#
# Mechanical properties :
#
#
# Convention : Reuss Voigt Hill
#
# Bulk Modulus (GPa) = 25.64081 45.11530 35.37806
# Shear Modulus (GPa) = 27.07243 38.18347 32.62795
#
# Velocity S-wave (km/s) = 3.57897 4.25042 3.92906
# Velocity P-wave (km/s) = 5.40466 6.74047 6.10918
#
# Compressibility (1/GPa) = 0.03900032
#
# Stress axis : x y z
#
# Youngs Moduli (GPa) = 42.70727 96.11215 91.57260
#
# Poissons Ratio (x) = 0.32826 -0.39280
# Poissons Ratio (y) = 0.14586 0.34285
# Poissons Ratio (z) = -0.18319 0.35984
#
# Static dielectric constant tensor:
#      x y z
#    x 1.742950 0.081580 -0.086470 
#    y 0.081580 2.133020 -0.464310 
#    z -0.086470 -0.464310 2.387480 
# 
# From -- ./inp_files/34081.got.cif
#   From: 2010.05.17/outbox.cif.g08.bks.cpg/sg2_18_cif.got.tgz:34081.got - 2010.06.03 11:33:40.
