data_PCOD9024891
_publ_section_title
;
Structure prediction by ZEFSAII (Michael W. Deem and Ramdas Pophale) SiO2 
 PCOD9024891
Probable space group: P -1
;
_chemical_formula_sum "Si O2"
_cell_formula_units_Z 16
_cell_length_a 6.422253
_cell_length_b 17.092395
_cell_length_c 7.889088
_cell_angle_alpha 54.651229
_cell_angle_beta 79.273598
_cell_angle_gamma 73.379608
_cell_volume 676.601100
_symmetry_space_group_name_H-M "P -1"
_symmetry_group_IT_number 2
_symmetry_cell_setting 'triclinic'
loop_
_space_group_symop_operation_xyz
x,y,z
-x,-y,-z
loop_
_atom_site_type_symbol
_atom_site_label
_atom_site_fract_x
_atom_site_fract_y
_atom_site_fract_z
Si Si1 0.402830 0.610322 0.320002
Si Si2 0.999537 0.721080 0.046559
Si Si3 0.409996 0.967808 0.881439
Si Si4 0.193580 0.161789 0.572022
Si Si5 0.651678 0.550074 0.029779
Si Si6 0.010833 0.644591 0.755537
Si Si7 0.146028 0.077898 0.329446
Si Si8 0.450716 0.229273 0.744921
O O1 0.500000 0.500000 0.500000
O O2 0.160327 0.652279 0.238301
O O3 0.533393 0.616058 0.117183
O O4 0.450342 0.676565 0.383956
O O5 0.765061 0.738597 0.148098
O O6 0.036040 0.668399 0.922282
O O7 0.005898 0.835859 0.868158
O O8 0.616950 0.969010 0.726543
O O9 0.194715 0.051090 0.772487
O O10 0.393546 0.857456 0.062504
O O11 0.500000 0.000000 0.000000
O O12 0.998671 0.257803 0.475825
O O13 0.219612 0.138635 0.398445
O O14 0.378601 0.192290 0.622331
O O15 0.824664 0.455554 0.194215
O O16 0.500000 0.500000 0.000000
O O17 0.776840 0.616388 0.817366
O O18 0.000000 0.000000 0.500000
#
# Coordination Sequence:
#
# PCOD9024891 Si02
#       8
#     2   2   2   2   2   2   2   2
#     4  12  27  40  64  96 123 173 222 264 323 382
#     4  10  22  44  61  92 132 169 208 265 330 378
#     4   9  20  43  66  93 128 173 207 252 336 392
#     4  10  22  40  66  95 124 171 212 254 325 389
#     4  11  23  41  63  88 126 164 217 266 323 376
#     4  10  22  41  64  90 124 167 209 271 318 377
#     4  10  22  40  67 101 129 163 216 271 317 384
#     4  10  23  44  62  89 139 170 209 266 322 390
#
# _framework density 23.647611999999999
#
# number of rings (size 3 to 8) (size 9 to 14) (size 15 to 20)
#    0.000    1.750    2.500    0.375    5.250    1.500 
#    4.500    1.875    0.000    0.000    0.000    0.000 
#    0.000    0.000    0.000    0.000    0.000    0.000 
#
# Total GULP energy -89146.034304 kJ/mol
# GULP energy per Si atom -5571.627144 kJ/mol
# Density = 2.359379 g / cm^3
# Si number density = 23.647612 Si / 1000 Ang^3
#
#
#
# Elastic Constant Matrix: (Units=GPa)
#
#
# Indices 1 2 3 4 5 6 
#
# 1 40.3967 36.6810 34.6751 -4.3733 6.1509 12.2279
# 2 36.6810 118.5917 27.6997 -5.8009 3.5096 7.7454
# 3 34.6751 27.6997 96.8328 -36.0926 27.0367 -2.4544
# 4 -4.3733 -5.8009 -36.0926 55.6738 -5.3938 8.5296
# 5 6.1509 3.5096 27.0367 -5.3938 40.6978 1.5197
# 6 12.2279 7.7454 -2.4544 8.5296 1.5197 41.1639
#
#
#
# Elastic Compliance Matrix: (Units=1/GPa)
#
#
# Indices 1 2 3 4 5 6 
#
# 1 0.057791 -0.012247 -0.022620 -0.008492 0.006773 -0.014702
# 2 -0.012247 0.011859 0.001396 0.000980 -0.000017 0.001288
# 3 -0.022620 0.001396 0.026887 0.013669 -0.012965 0.005706
# 4 -0.008492 0.000980 0.013669 0.026161 -0.004336 -0.002107
# 5 0.006773 -0.000017 -0.012965 -0.004336 0.031702 -0.003054
# 6 -0.014702 0.001288 0.005706 -0.002107 -0.003054 0.029308
#
#
# Mechanical properties :
#
#
# Convention : Reuss Voigt Hill
#
# Bulk Modulus (GPa) = 33.79013 50.43697 42.11355
# Shear Modulus (GPa) = 19.19276 37.95814 28.57545
#
# Velocity S-wave (km/s) = 2.85198 4.01079 3.47996
# Velocity P-wave (km/s) = 5.01648 6.54396 5.83046
#
# Compressibility (1/GPa) = 0.02959444
#
# Stress axis : x y z
#
# Youngs Moduli (GPa) = 17.30371 84.32623 37.19230
#
# Poissons Ratio (x) = 1.03277 0.84129
# Poissons Ratio (y) = 0.21192 -0.05192
# Poissons Ratio (z) = 0.39141 -0.11772
#
# Static dielectric constant tensor:
#      x y z
#    x 1.988420 0.004020 0.060090 
#    y 0.004020 1.895390 -0.035510 
#    z 0.060090 -0.035510 2.089670 
# 
# From -- ./inp_files/138535.got.cif
#   From: 2010.05.17/outbox.cif.g08.bks.cpg/sg2_70_cif.got.tgz:138535.got - 2010.06.03 11:33:40.
