data_PCOD9024338
_publ_section_title
;
Structure prediction by ZEFSAII (Michael W. Deem and Ramdas Pophale) SiO2 
 PCOD9024338
Probable space group: P -1
;
_chemical_formula_sum "Si O2"
_cell_formula_units_Z 16
_cell_length_a 8.428311
_cell_length_b 6.006230
_cell_length_c 23.822512
_cell_angle_alpha 63.153501
_cell_angle_beta 53.781497
_cell_angle_gamma 44.651891
_cell_volume 682.729330
_symmetry_space_group_name_H-M "P -1"
_symmetry_group_IT_number 2
_symmetry_cell_setting 'triclinic'
loop_
_space_group_symop_operation_xyz
x,y,z
-x,-y,-z
loop_
_atom_site_type_symbol
_atom_site_label
_atom_site_fract_x
_atom_site_fract_y
_atom_site_fract_z
Si Si1 0.840882 0.021399 0.479477
Si Si2 0.138574 0.596479 0.729815
Si Si3 0.560639 0.414432 0.228709
Si Si4 0.007172 0.197024 0.850897
Si Si5 0.568251 0.191775 0.894647
Si Si6 0.355954 0.303865 0.606304
Si Si7 0.942675 0.261151 0.648015
Si Si8 0.711685 0.522629 0.974967
O O1 0.615745 0.039553 0.551488
O O2 0.721696 0.359984 0.437047
O O3 0.004311 0.760975 0.426964
O O4 0.000000 0.000000 0.500000
O O5 0.264849 0.609918 0.756949
O O6 0.974464 0.490415 0.794726
O O7 0.347091 0.337142 0.671413
O O8 0.989735 0.936140 0.692471
O O9 0.469810 0.702861 0.173245
O O10 0.330230 0.464312 0.302708
O O11 0.723039 0.108354 0.189938
O O12 0.797408 0.176504 0.872566
O O13 0.964658 0.253710 0.920214
O O14 0.636694 0.853450 0.930199
O O15 0.320167 0.443143 0.955332
O O16 0.147250 0.270683 0.635044
O O17 0.500000 0.500000 0.000000
#
# Coordination Sequence:
#
# PCOD9024338 Si02
#       8
#     2   2   2   2   2   2   2   2
#     4  10  22  40  64  93 124 160 207 257 308 365
#     4  11  24  41  61  89 125 162 206 255 310 368
#     4  12  24  37  62  94 122 160 209 256 306 371
#     4  11  23  41  63  90 126 163 205 256 310 370
#     4  10  22  43  65  90 124 163 208 256 311 369
#     4  10  22  41  63  89 123 164 206 255 309 365
#     4  11  24  42  64  91 127 166 205 254 312 369
#     4   9  20  41  66  89 123 165 204 256 313 368
#
# _framework density 23.435348999999999
#
# number of rings (size 3 to 8) (size 9 to 14) (size 15 to 20)
#    0.000    1.500    0.000    4.875    0.000    8.000 
#    0.000    8.750    0.000    0.000    0.000    0.000 
#    0.000    0.000    0.000    0.000    0.000    0.000 
#
# Total GULP energy -89541.300694 kJ/mol
# GULP energy per Si atom -5596.331293 kJ/mol
# Density = 2.338201 g / cm^3
# Si number density = 23.435349 Si / 1000 Ang^3
#
#
#
# Elastic Constant Matrix: (Units=GPa)
#
#
# Indices 1 2 3 4 5 6 
#
# 1 41.8129 8.5282 31.2612 16.6284 -7.7326 13.3302
# 2 8.5282 75.4686 57.4606 27.4602 -16.5006 12.3877
# 3 31.2612 57.4606 189.9558 49.5061 0.6585 8.3562
# 4 16.6284 27.4602 49.5061 57.1663 10.1773 -4.0016
# 5 -7.7326 -16.5006 0.6585 10.1773 47.2954 -8.3707
# 6 13.3302 12.3877 8.3562 -4.0016 -8.3707 23.8666
#
#
#
# Elastic Compliance Matrix: (Units=1/GPa)
#
#
# Indices 1 2 3 4 5 6 
#
# 1 0.043120 0.012292 -0.004925 -0.017985 0.010296 -0.028144
# 2 0.012292 0.026925 -0.005536 -0.015001 0.011640 -0.017335
# 3 -0.004925 -0.005536 0.008398 -0.002718 -0.001998 0.001527
# 4 -0.017985 -0.015001 -0.002718 0.035897 -0.012230 0.020512
# 5 0.010296 0.011640 -0.001998 -0.012230 0.029023 -0.002964
# 6 -0.028144 -0.017335 0.001527 0.020512 -0.002964 0.068481
#
#
# Mechanical properties :
#
#
# Convention : Reuss Voigt Hill
#
# Bulk Modulus (GPa) = 12.17951 55.74861 33.96406
# Shear Modulus (GPa) = 21.22692 39.66482 30.44587
#
# Velocity S-wave (km/s) = 3.01286 4.11849 3.60827
# Velocity P-wave (km/s) = 4.16070 6.81585 5.64656
#
# Compressibility (1/GPa) = 0.08210512
#
# Stress axis : x y z
#
# Youngs Moduli (GPa) = 23.19105 37.13997 119.08274
#
# Poissons Ratio (x) = -0.45652 0.58647
# Poissons Ratio (y) = -0.28506 0.65923
# Poissons Ratio (z) = 0.11421 0.20560
#
# Static dielectric constant tensor:
#      x y z
#    x 1.806170 -0.012260 0.001070 
#    y -0.012260 1.932150 0.042500 
#    z 0.001070 0.042500 1.905950 
# 
# From -- ./inp_files/13742.got.cif
#   From: 2010.05.17/outbox.cif.g08.bks.cpg/sg2_7_cif.got.tgz:13742.got - 2010.06.03 11:33:40.
