data_PCOD9024506
_publ_section_title
;
Structure prediction by ZEFSAII (Michael W. Deem and Ramdas Pophale) SiO2 
 PCOD9024506
Probable space group: P -1
;
_chemical_formula_sum "Si O2"
_cell_formula_units_Z 14
_cell_length_a 9.034642
_cell_length_b 5.090252
_cell_length_c 17.591246
_cell_angle_alpha 112.730080
_cell_angle_beta 52.732430
_cell_angle_gamma 85.399337
_cell_volume 536.663256
_symmetry_space_group_name_H-M "P -1"
_symmetry_group_IT_number 2
_symmetry_cell_setting 'triclinic'
loop_
_space_group_symop_operation_xyz
x,y,z
-x,-y,-z
loop_
_atom_site_type_symbol
_atom_site_label
_atom_site_fract_x
_atom_site_fract_y
_atom_site_fract_z
Si Si1 0.070867 0.352250 0.833968
Si Si2 0.149035 0.936452 0.215549
Si Si3 0.822007 0.300502 0.045801
Si Si4 0.170591 0.946351 0.379389
Si Si5 0.393986 0.333395 0.155165
Si Si6 0.293314 0.457178 0.654410
Si Si7 0.421640 0.203782 0.426560
O O1 0.047817 0.060814 0.766678
O O2 0.232830 0.404079 0.846422
O O3 0.086279 0.556994 0.780455
O O4 0.895574 0.408376 0.958259
O O5 0.082600 0.060827 0.335774
O O6 0.300999 0.566900 0.139089
O O7 0.294305 0.091030 0.158875
O O8 0.636708 0.212014 0.073561
O O9 0.000000 0.000000 0.000000
O O10 0.305773 0.575537 0.280707
O O11 0.301390 0.120897 0.389522
O O12 0.000000 0.000000 0.500000
O O13 0.276886 0.395398 0.563384
O O14 0.445999 0.625035 0.629794
O O15 0.421498 0.115913 0.616703
#
# Coordination Sequence:
#
# PCOD9024506 Si02
#       7
#     2   2   2   2   2   2   2
#     4  11  26  46  70 107 140 187 249 297 361 430
#     4  10  26  45  72 103 144 191 229 302 359 430
#     4  11  28  46  75 105 139 194 246 306 361 424
#     4  10  23  43  71 103 141 191 234 289 354 435
#     4  10  26  47  69 104 145 186 237 293 362 424
#     4  10  23  41  67  99 141 182 227 295 346 421
#     4  10  22  40  65 104 137 184 229 285 353 417
#
# _framework density 26.087121
#
# number of rings (size 3 to 8) (size 9 to 14) (size 15 to 20)
#    0.857    0.857    0.000    1.714   12.000    1.714 
#    5.143    0.000    0.000    0.000    0.000    0.000 
#    0.000    0.000    0.000    0.000    0.000    0.000 
#
# Total GULP energy -78188.261284 kJ/mol
# GULP energy per Si atom -5584.875806 kJ/mol
# Density = 2.602775 g / cm^3
# Si number density = 26.087121 Si / 1000 Ang^3
#
#
#
# Elastic Constant Matrix: (Units=GPa)
#
#
# Indices 1 2 3 4 5 6 
#
# 1 149.6248 61.9746 76.1794 -19.8844 27.2529 36.5701
# 2 61.9746 192.4401 54.5959 -54.3038 -8.7837 34.1057
# 3 76.1794 54.5959 136.2376 -30.7102 3.2433 15.2806
# 4 -19.8844 -54.3038 -30.7102 40.7134 15.2370 -13.2636
# 5 27.2529 -8.7837 3.2433 15.2370 37.5298 15.6383
# 6 36.5701 34.1057 15.2806 -13.2636 15.6383 48.0785
#
#
#
# Elastic Compliance Matrix: (Units=1/GPa)
#
#
# Indices 1 2 3 4 5 6 
#
# 1 0.012891 -0.001888 -0.005465 0.001754 -0.008607 -0.003445
# 2 -0.001888 0.009179 -0.000004 0.010528 0.000173 -0.002226
# 3 -0.005465 -0.000004 0.011854 0.007815 -0.001494 0.003034
# 4 0.001754 0.010528 0.007815 0.062475 -0.031613 0.016232
# 5 -0.008607 0.000173 -0.001494 -0.031613 0.053975 -0.019379
# 6 -0.003445 -0.002226 0.003034 0.016232 -0.019379 0.034816
#
#
# Mechanical properties :
#
#
# Convention : Reuss Voigt Hill
#
# Bulk Modulus (GPa) = 52.05572 95.97803 74.01688
# Shear Modulus (GPa) = 24.23583 44.30117 34.26850
#
# Velocity S-wave (km/s) = 3.05131 4.12539 3.62832
# Velocity P-wave (km/s) = 5.69315 7.71771 6.78141
#
# Compressibility (1/GPa) = 0.01921018
#
# Stress axis : x y z
#
# Youngs Moduli (GPa) = 77.57612 108.94729 84.35815
#
# Poissons Ratio (x) = 0.20574 0.46098
# Poissons Ratio (y) = 0.14650 0.00031
# Poissons Ratio (z) = 0.42392 0.00041
#
# Static dielectric constant tensor:
#      x y z
#    x 2.015050 -0.077700 -0.035100 
#    y -0.077700 2.151800 0.155190 
#    z -0.035100 0.155190 2.245280 
# 
# From -- ./inp_files/552161.got.cif
#   From: 2010.05.17/outbox.cif.g08.bks.cpg/sg2_277_cif.got.tgz:552161.got - 2010.06.03 11:33:40.
