data_PCOD9024714
_publ_section_title
;
Structure prediction by ZEFSAII (Michael W. Deem and Ramdas Pophale) SiO2 
 PCOD9024714
Probable space group: P -1
;
_chemical_formula_sum "Si O2"
_cell_formula_units_Z 16
_cell_length_a 11.658579
_cell_length_b 14.093141
_cell_length_c 11.216059
_cell_angle_alpha 121.148032
_cell_angle_beta 128.518415
_cell_angle_gamma 31.159822
_cell_volume 745.505235
_symmetry_space_group_name_H-M "P -1"
_symmetry_group_IT_number 2
_symmetry_cell_setting 'triclinic'
loop_
_space_group_symop_operation_xyz
x,y,z
-x,-y,-z
loop_
_atom_site_type_symbol
_atom_site_label
_atom_site_fract_x
_atom_site_fract_y
_atom_site_fract_z
Si Si1 0.001847 0.605613 0.653829
Si Si2 0.691976 0.980813 0.644546
Si Si3 0.811256 0.048197 0.990384
Si Si4 0.630150 0.473635 0.450721
Si Si5 0.055746 0.098774 0.588167
Si Si6 0.142611 0.722913 0.173592
Si Si7 0.455914 0.220408 0.426348
Si Si8 0.393273 0.455016 0.967896
O O1 0.260988 0.461505 0.786963
O O2 0.000000 0.500000 0.500000
O O3 0.941214 0.760182 0.654014
O O4 0.777243 0.717420 0.670334
O O5 0.500000 0.000000 0.500000
O O6 0.696336 0.027440 0.811131
O O7 0.613702 0.120071 0.587259
O O8 0.607883 0.255964 0.034384
O O9 0.000000 0.000000 0.000000
O O10 0.967037 0.910343 0.110688
O O11 0.500000 0.500000 0.500000
O O12 0.426344 0.582173 0.287486
O O13 0.646872 0.596026 0.549752
O O14 0.884738 0.255498 0.477120
O O15 0.978042 0.209637 0.730654
O O16 0.339532 0.938132 0.638663
O O17 0.000000 0.000000 0.500000
O O18 0.184154 0.601903 0.025507
O O19 0.500000 0.500000 0.000000
#
# Coordination Sequence:
#
# PCOD9024714 Si02
#       8
#     2   2   2   2   2   2   2   2
#     4  11  25  44  68 105 142 184 232 283 353 423
#     4  10  22  42  66  98 138 178 226 274 344 424
#     4  12  23  41  67 100 137 176 223 286 358 407
#     4  10  22  40  66 100 136 173 239 282 340 403
#     4  11  24  42  69 102 136 185 236 291 344 411
#     4  11  24  40  64 100 138 172 233 286 346 405
#     4  11  23  42  70  97 141 181 236 282 346 404
#     4  12  25  41  67  98 142 182 222 289 354 411
#
# _framework density 21.461955
#
# number of rings (size 3 to 8) (size 9 to 14) (size 15 to 20)
#    0.000    1.000    5.000    2.250    5.250    0.000 
#    0.000    0.625    0.000    3.750    0.000    0.000 
#    0.000    0.000    0.000    0.000    0.000    0.000 
#
# Total GULP energy -89205.498593 kJ/mol
# GULP energy per Si atom -5575.343662 kJ/mol
# Density = 2.141311 g / cm^3
# Si number density = 21.461955 Si / 1000 Ang^3
#
#
#
# Elastic Constant Matrix: (Units=GPa)
#
#
# Indices 1 2 3 4 5 6 
#
# 1 88.5399 39.0494 26.1132 -1.2113 -3.9737 2.3142
# 2 39.0494 170.3076 23.0973 -18.0800 -5.1191 18.8008
# 3 26.1132 23.0973 91.8922 -9.1823 1.1883 4.7288
# 4 -1.2113 -18.0800 -9.1823 43.8706 3.1380 -10.3198
# 5 -3.9737 -5.1191 1.1883 3.1380 28.0488 -5.5012
# 6 2.3142 18.8008 4.7288 -10.3198 -5.5012 47.5091
#
#
#
# Elastic Compliance Matrix: (Units=1/GPa)
#
#
# Indices 1 2 3 4 5 6 
#
# 1 0.013578 -0.002835 -0.003352 -0.001465 0.001847 0.000690
# 2 -0.002835 0.007082 -0.000651 0.002193 0.000263 -0.002093
# 3 -0.003352 -0.000651 0.012262 0.002194 -0.001455 -0.000491
# 4 -0.001465 0.002193 0.002194 0.025252 -0.001892 0.004251
# 5 0.001847 0.000263 -0.001455 -0.001892 0.036985 0.003823
# 6 0.000690 -0.002093 -0.000491 0.004251 0.003823 0.023258
#
#
# Mechanical properties :
#
#
# Convention : Reuss Voigt Hill
#
# Bulk Modulus (GPa) = 51.95770 58.58438 55.27104
# Shear Modulus (GPa) = 36.09921 41.38436 38.74178
#
# Velocity S-wave (km/s) = 4.10568 4.39597 4.25330
# Velocity P-wave (km/s) = 6.83646 7.28849 7.06609
#
# Compressibility (1/GPa) = 0.01924643
#
# Stress axis : x y z
#
# Youngs Moduli (GPa) = 73.64867 141.20827 81.55443
#
# Poissons Ratio (x) = 0.40030 0.27335
# Poissons Ratio (y) = 0.20878 0.05309
# Poissons Ratio (z) = 0.24685 0.09193
#
# Static dielectric constant tensor:
#      x y z
#    x 1.801760 0.023770 -0.021190 
#    y 0.023770 1.773660 0.004730 
#    z -0.021190 0.004730 1.852450 
# 
# From -- ./inp_files/433142.got.cif
#   From: 2010.05.17/outbox.cif.g08.bks.cpg/sg2_217_cif.got.tgz:433142.got - 2010.06.03 11:33:40.
