data_PCOD9024845
_publ_section_title
;
Structure prediction by ZEFSAII (Michael W. Deem and Ramdas Pophale) SiO2 
 PCOD9024845
Probable space group: P -1
;
_chemical_formula_sum "Si O2"
_cell_formula_units_Z 16
_cell_length_a 7.761868
_cell_length_b 18.190690
_cell_length_c 19.730753
_cell_angle_alpha 159.091832
_cell_angle_beta 125.333903
_cell_angle_gamma 44.913385
_cell_volume 662.560917
_symmetry_space_group_name_H-M "P -1"
_symmetry_group_IT_number 2
_symmetry_cell_setting 'triclinic'
loop_
_space_group_symop_operation_xyz
x,y,z
-x,-y,-z
loop_
_atom_site_type_symbol
_atom_site_label
_atom_site_fract_x
_atom_site_fract_y
_atom_site_fract_z
Si Si1 0.613255 0.069968 0.212422
Si Si2 0.664361 0.697993 0.276497
Si Si3 0.090865 0.343354 0.967415
Si Si4 0.048568 0.275557 0.268393
Si Si5 0.276871 0.648032 0.324009
Si Si6 0.906509 0.658825 0.821145
Si Si7 0.828620 0.169030 0.681396
Si Si8 0.546590 0.418647 0.325149
O O1 0.512932 0.357288 0.445406
O O2 0.358062 0.069799 0.160482
O O3 0.797770 0.902299 0.171633
O O4 0.778118 0.929962 0.062189
O O5 0.434089 0.660728 0.191380
O O6 0.862231 0.549864 0.257050
O O7 0.500000 0.000000 0.500000
O O8 0.833512 0.573155 0.141242
O O9 0.007258 0.271470 0.818944
O O10 0.284394 0.423132 0.094571
O O11 0.854713 0.217891 0.208913
O O12 0.000000 0.500000 0.500000
O O13 0.001985 0.356869 0.248326
O O14 0.280336 0.801055 0.393577
O O15 0.467050 0.542532 0.338426
O O16 0.001565 0.875723 0.488403
O O17 0.663295 0.636658 0.750952
#
# Coordination Sequence:
#
# PCOD9024845 Si02
#       8
#     2   2   2   2   2   2   2   2
#     4  10  22  40  66  93 127 165 215 264 317 380
#     4  11  21  39  62  91 124 163 213 250 309 382
#     4  11  21  39  61  86 125 165 204 260 310 374
#     4  10  24  43  68 100 125 165 220 264 317 390
#     4  11  21  38  59  90 122 164 207 256 315 375
#     4  11  23  44  68  94 132 168 210 268 320 376
#     4  11  22  36  60  87 125 166 204 258 316 365
#     4  11  21  43  69  88 133 167 207 267 326 371
#
# _framework density 24.148721999999999
#
# number of rings (size 3 to 8) (size 9 to 14) (size 15 to 20)
#    0.000    1.250    5.000    1.875    0.000    2.500 
#    0.000    2.500    0.000    0.000    0.000    0.000 
#    0.000    0.000    0.000    0.000    0.000    0.000 
#
# Total GULP energy -89216.690366 kJ/mol
# GULP energy per Si atom -5576.043148 kJ/mol
# Density = 2.409376 g / cm^3
# Si number density = 24.148722 Si / 1000 Ang^3
#
#
#
# Elastic Constant Matrix: (Units=GPa)
#
#
# Indices 1 2 3 4 5 6 
#
# 1 106.0720 29.5223 38.5400 -2.3573 -15.3851 -10.7773
# 2 29.5223 95.7778 39.2232 -2.4459 -9.9297 10.8900
# 3 38.5400 39.2232 113.5569 -12.9882 -10.2913 5.7231
# 4 -2.3573 -2.4459 -12.9882 37.0644 -5.7986 -6.0748
# 5 -15.3851 -9.9297 -10.2913 -5.7986 34.6148 -8.0672
# 6 -10.7773 10.8900 5.7231 -6.0748 -8.0672 35.4160
#
#
#
# Elastic Compliance Matrix: (Units=1/GPa)
#
#
# Indices 1 2 3 4 5 6 
#
# 1 0.012924 -0.002882 -0.003018 0.001635 0.005910 0.006933
# 2 -0.002882 0.013271 -0.003499 -0.001247 0.000215 -0.004557
# 3 -0.003018 -0.003499 0.011653 0.003792 0.001588 -0.000713
# 4 0.001635 -0.001247 0.003792 0.030873 0.008411 0.007480
# 5 0.005910 0.000215 0.001588 0.008411 0.036053 0.011131
# 6 0.006933 -0.004557 -0.000713 0.007480 0.011131 0.035681
#
#
# Mechanical properties :
#
#
# Convention : Reuss Voigt Hill
#
# Bulk Modulus (GPa) = 52.49320 58.88641 55.68981
# Shear Modulus (GPa) = 30.19301 35.29376 32.74339
#
# Velocity S-wave (km/s) = 3.53979 3.82713 3.68626
# Velocity P-wave (km/s) = 6.20415 6.63076 6.42100
#
# Compressibility (1/GPa) = 0.01905009
#
# Stress axis : x y z
#
# Youngs Moduli (GPa) = 77.37486 75.35419 85.81765
#
# Poissons Ratio (x) = 0.21715 0.25897
# Poissons Ratio (y) = 0.22297 0.30030
# Poissons Ratio (z) = 0.23349 0.26368
#
# Static dielectric constant tensor:
#      x y z
#    x 2.094940 -0.008850 0.054280 
#    y -0.008850 1.938670 -0.011550 
#    z 0.054280 -0.011550 1.958710 
# 
# From -- ./inp_files/591723.got.cif
#   From: 2010.05.17/outbox.cif.g08.bks.cpg/sg2_296_cif.got.tgz:591723.got - 2010.06.03 11:33:40.
