data_PCOD9024777
_publ_section_title
;
Structure prediction by ZEFSAII (Michael W. Deem and Ramdas Pophale) SiO2 
 PCOD9024777
Probable space group: P -1
;
_chemical_formula_sum "Si O2"
_cell_formula_units_Z 16
_cell_length_a 9.826723
_cell_length_b 11.984232
_cell_length_c 8.202140
_cell_angle_alpha 114.276110
_cell_angle_beta 63.372445
_cell_angle_gamma 90.775809
_cell_volume 769.660786
_symmetry_space_group_name_H-M "P -1"
_symmetry_group_IT_number 2
_symmetry_cell_setting 'triclinic'
loop_
_space_group_symop_operation_xyz
x,y,z
-x,-y,-z
loop_
_atom_site_type_symbol
_atom_site_label
_atom_site_fract_x
_atom_site_fract_y
_atom_site_fract_z
Si Si1 0.658910 0.931737 0.158403
Si Si2 0.855853 0.014648 0.806904
Si Si3 0.949408 0.427783 0.634058
Si Si4 0.168948 0.455184 0.792726
Si Si5 0.832659 0.191684 0.432094
Si Si6 0.215323 0.324715 0.984246
Si Si7 0.309369 0.991516 0.449084
Si Si8 0.133731 0.728408 0.896289
O O1 0.676832 0.782876 0.037159
O O2 0.480439 0.001116 0.305871
O O3 0.723632 0.939925 0.315128
O O4 0.747541 0.982731 0.993785
O O5 0.799729 0.983474 0.637630
O O6 0.862274 0.161591 0.910453
O O7 0.023516 0.927320 0.700759
O O8 0.886607 0.307003 0.554325
O O9 0.000000 0.500000 0.500000
O O10 0.108716 0.394988 0.631286
O O11 0.814819 0.534752 0.847169
O O12 0.268105 0.348420 0.786870
O O13 0.218987 0.586486 0.812368
O O14 0.000000 0.500000 0.000000
O O15 0.693688 0.149821 0.576316
O O16 0.803929 0.227077 0.280025
O O17 0.044896 0.285877 0.050224
#
# Coordination Sequence:
#
# PCOD9024777 Si02
#       8
#     2   2   2   2   2   2   2   2
#     4  11  23  47  58  84 124 160 201 239 305 355
#     4  12  23  39  65  88 121 156 198 249 303 350
#     4  10  17  31  53  88 117 147 191 237 293 343
#     4   8  18  30  51  84 115 152 184 236 290 344
#     4  12  21  36  59  95 123 146 201 256 290 348
#     4  10  20  36  60  81 120 161 190 239 295 357
#     4  11  27  38  62  90 118 160 199 249 294 360
#     4  10  18  35  58  88 121 150 188 248 300 334
#
# _framework density 20.788378999999999
#
# number of rings (size 3 to 8) (size 9 to 14) (size 15 to 20)
#    0.000    1.750    5.000    1.875    7.000    0.000 
#    0.000    0.625    0.000    0.750    0.000    0.000 
#    0.000    0.000    0.000    0.000    0.000    0.000 
#
# Total GULP energy -89108.995910 kJ/mol
# GULP energy per Si atom -5569.312244 kJ/mol
# Density = 2.074106 g / cm^3
# Si number density = 20.788379 Si / 1000 Ang^3
#
#
#
# Elastic Constant Matrix: (Units=GPa)
#
#
# Indices 1 2 3 4 5 6 
#
# 1 25.8609 7.6748 12.8993 -3.4265 5.4243 8.0262
# 2 7.6748 89.9347 13.0303 -3.3023 10.7750 7.9709
# 3 12.8993 13.0303 50.0331 -14.4131 10.5765 9.5765
# 4 -3.4265 -3.3023 -14.4131 41.9701 4.7469 11.9798
# 5 5.4243 10.7750 10.5765 4.7469 26.2973 -2.3223
# 6 8.0262 7.9709 9.5765 11.9798 -2.3223 21.7396
#
#
#
# Elastic Compliance Matrix: (Units=1/GPa)
#
#
# Indices 1 2 3 4 5 6 
#
# 1 0.053140 0.000592 -0.000845 0.014175 -0.015981 -0.028982
# 2 0.000592 0.012760 0.001219 0.004865 -0.007507 -0.008917
# 3 -0.000845 0.001219 0.038720 0.025641 -0.023514 -0.033833
# 4 0.014175 0.004865 0.025641 0.051689 -0.028966 -0.049890
# 5 -0.015981 -0.007507 -0.023514 -0.028966 0.062765 0.041678
# 6 -0.028982 -0.008917 -0.033833 -0.049890 0.041678 0.106817
#
#
# Mechanical properties :
#
#
# Convention : Reuss Voigt Hill
#
# Bulk Modulus (GPa) = 9.38516 25.89306 17.63911
# Shear Modulus (GPa) = 13.90911 26.81635 20.36273
#
# Velocity S-wave (km/s) = 2.58947 3.59551 3.13313
# Velocity P-wave (km/s) = 3.66945 5.45156 4.64674
#
# Compressibility (1/GPa) = 0.10655116
#
# Stress axis : x y z
#
# Youngs Moduli (GPa) = 18.81835 78.36772 25.82648
#
# Poissons Ratio (x) = -0.04636 0.02183
# Poissons Ratio (y) = -0.01113 -0.03149
# Poissons Ratio (z) = 0.01591 -0.09557
#
# Static dielectric constant tensor:
#      x y z
#    x 1.846520 -0.015400 0.080300 
#    y -0.015400 1.769010 -0.007920 
#    z 0.080300 -0.007920 1.821490 
# 
# From -- ./inp_files/181244.got.cif
#   From: 2010.05.17/outbox.cif.g08.bks.cpg/sg2_91_cif.got.tgz:181244.got - 2010.06.03 11:33:40.
