data_PCOD9024353
_publ_section_title
;
Structure prediction by ZEFSAII (Michael W. Deem and Ramdas Pophale) SiO2 
 PCOD9024353
Probable space group: P -1
;
_chemical_formula_sum "Si O2"
_cell_formula_units_Z 16
_cell_length_a 16.545839
_cell_length_b 13.493950
_cell_length_c 9.373668
_cell_angle_alpha 134.423025
_cell_angle_beta 134.145945
_cell_angle_gamma 33.596332
_cell_volume 792.251049
_symmetry_space_group_name_H-M "P -1"
_symmetry_group_IT_number 2
_symmetry_cell_setting 'triclinic'
loop_
_space_group_symop_operation_xyz
x,y,z
-x,-y,-z
loop_
_atom_site_type_symbol
_atom_site_label
_atom_site_fract_x
_atom_site_fract_y
_atom_site_fract_z
Si Si1 0.055571 0.810077 0.810080
Si Si2 0.360322 0.353005 0.411659
Si Si3 0.603923 0.938250 0.376022
Si Si4 0.341281 0.954878 0.042748
Si Si5 0.901094 0.722435 0.721263
Si Si6 0.631699 0.380525 0.158972
Si Si7 0.711398 0.818675 0.062062
Si Si8 0.984811 0.385373 0.639848
O O1 0.219469 0.703087 0.835532
O O2 0.971983 0.798201 0.564442
O O3 0.026407 0.722828 0.811690
O O4 0.000000 0.000000 0.000000
O O5 0.391422 0.488842 0.610532
O O6 0.189798 0.475001 0.385107
O O7 0.491755 0.164102 0.470710
O O8 0.347996 0.277549 0.173039
O O9 0.491991 0.903935 0.241713
O O10 0.755312 0.823581 0.539897
O O11 0.654623 0.882566 0.217492
O O12 0.185726 0.140719 0.110597
O O13 0.351640 0.784484 0.917134
O O14 0.337977 0.017159 0.940322
O O15 0.980601 0.513214 0.649614
O O16 0.500000 0.500000 0.000000
O O17 0.893729 0.676271 0.154174
#
# Coordination Sequence:
#
# PCOD9024353 Si02
#       8
#     2   2   2   2   2   2   2   2
#     4  11  24  42  61  98 135 168 209 269 329 380
#     4  10  22  40  64  93 129 169 215 260 328 382
#     4  11  23  41  68  96 128 170 218 282 319 372
#     4  11  23  40  67  96 128 174 215 263 334 388
#     4  12  22  40  69  99 127 165 231 270 322 375
#     4  11  25  42  66  96 138 171 213 267 328 393
#     4  11  23  44  66  93 133 169 221 271 325 379
#     4  11  23  40  67  96 127 169 221 274 316 382
#
# _framework density 20.195620000000002
#
# number of rings (size 3 to 8) (size 9 to 14) (size 15 to 20)
#    0.000    1.000    5.000    3.375    3.500    0.000 
#    0.000    6.250    0.000    0.000    0.000    0.000 
#    0.000    0.000    0.000    0.000    0.000    0.000 
#
# Total GULP energy -89235.917018 kJ/mol
# GULP energy per Si atom -5577.244814 kJ/mol
# Density = 2.014965 g / cm^3
# Si number density = 20.195620 Si / 1000 Ang^3
#
#
#
# Elastic Constant Matrix: (Units=GPa)
#
#
# Indices 1 2 3 4 5 6 
#
# 1 89.6002 23.0500 26.4764 11.4451 8.9015 5.8129
# 2 23.0500 111.5841 67.8150 1.7329 14.6404 4.1509
# 3 26.4764 67.8150 109.1385 22.4325 8.9409 17.7289
# 4 11.4451 1.7329 22.4325 30.1128 6.0182 0.9946
# 5 8.9015 14.6404 8.9409 6.0182 37.6395 0.1771
# 6 5.8129 4.1509 17.7289 0.9946 0.1771 25.3738
#
#
#
# Elastic Compliance Matrix: (Units=1/GPa)
#
#
# Indices 1 2 3 4 5 6 
#
# 1 0.012601 -0.001869 -0.000672 -0.003822 -0.001473 -0.001951
# 2 -0.001869 0.017694 -0.013321 0.010395 -0.004968 0.006469
# 3 -0.000672 -0.013321 0.022802 -0.016045 0.002551 -0.012988
# 4 -0.003822 0.010395 -0.016045 0.047111 -0.006901 0.008587
# 5 -0.001473 -0.004968 0.002551 -0.006901 0.029349 -0.000566
# 6 -0.001951 0.006469 -0.012988 0.008587 -0.000566 0.047541
#
#
# Mechanical properties :
#
#
# Convention : Reuss Voigt Hill
#
# Bulk Modulus (GPa) = 46.79151 60.55619 53.67385
# Shear Modulus (GPa) = 23.15374 31.49065 27.32220
#
# Velocity S-wave (km/s) = 3.38963 3.95306 3.68214
# Velocity P-wave (km/s) = 6.20797 7.13340 6.68672
#
# Compressibility (1/GPa) = 0.02137140
#
# Stress axis : x y z
#
# Youngs Moduli (GPa) = 79.35638 56.51716 43.85622
#
# Poissons Ratio (x) = 0.10565 0.02948
# Poissons Ratio (y) = 0.14834 0.58422
# Poissons Ratio (z) = 0.05334 0.75288
#
# Static dielectric constant tensor:
#      x y z
#    x 1.762280 -0.047460 -0.037210 
#    y -0.047460 1.714590 0.020540 
#    z -0.037210 0.020540 1.765500 
# 
# From -- ./inp_files/308603.got.cif
#   From: 2010.05.17/outbox.cif.g08.bks.cpg/sg2_155_cif.got.tgz:308603.got - 2010.06.03 11:33:40.
