data_PCOD9024692
_publ_section_title
;
Structure prediction by ZEFSAII (Michael W. Deem and Ramdas Pophale) SiO2 
 PCOD9024692
Probable space group: P -1
;
_chemical_formula_sum "Si O2"
_cell_formula_units_Z 16
_cell_length_a 9.736908
_cell_length_b 14.680942
_cell_length_c 10.932499
_cell_angle_alpha 104.107970
_cell_angle_beta 111.680197
_cell_angle_gamma 132.174632
_cell_volume 753.423255
_symmetry_space_group_name_H-M "P -1"
_symmetry_group_IT_number 2
_symmetry_cell_setting 'triclinic'
loop_
_space_group_symop_operation_xyz
x,y,z
-x,-y,-z
loop_
_atom_site_type_symbol
_atom_site_label
_atom_site_fract_x
_atom_site_fract_y
_atom_site_fract_z
Si Si1 0.332561 0.668733 0.163255
Si Si2 0.182636 0.327350 0.561888
Si Si3 0.656229 0.676844 0.146713
Si Si4 0.418889 0.042372 0.835891
Si Si5 0.555297 0.694628 0.492049
Si Si6 0.384941 0.632296 0.677729
Si Si7 0.583594 0.920705 0.876572
Si Si8 0.028799 0.071275 0.892076
O O1 0.442392 0.642536 0.105586
O O2 0.465828 0.831686 0.194961
O O3 0.446115 0.702189 0.347692
O O4 0.000000 0.500000 0.000000
O O5 0.168846 0.258645 0.657217
O O6 0.406056 0.389637 0.575162
O O7 0.247430 0.471558 0.650020
O O8 0.891022 0.158162 0.349705
O O9 0.850329 0.810791 0.145225
O O10 0.500000 0.500000 0.000000
O O11 0.576438 0.028743 0.894953
O O12 0.413592 0.092536 0.980188
O O13 0.365668 0.593722 0.516493
O O14 0.843115 0.889635 0.707759
O O15 0.327550 0.713402 0.689170
O O16 0.700152 0.801755 0.893110
O O17 0.826520 0.022995 0.895558
#
# Coordination Sequence:
#
# PCOD9024692 Si02
#       8
#     2   2   2   2   2   2   2   2
#     4  11  26  45  68  95 132 175 216 272 330 387
#     4  11  22  38  65  95 131 168 217 267 322 384
#     4  11  23  41  65 100 126 169 218 266 322 389
#     4  11  24  44  64  94 130 178 215 268 328 389
#     4  10  22  40  65  99 124 171 219 265 318 397
#     4  11  21  38  64  97 129 169 214 271 321 381
#     4  10  24  41  65  93 131 175 219 265 327 387
#     4  11  21  42  68  94 136 167 218 272 324 384
#
# _framework density 21.236402999999999
#
# number of rings (size 3 to 8) (size 9 to 14) (size 15 to 20)
#    0.000    1.250    1.250    5.625    1.750    4.500 
#    4.500    3.125    0.000    0.000    0.000    0.000 
#    0.000    0.000    0.000    0.000    0.000    0.000 
#
# Total GULP energy -89168.656554 kJ/mol
# GULP energy per Si atom -5573.041035 kJ/mol
# Density = 2.118807 g / cm^3
# Si number density = 21.236403 Si / 1000 Ang^3
#
#
#
# Elastic Constant Matrix: (Units=GPa)
#
#
# Indices 1 2 3 4 5 6 
#
# 1 88.6254 45.9629 18.9840 2.4353 -12.5609 0.2288
# 2 45.9629 122.9945 15.2052 -10.7784 4.0596 1.1910
# 3 18.9840 15.2052 47.9114 -7.6362 -9.1462 -1.3028
# 4 2.4353 -10.7784 -7.6362 33.5291 2.1627 -9.1568
# 5 -12.5609 4.0596 -9.1462 2.1627 17.8198 -3.3580
# 6 0.2288 1.1910 -1.3028 -9.1568 -3.3580 28.4737
#
#
#
# Elastic Compliance Matrix: (Units=1/GPa)
#
#
# Indices 1 2 3 4 5 6 
#
# 1 0.017599 -0.007078 -0.003053 -0.005116 0.013054 -0.000091
# 2 -0.007078 0.011711 -0.001987 0.004365 -0.009246 -0.000211
# 3 -0.003053 -0.001987 0.026053 0.006018 0.011814 0.004628
# 4 -0.005116 0.004365 0.006018 0.036318 -0.003777 0.011368
# 5 0.013054 -0.009246 0.011814 -0.003777 0.075553 0.008518
# 6 -0.000091 -0.000211 0.004628 0.011368 0.008518 0.040002
#
#
# Mechanical properties :
#
#
# Convention : Reuss Voigt Hill
#
# Bulk Modulus (GPa) = 32.12659 46.64839 39.38749
# Shear Modulus (GPa) = 20.67428 27.92315 24.29872
#
# Velocity S-wave (km/s) = 3.12353 3.63005 3.38627
# Velocity P-wave (km/s) = 5.30749 6.29155 5.82036
#
# Compressibility (1/GPa) = 0.03112686
#
# Stress axis : x y z
#
# Youngs Moduli (GPa) = 56.82146 85.39156 38.38400
#
# Poissons Ratio (x) = 0.60437 0.11718
# Poissons Ratio (y) = 0.40216 0.07628
# Poissons Ratio (z) = 0.17346 0.16970
#
# Static dielectric constant tensor:
#      x y z
#    x 1.873510 -0.019850 0.025440 
#    y -0.019850 1.630850 0.146710 
#    z 0.025440 0.146710 1.593620 
# 
# From -- ./inp_files/399324.got.cif
#   From: 2010.05.17/outbox.cif.g08.bks.cpg/sg2_200_cif.got.tgz:399324.got - 2010.06.03 11:33:40.
