data_PCOD9024996
_publ_section_title
;
Structure prediction by ZEFSAII (Michael W. Deem and Ramdas Pophale) SiO2 
 PCOD9024996
Probable space group: P -1
;
_chemical_formula_sum "Si O2"
_cell_formula_units_Z 16
_cell_length_a 12.233735
_cell_length_b 11.723709
_cell_length_c 13.924772
_cell_angle_alpha 160.174107
_cell_angle_beta 109.968793
_cell_angle_gamma 67.912824
_cell_volume 627.177475
_symmetry_space_group_name_H-M "P -1"
_symmetry_group_IT_number 2
_symmetry_cell_setting 'triclinic'
loop_
_space_group_symop_operation_xyz
x,y,z
-x,-y,-z
loop_
_atom_site_type_symbol
_atom_site_label
_atom_site_fract_x
_atom_site_fract_y
_atom_site_fract_z
Si Si1 0.123386 0.496526 0.295066
Si Si2 0.265590 0.174011 0.629240
Si Si3 0.252379 0.254146 0.411484
Si Si4 0.109896 0.638361 0.189075
Si Si5 0.274650 0.837708 0.745378
Si Si6 0.442842 0.560717 0.927227
Si Si7 0.879189 0.293995 0.098038
Si Si8 0.352298 0.141938 0.841406
O O1 0.089647 0.700785 0.346628
O O2 0.159264 0.745055 0.582835
O O3 0.014090 0.321609 0.152993
O O4 0.235177 0.196020 0.071843
O O5 0.183195 0.548564 0.895907
O O6 0.329848 0.056417 0.655770
O O7 0.168341 0.937110 0.394123
O O8 0.371139 0.245346 0.646562
O O9 0.306262 0.534263 0.589717
O O10 0.185335 0.455839 0.641009
O O11 0.354239 0.921820 0.187755
O O12 0.150602 0.079776 0.192424
O O13 0.223479 0.343209 0.987000
O O14 0.000000 0.500000 0.000000
O O15 0.368609 0.861696 0.707810
O O16 0.548539 0.619476 0.936527
O O17 0.500000 0.500000 0.000000
#
# Coordination Sequence:
#
# PCOD9024996 Si02
#       8
#     2   2   2   2   2   2   2   2
#     4  11  24  42  65 103 136 191 227 284 342 419
#     4  10  22  40  66  99 135 179 225 288 348 408
#     4  11  25  46  64 102 131 186 232 290 339 409
#     4  11  24  37  68 102 146 178 227 281 357 415
#     4  11  24  43  68  94 145 178 238 281 341 415
#     4   9  22  45  71  99 135 176 234 289 349 410
#     4  11  25  40  69  96 140 178 237 282 347 404
#     4  10  22  43  64 102 134 185 225 288 344 416
#
# _framework density 25.511120999999999
#
# number of rings (size 3 to 8) (size 9 to 14) (size 15 to 20)
#    0.000    1.500    1.250    2.250   10.500    5.000 
#    6.750    0.000    0.000    6.000    0.000    0.000 
#    0.000    0.000    0.000    0.000    0.000    0.000 
#
# Total GULP energy -89378.655083 kJ/mol
# GULP energy per Si atom -5586.165943 kJ/mol
# Density = 2.545306 g / cm^3
# Si number density = 25.511121 Si / 1000 Ang^3
#
#
#
# Elastic Constant Matrix: (Units=GPa)
#
#
# Indices 1 2 3 4 5 6 
#
# 1 140.0743 31.9171 47.1924 5.0861 38.5077 23.9708
# 2 31.9171 80.5502 31.7716 23.5866 2.1503 21.3637
# 3 47.1924 31.7716 101.7821 10.7047 15.7444 20.6116
# 4 5.0861 23.5866 10.7047 45.1595 13.9709 11.4088
# 5 38.5077 2.1503 15.7444 13.9709 45.4884 5.0378
# 6 23.9708 21.3637 20.6116 11.4088 5.0378 25.8833
#
#
#
# Elastic Compliance Matrix: (Units=1/GPa)
#
#
# Indices 1 2 3 4 5 6 
#
# 1 0.012870 -0.003768 -0.002185 0.006419 -0.011075 -0.007743
# 2 -0.003768 0.019647 -0.002941 -0.009384 0.007004 -0.007612
# 3 -0.002185 -0.002941 0.013225 0.000845 -0.002180 -0.006029
# 4 0.006419 -0.009384 0.000845 0.033264 -0.014309 -0.010749
# 5 -0.011075 0.007004 -0.002180 -0.014309 0.035557 0.005598
# 6 -0.007743 -0.007612 -0.006029 -0.010749 0.005598 0.060538
#
#
# Mechanical properties :
#
#
# Convention : Reuss Voigt Hill
#
# Bulk Modulus (GPa) = 35.77224 60.46320 48.11772
# Shear Modulus (GPa) = 24.72695 37.40794 31.06744
#
# Velocity S-wave (km/s) = 3.11667 3.83343 3.49348
# Velocity P-wave (km/s) = 5.19656 6.58375 5.93085
#
# Compressibility (1/GPa) = 0.02795464
#
# Stress axis : x y z
#
# Youngs Moduli (GPa) = 77.69763 50.89733 75.61212
#
# Poissons Ratio (x) = 0.19179 0.16523
# Poissons Ratio (y) = 0.29278 0.22236
# Poissons Ratio (z) = 0.16979 0.14968
#
# Static dielectric constant tensor:
#      x y z
#    x 2.042830 0.031160 0.004460 
#    y 0.031160 2.173650 0.052160 
#    z 0.004460 0.052160 2.040930 
# 
# From -- ./inp_files/519989.got.cif
#   From: 2010.05.17/outbox.cif.g08.bks.cpg/sg2_260_cif.got.tgz:519989.got - 2010.06.03 11:33:40.
