data_PCOD9024699
_publ_section_title
;
Structure prediction by ZEFSAII (Michael W. Deem and Ramdas Pophale) SiO2 
 PCOD9024699
Probable space group: P -1
;
_chemical_formula_sum "Si O2"
_cell_formula_units_Z 16
_cell_length_a 8.635158
_cell_length_b 7.628425
_cell_length_c 18.715782
_cell_angle_alpha 125.145864
_cell_angle_beta 71.773119
_cell_angle_gamma 68.071964
_cell_volume 671.703970
_symmetry_space_group_name_H-M "P -1"
_symmetry_group_IT_number 2
_symmetry_cell_setting 'triclinic'
loop_
_space_group_symop_operation_xyz
x,y,z
-x,-y,-z
loop_
_atom_site_type_symbol
_atom_site_label
_atom_site_fract_x
_atom_site_fract_y
_atom_site_fract_z
Si Si1 0.172200 0.335119 0.547510
Si Si2 0.029362 0.747468 0.236840
Si Si3 0.195927 0.174205 0.857878
Si Si4 0.027825 0.656168 0.779531
Si Si5 0.534422 0.224371 0.034352
Si Si6 0.666804 0.714101 0.641113
Si Si7 0.758733 0.238242 0.132381
Si Si8 0.814967 0.119659 0.492556
O O1 0.136487 0.555740 0.662018
O O2 0.910637 0.538480 0.602782
O O3 0.317870 0.249276 0.436213
O O4 0.267276 0.038418 0.507507
O O5 0.037238 0.524836 0.232005
O O6 0.285797 0.540424 0.117843
O O7 0.869285 0.843010 0.215520
O O8 0.935337 0.001604 0.368981
O O9 0.451383 0.038586 0.783885
O O10 0.221273 0.948878 0.851803
O O11 0.000000 0.500000 0.000000
O O12 0.221570 0.551856 0.783690
O O13 0.779509 0.011714 0.906837
O O14 0.567732 0.329996 0.127315
O O15 0.500000 0.000000 0.000000
O O16 0.639802 0.482519 0.600736
O O17 0.000000 0.000000 0.000000
O O18 0.000000 0.000000 0.500000
#
# Coordination Sequence:
#
# PCOD9024699 Si02
#       8
#     2   2   2   2   2   2   2   2
#     4   9  20  42  69  99 133 180 230 287 343 415
#     4  10  22  40  65  99 132 176 233 278 338 422
#     4  12  26  42  65  97 142 173 225 286 349 403
#     4   9  19  39  65  91 135 166 230 277 348 400
#     4   9  18  35  66  91 124 179 226 271 336 414
#     4  10  23  42  67  99 137 180 231 288 345 409
#     4  10  22  41  61  96 131 179 220 278 345 411
#     4   9  20  41  67  98 132 176 235 280 343 414
#
# _framework density 23.820018000000001
#
# number of rings (size 3 to 8) (size 9 to 14) (size 15 to 20)
#    0.000    2.250    0.000    2.250   10.500    0.500 
#    4.500    8.750    0.000    0.000    0.000    0.000 
#    0.000    0.000    0.000    0.000    0.000    0.000 
#
# Total GULP energy -89307.172293 kJ/mol
# GULP energy per Si atom -5581.698268 kJ/mol
# Density = 2.376580 g / cm^3
# Si number density = 23.820018 Si / 1000 Ang^3
#
#
#
# Elastic Constant Matrix: (Units=GPa)
#
#
# Indices 1 2 3 4 5 6 
#
# 1 71.4659 7.6159 34.9957 6.4201 -6.3926 -4.4619
# 2 7.6159 47.7885 22.8148 -9.2513 -19.2494 -1.2563
# 3 34.9957 22.8148 138.4811 -2.6070 -11.4191 -0.5923
# 4 6.4201 -9.2513 -2.6070 32.3629 -4.1949 -1.5058
# 5 -6.3926 -19.2494 -11.4191 -4.1949 41.6603 -0.1288
# 6 -4.4619 -1.2563 -0.5923 -1.5058 -0.1288 15.4033
#
#
#
# Elastic Compliance Matrix: (Units=1/GPa)
#
#
# Indices 1 2 3 4 5 6 
#
# 1 0.016744 -0.001096 -0.004053 -0.003687 0.000594 0.004250
# 2 -0.001096 0.030538 -0.003377 0.010651 0.014099 0.003202
# 3 -0.004053 -0.003377 0.008831 0.000538 0.000289 -0.001055
# 4 -0.003687 0.010651 0.000538 0.035932 0.008132 0.003402
# 5 0.000594 0.014099 0.000289 0.008132 0.031515 0.002391
# 6 0.004250 0.003202 -0.001055 0.003402 0.002391 0.066725
#
#
# Mechanical properties :
#
#
# Convention : Reuss Voigt Hill
#
# Bulk Modulus (GPa) = 25.60182 43.17647 34.38914
# Shear Modulus (GPa) = 22.69040 30.70591 26.69815
#
# Velocity S-wave (km/s) = 3.08973 3.59427 3.35151
# Velocity P-wave (km/s) = 4.84768 5.94899 5.42635
#
# Compressibility (1/GPa) = 0.03905973
#
# Stress axis : x y z
#
# Youngs Moduli (GPa) = 59.72344 32.74636 113.23337
#
# Poissons Ratio (x) = 0.03590 0.45894
# Poissons Ratio (y) = 0.06548 0.38242
# Poissons Ratio (z) = 0.24206 0.11059
#
# Static dielectric constant tensor:
#      x y z
#    x 2.103910 0.006610 0.128120 
#    y 0.006610 1.911910 -0.059990 
#    z 0.128120 -0.059990 2.223740 
# 
# From -- ./inp_files/556561.got.cif
#   From: 2010.05.17/outbox.cif.g08.bks.cpg/sg2_279_cif.got.tgz:556561.got - 2010.06.03 11:33:40.
