data_PCOD9024887
_publ_section_title
;
Structure prediction by ZEFSAII (Michael W. Deem and Ramdas Pophale) SiO2 
 PCOD9024887
Probable space group: P -1
;
_chemical_formula_sum "Si O2"
_cell_formula_units_Z 16
_cell_length_a 20.018001
_cell_length_b 24.536937
_cell_length_c 8.836556
_cell_angle_alpha 147.985270
_cell_angle_beta 43.078210
_cell_angle_gamma 160.342127
_cell_volume 715.449780
_symmetry_space_group_name_H-M "P -1"
_symmetry_group_IT_number 2
_symmetry_cell_setting 'triclinic'
loop_
_space_group_symop_operation_xyz
x,y,z
-x,-y,-z
loop_
_atom_site_type_symbol
_atom_site_label
_atom_site_fract_x
_atom_site_fract_y
_atom_site_fract_z
Si Si1 0.940154 0.703001 0.368446
Si Si2 0.656157 0.561122 0.314491
Si Si3 0.724003 0.491773 0.538798
Si Si4 0.274318 0.303535 0.822736
Si Si5 0.635636 0.901044 0.200773
Si Si6 0.962834 0.590109 0.609016
Si Si7 0.759304 0.960188 0.788031
Si Si8 0.249495 0.668294 0.349705
O O1 0.878758 0.744721 0.466495
O O2 0.763333 0.535448 0.399500
O O3 0.904810 0.563560 0.011782
O O4 0.163394 0.911710 0.578351
O O5 0.500000 0.500000 0.500000
O O6 0.686421 0.619771 0.230246
O O7 0.527650 0.335339 0.016964
O O8 0.469493 0.242666 0.396571
O O9 0.846775 0.513500 0.466149
O O10 0.819384 0.687494 0.909560
O O11 0.175408 0.097067 0.484984
O O12 0.500000 0.500000 0.000000
O O13 0.491772 0.869785 0.372158
O O14 0.710327 0.939543 0.998440
O O15 0.154856 0.688888 0.506242
O O16 0.791963 0.384572 0.526600
O O17 0.070608 0.796745 0.976100
#
# Coordination Sequence:
#
# PCOD9024887 Si02
#       8
#     2   2   2   2   2   2   2   2
#     4  11  23  41  67  98 133 173 225 265 327 396
#     4  11  20  40  65  95 138 175 216 274 314 385
#     4  11  21  41  65  99 134 170 216 275 325 387
#     4  10  22  40  66  94 136 177 207 267 328 378
#     4  11  22  43  66  96 134 175 220 266 328 396
#     4  11  25  44  70  97 127 171 223 277 338 391
#     4  11  22  43  66  98 132 171 224 265 325 401
#     4  10  25  47  66  95 133 169 218 284 334 386
#
# _framework density 22.363555999999999
#
# number of rings (size 3 to 8) (size 9 to 14) (size 15 to 20)
#    0.000    1.250    5.000    2.250    0.000    6.000 
#    0.000    2.500    0.000    0.000    0.000    0.000 
#    0.000    0.000    0.000    0.000    0.000    0.000 
#
# Total GULP energy -89419.376851 kJ/mol
# GULP energy per Si atom -5588.711053 kJ/mol
# Density = 2.231266 g / cm^3
# Si number density = 22.363556 Si / 1000 Ang^3
#
#
#
# Elastic Constant Matrix: (Units=GPa)
#
#
# Indices 1 2 3 4 5 6 
#
# 1 155.4919 35.0168 41.2908 -13.5927 2.3349 24.5996
# 2 35.0168 74.5982 7.0958 -5.8793 2.3926 23.6740
# 3 41.2908 7.0958 58.5006 -8.2047 3.9041 18.6517
# 4 -13.5927 -5.8793 -8.2047 41.6990 8.0152 2.1436
# 5 2.3349 2.3926 3.9041 8.0152 36.7099 -4.7659
# 6 24.5996 23.6740 18.6517 2.1436 -4.7659 48.2104
#
#
#
# Elastic Compliance Matrix: (Units=1/GPa)
#
#
# Indices 1 2 3 4 5 6 
#
# 1 0.008857 -0.003220 -0.005330 0.001479 -0.000235 -0.000965
# 2 -0.003220 0.017771 0.003643 0.003251 -0.003213 -0.008955
# 3 -0.005330 0.003643 0.024355 0.004956 -0.004763 -0.009183
# 4 0.001479 0.003251 0.004956 0.027698 -0.007693 -0.006260
# 5 -0.000235 -0.003213 -0.004763 -0.007693 0.030547 0.006902
# 6 -0.000965 -0.008955 -0.009183 -0.006260 0.006902 0.030145
#
#
# Mechanical properties :
#
#
# Convention : Reuss Voigt Hill
#
# Bulk Modulus (GPa) = 24.29064 50.59972 37.44518
# Shear Modulus (GPa) = 30.69140 39.00303 34.84721
#
# Velocity S-wave (km/s) = 3.70859 4.18071 3.95170
# Velocity P-wave (km/s) = 5.40587 6.78082 6.13200
#
# Compressibility (1/GPa) = 0.04116812
#
# Stress axis : x y z
#
# Youngs Moduli (GPa) = 112.90026 56.26996 41.05970
#
# Poissons Ratio (x) = 0.18121 0.21886
# Poissons Ratio (y) = 0.36358 -0.14958
# Poissons Ratio (z) = 0.60179 -0.20499
#
# Static dielectric constant tensor:
#      x y z
#    x 1.859640 0.064310 0.013890 
#    y 0.064310 1.863440 0.008120 
#    z 0.013890 0.008120 1.851940 
# 
# From -- ./inp_files/215609.got.cif
#   From: 2010.05.17/outbox.cif.g08.bks.cpg/sg2_108_cif.got.tgz:215609.got - 2010.06.03 11:33:40.
