data_PCOD9024197
_publ_section_title
;
Structure prediction by ZEFSAII (Michael W. Deem and Ramdas Pophale) SiO2 
 PCOD9024197
Probable space group: P -1
;
_chemical_formula_sum "Si O2"
_cell_formula_units_Z 16
_cell_length_a 8.950240
_cell_length_b 14.837094
_cell_length_c 5.722493
_cell_angle_alpha 113.939670
_cell_angle_beta 88.911901
_cell_angle_gamma 108.953443
_cell_volume 651.274154
_symmetry_space_group_name_H-M "P -1"
_symmetry_group_IT_number 2
_symmetry_cell_setting 'triclinic'
loop_
_space_group_symop_operation_xyz
x,y,z
-x,-y,-z
loop_
_atom_site_type_symbol
_atom_site_label
_atom_site_fract_x
_atom_site_fract_y
_atom_site_fract_z
Si Si1 0.502158 0.268942 0.020735
Si Si2 0.067796 0.081787 0.374586
Si Si3 0.888101 0.114915 0.015943
Si Si4 0.352565 0.531797 0.471806
Si Si5 0.539785 0.062115 0.817939
Si Si6 0.083433 0.422762 0.691480
Si Si7 0.819007 0.732882 0.141660
Si Si8 0.763441 0.382631 0.816943
O O1 0.449226 0.145624 0.932412
O O2 0.350864 0.303546 0.014508
O O3 0.625885 0.284746 0.818728
O O4 0.604458 0.350710 0.297193
O O5 0.198650 0.184580 0.577576
O O6 0.133722 0.009100 0.139117
O O7 0.000000 0.000000 0.500000
O O8 0.939469 0.124477 0.297356
O O9 0.730176 0.123207 0.914956
O O10 0.039201 0.197027 0.960462
O O11 0.500000 0.500000 0.500000
O O12 0.192938 0.443526 0.482165
O O13 0.330464 0.547804 0.219542
O O14 0.500000 0.000000 0.500000
O O15 0.500000 0.000000 0.000000
O O16 0.132999 0.352594 0.805884
O O17 0.893422 0.371964 0.620495
O O18 0.129199 0.543224 0.907131
#
# Coordination Sequence:
#
# PCOD9024197 Si02
#       8
#     2   2   2   2   2   2   2   2
#     4  11  26  43  66 102 136 187 229 298 358 428
#     4   9  21  38  65  90 127 172 230 287 346 416
#     4  10  23  42  65  93 132 180 229 288 351 424
#     4  11  23  41  67  99 139 178 232 288 356 426
#     4  12  30  48  75 106 147 189 244 301 366 432
#     4  10  22  40  63  98 124 181 222 289 349 428
#     4  11  22  38  66  92 135 171 233 280 355 417
#     4  10  22  42  66  89 141 170 231 282 356 426
#
# _framework density 24.567228
#
# number of rings (size 3 to 8) (size 9 to 14) (size 15 to 20)
#    0.000    1.500    0.000    3.375   10.500    6.000 
#    0.000    0.000    0.000    0.000    0.000    0.000 
#    0.000    0.000    0.000    0.000    0.000    0.000 
#
# Total GULP energy -89234.530962 kJ/mol
# GULP energy per Si atom -5577.158185 kJ/mol
# Density = 2.451131 g / cm^3
# Si number density = 24.567228 Si / 1000 Ang^3
#
#
#
# Elastic Constant Matrix: (Units=GPa)
#
#
# Indices 1 2 3 4 5 6 
#
# 1 96.6586 19.3829 5.6639 -9.9127 21.0785 6.0518
# 2 19.3829 112.5047 24.3521 -13.7137 -0.7550 -3.5363
# 3 5.6639 24.3521 69.5810 1.1256 18.4749 4.3759
# 4 -9.9127 -13.7137 1.1256 41.6401 -2.5211 0.6031
# 5 21.0785 -0.7550 18.4749 -2.5211 34.8184 -4.7511
# 6 6.0518 -3.5363 4.3759 0.6031 -4.7511 47.3877
#
#
#
# Elastic Compliance Matrix: (Units=1/GPa)
#
#
# Indices 1 2 3 4 5 6 
#
# 1 0.013265 -0.002840 0.002700 0.001599 -0.009840 -0.003162
# 2 -0.002840 0.011022 -0.005214 0.003382 0.005263 0.002151
# 3 0.002700 -0.005214 0.019673 -0.002330 -0.012875 -0.003812
# 4 0.001599 0.003382 -0.002330 0.025705 0.002225 0.000159
# 5 -0.009840 0.005263 -0.012875 0.002225 0.042753 0.007096
# 6 -0.003162 0.002151 -0.003812 0.000159 0.007096 0.022728
#
#
# Mechanical properties :
#
#
# Convention : Reuss Voigt Hill
#
# Bulk Modulus (GPa) = 30.07398 41.94914 36.01156
# Shear Modulus (GPa) = 31.85989 40.05892 35.95941
#
# Velocity S-wave (km/s) = 3.60508 4.04243 3.83000
# Velocity P-wave (km/s) = 5.44030 6.23704 5.85224
#
# Compressibility (1/GPa) = 0.03325134
#
# Stress axis : x y z
#
# Youngs Moduli (GPa) = 75.38656 90.73109 50.83223
#
# Poissons Ratio (x) = 0.25770 -0.13725
# Poissons Ratio (y) = 0.21412 0.26502
# Poissons Ratio (z) = -0.20355 0.47304
#
# Static dielectric constant tensor:
#      x y z
#    x 2.037320 -0.002450 -0.031380 
#    y -0.002450 1.966290 -0.005540 
#    z -0.031380 -0.005540 2.137100 
# 
# From -- ./inp_files/39453.got.cif
#   From: 2010.05.17/outbox.cif.g08.bks.cpg/sg2_20_cif.got.tgz:39453.got - 2010.06.03 11:33:40.
