data_PCOD9024908
_publ_section_title
;
Structure prediction by ZEFSAII (Michael W. Deem and Ramdas Pophale) SiO2 
 PCOD9024908
Probable space group: P -1
;
_chemical_formula_sum "Si O2"
_cell_formula_units_Z 16
_cell_length_a 14.558947
_cell_length_b 12.438877
_cell_length_c 8.159876
_cell_angle_alpha 47.751954
_cell_angle_beta 126.825413
_cell_angle_gamma 121.670952
_cell_volume 856.832586
_symmetry_space_group_name_H-M "P -1"
_symmetry_group_IT_number 2
_symmetry_cell_setting 'triclinic'
loop_
_space_group_symop_operation_xyz
x,y,z
-x,-y,-z
loop_
_atom_site_type_symbol
_atom_site_label
_atom_site_fract_x
_atom_site_fract_y
_atom_site_fract_z
Si Si1 0.157067 0.173753 0.577671
Si Si2 0.366194 0.621803 0.310831
Si Si3 0.862309 0.296077 0.134757
Si Si4 0.001870 0.414953 0.836962
Si Si5 0.633140 0.695960 0.521529
Si Si6 0.200284 0.441595 0.563104
Si Si7 0.058133 0.990199 0.345192
Si Si8 0.815560 0.756433 0.949317
O O1 0.293756 0.199922 0.649097
O O2 0.145991 0.338103 0.455774
O O3 0.082613 0.063914 0.743339
O O4 0.094456 0.109756 0.408275
O O5 0.499128 0.708995 0.378515
O O6 0.367032 0.474416 0.354063
O O7 0.311186 0.555404 0.493609
O O8 0.273845 0.710163 0.044710
O O9 0.890127 0.152005 0.400330
O O10 0.909495 0.441144 0.145620
O O11 0.931874 0.326125 0.006154
O O12 0.898690 0.472568 0.571742
O O13 0.078770 0.320906 0.917809
O O14 0.708360 0.728994 0.734027
O O15 0.226113 0.324359 0.842757
O O16 0.122237 0.070382 0.173012
#
# Coordination Sequence:
#
# PCOD9024908 Si02
#       8
#     2   2   2   2   2   2   2   2
#     4   9  17  32  49  71 100 128 165 205 240 290
#     4   9  18  32  54  75  97 126 171 212 247 281
#     4  10  17  31  54  75  96 128 167 214 248 281
#     4  10  18  31  51  75 100 127 165 212 249 287
#     4   9  17  32  52  77  95 126 171 213 243 282
#     4  10  20  32  50  75 106 133 162 199 251 300
#     4  10  19  31  52  75 101 133 164 200 252 296
#     4  11  21  32  49  76 108 135 159 198 247 307
#
# _framework density 18.673425000000002
#
# number of rings (size 3 to 8) (size 9 to 14) (size 15 to 20)
#    0.000    2.250    2.500    2.625    1.750    1.000 
#    0.000    2.500    0.000    0.000    0.000    8.750 
#    0.000    0.000    0.000    0.000    0.000    0.000 
#
# Total GULP energy -89104.591321 kJ/mol
# GULP energy per Si atom -5569.036958 kJ/mol
# Density = 1.863092 g / cm^3
# Si number density = 18.673425 Si / 1000 Ang^3
#
#
#
# Elastic Constant Matrix: (Units=GPa)
#
#
# Indices 1 2 3 4 5 6 
#
# 1 81.0507 34.7890 43.0707 1.9776 12.2978 38.2279
# 2 34.7890 61.1200 28.8844 -3.0982 7.6691 33.9816
# 3 43.0707 28.8844 107.8011 -11.2162 -5.7704 24.9859
# 4 1.9776 -3.0982 -11.2162 23.3078 5.0965 5.2387
# 5 12.2978 7.6691 -5.7704 5.0965 26.0410 -0.5885
# 6 38.2279 33.9816 24.9859 5.2387 -0.5885 41.1908
#
#
#
# Elastic Compliance Matrix: (Units=1/GPa)
#
#
# Indices 1 2 3 4 5 6 
#
# 1 0.030468 0.004663 -0.007269 0.005133 -0.019024 -0.028639
# 2 0.004663 0.038423 -0.003103 0.015331 -0.018027 -0.036351
# 3 -0.007269 -0.003103 0.013842 0.005404 0.006363 0.000313
# 4 0.005133 0.015331 0.005404 0.057298 -0.017593 -0.028228
# 5 -0.019024 -0.018027 0.006363 -0.017593 0.058264 0.031738
# 6 -0.028639 -0.036351 0.000313 -0.028228 0.031738 0.084699
#
#
# Mechanical properties :
#
#
# Convention : Reuss Voigt Hill
#
# Bulk Modulus (GPa) = 14.02212 51.49558 32.75885
# Shear Modulus (GPa) = 15.71418 27.65643 21.68531
#
# Velocity S-wave (km/s) = 2.90405 3.85263 3.41147
# Velocity P-wave (km/s) = 4.33245 6.88673 5.75314
#
# Compressibility (1/GPa) = 0.07131589
#
# Stress axis : x y z
#
# Youngs Moduli (GPa) = 32.82110 26.02613 72.24256
#
# Poissons Ratio (x) = -0.12136 0.52513
# Poissons Ratio (y) = -0.15304 0.22414
# Poissons Ratio (z) = 0.23858 0.08075
#
# Static dielectric constant tensor:
#      x y z
#    x 1.689960 0.003030 -0.038220 
#    y 0.003030 1.664030 -0.005300 
#    z -0.038220 -0.005300 1.710500 
# 
# From -- ./inp_files/170475.got.cif
#   From: 2010.05.17/outbox.cif.g08.bks.cpg/sg2_86_cif.got.tgz:170475.got - 2010.06.03 11:33:40.
