data_PCOD9024705
_publ_section_title
;
Structure prediction by ZEFSAII (Michael W. Deem and Ramdas Pophale) SiO2 
 PCOD9024705
Probable space group: P -1
;
_chemical_formula_sum "Si O2"
_cell_formula_units_Z 15
_cell_length_a 13.874793
_cell_length_b 11.579167
_cell_length_c 9.134866
_cell_angle_alpha 38.633108
_cell_angle_beta 132.130586
_cell_angle_gamma 130.031269
_cell_volume 656.619595
_symmetry_space_group_name_H-M "P -1"
_symmetry_group_IT_number 2
_symmetry_cell_setting 'triclinic'
loop_
_space_group_symop_operation_xyz
x,y,z
-x,-y,-z
loop_
_atom_site_type_symbol
_atom_site_label
_atom_site_fract_x
_atom_site_fract_y
_atom_site_fract_z
Si Si1 0.795228 0.713196 0.432692
Si Si2 0.410901 0.211663 0.621798
Si Si3 0.027601 0.899422 0.275746
Si Si4 0.418333 0.337968 0.967899
Si Si5 0.609067 0.224781 0.041276
Si Si6 0.000000 0.500000 0.000000
Si Si7 0.735559 0.764077 0.821333
Si Si8 0.117492 0.540354 0.784016
O O1 0.707067 0.801479 0.367400
O O2 0.686550 0.605501 0.307227
O O3 0.907041 0.865089 0.302547
O O4 0.880373 0.597628 0.725699
O O5 0.548925 0.302076 0.758861
O O6 0.375137 0.313230 0.340186
O O7 0.413335 0.000206 0.783486
O O8 0.057457 0.692631 0.485800
O O9 0.161238 0.048996 0.322452
O O10 0.000000 0.000000 0.000000
O O11 0.520466 0.255011 0.059194
O O12 0.500000 0.500000 0.000000
O O13 0.329041 0.189705 0.140164
O O14 0.763236 0.326031 0.127712
O O15 0.984287 0.567141 0.089896
O O16 0.815069 0.602910 0.090857
#
# Coordination Sequence:
#
# PCOD9024705 Si02
#       8
#     2   2   2   2   2   1   2   2
#     4  10  22  43  70 100 138 178 233 278 350 406
#     4  10  22  41  68  99 131 179 226 284 340 403
#     4  11  24  44  66  96 142 181 224 287 337 417
#     4  11  23  41  69 101 135 179 230 285 341 415
#     4  10  22  42  65  95 138 174 228 284 336 411
#     4  10  22  40  66 100 130 178 224 282 334 412
#     4  12  23  41  68 100 134 183 222 285 349 399
#     4  11  23  41  67 100 135 175 231 277 345 410
#
# _framework density 22.844275
#
# number of rings (size 3 to 8) (size 9 to 14) (size 15 to 20)
#    0.000    1.333    5.333    0.000    0.000    4.267 
#    0.000    0.000    0.000    0.000    0.000    0.000 
#    0.000    0.000    0.000    0.000    0.000    0.000 
#
# Total GULP energy -83567.038033 kJ/mol
# GULP energy per Si atom -5571.135869 kJ/mol
# Density = 2.279228 g / cm^3
# Si number density = 22.844275 Si / 1000 Ang^3
#
#
#
# Elastic Constant Matrix: (Units=GPa)
#
#
# Indices 1 2 3 4 5 6 
#
# 1 78.5953 15.4190 38.3251 -5.3312 -12.9848 -21.4300
# 2 15.4190 83.3036 31.9863 11.1643 3.9553 -8.3043
# 3 38.3251 31.9863 157.7784 22.5413 -1.2344 -13.3642
# 4 -5.3312 11.1643 22.5413 32.1015 -3.3744 2.2697
# 5 -12.9848 3.9553 -1.2344 -3.3744 27.5690 -1.2224
# 6 -21.4300 -8.3043 -13.3642 2.2697 -1.2224 34.1924
#
#
#
# Elastic Compliance Matrix: (Units=1/GPa)
#
#
# Indices 1 2 3 4 5 6 
#
# 1 0.020830 -0.002640 -0.004716 0.008153 0.011439 0.010439
# 2 -0.002640 0.014004 -0.001424 -0.004809 -0.003844 0.001371
# 3 -0.004716 -0.001424 0.008755 -0.006724 -0.002426 0.000480
# 4 0.008153 -0.004809 -0.006724 0.039924 0.009071 -0.001012
# 5 0.011439 -0.003844 -0.002426 0.009071 0.043490 0.006240
# 6 0.010439 0.001371 0.000480 -0.001012 0.006240 0.036600
#
#
# Mechanical properties :
#
#
# Convention : Reuss Voigt Hill
#
# Bulk Modulus (GPa) = 38.42036 54.57091 46.49563
# Shear Modulus (GPa) = 26.33816 34.36903 30.35360
#
# Velocity S-wave (km/s) = 3.39919 3.88299 3.64911
# Velocity P-wave (km/s) = 5.67986 6.63653 6.17675
#
# Compressibility (1/GPa) = 0.02602787
#
# Stress axis : x y z
#
# Youngs Moduli (GPa) = 48.00790 71.40973 114.22655
#
# Poissons Ratio (x) = 0.18853 0.53865
# Poissons Ratio (y) = 0.12674 0.16271
# Poissons Ratio (z) = 0.22639 0.10172
#
# Static dielectric constant tensor:
#      x y z
#    x 1.878260 0.059570 -0.002390 
#    y 0.059570 1.905830 0.036970 
#    z -0.002390 0.036970 1.896390 
# 
# From -- ./inp_files/302196.got.cif
#   From: 2010.05.17/outbox.cif.g08.bks.cpg/sg2_152_cif.got.tgz:302196.got - 2010.06.03 11:33:40.
