data_PCOD9024271
_publ_section_title
;
Structure prediction by ZEFSAII (Michael W. Deem and Ramdas Pophale) SiO2 
 PCOD9024271
Probable space group: P -1
;
_chemical_formula_sum "Si O2"
_cell_formula_units_Z 16
_cell_length_a 6.688103
_cell_length_b 14.657371
_cell_length_c 9.394468
_cell_angle_alpha 104.773853
_cell_angle_beta 75.520105
_cell_angle_gamma 53.593977
_cell_volume 614.012673
_symmetry_space_group_name_H-M "P -1"
_symmetry_group_IT_number 2
_symmetry_cell_setting 'triclinic'
loop_
_space_group_symop_operation_xyz
x,y,z
-x,-y,-z
loop_
_atom_site_type_symbol
_atom_site_label
_atom_site_fract_x
_atom_site_fract_y
_atom_site_fract_z
Si Si1 0.250734 0.499813 0.177165
Si Si2 0.162692 0.217849 0.704043
Si Si3 0.742559 0.332799 0.247270
Si Si4 0.482260 0.941732 0.685095
Si Si5 0.541023 0.687455 0.186773
Si Si6 0.807577 0.977020 0.956429
Si Si7 0.948321 0.031927 0.687264
Si Si8 0.272976 0.449983 0.612182
O O1 0.550986 0.404747 0.168596
O O2 0.154025 0.633371 0.191399
O O3 0.991053 0.540032 0.338088
O O4 0.271096 0.420786 0.011903
O O5 0.302690 0.090475 0.722903
O O6 0.333354 0.253499 0.754157
O O7 0.239027 0.161266 0.504687
O O8 0.002749 0.177281 0.120788
O O9 0.511521 0.365455 0.413992
O O10 0.837772 0.406339 0.310430
O O11 0.265694 0.930851 0.658743
O O12 0.470645 0.938004 0.855932
O O13 0.234435 0.812777 0.220319
O O14 0.555203 0.621330 0.299497
O O15 0.773665 0.015923 0.812537
O O16 0.000000 0.000000 0.000000
O O17 0.000000 0.000000 0.500000
#
# Coordination Sequence:
#
# PCOD9024271 Si02
#       8
#     2   2   2   2   2   2   2   2
#     4  11  24  41  69  95 130 171 216 271 323 390
#     4  10  22  41  64  92 132 170 213 268 329 381
#     4  11  24  44  66  99 128 172 218 259 338 385
#     4  10  22  40  64  89 128 172 214 264 321 388
#     4  11  23  42  67  94 126 167 220 267 328 385
#     4  10  23  39  66  93 127 169 214 270 317 386
#     4  11  21  41  67  91 127 169 213 267 321 390
#     4  10  24  43  66  96 132 169 206 278 321 389
#
# _framework density 26.058095000000002
#
# number of rings (size 3 to 8) (size 9 to 14) (size 15 to 20)
#    0.000    1.500    1.250    4.125   10.500    0.500 
#    2.250    0.625    0.000    0.000    0.000    0.000 
#    0.000    0.000    0.000    0.000    0.000    0.000 
#
# Total GULP energy -89547.438753 kJ/mol
# GULP energy per Si atom -5596.714922 kJ/mol
# Density = 2.599879 g / cm^3
# Si number density = 26.058095 Si / 1000 Ang^3
#
#
#
# Elastic Constant Matrix: (Units=GPa)
#
#
# Indices 1 2 3 4 5 6 
#
# 1 64.7238 17.4847 -0.7321 -0.7968 5.1205 -4.1677
# 2 17.4847 124.5822 52.7028 7.9646 0.9159 -0.9746
# 3 -0.7321 52.7028 160.9818 -22.5339 3.5907 6.1655
# 4 -0.7968 7.9646 -22.5339 51.3661 8.4490 0.2903
# 5 5.1205 0.9159 3.5907 8.4490 21.3054 -2.3336
# 6 -4.1677 -0.9746 6.1655 0.2903 -2.3336 46.0226
#
#
#
# Elastic Compliance Matrix: (Units=1/GPa)
#
#
# Indices 1 2 3 4 5 6 
#
# 1 0.016773 -0.003065 0.001455 0.002174 -0.004897 0.000997
# 2 -0.003065 0.010399 -0.004040 -0.003859 0.002571 0.000639
# 3 0.001455 -0.004040 0.008363 0.004931 -0.003682 -0.001292
# 4 0.002174 -0.003859 0.004931 0.024057 -0.010865 -0.001248
# 5 -0.004897 0.002571 -0.003682 -0.010865 0.053247 0.002873
# 6 0.000997 0.000639 -0.001292 -0.001248 0.002873 0.022159
#
#
# Mechanical properties :
#
#
# Convention : Reuss Voigt Hill
#
# Bulk Modulus (GPa) = 41.26291 54.35539 47.80915
# Shear Modulus (GPa) = 32.38829 42.46096 37.42462
#
# Velocity S-wave (km/s) = 3.52934 4.04105 3.79383
# Velocity P-wave (km/s) = 5.69892 6.53285 6.13008
#
# Compressibility (1/GPa) = 0.02423484
#
# Stress axis : x y z
#
# Youngs Moduli (GPa) = 59.61951 96.16348 119.57328
#
# Poissons Ratio (x) = 0.29471 -0.17397
# Poissons Ratio (y) = 0.18271 0.48312
# Poissons Ratio (z) = -0.08674 0.38853
#
# Static dielectric constant tensor:
#      x y z
#    x 2.216280 0.035490 -0.035800 
#    y 0.035490 1.991590 -0.046390 
#    z -0.035800 -0.046390 2.035100 
# 
# From -- ./inp_files/207643.got.cif
#   From: 2010.05.17/outbox.cif.g08.bks.cpg/sg2_104_cif.got.tgz:207643.got - 2010.06.03 11:33:40.
