data_PCOD9024177
_publ_section_title
;
Structure prediction by ZEFSAII (Michael W. Deem and Ramdas Pophale) SiO2 
 PCOD9024177
Probable space group: P -1
;
_chemical_formula_sum "Si O2"
_cell_formula_units_Z 14
_cell_length_a 8.936154
_cell_length_b 17.334712
_cell_length_c 22.648787
_cell_angle_alpha 158.726535
_cell_angle_beta 150.485489
_cell_angle_gamma 39.483303
_cell_volume 611.893087
_symmetry_space_group_name_H-M "P -1"
_symmetry_group_IT_number 2
_symmetry_cell_setting 'triclinic'
loop_
_space_group_symop_operation_xyz
x,y,z
-x,-y,-z
loop_
_atom_site_type_symbol
_atom_site_label
_atom_site_fract_x
_atom_site_fract_y
_atom_site_fract_z
Si Si1 0.422107 0.474937 0.524472
Si Si2 0.509257 0.645352 0.164700
Si Si3 0.833177 0.208937 0.547242
Si Si4 0.253730 0.930979 0.809036
Si Si5 0.806856 0.758214 0.184114
Si Si6 0.843729 0.091594 0.705660
Si Si7 0.881943 0.259930 0.258778
O O1 0.500000 0.500000 0.500000
O O2 0.664958 0.381468 0.582261
O O3 0.406331 0.721291 0.712160
O O4 0.096688 0.301390 0.304009
O O5 0.225701 0.763685 0.159641
O O6 0.849894 0.793045 0.382208
O O7 0.500000 0.500000 0.000000
O O8 0.451844 0.464175 0.066057
O O9 0.939861 0.250607 0.682033
O O10 0.658028 0.959165 0.297847
O O11 0.070754 0.906799 0.791533
O O12 0.011209 0.911364 0.659403
O O13 0.516122 0.152291 0.045422
O O14 0.961874 0.784310 0.192344
O O15 0.500000 0.000000 0.500000
O O16 0.000000 0.500000 0.500000
#
# Coordination Sequence:
#
# PCOD9024177 Si02
#       7
#     2   2   2   2   2   2   2
#     4  11  24  40  66 100 135 178 223 282 341 409
#     4  10  23  41  62  97 131 176 219 274 337 404
#     4  10  22  41  64  94 136 175 222 272 345 402
#     4  10  24  45  68  99 135 178 229 279 344 402
#     4  10  22  40  63  96 132 177 221 277 338 398
#     4  12  24  42  70 102 137 175 227 286 337 407
#     4   9  22  44  66  93 128 181 227 275 333 403
#
# _framework density 22.879812999999999
#
# number of rings (size 3 to 8) (size 9 to 14) (size 15 to 20)
#    0.000    1.714    1.429    1.286    2.000    9.714 
#    5.143    0.000    0.000    0.000    0.000    0.000 
#    0.000    0.000    0.000    0.000    0.000    0.000 
#
# Total GULP energy -77942.279194 kJ/mol
# GULP energy per Si atom -5567.305657 kJ/mol
# Density = 2.282774 g / cm^3
# Si number density = 22.879813 Si / 1000 Ang^3
#
#
#
# Elastic Constant Matrix: (Units=GPa)
#
#
# Indices 1 2 3 4 5 6 
#
# 1 129.9701 33.8601 13.1156 0.2191 26.0707 19.3194
# 2 33.8601 141.4130 16.5490 10.5466 -2.2323 17.8449
# 3 13.1156 16.5490 71.2343 9.6866 22.1262 4.4644
# 4 0.2191 10.5466 9.6866 23.4795 1.0411 -7.3717
# 5 26.0707 -2.2323 22.1262 1.0411 43.8610 9.2065
# 6 19.3194 17.8449 4.4644 -7.3717 9.2065 29.1896
#
#
#
# Elastic Compliance Matrix: (Units=1/GPa)
#
#
# Indices 1 2 3 4 5 6 
#
# 1 0.009804 -0.002009 0.000645 -0.000385 -0.005462 -0.003733
# 2 -0.002009 0.009088 -0.001845 -0.005572 0.004116 -0.006649
# 3 0.000645 -0.001845 0.018180 -0.006509 -0.009330 -0.000780
# 4 -0.000385 -0.005572 -0.006509 0.053798 -0.002011 0.018878
# 5 -0.005462 0.004116 -0.009330 -0.002011 0.032754 -0.008313
# 6 -0.003733 -0.006649 -0.000780 0.018878 -0.008313 0.048303
#
#
# Mechanical properties :
#
#
# Convention : Reuss Voigt Hill
#
# Bulk Modulus (GPa) = 32.62420 52.18519 42.40470
# Shear Modulus (GPa) = 26.51602 37.91222 32.21412
#
# Velocity S-wave (km/s) = 3.40799 4.07506 3.75637
# Velocity P-wave (km/s) = 5.45672 6.70816 6.11454
#
# Compressibility (1/GPa) = 0.03065209
#
# Stress axis : x y z
#
# Youngs Moduli (GPa) = 102.00237 110.03340 55.00502
#
# Poissons Ratio (x) = 0.22108 -0.03546
# Poissons Ratio (y) = 0.20495 0.10150
# Poissons Ratio (z) = -0.06575 0.20305
#
# Static dielectric constant tensor:
#      x y z
#    x 2.007860 -0.017580 -0.044490 
#    y -0.017580 1.892730 0.004450 
#    z -0.044490 0.004450 1.946150 
# 
# From -- ./inp_files/499744.got.cif
#   From: 2010.05.17/outbox.cif.g08.bks.cpg/sg2_250_cif.got.tgz:499744.got - 2010.06.03 11:33:40.
