data_PCOD9024764
_publ_section_title
;
Structure prediction by ZEFSAII (Michael W. Deem and Ramdas Pophale) SiO2 
 PCOD9024764
Probable space group: P -1
;
_chemical_formula_sum "Si O2"
_cell_formula_units_Z 13
_cell_length_a 12.399766
_cell_length_b 9.518683
_cell_length_c 7.425794
_cell_angle_alpha 106.175053
_cell_angle_beta 45.975806
_cell_angle_gamma 132.497830
_cell_volume 433.485688
_symmetry_space_group_name_H-M "P -1"
_symmetry_group_IT_number 2
_symmetry_cell_setting 'triclinic'
loop_
_space_group_symop_operation_xyz
x,y,z
-x,-y,-z
loop_
_atom_site_type_symbol
_atom_site_label
_atom_site_fract_x
_atom_site_fract_y
_atom_site_fract_z
Si Si1 0.243412 0.819866 0.739824
Si Si2 0.500000 0.500000 0.000000
Si Si3 0.369170 0.579345 0.805878
Si Si4 0.179319 0.991455 0.559378
Si Si5 0.362420 0.650436 0.321641
Si Si6 0.100456 0.259529 0.688779
Si Si7 0.805976 0.284532 0.746895
O O1 0.232784 0.644254 0.625204
O O2 0.500000 0.000000 0.500000
O O3 0.135482 0.851463 0.724718
O O4 0.109018 0.789498 0.050766
O O5 0.403104 0.529300 0.943971
O O6 0.422325 0.286632 0.918972
O O7 0.594609 0.793860 0.569756
O O8 0.263077 0.408971 0.716819
O O9 0.241413 0.642234 0.006972
O O10 0.061976 0.060541 0.673394
O O11 0.176091 0.875195 0.357095
O O12 0.242213 0.403734 0.397277
O O13 0.374362 0.788572 0.212109
O O14 0.000000 0.500000 0.500000
#
# Coordination Sequence:
#
# PCOD9024764 Si02
#       7
#     2   1   2   2   2   2   2
#     4  11  25  41  65 101 144 180 233 292 351 417
#     4  10  22  40  66 104 138 178 228 290 352 428
#     4  11  22  41  74 100 142 184 233 290 362 421
#     4  11  23  42  70 107 135 183 241 292 349 424
#     4  10  22  43  67  98 136 184 234 280 353 421
#     4  12  24  44  74 104 139 184 241 298 355 411
#     4  10  23  44  67  95 148 193 229 281 358 427
#
# _framework density 29.989453999999999
#
# number of rings (size 3 to 8) (size 9 to 14) (size 15 to 20)
#    0.000    1.231    1.538    4.615    2.154    1.231 
#    2.769    0.769    0.000    0.000    0.000    0.000 
#    0.000    0.000    0.000    0.000    0.000    0.000 
#
# Total GULP energy -72375.868188 kJ/mol
# GULP energy per Si atom -5567.374476 kJ/mol
# Density = 2.992120 g / cm^3
# Si number density = 29.989454 Si / 1000 Ang^3
#
#
#
# Elastic Constant Matrix: (Units=GPa)
#
#
# Indices 1 2 3 4 5 6 
#
# 1 131.1940 63.5731 27.8029 18.4204 8.3453 -36.8444
# 2 63.5731 194.2688 62.4619 51.4207 -28.4179 -42.6741
# 3 27.8029 62.4619 101.5781 19.9174 -6.6924 -0.7589
# 4 18.4204 51.4207 19.9174 63.4306 0.0183 -22.7167
# 5 8.3453 -28.4179 -6.6924 0.0183 68.3541 16.0943
# 6 -36.8444 -42.6741 -0.7589 -22.7167 16.0943 74.5935
#
#
#
# Elastic Compliance Matrix: (Units=1/GPa)
#
#
# Indices 1 2 3 4 5 6 
#
# 1 0.010795 -0.002847 -0.001712 0.001491 -0.003839 0.004968
# 2 -0.002847 0.009563 -0.003854 -0.005106 0.003546 0.001705
# 3 -0.001712 -0.003854 0.013052 -0.001772 0.000737 -0.003616
# 4 0.001491 -0.005106 -0.001772 0.021919 -0.003727 0.005277
# 5 -0.003839 0.003546 0.000737 -0.003727 0.017784 -0.004832
# 6 0.004968 0.001705 -0.003616 0.005277 -0.004832 0.019449
#
#
# Mechanical properties :
#
#
# Convention : Reuss Voigt Hill
#
# Bulk Modulus (GPa) = 60.29871 81.63520 70.96696
# Shear Modulus (GPa) = 43.51061 59.48917 51.49989
#
# Velocity S-wave (km/s) = 3.81315 4.45867 4.14849
# Velocity P-wave (km/s) = 6.28786 7.33394 6.83095
#
# Compressibility (1/GPa) = 0.01658410
#
# Stress axis : x y z
#
# Youngs Moduli (GPa) = 92.63632 104.57012 76.61628
#
# Poissons Ratio (x) = 0.29771 0.13119
# Poissons Ratio (y) = 0.26373 0.29525
# Poissons Ratio (z) = 0.15862 0.40298
#
# Static dielectric constant tensor:
#      x y z
#    x 2.703330 0.590560 0.413770 
#    y 0.590560 2.764260 0.047140 
#    z 0.413770 0.047140 2.113320 
# 
# From -- ./inp_files/295957.got.cif
#   From: 2010.05.17/outbox.cif.g08.bks.cpg/sg2_148_cif.got.tgz:295957.got - 2010.06.03 11:33:40.
