data_PCOD9024140
_publ_section_title
;
Structure prediction by ZEFSAII (Michael W. Deem and Ramdas Pophale) SiO2 
 PCOD9024140
Probable space group: P -1
;
_chemical_formula_sum "Si O2"
_cell_formula_units_Z 14
_cell_length_a 9.476685
_cell_length_b 12.950058
_cell_length_c 10.197712
_cell_angle_alpha 120.139496
_cell_angle_beta 109.910354
_cell_angle_gamma 112.836618
_cell_volume 738.876596
_symmetry_space_group_name_H-M "P -1"
_symmetry_group_IT_number 2
_symmetry_cell_setting 'triclinic'
loop_
_space_group_symop_operation_xyz
x,y,z
-x,-y,-z
loop_
_atom_site_type_symbol
_atom_site_label
_atom_site_fract_x
_atom_site_fract_y
_atom_site_fract_z
Si Si1 0.577893 0.036567 0.399416
Si Si2 0.438875 0.592723 0.596914
Si Si3 0.969396 0.672431 0.553144
Si Si4 0.146792 0.594426 0.355667
Si Si5 0.885107 0.879041 0.010924
Si Si6 0.902920 0.034715 0.383932
Si Si7 0.871891 0.223360 0.034099
O O1 0.747815 0.236841 0.576744
O O2 0.698283 0.984531 0.351077
O O3 0.500000 0.000000 0.500000
O O4 0.366966 0.930718 0.177838
O O5 0.500000 0.500000 0.500000
O O6 0.264368 0.480423 0.578568
O O7 0.337243 0.613692 0.463739
O O8 0.645913 0.758702 0.823489
O O9 0.068107 0.613261 0.475938
O O10 0.978172 0.784817 0.523116
O O11 0.088142 0.762422 0.786073
O O12 0.963025 0.403304 0.132364
O O13 0.896861 0.950581 0.198422
O O14 0.981881 0.799045 0.996418
O O15 0.000000 0.000000 0.000000
O O16 0.000000 0.000000 0.500000
#
# Coordination Sequence:
#
# PCOD9024140 Si02
#       7
#     2   2   2   2   2   2   2
#     4  11  26  44  67  91 130 180 216 266 330 388
#     4  11  19  35  61  97 127 164 206 266 327 368
#     4  10  22  40  63  94 130 164 214 270 317 391
#     4  10  23  39  64  96 130 164 218 271 316 393
#     4  12  22  38  64  98 131 165 214 267 318 392
#     4  11  25  44  64  93 131 171 215 270 327 386
#     4  11  21  41  66  97 127 167 216 269 327 380
#
# _framework density 18.947683999999999
#
# number of rings (size 3 to 8) (size 9 to 14) (size 15 to 20)
#    0.000    1.143    4.286    3.429    4.000    2.857 
#    0.000    0.714    0.000    0.000    0.000    0.000 
#    0.000    0.000    0.000    0.000    0.000    0.000 
#
# Total GULP energy -77970.641975 kJ/mol
# GULP energy per Si atom -5569.331570 kJ/mol
# Density = 1.890456 g / cm^3
# Si number density = 18.947684 Si / 1000 Ang^3
#
#
#
# Elastic Constant Matrix: (Units=GPa)
#
#
# Indices 1 2 3 4 5 6 
#
# 1 118.0908 26.8291 23.3927 -8.6540 -16.5932 7.9218
# 2 26.8291 101.4206 36.4328 -0.4768 -4.3674 18.6587
# 3 23.3927 36.4328 72.1379 1.1555 -2.2845 10.8703
# 4 -8.6540 -0.4768 1.1555 20.6253 -0.2784 -5.1087
# 5 -16.5932 -4.3674 -2.2845 -0.2784 43.7519 3.1891
# 6 7.9218 18.6587 10.8703 -5.1087 3.1891 39.2367
#
#
#
# Elastic Compliance Matrix: (Units=1/GPa)
#
#
# Indices 1 2 3 4 5 6 
#
# 1 0.010151 -0.001582 -0.002392 0.004315 0.003621 -0.000367
# 2 -0.001582 0.013081 -0.005351 -0.001200 0.000756 -0.004636
# 3 -0.002392 -0.005351 0.017702 -0.002667 -0.000374 -0.002193
# 4 0.004315 -0.001200 -0.002667 0.052200 0.001189 0.007138
# 5 0.003621 0.000756 -0.000374 0.001189 0.024499 -0.002824
# 6 -0.000367 -0.004636 -0.002193 0.007138 -0.002824 0.029532
#
#
# Mechanical properties :
#
#
# Convention : Reuss Voigt Hill
#
# Bulk Modulus (GPa) = 44.87790 51.66205 48.26997
# Shear Modulus (GPa) = 28.86118 34.38908 31.62513
#
# Velocity S-wave (km/s) = 3.90706 4.26484 4.08987
# Velocity P-wave (km/s) = 6.64003 7.18169 6.91617
#
# Compressibility (1/GPa) = 0.02228268
#
# Stress axis : x y z
#
# Youngs Moduli (GPa) = 98.51296 76.44824 56.49070
#
# Poissons Ratio (x) = 0.12097 0.13511
# Poissons Ratio (y) = 0.15588 0.30231
# Poissons Ratio (z) = 0.23561 0.40911
#
# Static dielectric constant tensor:
#      x y z
#    x 1.458410 0.034960 0.078160 
#    y 0.034960 1.708300 0.004860 
#    z 0.078160 0.004860 1.495550 
# 
# From -- ./inp_files/183244.got.cif
#   From: 2010.05.17/outbox.cif.g08.bks.cpg/sg2_92_cif.got.tgz:183244.got - 2010.06.03 11:33:40.
