data_PCOD9024940
_publ_section_title
;
Structure prediction by ZEFSAII (Michael W. Deem and Ramdas Pophale) SiO2 
 PCOD9024940
Probable space group: P -1
;
_chemical_formula_sum "Si O2"
_cell_formula_units_Z 14
_cell_length_a 11.961277
_cell_length_b 13.454447
_cell_length_c 14.392101
_cell_angle_alpha 146.949730
_cell_angle_beta 145.319209
_cell_angle_gamma 57.759448
_cell_volume 621.597941
_symmetry_space_group_name_H-M "P -1"
_symmetry_group_IT_number 2
_symmetry_cell_setting 'triclinic'
loop_
_space_group_symop_operation_xyz
x,y,z
-x,-y,-z
loop_
_atom_site_type_symbol
_atom_site_label
_atom_site_fract_x
_atom_site_fract_y
_atom_site_fract_z
Si Si1 0.256458 0.295477 0.778169
Si Si2 0.632100 0.281975 0.900992
Si Si3 0.147903 0.501099 0.185411
Si Si4 0.749295 0.931448 0.686604
Si Si5 0.072861 0.083426 0.865970
Si Si6 0.487893 0.488793 0.692684
Si Si7 0.570423 0.228340 0.259878
O O1 0.477404 0.289082 0.884245
O O2 0.227182 0.476749 0.848251
O O3 0.327337 0.366975 0.988967
O O4 0.046695 0.076037 0.426993
O O5 0.454497 0.170127 0.607712
O O6 0.748478 0.139886 0.886819
O O7 0.372742 0.536712 0.315290
O O8 0.223854 0.676484 0.452799
O O9 0.021830 0.273939 0.969430
O O10 0.000000 0.500000 0.000000
O O11 0.684128 0.740558 0.563371
O O12 0.967388 0.980778 0.812209
O O13 0.340972 0.188613 0.123204
O O14 0.378140 0.614500 0.668254
O O15 0.500000 0.000000 0.000000
#
# Coordination Sequence:
#
# PCOD9024940 Si02
#       7
#     2   2   2   2   2   2   2
#     4   9  18  31  60 102 134 170 216 266 312 390
#     4   8  16  30  52  97 147 166 209 264 323 371
#     4  11  27  44  67  93 127 174 224 267 331 401
#     4   9  18  34  64  95 131 178 212 270 320 387
#     4  10  22  40  66  96 138 166 225 263 332 384
#     4  10  22  40  66  96 138 166 225 263 332 384
#     4  11  27  48  65  91 137 173 215 284 332 381
#
# _framework density 22.522597000000001
#
# number of rings (size 3 to 8) (size 9 to 14) (size 15 to 20)
#    0.000    2.286    0.000    2.571   12.000    1.143 
#    0.000    3.571    0.000    0.000    0.000    0.000 
#    0.000    0.000    0.000    0.000    0.000    0.000 
#
# Total GULP energy -78170.498147 kJ/mol
# GULP energy per Si atom -5583.607011 kJ/mol
# Density = 2.247133 g / cm^3
# Si number density = 22.522597 Si / 1000 Ang^3
#
#
#
# Elastic Constant Matrix: (Units=GPa)
#
#
# Indices 1 2 3 4 5 6 
#
# 1 79.8992 37.3239 31.3965 16.8873 0.6277 13.7354
# 2 37.3239 102.4694 52.4162 17.4995 -4.8737 8.8518
# 3 31.3965 52.4162 143.7269 3.1254 -33.6373 13.8895
# 4 16.8873 17.4995 3.1254 37.4195 2.0623 -1.0274
# 5 0.6277 -4.8737 -33.6373 2.0623 41.2908 8.2119
# 6 13.7354 8.8518 13.8895 -1.0274 8.2119 24.9638
#
#
#
# Elastic Compliance Matrix: (Units=1/GPa)
#
#
# Indices 1 2 3 4 5 6 
#
# 1 0.017569 -0.003878 -0.001608 -0.006177 -0.000219 -0.007579
# 2 -0.003878 0.014227 -0.004707 -0.004401 -0.001907 0.000154
# 3 -0.001608 -0.004707 0.012354 0.001069 0.011053 -0.007911
# 4 -0.006177 -0.004401 0.001069 0.031792 -0.002430 0.006472
# 5 -0.000219 -0.001907 0.011053 -0.002430 0.036601 -0.017493
# 6 -0.007579 0.000154 -0.007911 0.006472 -0.017493 0.054596
#
#
# Mechanical properties :
#
#
# Convention : Reuss Voigt Hill
#
# Bulk Modulus (GPa) = 42.08023 63.15206 52.61614
# Shear Modulus (GPa) = 25.58252 34.39872 29.99062
#
# Velocity S-wave (km/s) = 3.37391 3.91231 3.65304
# Velocity P-wave (km/s) = 5.82253 6.96480 6.41912
#
# Compressibility (1/GPa) = 0.02376413
#
# Stress axis : x y z
#
# Youngs Moduli (GPa) = 56.91706 70.29066 80.94863
#
# Poissons Ratio (x) = 0.27256 0.13019
# Poissons Ratio (y) = 0.22070 0.38101
# Poissons Ratio (z) = 0.09154 0.33084
#
# Static dielectric constant tensor:
#      x y z
#    x 1.842340 -0.123160 -0.074180 
#    y -0.123160 1.587530 -0.298910 
#    z -0.074180 -0.298910 1.532830 
# 
# From -- ./inp_files/522697.got.cif
#   From: 2010.05.17/outbox.cif.g08.bks.cpg/sg2_262_cif.got.tgz:522697.got - 2010.06.03 11:33:40.
