data_PCOD9024735
_publ_section_title
;
Structure prediction by ZEFSAII (Michael W. Deem and Ramdas Pophale) SiO2 
 PCOD9024735
Probable space group: P -1
;
_chemical_formula_sum "Si O2"
_cell_formula_units_Z 16
_cell_length_a 17.191606
_cell_length_b 8.872912
_cell_length_c 11.836084
_cell_angle_alpha 78.821085
_cell_angle_beta 48.541579
_cell_angle_gamma 40.965086
_cell_volume 693.940588
_symmetry_space_group_name_H-M "P -1"
_symmetry_group_IT_number 2
_symmetry_cell_setting 'triclinic'
loop_
_space_group_symop_operation_xyz
x,y,z
-x,-y,-z
loop_
_atom_site_type_symbol
_atom_site_label
_atom_site_fract_x
_atom_site_fract_y
_atom_site_fract_z
Si Si1 0.900724 0.473245 0.149549
Si Si2 0.870057 0.285896 0.013627
Si Si3 0.880951 0.032030 0.392054
Si Si4 0.127840 0.571781 0.398262
Si Si5 0.496100 0.387300 0.818410
Si Si6 0.740780 0.872158 0.810763
Si Si7 0.326048 0.385493 0.470897
Si Si8 0.687946 0.060502 0.072952
O O1 0.815155 0.486017 0.125897
O O2 0.743669 0.665042 0.374938
O O3 0.000000 0.500000 0.000000
O O4 0.101280 0.145565 0.056570
O O5 0.678165 0.455311 0.115327
O O6 0.010665 0.164952 0.794559
O O7 0.000000 0.000000 0.000000
O O8 0.036704 0.826318 0.376029
O O9 0.694728 0.162541 0.586561
O O10 0.795220 0.310401 0.416718
O O11 0.264696 0.438876 0.391724
O O12 0.233842 0.323525 0.244456
O O13 0.938814 0.718953 0.610497
O O14 0.555700 0.194637 0.886649
O O15 0.434211 0.632901 0.888389
O O16 0.721640 0.904899 0.958432
O O17 0.556670 0.140561 0.282219
#
# Coordination Sequence:
#
# PCOD9024735 Si02
#       8
#     2   2   2   2   2   2   2   2
#     4  12  28  46  68  97 140 183 226 286 337 403
#     4  12  24  44  72  96 133 184 228 274 336 407
#     4  10  23  41  69 105 134 177 227 283 331 400
#     4  10  22  40  68 100 142 179 219 279 345 405
#     4  10  23  42  69 103 133 178 228 282 332 403
#     4  10  22  40  66 101 141 178 221 280 345 400
#     4  11  23  43  69  99 136 181 229 275 342 406
#     4  11  23  42  69  99 137 177 227 285 335 401
#
# _framework density 23.056726999999999
#
# number of rings (size 3 to 8) (size 9 to 14) (size 15 to 20)
#    0.000    1.250    3.750    0.750    3.500    4.500 
#    0.000    0.000    0.000    0.000    0.000    0.000 
#    0.000    0.000    0.000    0.000    0.000    0.000 
#
# Total GULP energy -89523.474989 kJ/mol
# GULP energy per Si atom -5595.217187 kJ/mol
# Density = 2.300425 g / cm^3
# Si number density = 23.056727 Si / 1000 Ang^3
#
#
#
# Elastic Constant Matrix: (Units=GPa)
#
#
# Indices 1 2 3 4 5 6 
#
# 1 92.7721 -3.8620 28.5410 5.4156 4.8330 -12.8414
# 2 -3.8620 47.9258 17.7381 -7.1240 1.2248 -1.5031
# 3 28.5410 17.7381 118.0608 -7.4711 4.2214 -4.7006
# 4 5.4156 -7.1240 -7.4711 28.2973 -3.0319 -1.8956
# 5 4.8330 1.2248 4.2214 -3.0319 40.8234 -0.4830
# 6 -12.8414 -1.5031 -4.7006 -1.8956 -0.4830 24.9332
#
#
#
# Elastic Compliance Matrix: (Units=1/GPa)
#
#
# Indices 1 2 3 4 5 6 
#
# 1 0.012932 0.002110 -0.003320 -0.002569 -0.001372 0.005940
# 2 0.002110 0.023123 -0.003601 0.004589 -0.000205 0.002147
# 3 -0.003320 -0.003601 0.009979 0.002334 -0.000356 0.000125
# 4 -0.002569 0.004589 0.002334 0.038057 0.002779 0.002341
# 5 -0.001372 -0.000205 -0.000356 0.002779 0.024906 -0.000092
# 6 0.005940 0.002147 0.000125 0.002341 -0.000092 0.043495
#
#
# Mechanical properties :
#
#
# Convention : Reuss Voigt Hill
#
# Bulk Modulus (GPa) = 27.46324 38.17698 32.82011
# Shear Modulus (GPa) = 28.69391 33.23354 30.96373
#
# Velocity S-wave (km/s) = 3.53156 3.80067 3.66859
# Velocity P-wave (km/s) = 5.34474 5.98782 5.67539
#
# Compressibility (1/GPa) = 0.03641231
#
# Stress axis : x y z
#
# Youngs Moduli (GPa) = 77.32702 43.24670 100.20677
#
# Poissons Ratio (x) = -0.09127 0.33273
# Poissons Ratio (y) = -0.16320 0.36086
# Poissons Ratio (z) = 0.25676 0.15574
#
# Static dielectric constant tensor:
#      x y z
#    x 1.803740 0.003080 -0.010260 
#    y 0.003080 1.911160 0.006530 
#    z -0.010260 0.006530 1.840790 
# 
# From -- ./inp_files/462114.got.cif
#   From: 2010.05.17/outbox.cif.g08.bks.cpg/sg2_232_cif.got.tgz:462114.got - 2010.06.03 11:33:40.
