data_PCOD9024167
_publ_section_title
;
Structure prediction by ZEFSAII (Michael W. Deem and Ramdas Pophale) SiO2 
 PCOD9024167
Probable space group: P -1
;
_chemical_formula_sum "Si O2"
_cell_formula_units_Z 14
_cell_length_a 12.330761
_cell_length_b 6.450408
_cell_length_c 21.509991
_cell_angle_alpha 129.450458
_cell_angle_beta 151.288023
_cell_angle_gamma 56.936102
_cell_volume 634.344704
_symmetry_space_group_name_H-M "P -1"
_symmetry_group_IT_number 2
_symmetry_cell_setting 'triclinic'
loop_
_space_group_symop_operation_xyz
x,y,z
-x,-y,-z
loop_
_atom_site_type_symbol
_atom_site_label
_atom_site_fract_x
_atom_site_fract_y
_atom_site_fract_z
Si Si1 0.146405 0.189879 0.243020
Si Si2 0.454953 0.119502 0.567801
Si Si3 0.908985 0.690787 0.897868
Si Si4 0.760928 0.751115 0.969795
Si Si5 0.741193 0.355112 0.283126
Si Si6 0.140734 0.495864 0.425799
Si Si7 0.116039 0.077860 0.490021
O O1 0.181486 0.342011 0.224090
O O2 0.174548 0.389557 0.353031
O O3 0.326531 0.953292 0.296539
O O4 0.905156 0.031243 0.097134
O O5 0.354396 0.408379 0.557066
O O6 0.246282 0.989633 0.476157
O O7 0.500000 0.000000 0.500000
O O8 0.753629 0.674356 0.878046
O O9 0.100732 0.476722 0.968036
O O10 0.000000 0.000000 0.000000
O O11 0.510448 0.758380 0.872133
O O12 0.739949 0.668110 0.362595
O O13 0.911436 0.354554 0.310327
O O14 0.875832 0.191122 0.371630
O O15 0.108328 0.810681 0.474801
#
# Coordination Sequence:
#
# PCOD9024167 Si02
#       7
#     2   2   2   2   2   2   2
#     4  10  22  40  63  96 124 162 203 253 320 364
#     4   9  21  39  61  94 126 157 205 254 314 364
#     4   9  21  38  59  93 122 162 205 245 312 368
#     4  10  22  41  62  91 127 160 202 264 303 367
#     4  10  23  42  61  90 123 163 213 252 309 361
#     4  10  22  42  64  89 126 165 210 251 304 374
#     4  10  22  41  62  89 120 168 209 257 302 362
#
# _framework density 22.070018000000001
#
# number of rings (size 3 to 8) (size 9 to 14) (size 15 to 20)
#    0.000    2.286    0.000    0.429    6.000    9.714 
#    5.143    1.429    0.000    0.000    0.000    0.000 
#    0.000    0.000    0.000    0.000    0.000    0.000 
#
# Total GULP energy -78141.694256 kJ/mol
# GULP energy per Si atom -5581.549590 kJ/mol
# Density = 2.201979 g / cm^3
# Si number density = 22.070018 Si / 1000 Ang^3
#
#
#
# Elastic Constant Matrix: (Units=GPa)
#
#
# Indices 1 2 3 4 5 6 
#
# 1 99.2996 30.5507 29.6269 -22.7419 -12.1046 8.1094
# 2 30.5507 121.0910 39.9387 -7.7311 0.1936 12.3151
# 3 29.6269 39.9387 85.8048 -16.5634 7.8282 8.9266
# 4 -22.7419 -7.7311 -16.5634 19.3522 2.2966 -5.6305
# 5 -12.1046 0.1936 7.8282 2.2966 43.2893 -6.7166
# 6 8.1094 12.3151 8.9266 -5.6305 -6.7166 32.9091
#
#
#
# Elastic Compliance Matrix: (Units=1/GPa)
#
#
# Indices 1 2 3 4 5 6 
#
# 1 0.015210 -0.002434 -0.001618 0.015352 0.003901 0.001024
# 2 -0.002434 0.010361 -0.004293 -0.003155 -0.000201 -0.002694
# 3 -0.001618 -0.004293 0.016867 0.010869 -0.004307 -0.001590
# 4 0.015352 -0.003155 0.010869 0.080173 -0.000666 0.008030
# 5 0.003901 -0.000201 -0.004307 -0.000666 0.025851 0.005444
# 6 0.001024 -0.002694 -0.001590 0.008030 0.005444 0.034059
#
#
# Mechanical properties :
#
#
# Convention : Reuss Voigt Hill
#
# Bulk Modulus (GPa) = 38.83562 56.26978 47.55270
# Shear Modulus (GPa) = 24.06240 32.84874 28.45557
#
# Velocity S-wave (km/s) = 3.30551 3.86215 3.59462
# Velocity P-wave (km/s) = 5.67480 6.74089 6.23069
#
# Compressibility (1/GPa) = 0.02574956
#
# Stress axis : x y z
#
# Youngs Moduli (GPa) = 65.74643 96.51549 59.28599
#
# Poissons Ratio (x) = 0.23493 0.09591
# Poissons Ratio (y) = 0.16003 0.25449
# Poissons Ratio (z) = 0.10636 0.41431
#
# Static dielectric constant tensor:
#      x y z
#    x 1.859570 0.005310 -0.035950 
#    y 0.005310 1.815730 0.028590 
#    z -0.035950 0.028590 1.820570 
# 
# From -- ./inp_files/118830.got.cif
#   From: 2010.05.17/outbox.cif.g08.bks.cpg/sg2_60_cif.got.tgz:118830.got - 2010.06.03 11:33:40.
