data_PCOD9024580
_publ_section_title
;
Structure prediction by ZEFSAII (Michael W. Deem and Ramdas Pophale) SiO2 
 PCOD9024580
Probable space group: P -1
;
_chemical_formula_sum "Si O2"
_cell_formula_units_Z 14
_cell_length_a 9.137672
_cell_length_b 7.878496
_cell_length_c 17.864618
_cell_angle_alpha 57.789882
_cell_angle_beta 50.665537
_cell_angle_gamma 32.214455
_cell_volume 530.269737
_symmetry_space_group_name_H-M "P -1"
_symmetry_group_IT_number 2
_symmetry_cell_setting 'triclinic'
loop_
_space_group_symop_operation_xyz
x,y,z
-x,-y,-z
loop_
_atom_site_type_symbol
_atom_site_label
_atom_site_fract_x
_atom_site_fract_y
_atom_site_fract_z
Si Si1 0.630754 0.882695 0.228008
Si Si2 0.271356 0.889613 0.635971
Si Si3 0.544977 0.386920 0.201663
Si Si4 0.810706 0.002752 0.914804
Si Si5 0.277194 0.272243 0.110717
Si Si6 0.138266 0.422255 0.554198
Si Si7 0.219953 0.623631 0.601740
O O1 0.659979 0.664382 0.322118
O O2 0.974643 0.631450 0.148325
O O3 0.523740 0.174304 0.233564
O O4 0.413735 0.033777 0.191657
O O5 0.140714 0.776633 0.890631
O O6 0.529885 0.773341 0.527395
O O7 0.126233 0.209784 0.642093
O O8 0.090358 0.893149 0.638441
O O9 0.286841 0.736940 0.169376
O O10 0.581185 0.355877 0.287005
O O11 0.809917 0.802221 0.911937
O O12 0.551554 0.186949 0.016560
O O13 0.016753 0.691262 0.586646
O O14 0.000000 0.500000 0.500000
O O15 0.500000 0.500000 0.500000
#
# Coordination Sequence:
#
# PCOD9024580 Si02
#       7
#     2   2   2   2   2   2   2
#     4  12  25  45  69 103 138 183 234 287 343 420
#     4  10  22  41  62  92 134 177 223 283 341 410
#     4  12  25  42  71 102 142 179 234 285 347 413
#     4  11  25  45  70 103 136 185 227 289 349 412
#     4  11  25  46  72 100 140 179 236 282 348 423
#     4  10  22  40  65  93 128 173 233 281 340 406
#     4  10  22  45  64  96 136 181 227 283 346 403
#
# _framework density 26.40166
#
# number of rings (size 3 to 8) (size 9 to 14) (size 15 to 20)
#    0.000    1.143    1.429    4.286    2.000    7.429 
#    5.143    0.000    0.000    0.000    0.000    0.000 
#    0.000    0.000    0.000    0.000    0.000    0.000 
#
# Total GULP energy -78481.786444 kJ/mol
# GULP energy per Si atom -5605.841889 kJ/mol
# Density = 2.634157 g / cm^3
# Si number density = 26.401660 Si / 1000 Ang^3
#
#
#
# Elastic Constant Matrix: (Units=GPa)
#
#
# Indices 1 2 3 4 5 6 
#
# 1 138.3902 19.7618 15.4425 6.3584 -1.6164 22.0193
# 2 19.7618 69.4858 13.5171 12.9070 2.3812 3.1756
# 3 15.4425 13.5171 102.4331 -3.3444 -13.1043 9.4487
# 4 6.3584 12.9070 -3.3444 36.6853 -3.2283 3.0301
# 5 -1.6164 2.3812 -13.1043 -3.2283 41.7125 -4.0564
# 6 22.0193 3.1756 9.4487 3.0301 -4.0564 46.6614
#
#
#
# Elastic Compliance Matrix: (Units=1/GPa)
#
#
# Indices 1 2 3 4 5 6 
#
# 1 0.008166 -0.001923 -0.000688 -0.000523 -0.000177 -0.003565
# 2 -0.001923 0.016566 -0.002414 -0.005947 -0.002194 0.000464
# 3 -0.000688 -0.002414 0.010862 0.002400 0.003558 -0.001557
# 4 -0.000523 -0.005947 0.002400 0.030071 0.003254 -0.001505
# 5 -0.000177 -0.002194 0.003558 0.003254 0.025610 0.001527
# 6 -0.003565 0.000464 -0.001557 -0.001505 0.001527 0.023627
#
#
# Mechanical properties :
#
#
# Convention : Reuss Voigt Hill
#
# Bulk Modulus (GPa) = 39.14620 45.30577 42.22598
# Shear Modulus (GPa) = 37.46211 42.45100 39.95655
#
# Velocity S-wave (km/s) = 3.77096 4.01420 3.89448
# Velocity P-wave (km/s) = 5.81545 6.21953 6.02088
#
# Compressibility (1/GPa) = 0.02554526
#
# Stress axis : x y z
#
# Youngs Moduli (GPa) = 122.45202 60.36333 92.06467
#
# Poissons Ratio (x) = 0.11605 0.06337
# Poissons Ratio (y) = 0.23542 0.22223
# Poissons Ratio (z) = 0.08429 0.14571
#
# Static dielectric constant tensor:
#      x y z
#    x 2.063800 -0.003650 0.011990 
#    y -0.003650 2.049430 0.028860 
#    z 0.011990 0.028860 2.100360 
# 
# From -- ./inp_files/566522.got.cif
#   From: 2010.05.17/outbox.cif.g08.bks.cpg/sg2_284_cif.got.tgz:566522.got - 2010.06.03 11:33:40.
