data_PCOD9024999
_publ_section_title
;
Structure prediction by ZEFSAII (Michael W. Deem and Ramdas Pophale) SiO2 
 PCOD9024999
Probable space group: P -1
;
_chemical_formula_sum "Si O2"
_cell_formula_units_Z 15
_cell_length_a 7.757402
_cell_length_b 8.855309
_cell_length_c 12.835878
_cell_angle_alpha 117.002880
_cell_angle_beta 63.319249
_cell_angle_gamma 125.840866
_cell_volume 616.045370
_symmetry_space_group_name_H-M "P -1"
_symmetry_group_IT_number 2
_symmetry_cell_setting 'triclinic'
loop_
_space_group_symop_operation_xyz
x,y,z
-x,-y,-z
loop_
_atom_site_type_symbol
_atom_site_label
_atom_site_fract_x
_atom_site_fract_y
_atom_site_fract_z
Si Si1 0.715374 0.209728 0.894285
Si Si2 0.184689 0.999145 0.667391
Si Si3 0.355002 0.777730 0.838392
Si Si4 0.913794 0.342658 0.562464
Si Si5 0.500000 0.500000 0.000000
Si Si6 0.173257 0.367031 0.702110
Si Si7 0.044555 0.173421 0.122192
Si Si8 0.524647 0.301704 0.788045
O O1 0.591910 0.312243 0.898003
O O2 0.957138 0.312598 0.814222
O O3 0.574920 0.983626 0.830607
O O4 0.701447 0.228825 0.026040
O O5 0.224377 0.194904 0.660971
O O6 0.387779 0.083733 0.718799
O O7 0.183132 0.856989 0.536082
O O8 0.982240 0.898416 0.772417
O O9 0.359882 0.584942 0.741374
O O10 0.146342 0.770084 0.832024
O O11 0.091180 0.353942 0.601520
O O12 0.000000 0.500000 0.500000
O O13 0.736043 0.377009 0.684766
O O14 0.719503 0.652196 0.913657
O O15 0.368949 0.391130 0.885771
O O16 0.000000 0.000000 0.000000
#
# Coordination Sequence:
#
# PCOD9024999 Si02
#       8
#     2   2   2   2   1   2   2   2
#     4  10  22  40  66  99 142 185 229 281 352 425
#     4  12  24  46  70 104 141 183 237 298 355 413
#     4  11  22  41  67  99 144 190 232 281 359 424
#     4  11  25  49  73  96 135 193 241 288 355 427
#     4  12  24  40  68 110 144 178 238 276 364 410
#     4  11  25  43  68 101 138 181 234 303 350 418
#     4  12  23  42  70 105 147 186 238 293 348 419
#     4  11  24  42  71 102 141 183 230 295 348 430
#
# _framework density 24.348856000000001
#
# number of rings (size 3 to 8) (size 9 to 14) (size 15 to 20)
#    0.000    0.800    2.667    5.200    1.867    1.067 
#    2.400    0.667    0.000    0.000    0.000    0.000 
#    0.000    0.000    0.000    0.000    0.000    0.000 
#
# Total GULP energy -83766.244553 kJ/mol
# GULP energy per Si atom -5584.416304 kJ/mol
# Density = 2.429344 g / cm^3
# Si number density = 24.348856 Si / 1000 Ang^3
#
#
#
# Elastic Constant Matrix: (Units=GPa)
#
#
# Indices 1 2 3 4 5 6 
#
# 1 49.1640 21.4645 20.9393 -7.6187 11.4005 -10.8831
# 2 21.4645 163.5896 68.6761 8.3321 7.6426 -7.1234
# 3 20.9393 68.6761 174.4577 24.5479 18.4775 -5.4844
# 4 -7.6187 8.3321 24.5479 56.3821 -2.5265 1.0539
# 5 11.4005 7.6426 18.4775 -2.5265 36.7082 0.2238
# 6 -10.8831 -7.1234 -5.4844 1.0539 0.2238 39.1626
#
#
#
# Elastic Compliance Matrix: (Units=1/GPa)
#
#
# Indices 1 2 3 4 5 6 
#
# 1 0.025651 -0.002193 -0.001946 0.004237 -0.006277 0.006379
# 2 -0.002193 0.007546 -0.002713 -0.000217 0.000459 0.000386
# 3 -0.001946 -0.002713 0.007838 -0.003413 -0.003012 0.000172
# 4 0.004237 -0.000217 -0.003413 0.019906 0.001817 0.000114
# 5 -0.006277 0.000459 -0.003012 0.001817 0.030751 -0.002307
# 6 0.006379 0.000386 0.000172 0.000114 -0.002307 0.027412
#
#
# Mechanical properties :
#
#
# Convention : Reuss Voigt Hill
#
# Bulk Modulus (GPa) = 36.58998 67.70788 52.14893
# Shear Modulus (GPa) = 35.23124 44.85936 40.04530
#
# Velocity S-wave (km/s) = 3.80799 4.29693 4.05983
# Velocity P-wave (km/s) = 5.86467 7.24472 6.59091
#
# Compressibility (1/GPa) = 0.02732988
#
# Stress axis : x y z
#
# Youngs Moduli (GPa) = 38.98517 132.51842 127.57745
#
# Poissons Ratio (x) = 0.29067 0.24828
# Poissons Ratio (y) = 0.08551 0.34614
# Poissons Ratio (z) = 0.07587 0.35955
#
# Static dielectric constant tensor:
#      x y z
#    x 2.066230 -0.026050 0.048970 
#    y -0.026050 2.074940 0.121950 
#    z 0.048970 0.121950 2.005930 
# 
# From -- ./inp_files/383159.got.cif
#   From: 2010.05.17/outbox.cif.g08.bks.cpg/sg2_192_cif.got.tgz:383159.got - 2010.06.03 11:33:40.
