data_PCOD9024226
_publ_section_title
;
Structure prediction by ZEFSAII (Michael W. Deem and Ramdas Pophale) SiO2 
 PCOD9024226
Probable space group: P -1
;
_chemical_formula_sum "Si O2"
_cell_formula_units_Z 13
_cell_length_a 12.466332
_cell_length_b 12.450143
_cell_length_c 5.064478
_cell_angle_alpha 109.290815
_cell_angle_beta 91.433187
_cell_angle_gamma 55.282932
_cell_volume 596.197979
_symmetry_space_group_name_H-M "P -1"
_symmetry_group_IT_number 2
_symmetry_cell_setting 'triclinic'
loop_
_space_group_symop_operation_xyz
x,y,z
-x,-y,-z
loop_
_atom_site_type_symbol
_atom_site_label
_atom_site_fract_x
_atom_site_fract_y
_atom_site_fract_z
Si Si1 0.660424 0.076154 0.027466
Si Si2 0.882621 0.754390 0.895544
Si Si3 0.206223 0.405507 0.925385
Si Si4 0.502771 0.862976 0.431580
Si Si5 0.000000 0.500000 0.500000
Si Si6 0.137995 0.848309 0.821696
Si Si7 0.889567 0.288817 0.800403
O O1 0.538466 0.137499 0.272558
O O2 0.747400 0.129211 0.158660
O O3 0.755489 0.905156 0.924431
O O4 0.606254 0.118108 0.762134
O O5 0.849620 0.641686 0.880169
O O6 0.960582 0.769697 0.142931
O O7 0.985200 0.653880 0.595252
O O8 0.352771 0.273467 0.750070
O O9 0.109597 0.447861 0.707658
O O10 0.195359 0.543329 0.112744
O O11 0.500000 0.000000 0.500000
O O12 0.117924 0.793798 0.505849
O O13 0.165883 0.742642 0.972128
O O14 0.000000 0.000000 0.000000
#
# Coordination Sequence:
#
# PCOD9024226 Si02
#       7
#     2   2   2   2   1   2   2
#     4  12  27  45  71 102 140 181 239 282 339 418
#     4  11  24  39  71 104 143 173 229 298 355 408
#     4  11  26  42  71 103 146 178 232 290 356 408
#     4  12  26  46  71 105 142 185 227 280 354 421
#     4  10  22  40  64 102 138 176 216 284 362 400
#     4  12  26  46  71 100 139 185 237 286 341 407
#     4  11  26  43  70 106 135 182 231 293 349 406
#
# _framework density 21.804838
#
# number of rings (size 3 to 8) (size 9 to 14) (size 15 to 20)
#    0.000    0.615    3.077    4.615   12.923    0.000 
#    0.000    4.615    0.000    0.000    0.000    0.000 
#    0.000    0.000    0.000    0.000    0.000    0.000 
#
# Total GULP energy -72607.653021 kJ/mol
# GULP energy per Si atom -5585.204079 kJ/mol
# Density = 2.175521 g / cm^3
# Si number density = 21.804838 Si / 1000 Ang^3
#
#
#
# Elastic Constant Matrix: (Units=GPa)
#
#
# Indices 1 2 3 4 5 6 
#
# 1 61.6764 24.0189 13.1403 16.9333 5.5737 6.4317
# 2 24.0189 95.7364 19.6533 26.7776 -11.3400 -11.5779
# 3 13.1403 19.6533 121.7369 6.2002 23.8109 -7.4174
# 4 16.9333 26.7776 6.2002 37.3121 1.9274 -6.6461
# 5 5.5737 -11.3400 23.8109 1.9274 42.3604 -1.2896
# 6 6.4317 -11.5779 -7.4174 -6.6461 -1.2896 42.5760
#
#
#
# Elastic Compliance Matrix: (Units=1/GPa)
#
#
# Indices 1 2 3 4 5 6 
#
# 1 0.020860 -0.004070 -0.000956 -0.007232 -0.003140 -0.005648
# 2 -0.004070 0.015668 -0.002776 -0.008710 0.006785 0.003238
# 3 -0.000956 -0.002776 0.009994 0.001293 -0.006259 0.001143
# 4 -0.007232 -0.008710 0.001293 0.037133 -0.003655 0.004635
# 5 -0.003140 0.006785 -0.006259 -0.003655 0.029568 0.001554
# 6 -0.005648 0.003238 0.001143 0.004635 0.001554 0.026191
#
#
# Mechanical properties :
#
#
# Convention : Reuss Voigt Hill
#
# Bulk Modulus (GPa) = 32.34450 43.64164 37.99307
# Shear Modulus (GPa) = 30.24350 39.27218 34.75784
#
# Velocity S-wave (km/s) = 3.72830 4.24851 3.99688
# Velocity P-wave (km/s) = 5.77922 6.64263 6.22591
#
# Compressibility (1/GPa) = 0.03091715
#
# Stress axis : x y z
#
# Youngs Moduli (GPa) = 47.93761 63.82569 100.06091
#
# Poissons Ratio (x) = 0.25974 0.09571
# Poissons Ratio (y) = 0.19508 0.27781
# Poissons Ratio (z) = 0.04585 0.17721
#
# Static dielectric constant tensor:
#      x y z
#    x 1.634480 0.072860 0.255610 
#    y 0.072860 1.807620 -0.030020 
#    z 0.255610 -0.030020 1.315420 
# 
# From -- ./inp_files/65176.got.cif
#   From: 2010.05.17/outbox.cif.g08.bks.cpg/sg2_33_cif.got.tgz:65176.got - 2010.06.03 11:33:40.
