data_PCOD9024405
_publ_section_title
;
Structure prediction by ZEFSAII (Michael W. Deem and Ramdas Pophale) SiO2 
 PCOD9024405
Probable space group: P -1
;
_chemical_formula_sum "Si O2"
_cell_formula_units_Z 12
_cell_length_a 8.622088
_cell_length_b 9.452419
_cell_length_c 15.967903
_cell_angle_alpha 43.420592
_cell_angle_beta 142.882844
_cell_angle_gamma 117.339457
_cell_volume 516.732926
_symmetry_space_group_name_H-M "P -1"
_symmetry_group_IT_number 2
_symmetry_cell_setting 'triclinic'
loop_
_space_group_symop_operation_xyz
x,y,z
-x,-y,-z
loop_
_atom_site_type_symbol
_atom_site_label
_atom_site_fract_x
_atom_site_fract_y
_atom_site_fract_z
Si Si1 0.046631 0.179867 0.203166
Si Si2 0.571339 0.561730 0.912063
Si Si3 0.329976 0.964630 0.020350
Si Si4 0.542637 0.442070 0.641106
Si Si5 0.370625 0.741536 0.589845
Si Si6 0.116653 0.205098 0.969144
O O1 0.325002 0.236692 0.284711
O O2 0.143915 0.966298 0.393000
O O3 0.818688 0.371656 0.064186
O O4 0.910828 0.115051 0.089282
O O5 0.354372 0.612813 0.722469
O O6 0.500000 0.500000 0.000000
O O7 0.654338 0.779908 0.875295
O O8 0.484839 0.779899 0.233098
O O9 0.500000 0.000000 0.000000
O O10 0.231737 0.187698 0.932422
O O11 0.500000 0.500000 0.500000
O O12 0.374983 0.622572 0.554268
O O13 0.864155 0.403195 0.798716
O O14 0.000000 0.000000 0.000000
#
# Coordination Sequence:
#
# PCOD9024405 Si02
#       6
#     2   2   2   2   2   2
#     4  11  23  43  72  98 131 180 232 275 340 414
#     4  12  24  43  69 101 141 175 220 288 351 402
#     4  11  23  43  67  98 141 182 221 284 350 406
#     4  11  22  41  67  98 132 177 231 276 335 410
#     4  11  23  43  72  99 130 178 235 279 333 413
#     4  10  22  40  64  95 132 180 227 269 336 414
#
# _framework density 23.222829000000001
#
# number of rings (size 3 to 8) (size 9 to 14) (size 15 to 20)
#    0.000    1.000    3.333    4.500    0.000    4.667 
#    3.000    1.667    0.000    0.000    0.000    0.000 
#    0.000    0.000    0.000    0.000    0.000    0.000 
#
# Total GULP energy -66899.121930 kJ/mol
# GULP energy per Si atom -5574.926828 kJ/mol
# Density = 2.316997 g / cm^3
# Si number density = 23.222829 Si / 1000 Ang^3
#
#
#
# Elastic Constant Matrix: (Units=GPa)
#
#
# Indices 1 2 3 4 5 6 
#
# 1 84.7745 20.4329 36.4574 -3.1871 -45.5641 -20.8424
# 2 20.4329 96.5560 25.4431 1.3032 -15.6456 -24.9291
# 3 36.4574 25.4431 123.3831 -8.8221 -40.6144 -11.4263
# 4 -3.1871 1.3032 -8.8221 31.8664 -8.8381 -3.1516
# 5 -45.5641 -15.6456 -40.6144 -8.8381 43.8969 0.3330
# 6 -20.8424 -24.9291 -11.4263 -3.1516 0.3330 40.0990
#
#
#
# Elastic Compliance Matrix: (Units=1/GPa)
#
#
# Indices 1 2 3 4 5 6 
#
# 1 0.072287 0.009373 0.019547 0.046624 0.105453 0.051759
# 2 0.009373 0.014530 0.002194 0.007517 0.018338 0.014969
# 3 0.019547 0.002194 0.019175 0.020872 0.042876 0.018272
# 4 0.046624 0.007517 0.020872 0.068702 0.083918 0.039558
# 5 0.105453 0.018338 0.042876 0.083918 0.194707 0.083408
# 6 0.051759 0.014969 0.018272 0.039558 0.083408 0.068770
#
#
# Mechanical properties :
#
#
# Convention : Reuss Voigt Hill
#
# Bulk Modulus (GPa) = 5.94459 52.15337 29.04898
# Shear Modulus (GPa) = 11.57367 37.99780 24.78574
#
# Velocity S-wave (km/s) = 2.23485 4.04942 3.27050
# Velocity P-wave (km/s) = 3.03723 6.66110 5.17663
#
# Compressibility (1/GPa) = 0.16822005
#
# Stress axis : x y z
#
# Youngs Moduli (GPa) = 13.83378 68.82524 52.15165
#
# Poissons Ratio (x) = -0.64512 -1.01940
# Poissons Ratio (y) = -0.12967 -0.11444
# Poissons Ratio (z) = -0.27041 -0.15102
#
# Static dielectric constant tensor:
#      x y z
#    x 2.051690 0.059900 -0.052550 
#    y 0.059900 1.959840 -0.016110 
#    z -0.052550 -0.016110 1.919130 
# 
# From -- ./inp_files/149016.got.cif
#   From: 2010.05.17/outbox.cif.g08.bks.cpg/sg2_75_cif.got.tgz:149016.got - 2010.06.03 11:33:40.
