data_PCOD9024198
_publ_section_title
;
Structure prediction by ZEFSAII (Michael W. Deem and Ramdas Pophale) SiO2 
 PCOD9024198
Probable space group: P -1
;
_chemical_formula_sum "Si O2"
_cell_formula_units_Z 12
_cell_length_a 11.390965
_cell_length_b 7.928749
_cell_length_c 9.385999
_cell_angle_alpha 74.751042
_cell_angle_beta 93.769251
_cell_angle_gamma 137.577695
_cell_volume 540.874529
_symmetry_space_group_name_H-M "P -1"
_symmetry_group_IT_number 2
_symmetry_cell_setting 'triclinic'
loop_
_space_group_symop_operation_xyz
x,y,z
-x,-y,-z
loop_
_atom_site_type_symbol
_atom_site_label
_atom_site_fract_x
_atom_site_fract_y
_atom_site_fract_z
Si Si1 0.109981 0.389128 0.467477
Si Si2 0.895291 0.318505 0.811842
Si Si3 0.387752 0.487612 0.605138
Si Si4 0.465356 0.281179 0.127343
Si Si5 0.010292 0.029961 0.277667
Si Si6 0.819404 0.520472 0.007692
O O1 0.077589 0.537664 0.360443
O O2 0.305756 0.571445 0.507056
O O3 0.089426 0.230735 0.369187
O O4 0.979275 0.159324 0.626803
O O5 0.068307 0.411159 0.861277
O O6 0.726016 0.007193 0.856806
O O7 0.851474 0.412545 0.911978
O O8 0.500000 0.500000 0.500000
O O9 0.500033 0.650207 0.717962
O O10 0.203633 0.182169 0.700658
O O11 0.615835 0.315857 0.076444
O O12 0.500000 0.500000 0.000000
O O13 0.104945 0.211503 0.106928
#
# Coordination Sequence:
#
# PCOD9024198 Si02
#       6
#     2   2   2   2   2   2
#     4   8  18  39  64  91 124 169 222 258 329 386
#     4  10  22  44  68  97 135 174 217 278 334 392
#     4  10  22  40  63  98 132 176 219 270 329 393
#     4  12  27  40  68 103 133 176 226 273 328 400
#     4   8  17  38  66  90 122 171 219 260 324 395
#     4  10  22  45  70  97 135 172 221 273 338 397
#
# _framework density 22.186292000000002
#
# number of rings (size 3 to 8) (size 9 to 14) (size 15 to 20)
#    1.000    1.333    0.000    1.500    4.667    3.333 
#   12.000    0.833    0.000    0.000    0.000    0.000 
#    0.000    0.000    0.000    0.000    0.000    0.000 
#
# Total GULP energy -67024.782327 kJ/mol
# GULP energy per Si atom -5585.398527 kJ/mol
# Density = 2.213580 g / cm^3
# Si number density = 22.186292 Si / 1000 Ang^3
#
#
#
# Elastic Constant Matrix: (Units=GPa)
#
#
# Indices 1 2 3 4 5 6 
#
# 1 85.5573 25.2697 44.7826 -8.9633 17.2629 8.9301
# 2 25.2697 102.6717 34.7253 2.4293 23.7824 3.7639
# 3 44.7826 34.7253 103.5101 1.6648 28.2569 -11.4011
# 4 -8.9633 2.4293 1.6648 40.9121 -1.2741 2.4079
# 5 17.2629 23.7824 28.2569 -1.2741 52.0609 -7.3940
# 6 8.9301 3.7639 -11.4011 2.4079 -7.3940 34.4292
#
#
#
# Elastic Compliance Matrix: (Units=1/GPa)
#
#
# Indices 1 2 3 4 5 6 
#
# 1 0.017771 -0.001091 -0.007648 0.004661 -0.002241 -0.007830
# 2 -0.001091 0.011989 -0.002737 -0.000804 -0.004039 -0.002745
# 3 -0.007648 -0.002737 0.015736 -0.002677 -0.003847 0.006855
# 4 0.004661 -0.000804 -0.002677 0.025852 0.000377 -0.003734
# 5 -0.002241 -0.004039 -0.003847 0.000377 0.024605 0.005007
# 6 -0.007830 -0.002745 0.006855 -0.003734 0.005007 0.034983
#
#
# Mechanical properties :
#
#
# Convention : Reuss Voigt Hill
#
# Bulk Modulus (GPa) = 44.35699 55.69937 50.02818
# Shear Modulus (GPa) = 30.97837 37.94453 34.46145
#
# Velocity S-wave (km/s) = 3.74074 4.14003 3.94544
# Velocity P-wave (km/s) = 6.22044 6.92913 6.58433
#
# Compressibility (1/GPa) = 0.02254436
#
# Stress axis : x y z
#
# Youngs Moduli (GPa) = 56.27054 83.40788 63.54830
#
# Poissons Ratio (x) = 0.09102 0.48602
# Poissons Ratio (y) = 0.06141 0.17392
# Poissons Ratio (z) = 0.43036 0.22827
#
# Static dielectric constant tensor:
#      x y z
#    x 1.847290 -0.041390 -0.009910 
#    y -0.041390 1.771890 0.011410 
#    z -0.009910 0.011410 1.833320 
# 
# From -- ./inp_files/237803.got.cif
#   From: 2010.05.17/outbox.cif.g08.bks.cpg/sg2_119_cif.got.tgz:237803.got - 2010.06.03 11:33:40.
