data_PCOD9024501
_publ_section_title
;
Structure prediction by ZEFSAII (Michael W. Deem and Ramdas Pophale) SiO2 
 PCOD9024501
Probable space group: P -1
;
_chemical_formula_sum "Si O2"
_cell_formula_units_Z 15
_cell_length_a 7.321185
_cell_length_b 7.979007
_cell_length_c 15.277785
_cell_angle_alpha 49.503003
_cell_angle_beta 98.856660
_cell_angle_gamma 80.023101
_cell_volume 624.663140
_symmetry_space_group_name_H-M "P -1"
_symmetry_group_IT_number 2
_symmetry_cell_setting 'triclinic'
loop_
_space_group_symop_operation_xyz
x,y,z
-x,-y,-z
loop_
_atom_site_type_symbol
_atom_site_label
_atom_site_fract_x
_atom_site_fract_y
_atom_site_fract_z
Si Si1 0.614430 0.966643 0.137611
Si Si2 0.161255 0.949126 0.605577
Si Si3 0.788543 0.332672 0.960594
Si Si4 0.200769 0.461841 0.822046
Si Si5 0.784290 0.470807 0.722639
Si Si6 0.789408 0.752028 0.922708
Si Si7 0.500000 0.000000 0.500000
Si Si8 0.006762 0.278608 0.634885
O O1 0.661220 0.792187 0.117766
O O2 0.785165 0.818875 0.266546
O O3 0.649713 0.208792 0.035246
O O4 0.403796 0.025122 0.146848
O O5 0.265527 0.674499 0.729283
O O6 0.330139 0.038822 0.552797
O O7 0.027285 0.073020 0.637169
O O8 0.000000 0.000000 0.500000
O O9 0.007430 0.201884 0.064355
O O10 0.781508 0.313373 0.861443
O O11 0.751739 0.607225 0.887045
O O12 0.983412 0.524921 0.742330
O O13 0.189215 0.433554 0.933655
O O14 0.836309 0.346988 0.673137
O O15 0.596157 0.711907 0.623897
O O16 0.000000 0.500000 0.500000
#
# Coordination Sequence:
#
# PCOD9024501 Si02
#       8
#     2   2   2   2   2   2   1   2
#     4  11  23  42  68  98 134 183 220 272 339 400
#     4  12  24  46  71  93 136 177 221 285 330 401
#     4  10  23  42  67  99 142 172 221 284 330 391
#     4  10  22  43  64  95 139 176 219 274 338 391
#     4  10  23  43  69 101 135 176 224 275 336 398
#     4  10  22  40  65 103 132 176 225 270 335 400
#     4  12  24  42  74 102 126 180 230 270 342 396
#     4  11  23  45  70  94 135 178 218 275 343 391
#
# _framework density 24.012943
#
# number of rings (size 3 to 8) (size 9 to 14) (size 15 to 20)
#    0.000    1.333    2.667    2.400    3.733    4.800 
#    4.800    0.667    0.000    0.000    0.000    0.000 
#    0.000    0.000    0.000    0.000    0.000    0.000 
#
# Total GULP energy -83602.822796 kJ/mol
# GULP energy per Si atom -5573.521520 kJ/mol
# Density = 2.395829 g / cm^3
# Si number density = 24.012943 Si / 1000 Ang^3
#
#
#
# Elastic Constant Matrix: (Units=GPa)
#
#
# Indices 1 2 3 4 5 6 
#
# 1 63.3062 29.4452 -2.0781 3.8826 4.8855 -10.8614
# 2 29.4452 144.6617 23.5649 15.0070 13.3906 -25.4391
# 3 -2.0781 23.5649 66.5150 9.7934 2.6304 4.8069
# 4 3.8826 15.0070 9.7934 42.9622 -3.3233 3.4253
# 5 4.8855 13.3906 2.6304 -3.3233 25.3868 -10.3689
# 6 -10.8614 -25.4391 4.8069 3.4253 -10.3689 35.3246
#
#
#
# Elastic Compliance Matrix: (Units=1/GPa)
#
#
# Indices 1 2 3 4 5 6 
#
# 1 0.017985 -0.003238 0.001718 -0.001182 -0.000941 0.002803
# 2 -0.003238 0.009715 -0.003474 -0.002956 -0.002008 0.006171
# 3 0.001718 -0.003474 0.017162 -0.002671 -0.002591 -0.004811
# 4 -0.001182 -0.002956 -0.002671 0.025609 0.004013 -0.003434
# 5 -0.000941 -0.002008 -0.002591 0.004013 0.046245 0.011802
# 6 0.002803 0.006171 -0.004811 -0.003434 0.011802 0.038067
#
#
# Mechanical properties :
#
#
# Convention : Reuss Voigt Hill
#
# Bulk Modulus (GPa) = 28.67545 41.81633 35.24589
# Shear Modulus (GPa) = 28.34523 35.63811 31.99167
#
# Velocity S-wave (km/s) = 3.43944 3.85661 3.65398
# Velocity P-wave (km/s) = 5.26694 6.10599 5.70192
#
# Compressibility (1/GPa) = 0.03487303
#
# Stress axis : x y z
#
# Youngs Moduli (GPa) = 55.60306 102.92849 58.26781
#
# Poissons Ratio (x) = 0.33327 -0.10009
# Poissons Ratio (y) = 0.18004 0.20245
# Poissons Ratio (z) = -0.09551 0.35762
#
# Static dielectric constant tensor:
#      x y z
#    x 1.914980 0.013020 0.048840 
#    y 0.013020 2.035650 0.077550 
#    z 0.048840 0.077550 1.957620 
# 
# From -- ./inp_files/490419.got.cif
#   From: 2010.05.17/outbox.cif.g08.bks.cpg/sg2_246_cif.got.tgz:490419.got - 2010.06.03 11:33:40.
