data_PCOD9024282
_publ_section_title
;
Structure prediction by ZEFSAII (Michael W. Deem and Ramdas Pophale) SiO2 
 PCOD9024282
Probable space group: P -1
;
_chemical_formula_sum "Si O2"
_cell_formula_units_Z 14
_cell_length_a 4.982064
_cell_length_b 11.924269
_cell_length_c 10.996099
_cell_angle_alpha 116.783600
_cell_angle_beta 114.712896
_cell_angle_gamma 73.980034
_cell_volume 526.658157
_symmetry_space_group_name_H-M "P -1"
_symmetry_group_IT_number 2
_symmetry_cell_setting 'triclinic'
loop_
_space_group_symop_operation_xyz
x,y,z
-x,-y,-z
loop_
_atom_site_type_symbol
_atom_site_label
_atom_site_fract_x
_atom_site_fract_y
_atom_site_fract_z
Si Si1 0.704542 0.739723 0.211628
Si Si2 0.244050 0.588224 0.124086
Si Si3 0.299663 0.542942 0.368612
Si Si4 0.456849 0.868159 0.859832
Si Si5 0.008986 0.691822 0.763035
Si Si6 0.709304 0.019429 0.367172
Si Si7 0.345199 0.245405 0.503849
O O1 0.462158 0.641543 0.094728
O O2 0.606221 0.885232 0.244571
O O3 0.728850 0.728269 0.357529
O O4 0.017189 0.706369 0.188501
O O5 0.405654 0.519214 0.237545
O O6 0.000000 0.500000 0.000000
O O7 0.500000 0.500000 0.500000
O O8 0.033685 0.452502 0.278230
O O9 0.361265 0.690248 0.451493
O O10 0.757495 0.786500 0.830591
O O11 0.295648 0.767503 0.858812
O O12 0.266383 0.909292 0.722012
O O13 0.500000 0.000000 0.000000
O O14 0.913500 0.695429 0.604023
O O15 0.444575 0.099623 0.428333
O O16 0.000000 0.000000 0.500000
#
# Coordination Sequence:
#
# PCOD9024282 Si02
#       7
#     2   2   2   2   2   2   2
#     4  11  23  40  65  93 126 165 205 255 312 367
#     4  11  25  43  63  93 128 163 208 257 306 369
#     4   9  20  40  65  91 122 161 204 251 307 364
#     4  11  25  42  61  90 126 163 208 255 304 367
#     4  10  22  40  64  90 124 164 205 254 309 364
#     4  11  22  40  66  95 126 164 207 257 311 368
#     4   9  20  39  62  98 127 158 206 261 308 367
#
# _framework density 26.582706999999999
#
# number of rings (size 3 to 8) (size 9 to 14) (size 15 to 20)
#    0.000    1.714    0.000    3.857    0.000   11.429 
#    0.000   10.714    0.000    0.000    0.000    0.000 
#    0.000    0.000    0.000    0.000    0.000    0.000 
#
# Total GULP energy -78153.670662 kJ/mol
# GULP energy per Si atom -5582.405047 kJ/mol
# Density = 2.652220 g / cm^3
# Si number density = 26.582707 Si / 1000 Ang^3
#
#
#
# Elastic Constant Matrix: (Units=GPa)
#
#
# Indices 1 2 3 4 5 6 
#
# 1 136.6368 35.4107 0.6636 7.5548 10.3746 22.8065
# 2 35.4107 111.0220 15.9915 21.7258 0.6388 30.4111
# 3 0.6636 15.9915 84.2263 10.4667 9.0321 3.9537
# 4 7.5548 21.7258 10.4667 51.7249 10.6855 1.6020
# 5 10.3746 0.6388 9.0321 10.6855 28.5285 14.1240
# 6 22.8065 30.4111 3.9537 1.6020 14.1240 45.1582
#
#
#
# Elastic Compliance Matrix: (Units=1/GPa)
#
#
# Indices 1 2 3 4 5 6 
#
# 1 0.008404 -0.002192 0.000676 0.000075 -0.002186 -0.002146
# 2 -0.002192 0.014319 -0.002329 -0.006780 0.009181 -0.010963
# 3 0.000676 -0.002329 0.012842 -0.000784 -0.004769 0.001622
# 4 0.000075 -0.006780 -0.000784 0.024712 -0.012690 0.007689
# 5 -0.002186 0.009181 -0.004769 -0.012690 0.052049 -0.020490
# 6 -0.002146 -0.010963 0.001622 0.007689 -0.020490 0.036605
#
#
# Mechanical properties :
#
#
# Convention : Reuss Voigt Hill
#
# Bulk Modulus (GPa) = 35.87442 48.44631 42.16037
# Shear Modulus (GPa) = 30.13664 43.73692 36.93678
#
# Velocity S-wave (km/s) = 3.37069 4.06065 3.73165
# Velocity P-wave (km/s) = 5.35476 6.34425 5.87039
#
# Compressibility (1/GPa) = 0.02787501
#
# Stress axis : x y z
#
# Youngs Moduli (GPa) = 118.99787 69.83957 77.86772
#
# Poissons Ratio (x) = 0.15308 -0.05263
# Poissons Ratio (y) = 0.26083 0.18133
# Poissons Ratio (z) = -0.08043 0.16263
#
# Static dielectric constant tensor:
#      x y z
#    x 2.307960 -0.088110 0.088710 
#    y -0.088110 2.097780 0.010320 
#    z 0.088710 0.010320 2.222900 
# 
# From -- ./inp_files/93484.got.cif
#   From: 2010.05.17/outbox.cif.g08.bks.cpg/sg2_47_cif.got.tgz:93484.got - 2010.06.03 11:33:40.
