data_PCOD9024107
_publ_section_title
;
Structure prediction by ZEFSAII (Michael W. Deem and Ramdas Pophale) SiO2 
 PCOD9024107
Probable space group: P -1
;
_chemical_formula_sum "Si O2"
_cell_formula_units_Z 16
_cell_length_a 11.062948
_cell_length_b 11.237347
_cell_length_c 9.888810
_cell_angle_alpha 38.335008
_cell_angle_beta 105.953223
_cell_angle_gamma 120.433619
_cell_volume 639.984410
_symmetry_space_group_name_H-M "P -1"
_symmetry_group_IT_number 2
_symmetry_cell_setting 'triclinic'
loop_
_space_group_symop_operation_xyz
x,y,z
-x,-y,-z
loop_
_atom_site_type_symbol
_atom_site_label
_atom_site_fract_x
_atom_site_fract_y
_atom_site_fract_z
Si Si1 0.887834 0.308695 0.539580
Si Si2 0.031009 0.024362 0.149630
Si Si3 0.710274 0.504141 0.153285
Si Si4 0.352123 0.058932 0.025509
Si Si5 0.898873 0.128482 0.276704
Si Si6 0.794718 0.641841 0.763961
Si Si7 0.611930 0.031919 0.175345
Si Si8 0.490410 0.456379 0.338651
O O1 0.973458 0.196029 0.598705
O O2 0.793972 0.384360 0.352617
O O3 0.000000 0.500000 0.500000
O O4 0.780524 0.108704 0.779387
O O5 0.935717 0.078464 0.178910
O O6 0.185592 0.238615 0.014911
O O7 0.000000 0.000000 0.000000
O O8 0.556221 0.434805 0.233885
O O9 0.714092 0.506720 0.992004
O O10 0.492189 0.095360 0.118669
O O11 0.348026 0.930097 0.003511
O O12 0.385705 0.306435 0.782810
O O13 0.842765 0.903706 0.546065
O O14 0.758479 0.153300 0.195270
O O15 0.044027 0.324429 0.209680
O O16 0.665124 0.553100 0.695295
O O17 0.537638 0.768201 0.401193
#
# Coordination Sequence:
#
# PCOD9024107 Si02
#       8
#     2   2   2   2   2   2   2   2
#     4  12  24  39  62  98 128 160 208 257 319 375
#     4  11  21  39  64  95 126 160 204 259 317 372
#     4  11  22  39  64  89 126 166 208 263 310 369
#     4  11  23  40  61  96 129 163 205 260 320 381
#     4   9  20  41  66  88 125 167 211 259 309 372
#     4   9  21  41  62  89 120 174 216 252 309 363
#     4  10  22  40  63  92 130 165 202 260 322 376
#     4  11  21  41  64  90 125 167 216 254 313 371
#
# _framework density 25.000608
#
# number of rings (size 3 to 8) (size 9 to 14) (size 15 to 20)
#    0.000    1.500    3.750    1.500    1.750    0.000 
#    9.000    8.125    0.000    0.000    0.000    0.000 
#    0.000    0.000    0.000    0.000    0.000    0.000 
#
# Total GULP energy -89282.544837 kJ/mol
# GULP energy per Si atom -5580.159052 kJ/mol
# Density = 2.494371 g / cm^3
# Si number density = 25.000608 Si / 1000 Ang^3
#
#
#
# Elastic Constant Matrix: (Units=GPa)
#
#
# Indices 1 2 3 4 5 6 
#
# 1 91.4095 18.0207 32.5379 0.8580 -2.5924 19.2331
# 2 18.0207 60.4740 43.7354 -13.9495 4.7752 5.1873
# 3 32.5379 43.7354 97.4920 -2.3797 -5.2540 -0.5798
# 4 0.8580 -13.9495 -2.3797 41.5827 -3.1747 1.6888
# 5 -2.5924 4.7752 -5.2540 -3.1747 40.5143 9.5732
# 6 19.2331 5.1873 -0.5798 1.6888 9.5732 39.3434
#
#
#
# Elastic Compliance Matrix: (Units=1/GPa)
#
#
# Indices 1 2 3 4 5 6 
#
# 1 0.014273 -0.000674 -0.004396 -0.000304 0.002163 -0.007466
# 2 -0.000674 0.028297 -0.012470 0.008644 -0.003590 -0.003083
# 3 -0.004396 -0.012470 0.017392 -0.003064 0.002351 0.003609
# 4 -0.000304 0.008644 -0.003064 0.026978 0.001270 -0.002503
# 5 0.002163 -0.003590 0.002351 0.001270 0.027365 -0.007262
# 6 -0.007466 -0.003083 0.003609 -0.002503 -0.007262 0.031401
#
#
# Mechanical properties :
#
#
# Convention : Reuss Voigt Hill
#
# Bulk Modulus (GPa) = 40.19141 48.66259 44.42700
# Shear Modulus (GPa) = 26.44377 34.62686 30.53531
#
# Velocity S-wave (km/s) = 3.25580 3.72565 3.49862
# Velocity P-wave (km/s) = 5.49952 6.16556 5.84204
#
# Compressibility (1/GPa) = 0.02488094
#
# Stress axis : x y z
#
# Youngs Moduli (GPa) = 70.06335 35.33922 57.49752
#
# Poissons Ratio (x) = 0.02382 0.25278
# Poissons Ratio (y) = 0.04723 0.71700
# Poissons Ratio (z) = 0.30803 0.44068
#
# Static dielectric constant tensor:
#      x y z
#    x 2.136030 0.019700 0.063130 
#    y 0.019700 2.060560 0.045310 
#    z 0.063130 0.045310 1.967330 
# 
# From -- ./inp_files/428341.got.cif
#   From: 2010.05.17/outbox.cif.g08.bks.cpg/sg2_215_cif.got.tgz:428341.got - 2010.06.03 11:33:40.
