data_PCOD9024171
_publ_section_title
;
Structure prediction by ZEFSAII (Michael W. Deem and Ramdas Pophale) SiO2 
 PCOD9024171
Probable space group: P -1
;
_chemical_formula_sum "Si O2"
_cell_formula_units_Z 14
_cell_length_a 6.607588
_cell_length_b 11.890863
_cell_length_c 13.456066
_cell_angle_alpha 138.891871
_cell_angle_beta 103.492998
_cell_angle_gamma 61.237427
_cell_volume 593.840654
_symmetry_space_group_name_H-M "P -1"
_symmetry_group_IT_number 2
_symmetry_cell_setting 'triclinic'
loop_
_space_group_symop_operation_xyz
x,y,z
-x,-y,-z
loop_
_atom_site_type_symbol
_atom_site_label
_atom_site_fract_x
_atom_site_fract_y
_atom_site_fract_z
Si Si1 0.781960 0.202999 0.141831
Si Si2 0.693090 0.568062 0.042642
Si Si3 0.833790 0.539049 0.257832
Si Si4 0.817096 0.098463 0.285047
Si Si5 0.941464 0.180800 0.718281
Si Si6 0.322123 0.227880 0.022301
Si Si7 0.602876 0.178948 0.513876
O O1 0.768282 0.380405 0.193166
O O2 0.823101 0.222721 0.276439
O O3 0.552288 0.177710 0.079375
O O4 0.000000 0.000000 0.000000
O O5 0.739895 0.615409 0.188533
O O6 0.086816 0.630423 0.104400
O O7 0.620049 0.714327 0.040727
O O8 0.500000 0.500000 0.000000
O O9 0.673124 0.730897 0.433069
O O10 0.112319 0.407713 0.178573
O O11 0.634753 0.226984 0.435774
O O12 0.051766 0.964917 0.289716
O O13 0.748246 0.940253 0.123629
O O14 0.735306 0.244905 0.655813
O O15 0.202663 0.050504 0.615338
#
# Coordination Sequence:
#
# PCOD9024171 Si02
#       7
#     2   2   2   2   2   2   2
#     4  12  24  42  68  93 126 170 217 259 312 374
#     4  12  21  40  68  96 126 162 214 269 316 359
#     4  12  23  40  66  97 125 169 213 260 317 370
#     4  10  22  40  63  96 129 167 210 258 311 377
#     4   9  18  39  63  93 128 165 210 255 311 378
#     4  12  25  40  67  96 125 160 219 270 305 378
#     4   9  20  38  65  91 134 166 206 257 319 377
#
# _framework density 23.575348000000002
#
# number of rings (size 3 to 8) (size 9 to 14) (size 15 to 20)
#    0.857    0.286    5.714    0.857    0.000    0.571 
#    0.000    3.571    6.286    0.000    0.000    0.000 
#    0.000    0.000    0.000    0.000    0.000    0.000 
#
# Total GULP energy -78009.988838 kJ/mol
# GULP energy per Si atom -5572.142060 kJ/mol
# Density = 2.352169 g / cm^3
# Si number density = 23.575348 Si / 1000 Ang^3
#
#
#
# Elastic Constant Matrix: (Units=GPa)
#
#
# Indices 1 2 3 4 5 6 
#
# 1 82.7448 39.3104 28.8029 0.6732 -22.2881 -3.3198
# 2 39.3104 124.0346 29.0290 -25.1253 -11.2468 16.6105
# 3 28.8029 29.0290 89.0228 -13.2191 -36.6963 2.0660
# 4 0.6732 -25.1253 -13.2191 36.9835 6.9966 -9.3463
# 5 -22.2881 -11.2468 -36.6963 6.9966 43.0466 4.8758
# 6 -3.3198 16.6105 2.0660 -9.3463 4.8758 47.5140
#
#
#
# Elastic Compliance Matrix: (Units=1/GPa)
#
#
# Indices 1 2 3 4 5 6 
#
# 1 0.017434 -0.005869 -0.001883 -0.005856 0.006668 0.001516
# 2 -0.005869 0.012004 -0.001817 0.007332 -0.002321 -0.002847
# 3 -0.001883 -0.001817 0.018699 0.002465 0.014236 -0.001285
# 4 -0.005856 0.007332 0.002465 0.035096 -0.005213 0.004359
# 5 0.006668 -0.002321 0.014236 -0.005213 0.039561 -0.004427
# 6 0.001516 -0.002847 -0.001285 0.004359 -0.004427 0.023515
#
#
# Mechanical properties :
#
#
# Convention : Reuss Voigt Hill
#
# Bulk Modulus (GPa) = 34.48538 54.45409 44.46973
# Shear Modulus (GPa) = 28.55307 38.75280 33.65294
#
# Velocity S-wave (km/s) = 3.48392 4.05876 3.78228
# Velocity P-wave (km/s) = 5.55366 6.71660 6.16262
#
# Compressibility (1/GPa) = 0.02899780
#
# Stress axis : x y z
#
# Youngs Moduli (GPa) = 57.36018 83.30752 53.47940
#
# Poissons Ratio (x) = 0.48895 0.10069
# Poissons Ratio (y) = 0.33666 0.09719
# Poissons Ratio (z) = 0.10799 0.15139
#
# Static dielectric constant tensor:
#      x y z
#    x 2.046230 -0.013150 -0.000120 
#    y -0.013150 1.926500 -0.008470 
#    z -0.000120 -0.008470 1.936650 
# 
# From -- ./inp_files/482352.got.cif
#   From: 2010.05.17/outbox.cif.g08.bks.cpg/sg2_242_cif.got.tgz:482352.got - 2010.06.03 11:33:40.
