data_PCOD9024477
_publ_section_title
;
Structure prediction by ZEFSAII (Michael W. Deem and Ramdas Pophale) SiO2 
 PCOD9024477
Probable space group: P -1
;
_chemical_formula_sum "Si O2"
_cell_formula_units_Z 14
_cell_length_a 17.091238
_cell_length_b 8.829102
_cell_length_c 9.788446
_cell_angle_alpha 116.996883
_cell_angle_beta 144.073512
_cell_angle_gamma 79.853878
_cell_volume 718.602728
_symmetry_space_group_name_H-M "P -1"
_symmetry_group_IT_number 2
_symmetry_cell_setting 'triclinic'
loop_
_space_group_symop_operation_xyz
x,y,z
-x,-y,-z
loop_
_atom_site_type_symbol
_atom_site_label
_atom_site_fract_x
_atom_site_fract_y
_atom_site_fract_z
Si Si1 0.182322 0.164887 0.637022
Si Si2 0.171159 0.445647 0.209245
Si Si3 0.167964 0.141341 0.292337
Si Si4 0.080281 0.702627 0.640047
Si Si5 0.142824 0.745582 0.433684
Si Si6 0.341729 0.007291 0.266678
Si Si7 0.647549 0.666279 0.790035
O O1 0.211882 0.202697 0.534296
O O2 0.031830 0.190789 0.468199
O O3 0.174106 0.958229 0.557795
O O4 0.298484 0.281812 0.958463
O O5 0.179778 0.316402 0.291750
O O6 0.234420 0.653194 0.438577
O O7 0.247727 0.412428 0.171094
O O8 0.008136 0.356757 0.893697
O O9 0.273246 0.058420 0.328707
O O10 0.000000 0.000000 0.000000
O O11 0.128641 0.692013 0.549497
O O12 0.000000 0.500000 0.500000
O O13 0.221571 0.816621 0.971275
O O14 0.500000 0.000000 0.500000
O O15 0.348268 0.157104 0.219839
O O16 0.500000 0.500000 0.500000
#
# Coordination Sequence:
#
# PCOD9024477 Si02
#       7
#     2   2   2   2   2   2   2
#     4  12  22  42  70  99 130 175 236 284 332 399
#     4  10  22  40  64  99 134 168 222 280 345 403
#     4  11  21  41  69 100 135 176 226 284 341 408
#     4  12  24  39  70 102 136 177 234 282 342 412
#     4  11  21  37  67  98 128 166 223 290 326 396
#     4  11  26  45  66 101 145 179 222 285 352 409
#     4  11  25  47  67  91 138 188 226 280 347 409
#
# _framework density 19.482253
#
# number of rings (size 3 to 8) (size 9 to 14) (size 15 to 20)
#    0.000    0.857    5.714    2.143    2.000    1.143 
#    2.571    2.857    0.000    0.000    0.000    0.000 
#    0.000    0.000    0.000    0.000    0.000    0.000 
#
# Total GULP energy -78109.458132 kJ/mol
# GULP energy per Si atom -5579.247009 kJ/mol
# Density = 1.943791 g / cm^3
# Si number density = 19.482253 Si / 1000 Ang^3
#
#
#
# Elastic Constant Matrix: (Units=GPa)
#
#
# Indices 1 2 3 4 5 6 
#
# 1 97.5016 26.9166 69.0052 -4.2174 -38.5764 -6.7629
# 2 26.9166 77.9012 45.2825 22.7611 -19.8942 -12.9005
# 3 69.0052 45.2825 155.1204 8.0334 -20.7889 -8.9083
# 4 -4.2174 22.7611 8.0334 33.0497 1.7979 0.5186
# 5 -38.5764 -19.8942 -20.7889 1.7979 47.4217 -4.9277
# 6 -6.7629 -12.9005 -8.9083 0.5186 -4.9277 32.6076
#
#
#
# Elastic Compliance Matrix: (Units=1/GPa)
#
#
# Indices 1 2 3 4 5 6 
#
# 1 0.022202 0.000649 -0.007914 0.003403 0.015249 0.004950
# 2 0.000649 0.024463 -0.004578 -0.016385 0.010486 0.010407
# 3 -0.007914 -0.004578 0.010753 -0.000250 -0.003747 -0.001077
# 4 0.003403 -0.016385 -0.000250 0.042514 -0.006608 -0.007520
# 5 0.015249 0.010486 -0.003747 -0.006608 0.037756 0.012098
# 6 0.004950 0.010407 -0.001077 -0.007520 0.012098 0.037465
#
#
# Mechanical properties :
#
#
# Convention : Reuss Voigt Hill
#
# Bulk Modulus (GPa) = 29.64744 68.10352 48.87548
# Shear Modulus (GPa) = 23.80009 35.23705 29.51857
#
# Velocity S-wave (km/s) = 3.49897 4.25747 3.89672
# Velocity P-wave (km/s) = 5.61911 7.69419 6.73703
#
# Compressibility (1/GPa) = 0.03372972
#
# Stress axis : x y z
#
# Youngs Moduli (GPa) = 45.04081 40.87884 93.00111
#
# Poissons Ratio (x) = -0.02652 0.73604
# Poissons Ratio (y) = -0.02922 0.42577
# Poissons Ratio (z) = 0.35647 0.18715
#
# Static dielectric constant tensor:
#      x y z
#    x 1.611180 -0.007170 -0.058800 
#    y -0.007170 1.735020 0.019200 
#    z -0.058800 0.019200 1.623810 
# 
# From -- ./inp_files/157192.got.cif
#   From: 2010.05.17/outbox.cif.g08.bks.cpg/sg2_79_cif.got.tgz:157192.got - 2010.06.03 11:33:40.
