data_PCOD9024057
_publ_section_title
;
Structure prediction by ZEFSAII (Michael W. Deem and Ramdas Pophale) SiO2 
 PCOD9024057
Probable space group: P -1
;
_chemical_formula_sum "Si O2"
_cell_formula_units_Z 16
_cell_length_a 11.240749
_cell_length_b 6.894871
_cell_length_c 12.058370
_cell_angle_alpha 113.342387
_cell_angle_beta 117.953743
_cell_angle_gamma 67.299105
_cell_volume 734.508043
_symmetry_space_group_name_H-M "P -1"
_symmetry_group_IT_number 2
_symmetry_cell_setting 'triclinic'
loop_
_space_group_symop_operation_xyz
x,y,z
-x,-y,-z
loop_
_atom_site_type_symbol
_atom_site_label
_atom_site_fract_x
_atom_site_fract_y
_atom_site_fract_z
Si Si1 0.720547 0.346349 0.557268
Si Si2 0.436082 0.830208 0.364417
Si Si3 0.280602 0.927342 0.712359
Si Si4 0.982537 0.033828 0.712918
Si Si5 0.810683 0.778474 0.716496
Si Si6 0.907432 0.869719 0.997972
Si Si7 0.639863 0.201783 0.051083
Si Si8 0.382891 0.328550 0.801098
O O1 0.618979 0.323637 0.608777
O O2 0.673205 0.247531 0.403100
O O3 0.866385 0.179414 0.617073
O O4 0.744465 0.584847 0.604841
O O5 0.541540 0.698011 0.290582
O O6 0.500000 0.000000 0.500000
O O7 0.306238 0.991563 0.280928
O O8 0.380165 0.875026 0.850852
O O9 0.284996 0.164243 0.724178
O O10 0.125913 0.938543 0.690372
O O11 0.924370 0.839632 0.698378
O O12 0.013638 0.184203 0.862903
O O13 0.871718 0.715380 0.852264
O O14 0.761386 0.024748 0.006786
O O15 0.000000 0.000000 0.000000
O O16 0.688065 0.424784 0.142308
O O17 0.504293 0.254356 0.928616
#
# Coordination Sequence:
#
# PCOD9024057 Si02
#       8
#     2   2   2   2   2   2   2   2
#     4  11  24  39  63  94 120 167 207 247 317 370
#     4  11  23  42  62  89 128 163 203 258 306 365
#     4  11  23  40  63  91 128 161 206 253 308 376
#     4   9  22  40  60  89 124 161 205 259 310 360
#     4  10  22  40  63  89 124 161 206 260 304 365
#     4   9  18  40  64  87 124 158 204 260 301 358
#     4  10  23  41  63  95 119 167 209 251 314 363
#     4  11  23  43  65  89 130 163 206 258 305 370
#
# _framework density 21.783286
#
# number of rings (size 3 to 8) (size 9 to 14) (size 15 to 20)
#    0.000    1.750    2.500    0.750    1.750    5.500 
#    9.000    0.000    0.000    0.000    0.000    0.000 
#    0.000    0.000    0.000    0.000    0.000    0.000 
#
# Total GULP energy -89385.345689 kJ/mol
# GULP energy per Si atom -5586.584106 kJ/mol
# Density = 2.173371 g / cm^3
# Si number density = 21.783286 Si / 1000 Ang^3
#
#
#
# Elastic Constant Matrix: (Units=GPa)
#
#
# Indices 1 2 3 4 5 6 
#
# 1 58.4002 32.7594 22.6059 -2.6618 -2.0974 27.6019
# 2 32.7594 74.2605 11.9893 9.5330 -7.1735 22.8778
# 3 22.6059 11.9893 92.7359 -2.7749 -17.8265 11.1085
# 4 -2.6618 9.5330 -2.7749 36.1454 7.3829 14.2274
# 5 -2.0974 -7.1735 -17.8265 7.3829 25.2209 -3.8260
# 6 27.6019 22.8778 11.1085 14.2274 -3.8260 23.9298
#
#
#
# Elastic Compliance Matrix: (Units=1/GPa)
#
#
# Indices 1 2 3 4 5 6 
#
# 1 0.121437 -0.010828 -0.013994 0.098518 -0.060764 -0.191512
# 2 -0.010828 0.020359 0.001569 -0.006561 0.007526 -0.002599
# 3 -0.013994 0.001569 0.014654 -0.009636 0.014880 0.015948
# 4 0.098518 -0.006561 -0.009636 0.122243 -0.064465 -0.185876
# 5 -0.060764 0.007526 0.014880 -0.064465 0.082432 0.107493
# 6 -0.191512 -0.002599 0.015948 -0.185876 0.107493 0.385469
#
#
# Mechanical properties :
#
#
# Convention : Reuss Voigt Hill
#
# Bulk Modulus (GPa) = 9.09563 40.01176 24.55369
# Shear Modulus (GPa) = 6.02592 27.59536 16.81064
#
# Velocity S-wave (km/s) = 1.66503 3.56309 2.78100
# Velocity P-wave (km/s) = 2.80731 5.94437 4.64847
#
# Compressibility (1/GPa) = 0.10994293
#
# Stress axis : x y z
#
# Youngs Moduli (GPa) = 8.23470 49.11721 68.24303
#
# Poissons Ratio (x) = 0.53186 0.95502
# Poissons Ratio (y) = 0.08917 -0.10708
# Poissons Ratio (z) = 0.11524 -0.07707
#
# Static dielectric constant tensor:
#      x y z
#    x 1.766220 0.002580 0.033350 
#    y 0.002580 1.803460 -0.031720 
#    z 0.033350 -0.031720 1.827550 
# 
# From -- ./inp_files/70376.got.cif
#   From: 2010.05.17/outbox.cif.g08.bks.cpg/sg2_36_cif.got.tgz:70376.got - 2010.06.03 11:33:40.
