data_PCOD9024502
_publ_section_title
;
Structure prediction by ZEFSAII (Michael W. Deem and Ramdas Pophale) SiO2 
 PCOD9024502
Probable space group: P -1
;
_chemical_formula_sum "Si O2"
_cell_formula_units_Z 14
_cell_length_a 11.107776
_cell_length_b 5.982975
_cell_length_c 10.193780
_cell_angle_alpha 59.469732
_cell_angle_beta 74.834487
_cell_angle_gamma 77.190864
_cell_volume 559.987395
_symmetry_space_group_name_H-M "P -1"
_symmetry_group_IT_number 2
_symmetry_cell_setting 'triclinic'
loop_
_space_group_symop_operation_xyz
x,y,z
-x,-y,-z
loop_
_atom_site_type_symbol
_atom_site_label
_atom_site_fract_x
_atom_site_fract_y
_atom_site_fract_z
Si Si1 0.200561 0.932955 0.521917
Si Si2 0.005294 0.411958 0.374554
Si Si3 0.793471 0.486937 0.879109
Si Si4 0.518743 0.178819 0.572534
Si Si5 0.733013 0.999480 0.215015
Si Si6 0.689796 0.789599 0.049205
Si Si7 0.555666 0.375844 0.885948
O O1 0.124458 0.683637 0.603282
O O2 0.333720 0.881992 0.428193
O O3 0.218596 0.005886 0.648807
O O4 0.110632 0.162587 0.413124
O O5 0.000000 0.500000 0.500000
O O6 0.073636 0.592694 0.202467
O O7 0.681997 0.515464 0.791675
O O8 0.771094 0.725232 0.915411
O O9 0.763026 0.262616 0.057927
O O10 0.500000 0.500000 0.500000
O O11 0.414102 0.051343 0.724588
O O12 0.500000 0.000000 0.500000
O O13 0.776180 0.791317 0.151619
O O14 0.574800 0.610385 0.159723
O O15 0.617024 0.077032 0.958764
O O16 0.500000 0.500000 0.000000
#
# Coordination Sequence:
#
# PCOD9024502 Si02
#       7
#     2   2   2   2   2   2   2
#     4  10  26  47  69 104 144 194 253 297 369 453
#     4  11  27  48  72  95 144 202 251 301 366 449
#     4  10  22  40  65 103 136 182 246 300 364 431
#     4  10  24  44  75 111 150 193 237 305 381 447
#     4  10  23  41  71 110 140 179 238 309 376 434
#     4   9  18  32  61  92 139 174 221 297 368 425
#     4   8  16  32  52  91 135 176 218 280 354 432
#
# _framework density 25.000565000000002
#
# number of rings (size 3 to 8) (size 9 to 14) (size 15 to 20)
#    0.000    2.286    0.000    0.000    8.000   13.143 
#    0.000    1.429    0.000    0.000    0.000    0.000 
#    0.000    0.000    0.000    0.000    0.000    0.000 
#
# Total GULP energy -77958.530315 kJ/mol
# GULP energy per Si atom -5568.466451 kJ/mol
# Density = 2.494366 g / cm^3
# Si number density = 25.000565 Si / 1000 Ang^3
#
#
#
# Elastic Constant Matrix: (Units=GPa)
#
#
# Indices 1 2 3 4 5 6 
#
# 1 111.0562 25.0155 29.0868 4.4570 -23.5996 17.1853
# 2 25.0155 115.8119 35.9901 3.5152 0.5916 9.8863
# 3 29.0868 35.9901 109.7265 8.8466 -24.0175 2.8956
# 4 4.4570 3.5152 8.8466 38.1716 4.7600 17.7248
# 5 -23.5996 0.5916 -24.0175 4.7600 45.4826 4.1959
# 6 17.1853 9.8863 2.8956 17.7248 4.1959 49.4508
#
#
#
# Elastic Compliance Matrix: (Units=1/GPa)
#
#
# Indices 1 2 3 4 5 6 
#
# 1 0.011578 -0.001837 -0.001110 0.000297 0.005801 -0.004190
# 2 -0.001837 0.010238 -0.003572 0.001091 -0.002963 -0.001339
# 3 -0.001110 -0.003572 0.012201 -0.003690 0.006190 0.001183
# 4 0.000297 0.001091 -0.003690 0.032778 -0.004178 -0.011500
# 5 0.005801 -0.002963 0.006190 -0.004178 0.028994 -0.002748
# 6 -0.004190 -0.001339 0.001183 -0.011500 -0.002748 0.026232
#
#
# Mechanical properties :
#
#
# Convention : Reuss Voigt Hill
#
# Bulk Modulus (GPa) = 47.66940 57.41992 52.54466
# Shear Modulus (GPa) = 35.19814 43.05448 39.12631
#
# Velocity S-wave (km/s) = 3.75626 4.15437 3.96032
# Velocity P-wave (km/s) = 6.15803 6.78447 6.47883
#
# Compressibility (1/GPa) = 0.02097782
#
# Stress axis : x y z
#
# Youngs Moduli (GPa) = 86.36987 97.67625 81.96128
#
# Poissons Ratio (x) = 0.17941 0.09101
# Poissons Ratio (y) = 0.15864 0.29279
# Poissons Ratio (z) = 0.09591 0.34893
#
# Static dielectric constant tensor:
#      x y z
#    x 2.075420 0.045780 -0.000260 
#    y 0.045780 2.109210 -0.063530 
#    z -0.000260 -0.063530 2.104310 
# 
# From -- ./inp_files/409784.got.cif
#   From: 2010.05.17/outbox.cif.g08.bks.cpg/sg2_205_cif.got.tgz:409784.got - 2010.06.03 11:33:40.
