data_PCOD9024601
_publ_section_title
;
Structure prediction by ZEFSAII (Michael W. Deem and Ramdas Pophale) SiO2 
 PCOD9024601
Probable space group: P -1
;
_chemical_formula_sum "Si O2"
_cell_formula_units_Z 14
_cell_length_a 14.350983
_cell_length_b 24.155265
_cell_length_c 23.678140
_cell_angle_alpha 11.794054
_cell_angle_beta 156.365635
_cell_angle_gamma 158.701927
_cell_volume 608.443435
_symmetry_space_group_name_H-M "P -1"
_symmetry_group_IT_number 2
_symmetry_cell_setting 'triclinic'
loop_
_space_group_symop_operation_xyz
x,y,z
-x,-y,-z
loop_
_atom_site_type_symbol
_atom_site_label
_atom_site_fract_x
_atom_site_fract_y
_atom_site_fract_z
Si Si1 0.606738 0.563928 0.845453
Si Si2 0.475914 0.849181 0.300957
Si Si3 0.892252 0.483148 0.324392
Si Si4 0.711000 0.466728 0.874285
Si Si5 0.107625 0.786229 0.602127
Si Si6 0.023587 0.975611 0.240708
Si Si7 0.537673 0.498033 0.589332
O O1 0.709044 0.381245 0.126373
O O2 0.328854 0.529218 0.744678
O O3 0.617667 0.440009 0.913455
O O4 0.789656 0.918063 0.597453
O O5 0.658390 0.734054 0.551703
O O6 0.522808 0.778715 0.332765
O O7 0.173900 0.643008 0.348962
O O8 0.547980 0.178837 0.033397
O O9 0.850053 0.164164 0.594840
O O10 0.899267 0.684785 0.072275
O O11 0.000000 0.500000 0.000000
O O12 0.084292 0.904442 0.408517
O O13 0.829863 0.546517 0.709578
O O14 0.716501 0.790026 0.246005
O O15 0.500000 0.500000 0.500000
#
# Coordination Sequence:
#
# PCOD9024601 Si02
#       7
#     2   2   2   2   2   2   2
#     4  12  26  41  62  92 128 168 216 260 300 376
#     4  11  23  42  66  89 126 166 201 259 313 365
#     4  11  24  42  62  93 127 167 215 251 310 379
#     4  12  25  43  66  93 123 162 211 260 315 366
#     4  11  23  40  64  94 129 167 206 263 321 361
#     4  10  22  40  65  94 128 166 207 259 315 381
#     4   9  20  40  66  96 124 157 206 256 315 378
#
# _framework density 23.009533999999999
#
# number of rings (size 3 to 8) (size 9 to 14) (size 15 to 20)
#    0.000    1.143    0.000    6.429    0.000    6.857 
#    0.000   12.143    0.000    0.000    0.000    0.000 
#    0.000    0.000    0.000    0.000    0.000    0.000 
#
# Total GULP energy -78355.811879 kJ/mol
# GULP energy per Si atom -5596.843706 kJ/mol
# Density = 2.295716 g / cm^3
# Si number density = 23.009534 Si / 1000 Ang^3
#
#
#
# Elastic Constant Matrix: (Units=GPa)
#
#
# Indices 1 2 3 4 5 6 
#
# 1 111.4599 55.6109 -6.0150 20.0416 10.2768 2.8260
# 2 55.6109 91.9352 13.6484 19.7909 16.1975 6.8581
# 3 -6.0150 13.6484 62.6135 18.0243 -10.5365 -0.2850
# 4 20.0416 19.7909 18.0243 41.9668 4.0159 10.2102
# 5 10.2768 16.1975 -10.5365 4.0159 25.7521 5.7223
# 6 2.8260 6.8581 -0.2850 10.2102 5.7223 39.9333
#
#
#
# Elastic Compliance Matrix: (Units=1/GPa)
#
#
# Indices 1 2 3 4 5 6 
#
# 1 0.014437 -0.008886 0.005390 -0.005658 0.002555 0.001624
# 2 -0.008886 0.019443 -0.006760 -0.000719 -0.011119 -0.000981
# 3 0.005390 -0.006760 0.023356 -0.011128 0.012963 0.001934
# 4 -0.005658 -0.000719 -0.011128 0.033989 -0.005485 -0.007460
# 5 0.002555 -0.011119 0.012963 -0.005485 0.051901 -0.004214
# 6 0.001624 -0.000981 0.001934 -0.007460 -0.004214 0.027620
#
#
# Mechanical properties :
#
#
# Convention : Reuss Voigt Hill
#
# Bulk Modulus (GPa) = 27.23082 43.61081 35.42081
# Shear Modulus (GPa) = 24.56997 35.04807 29.80902
#
# Velocity S-wave (km/s) = 3.27129 3.90705 3.60322
# Velocity P-wave (km/s) = 5.11163 6.27279 5.72174
#
# Compressibility (1/GPa) = 0.03672309
#
# Stress axis : x y z
#
# Youngs Moduli (GPa) = 69.26620 51.43227 42.81561
#
# Poissons Ratio (x) = 0.45704 -0.23078
# Poissons Ratio (y) = 0.61552 0.28945
# Poissons Ratio (z) = -0.37335 0.34770
#
# Static dielectric constant tensor:
#      x y z
#    x 1.843360 0.000370 -0.039990 
#    y 0.000370 1.866800 0.020080 
#    z -0.039990 0.020080 1.848200 
# 
# From -- ./inp_files/525944.got.cif
#   From: 2010.05.17/outbox.cif.g08.bks.cpg/sg2_263_cif.got.tgz:525944.got - 2010.06.03 11:33:40.
