data_PCOD9024838
_publ_section_title
;
Structure prediction by ZEFSAII (Michael W. Deem and Ramdas Pophale) SiO2 
 PCOD9024838
Probable space group: P -1
;
_chemical_formula_sum "Si O2"
_cell_formula_units_Z 15
_cell_length_a 11.510144
_cell_length_b 10.232085
_cell_length_c 6.126606
_cell_angle_alpha 115.069149
_cell_angle_beta 76.930473
_cell_angle_gamma 77.592280
_cell_volume 595.872855
_symmetry_space_group_name_H-M "P -1"
_symmetry_group_IT_number 2
_symmetry_cell_setting 'triclinic'
loop_
_space_group_symop_operation_xyz
x,y,z
-x,-y,-z
loop_
_atom_site_type_symbol
_atom_site_label
_atom_site_fract_x
_atom_site_fract_y
_atom_site_fract_z
Si Si1 0.794028 0.582796 0.773248
Si Si2 0.000000 0.500000 0.000000
Si Si3 0.035126 0.216790 0.704891
Si Si4 0.410797 0.100009 0.922099
Si Si5 0.597287 0.524114 0.149781
Si Si6 0.186617 0.656066 0.790999
Si Si7 0.866554 0.112835 0.371209
Si Si8 0.589435 0.177394 0.557706
O O1 0.926153 0.546767 0.815999
O O2 0.803455 0.460783 0.491419
O O3 0.715576 0.758663 0.859786
O O4 0.702921 0.555896 0.980862
O O5 0.108153 0.332762 0.725231
O O6 0.967885 0.167786 0.497231
O O7 0.098098 0.065937 0.713462
O O8 0.919487 0.346648 0.985343
O O9 0.506674 0.158753 0.782539
O O10 0.373387 0.978395 0.705770
O O11 0.500000 0.000000 0.000000
O O12 0.677725 0.390783 0.183325
O O13 0.508011 0.676119 0.422806
O O14 0.500000 0.500000 0.000000
O O15 0.140464 0.827885 0.831269
O O16 0.722187 0.196509 0.576827
#
# Coordination Sequence:
#
# PCOD9024838 Si02
#       8
#     2   1   2   2   2   2   2   2
#     4  11  24  41  66  99 136 177 230 286 345 404
#     4  12  22  48  64  94 140 182 226 286 336 418
#     4  11  25  44  68  95 140 177 231 284 345 399
#     4  10  22  42  64 100 133 178 227 281 344 422
#     4  11  23  41  66  99 134 174 220 293 347 406
#     4  12  22  43  68 102 130 179 239 276 344 419
#     4  11  24  45  66 101 134 183 224 289 339 411
#     4  10  22  40  66  92 137 175 218 279 353 397
#
# _framework density 25.173155000000001
#
# number of rings (size 3 to 8) (size 9 to 14) (size 15 to 20)
#    0.000    1.067    2.667    3.600    0.000    5.867 
#    2.400    1.333    0.000    0.000    0.000    0.000 
#    0.000    0.000    0.000    0.000    0.000    0.000 
#
# Total GULP energy -83747.755978 kJ/mol
# GULP energy per Si atom -5583.183732 kJ/mol
# Density = 2.511586 g / cm^3
# Si number density = 25.173155 Si / 1000 Ang^3
#
#
#
# Elastic Constant Matrix: (Units=GPa)
#
#
# Indices 1 2 3 4 5 6 
#
# 1 81.7478 28.3794 13.1112 -14.9968 13.6303 -17.2110
# 2 28.3794 188.1045 30.7094 -3.4799 11.4360 -36.5832
# 3 13.1112 30.7094 59.7854 7.1791 -4.5155 -15.6059
# 4 -14.9968 -3.4799 7.1791 38.0793 -4.5271 9.0584
# 5 13.6303 11.4360 -4.5155 -4.5271 35.0819 -2.9477
# 6 -17.2110 -36.5832 -15.6059 9.0584 -2.9477 42.9434
#
#
#
# Elastic Compliance Matrix: (Units=1/GPa)
#
#
# Indices 1 2 3 4 5 6 
#
# 1 0.015497 -0.000838 -0.003270 0.005349 -0.005242 0.002821
# 2 -0.000838 0.006807 -0.002153 -0.000638 -0.001859 0.004688
# 3 -0.003270 -0.002153 0.021292 -0.006464 0.004405 0.006259
# 4 0.005349 -0.000638 -0.006464 0.031354 0.000729 -0.007313
# 5 -0.005242 -0.001859 0.004405 0.000729 0.031804 -0.000055
# 6 0.002821 0.004688 0.006259 -0.007313 -0.000055 0.032224
#
#
# Mechanical properties :
#
#
# Convention : Reuss Voigt Hill
#
# Bulk Modulus (GPa) = 32.18073 52.67085 42.42579
# Shear Modulus (GPa) = 30.89128 40.38344 35.63736
#
# Velocity S-wave (km/s) = 3.50687 4.00962 3.76665
# Velocity P-wave (km/s) = 5.40454 6.51191 5.98390
#
# Compressibility (1/GPa) = 0.03107450
#
# Stress axis : x y z
#
# Youngs Moduli (GPa) = 64.52748 146.90843 46.96566
#
# Poissons Ratio (x) = 0.12311 0.15358
# Poissons Ratio (y) = 0.05407 0.10111
# Poissons Ratio (z) = 0.21101 0.31627
#
# Static dielectric constant tensor:
#      x y z
#    x 2.167290 0.186810 0.031150 
#    y 0.186810 2.164440 0.061160 
#    z 0.031150 0.061160 2.046610 
# 
# From -- ./inp_files/72355.got.cif
#   From: 2010.05.17/outbox.cif.g08.bks.cpg/sg2_37_cif.got.tgz:72355.got - 2010.06.03 11:33:40.
