data_PCOD9024675
_publ_section_title
;
Structure prediction by ZEFSAII (Michael W. Deem and Ramdas Pophale) SiO2 
 PCOD9024675
Probable space group: P -1
;
_chemical_formula_sum "Si O2"
_cell_formula_units_Z 14
_cell_length_a 8.981402
_cell_length_b 8.634468
_cell_length_c 17.101256
_cell_angle_alpha 150.358338
_cell_angle_beta 84.531534
_cell_angle_gamma 95.037521
_cell_volume 652.883491
_symmetry_space_group_name_H-M "P -1"
_symmetry_group_IT_number 2
_symmetry_cell_setting 'triclinic'
loop_
_space_group_symop_operation_xyz
x,y,z
-x,-y,-z
loop_
_atom_site_type_symbol
_atom_site_label
_atom_site_fract_x
_atom_site_fract_y
_atom_site_fract_z
Si Si1 0.159016 0.109329 0.269858
Si Si2 0.270723 0.765953 0.415627
Si Si3 0.102256 0.862856 0.607904
Si Si4 0.490813 0.867919 0.166141
Si Si5 0.548525 0.822111 0.535340
Si Si6 0.746038 0.245080 0.286903
Si Si7 0.963469 0.790945 0.835662
O O1 0.124354 0.484182 0.431501
O O2 0.064458 0.024200 0.314882
O O3 0.094188 0.995560 0.140091
O O4 0.327382 0.001530 0.216364
O O5 0.171701 0.976542 0.573060
O O6 0.414439 0.681808 0.426674
O O7 0.163610 0.480655 0.266747
O O8 0.345619 0.959411 0.427093
O O9 0.181408 0.910371 0.708239
O O10 0.519221 0.986389 0.305488
O O11 0.616725 0.006256 0.162455
O O12 0.500000 0.500000 0.000000
O O13 0.651561 0.551150 0.446171
O O14 0.877287 0.332114 0.258897
O O15 0.000000 0.000000 0.000000
#
# Coordination Sequence:
#
# PCOD9024675 Si02
#       7
#     2   2   2   2   2   2   2
#     4   9  19  38  66  92 123 171 214 265 317 383
#     4  10  22  40  65  97 131 168 216 275 324 381
#     4   9  16  37  68  93 118 158 226 266 305 381
#     4  12  25  41  65  99 136 170 217 271 331 390
#     4  11  23  42  68  97 130 169 226 271 319 392
#     4  11  21  41  70  93 121 179 221 265 320 391
#     4  10  23  42  64  97 136 169 215 272 338 388
#
# _framework density 21.443335000000001
#
# number of rings (size 3 to 8) (size 9 to 14) (size 15 to 20)
#    0.000    1.714    2.857    3.000    2.000    0.571 
#    5.143    4.286    0.000    0.000    0.000    0.000 
#    0.000    0.000    0.000    0.000    0.000    0.000 
#
# Total GULP energy -78009.647459 kJ/mol
# GULP energy per Si atom -5572.117676 kJ/mol
# Density = 2.139453 g / cm^3
# Si number density = 21.443335 Si / 1000 Ang^3
#
#
#
# Elastic Constant Matrix: (Units=GPa)
#
#
# Indices 1 2 3 4 5 6 
#
# 1 155.3446 39.0250 56.6034 0.3842 18.4474 23.4552
# 2 39.0250 61.7944 20.9706 -8.2528 11.4623 20.4970
# 3 56.6034 20.9706 84.9182 -2.7085 13.2272 2.6309
# 4 0.3842 -8.2528 -2.7085 25.6164 -4.0221 2.4648
# 5 18.4474 11.4623 13.2272 -4.0221 17.9637 0.0637
# 6 23.4552 20.4970 2.6309 2.4648 0.0637 40.5116
#
#
#
# Elastic Compliance Matrix: (Units=1/GPa)
#
#
# Indices 1 2 3 4 5 6 
#
# 1 0.010307 -0.002567 -0.005319 -0.001998 -0.005463 -0.004193
# 2 -0.002567 0.025328 -0.002379 0.007485 -0.010057 -0.011614
# 3 -0.005319 -0.002379 0.016632 -0.000069 -0.005293 0.003216
# 4 -0.001998 0.007485 -0.000069 0.043075 0.006989 -0.005258
# 5 -0.005463 -0.010057 -0.005293 0.006989 0.073128 0.008054
# 6 -0.004193 -0.011614 0.003216 -0.005258 0.008054 0.033087
#
#
# Mechanical properties :
#
#
# Convention : Reuss Voigt Hill
#
# Bulk Modulus (GPa) = 31.50870 59.47281 45.49075
# Shear Modulus (GPa) = 21.48998 29.18222 25.33610
#
# Velocity S-wave (km/s) = 3.16915 3.69304 3.44108
# Velocity P-wave (km/s) = 5.30256 6.78084 6.08675
#
# Compressibility (1/GPa) = 0.03173726
#
# Stress axis : x y z
#
# Youngs Moduli (GPa) = 97.02005 39.48129 60.12562
#
# Poissons Ratio (x) = 0.10134 0.31984
# Poissons Ratio (y) = 0.24903 0.14303
# Poissons Ratio (z) = 0.51609 0.09392
#
# Static dielectric constant tensor:
#      x y z
#    x 1.886660 0.017160 0.059600 
#    y 0.017160 1.849840 -0.014310 
#    z 0.059600 -0.014310 1.785010 
# 
# From -- ./inp_files/556713.got.cif
#   From: 2010.05.17/outbox.cif.g08.bks.cpg/sg2_279_cif.got.tgz:556713.got - 2010.06.03 11:33:40.
