data_PCOD9024754
_publ_section_title
;
Structure prediction by ZEFSAII (Michael W. Deem and Ramdas Pophale) SiO2 
 PCOD9024754
Probable space group: P -1
;
_chemical_formula_sum "Si O2"
_cell_formula_units_Z 10
_cell_length_a 5.268522
_cell_length_b 16.127770
_cell_length_c 5.044755
_cell_angle_alpha 107.171048
_cell_angle_beta 91.584660
_cell_angle_gamma 65.622475
_cell_volume 370.839927
_symmetry_space_group_name_H-M "P -1"
_symmetry_group_IT_number 2
_symmetry_cell_setting 'triclinic'
loop_
_space_group_symop_operation_xyz
x,y,z
-x,-y,-z
loop_
_atom_site_type_symbol
_atom_site_label
_atom_site_fract_x
_atom_site_fract_y
_atom_site_fract_z
Si Si1 0.230395 0.715610 0.406373
Si Si2 0.623988 0.677145 0.879584
Si Si3 0.704649 0.480016 0.738874
Si Si4 0.807548 0.011380 0.255532
Si Si5 0.739133 0.842504 0.844993
O O1 0.763218 0.750602 0.926941
O O2 0.110933 0.633515 0.342514
O O3 0.993347 0.810268 0.614343
O O4 0.376957 0.713886 0.128712
O O5 0.814007 0.563388 0.820606
O O6 0.477682 0.684251 0.599137
O O7 0.500000 0.500000 0.500000
O O8 0.500000 0.500000 0.000000
O O9 0.462851 0.889676 0.700189
O O10 0.718327 0.924165 0.130148
O O11 0.000000 0.000000 0.500000
O O12 0.000000 0.000000 0.000000
#
# Coordination Sequence:
#
# PCOD9024754 Si02
#       5
#     2   2   2   2   2
#     4  10  22  40  66 102 142 180 227 279 331 405
#     4  10  22  40  66 102 142 180 227 279 331 405
#     4   8  16  35  60  93 141 184 215 269 334 389
#     4  11  28  51  71  98 139 177 226 297 361 418
#     4  11  26  45  76 104 132 185 236 283 354 416
#
# _framework density 26.965813000000001
#
# number of rings (size 3 to 8) (size 9 to 14) (size 15 to 20)
#    0.000    2.000    0.000    1.200    0.000   15.200 
#    0.000    3.000    0.000   14.400    0.000    4.200 
#    0.000    0.000    0.000    0.000    0.000    0.000 
#
# Total GULP energy -56071.612832 kJ/mol
# GULP energy per Si atom -5607.161283 kJ/mol
# Density = 2.690444 g / cm^3
# Si number density = 26.965813 Si / 1000 Ang^3
#
#
#
# Elastic Constant Matrix: (Units=GPa)
#
#
# Indices 1 2 3 4 5 6 
#
# 1 82.4898 32.9949 34.3374 -8.1615 -5.0025 0.9447
# 2 32.9949 139.2596 44.9565 9.5757 3.7582 26.7852
# 3 34.3374 44.9565 151.8574 -28.8670 3.8944 6.5727
# 4 -8.1615 9.5757 -28.8670 46.9449 -1.6264 0.7253
# 5 -5.0025 3.7582 3.8944 -1.6264 43.5345 3.7578
# 6 0.9447 26.7852 6.5727 0.7253 3.7578 52.9456
#
#
#
# Elastic Compliance Matrix: (Units=1/GPa)
#
#
# Indices 1 2 3 4 5 6 
#
# 1 0.014598 -0.003264 -0.002076 0.001977 0.002092 0.001473
# 2 -0.003264 0.010071 -0.002849 -0.004329 -0.000757 -0.004570
# 3 -0.002076 -0.002849 0.008987 0.005720 -0.000611 0.000328
# 4 0.001977 -0.004329 0.005720 0.026064 0.000975 0.001019
# 5 0.002092 -0.000757 -0.000611 0.000975 0.023476 -0.001258
# 6 0.001473 -0.004570 0.000328 0.001019 -0.001258 0.021208
#
#
# Mechanical properties :
#
#
# Convention : Reuss Voigt Hill
#
# Bulk Modulus (GPa) = 57.88019 66.46494 62.17257
# Shear Modulus (GPa) = 39.51277 46.10620 42.80949
#
# Velocity S-wave (km/s) = 3.83206 4.13946 3.98873
# Velocity P-wave (km/s) = 6.41019 6.89552 6.65728
#
# Compressibility (1/GPa) = 0.01727707
#
# Stress axis : x y z
#
# Youngs Moduli (GPa) = 68.50182 99.29362 111.27308
#
# Poissons Ratio (x) = 0.32412 0.23102
# Poissons Ratio (y) = 0.22361 0.31704
# Poissons Ratio (z) = 0.14222 0.28291
#
# Static dielectric constant tensor:
#      x y z
#    x 2.064400 0.070250 0.071470 
#    y 0.070250 2.199270 0.069720 
#    z 0.071470 0.069720 2.057840 
# 
# From -- ./inp_files/7101.got.cif
#   From: 2010.05.17/outbox.cif.g08.bks.cpg/sg2_4_cif.got.tgz:7101.got - 2010.06.03 11:33:40.
