data_PCOD9024937
_publ_section_title
;
Structure prediction by ZEFSAII (Michael W. Deem and Ramdas Pophale) SiO2 
 PCOD9024937
Probable space group: P -1
;
_chemical_formula_sum "Si O2"
_cell_formula_units_Z 16
_cell_length_a 16.622937
_cell_length_b 12.762844
_cell_length_c 16.828637
_cell_angle_alpha 51.840556
_cell_angle_beta 26.139308
_cell_angle_gamma 33.326018
_cell_volume 723.761024
_symmetry_space_group_name_H-M "P -1"
_symmetry_group_IT_number 2
_symmetry_cell_setting 'triclinic'
loop_
_space_group_symop_operation_xyz
x,y,z
-x,-y,-z
loop_
_atom_site_type_symbol
_atom_site_label
_atom_site_fract_x
_atom_site_fract_y
_atom_site_fract_z
Si Si1 0.386344 0.247643 0.008062
Si Si2 0.481973 0.999614 0.613418
Si Si3 0.034136 0.451188 0.898176
Si Si4 0.007986 0.896017 0.246255
Si Si5 1.000000 0.223297 0.379034
Si Si6 0.677074 0.206979 0.139310
Si Si7 0.695120 0.320359 0.744935
Si Si8 0.501447 0.410678 0.463104
O O1 0.427528 0.366797 0.955130
O O2 0.732395 0.981607 0.824049
O O3 0.135713 0.292263 0.245659
O O4 0.283775 0.332997 0.968010
O O5 0.770871 0.917339 0.425437
O O6 0.479844 0.843761 0.703931
O O7 0.500000 0.000000 0.500000
O O8 0.190187 0.230566 0.817720
O O9 0.269864 0.425839 0.674778
O O10 0.000000 0.500000 0.000000
O O11 0.155239 0.779367 0.254973
O O12 0.829038 0.144508 0.285485
O O13 0.252648 0.768756 0.019135
O O14 0.970540 0.145414 0.517550
O O15 0.666218 0.414594 0.541550
O O16 0.444131 0.454880 0.263423
O O17 0.000000 0.000000 0.000000
O O18 0.500000 0.500000 0.500000
#
# Coordination Sequence:
#
# PCOD9024937 Si02
#       8
#     2   2   2   2   2   2   2   2
#     4  10  23  42  65  95 142 177 226 286 342 414
#     4  11  25  46  73  99 142 182 229 290 340 414
#     4  10  24  40  68 105 133 176 228 285 349 400
#     4  11  26  44  65 104 134 173 236 283 338 416
#     4  10  23  41  65  97 134 186 226 274 358 406
#     4  12  25  44  72  95 131 185 232 278 348 410
#     4  12  26  41  70  98 137 179 231 285 345 410
#     4  10  22  40  66  96 135 173 225 284 338 412
#
# _framework density 22.106743000000002
#
# number of rings (size 3 to 8) (size 9 to 14) (size 15 to 20)
#    0.000    1.250    1.250    3.000   10.500    1.500 
#    0.000    0.000    0.000    0.000    0.000    0.000 
#    0.000    0.000    0.000    0.000    0.000    0.000 
#
# Total GULP energy -89246.796896 kJ/mol
# GULP energy per Si atom -5577.924806 kJ/mol
# Density = 2.205643 g / cm^3
# Si number density = 22.106743 Si / 1000 Ang^3
#
#
#
# Elastic Constant Matrix: (Units=GPa)
#
#
# Indices 1 2 3 4 5 6 
#
# 1 155.9290 39.7151 25.9578 -4.6920 2.3919 -13.5023
# 2 39.7151 88.5225 16.5425 -1.9144 -10.7100 12.3378
# 3 25.9578 16.5425 62.0557 -10.5795 8.5213 -3.9999
# 4 -4.6920 -1.9144 -10.5795 39.8846 5.6702 -2.5965
# 5 2.3919 -10.7100 8.5213 5.6702 38.5162 -11.1626
# 6 -13.5023 12.3378 -3.9999 -2.5965 -11.1626 47.0260
#
#
#
# Elastic Compliance Matrix: (Units=1/GPa)
#
#
# Indices 1 2 3 4 5 6 
#
# 1 0.007959 -0.003627 -0.002059 0.000447 -0.000235 0.003031
# 2 -0.003627 0.014627 -0.003468 -0.001498 0.004034 -0.004299
# 3 -0.002059 -0.003468 0.019726 0.005705 -0.005767 0.000943
# 4 0.000447 -0.001498 0.005705 0.027412 -0.005382 0.001243
# 5 -0.000235 0.004034 -0.005767 -0.005382 0.030727 0.005380
# 6 0.003031 -0.004299 0.000943 0.001243 0.005380 0.024689
#
#
# Mechanical properties :
#
#
# Convention : Reuss Voigt Hill
#
# Bulk Modulus (GPa) = 41.66118 52.32645 46.99382
# Shear Modulus (GPa) = 33.01432 40.03815 36.52624
#
# Velocity S-wave (km/s) = 3.86865 4.26035 4.06922
# Velocity P-wave (km/s) = 6.23231 6.92258 6.58649
#
# Compressibility (1/GPa) = 0.02400316
#
# Stress axis : x y z
#
# Youngs Moduli (GPa) = 125.63999 68.36675 50.69577
#
# Poissons Ratio (x) = 0.24799 0.10436
# Poissons Ratio (y) = 0.45574 0.17583
# Poissons Ratio (z) = 0.25864 0.23712
#
# Static dielectric constant tensor:
#      x y z
#    x 2.144120 -0.002090 -0.121560 
#    y -0.002090 2.018250 0.222470 
#    z -0.121560 0.222470 2.083310 
# 
# From -- ./inp_files/283365.got.cif
#   From: 2010.05.17/outbox.cif.g08.bks.cpg/sg2_142_cif.got.tgz:283365.got - 2010.06.03 11:33:40.
