data_PCOD9024306
_publ_section_title
;
Structure prediction by ZEFSAII (Michael W. Deem and Ramdas Pophale) SiO2 
 PCOD9024306
Probable space group: P -1
;
_chemical_formula_sum "Si O2"
_cell_formula_units_Z 16
_cell_length_a 12.653408
_cell_length_b 9.284596
_cell_length_c 14.205155
_cell_angle_alpha 92.655713
_cell_angle_beta 106.835524
_cell_angle_gamma 31.413826
_cell_volume 762.100917
_symmetry_space_group_name_H-M "P -1"
_symmetry_group_IT_number 2
_symmetry_cell_setting 'triclinic'
loop_
_space_group_symop_operation_xyz
x,y,z
-x,-y,-z
loop_
_atom_site_type_symbol
_atom_site_label
_atom_site_fract_x
_atom_site_fract_y
_atom_site_fract_z
Si Si1 0.883046 0.789544 0.001952
Si Si2 0.948510 0.027233 0.751177
Si Si3 0.666443 0.797229 0.672144
Si Si4 0.697387 0.526552 0.824787
Si Si5 0.368641 0.755285 0.899256
Si Si6 0.333826 0.888879 0.233860
Si Si7 0.823637 0.601846 0.511017
Si Si8 0.854886 0.265762 0.401622
O O1 0.081744 0.684907 0.059327
O O2 0.746635 0.974096 0.069755
O O3 0.000000 0.500000 0.000000
O O4 0.696746 0.035774 0.880505
O O5 0.748348 0.366515 0.742743
O O6 0.881035 0.969664 0.796669
O O7 0.168981 0.876533 0.817277
O O8 0.987924 0.913783 0.656360
O O9 0.655148 0.725408 0.765598
O O10 0.850299 0.551852 0.629164
O O11 0.692718 0.934852 0.707808
O O12 0.423873 0.045181 0.566545
O O13 0.520985 0.646161 0.850886
O O14 0.500000 0.500000 0.000000
O O15 0.587946 0.534554 0.313477
O O16 0.833880 0.439255 0.455869
O O17 0.000000 0.500000 0.500000
O O18 0.000000 0.000000 0.500000
#
# Coordination Sequence:
#
# PCOD9024306 Si02
#       8
#     2   2   2   2   2   2   2   2
#     4  11  23  42  66 100 133 175 220 272 332 396
#     4  11  23  40  66  94 128 175 217 274 329 396
#     4  10  22  41  62  93 129 170 217 267 334 388
#     4  11  23  41  66  96 133 179 220 274 326 402
#     4  11  24  43  66  97 137 180 226 272 335 399
#     4  11  23  43  65  93 135 169 218 276 336 393
#     4  10  22  40  64  91 129 169 211 274 331 392
#     4  11  24  41  64  97 126 168 223 271 330 398
#
# _framework density 20.994593999999999
#
# number of rings (size 3 to 8) (size 9 to 14) (size 15 to 20)
#    0.000    1.250    1.250    4.500    0.000    7.000 
#    4.500    0.000    0.000    0.000    0.000    0.000 
#    0.000    0.000    0.000    0.000    0.000    0.000 
#
# Total GULP energy -89110.960244 kJ/mol
# GULP energy per Si atom -5569.435015 kJ/mol
# Density = 2.094681 g / cm^3
# Si number density = 20.994594 Si / 1000 Ang^3
#
#
#
# Elastic Constant Matrix: (Units=GPa)
#
#
# Indices 1 2 3 4 5 6 
#
# 1 103.6863 41.6979 25.8039 2.3493 -7.7333 -19.9776
# 2 41.6979 109.0853 36.3161 24.1143 -11.5951 -10.0792
# 3 25.8039 36.3161 90.4682 0.5079 -10.9241 -11.7644
# 4 2.3493 24.1143 0.5079 37.3430 1.3582 -1.2247
# 5 -7.7333 -11.5951 -10.9241 1.3582 29.0941 5.6307
# 6 -19.9776 -10.0792 -11.7644 -1.2247 5.6307 31.1599
#
#
#
# Elastic Compliance Matrix: (Units=1/GPa)
#
#
# Indices 1 2 3 4 5 6 
#
# 1 0.012919 -0.004515 -0.001051 0.002336 -0.000135 0.006542
# 2 -0.004515 0.014662 -0.004205 -0.009285 0.003646 -0.000763
# 3 -0.001051 -0.004205 0.013694 0.002595 0.002527 0.002781
# 4 0.002336 -0.009285 0.002595 0.032783 -0.003920 0.001471
# 5 -0.000135 0.003646 0.002527 -0.003920 0.037878 -0.004952
# 6 0.006542 -0.000763 0.002781 0.001471 -0.004952 0.038043
#
#
# Mechanical properties :
#
#
# Convention : Reuss Voigt Hill
#
# Bulk Modulus (GPa) = 46.01283 56.76396 51.38839
# Shear Modulus (GPa) = 28.28607 32.81417 30.55012
#
# Velocity S-wave (km/s) = 3.67454 3.95775 3.81877
# Velocity P-wave (km/s) = 6.32196 6.92684 6.63130
#
# Compressibility (1/GPa) = 0.02173307
#
# Stress axis : x y z
#
# Youngs Moduli (GPa) = 77.40443 68.20234 73.02648
#
# Poissons Ratio (x) = 0.30792 0.07677
# Poissons Ratio (y) = 0.34946 0.30707
# Poissons Ratio (z) = 0.08137 0.28679
#
# Static dielectric constant tensor:
#      x y z
#    x 1.761790 0.023090 -0.015670 
#    y 0.023090 1.788770 -0.026970 
#    z -0.015670 -0.026970 1.837890 
# 
# From -- ./inp_files/515662.got.cif
#   From: 2010.05.17/outbox.cif.g08.bks.cpg/sg2_258_cif.got.tgz:515662.got - 2010.06.03 11:33:40.
