data_PCOD9024090
_publ_section_title
;
Structure prediction by ZEFSAII (Michael W. Deem and Ramdas Pophale) SiO2 
 PCOD9024090
Probable space group: P -1
;
_chemical_formula_sum "Si O2"
_cell_formula_units_Z 14
_cell_length_a 18.219439
_cell_length_b 13.968293
_cell_length_c 16.567362
_cell_angle_alpha 163.165159
_cell_angle_beta 33.203714
_cell_angle_gamma 146.478824
_cell_volume 654.227762
_symmetry_space_group_name_H-M "P -1"
_symmetry_group_IT_number 2
_symmetry_cell_setting 'triclinic'
loop_
_space_group_symop_operation_xyz
x,y,z
-x,-y,-z
loop_
_atom_site_type_symbol
_atom_site_label
_atom_site_fract_x
_atom_site_fract_y
_atom_site_fract_z
Si Si1 0.782839 0.792631 0.110747
Si Si2 0.249767 0.644131 0.525394
Si Si3 0.533148 0.397645 0.476679
Si Si4 0.822797 0.554358 0.402693
Si Si5 0.478881 0.605702 0.874574
Si Si6 0.054979 0.763086 0.543323
Si Si7 0.024974 0.765780 0.119538
O O1 0.656576 0.611160 0.135466
O O2 0.730093 0.028144 0.283673
O O3 0.890677 0.030410 0.261114
O O4 0.860456 0.527220 0.783547
O O5 0.215923 0.710172 0.702829
O O6 0.386441 0.494595 0.289538
O O7 0.107823 0.394363 0.427318
O O8 0.500000 0.500000 0.500000
O O9 0.696671 0.508927 0.422557
O O10 0.481745 0.549483 0.729109
O O11 0.486930 0.996143 0.200456
O O12 0.854700 0.928477 0.712819
O O13 0.945376 0.456506 0.162486
O O14 0.076866 0.013129 0.646501
O O15 0.000000 0.500000 0.000000
#
# Coordination Sequence:
#
# PCOD9024090 Si02
#       7
#     2   2   2   2   2   2   2
#     4  12  25  42  65  98 131 163 206 276 320 355
#     4  10  23  45  67  90 129 175 212 253 316 388
#     4  11  23  42  65  91 125 167 209 264 316 370
#     4  10  22  40  63  92 121 166 221 253 304 392
#     4  11  25  43  66  97 127 166 218 258 312 387
#     4  11  24  41  64  97 128 165 216 257 313 386
#     4  11  23  41  63  91 127 168 207 263 317 370
#
# _framework density 21.399277000000001
#
# number of rings (size 3 to 8) (size 9 to 14) (size 15 to 20)
#    0.000    1.143    0.000    7.286    0.000    9.143 
#    0.000    5.000    0.000    0.000    0.000    0.000 
#    0.000    0.000    0.000    0.000    0.000    0.000 
#
# Total GULP energy -78188.406096 kJ/mol
# GULP energy per Si atom -5584.886150 kJ/mol
# Density = 2.135057 g / cm^3
# Si number density = 21.399277 Si / 1000 Ang^3
#
#
#
# Elastic Constant Matrix: (Units=GPa)
#
#
# Indices 1 2 3 4 5 6 
#
# 1 148.5660 38.7570 39.7886 11.1941 5.3038 1.6330
# 2 38.7570 66.4563 30.5536 5.8369 -2.3825 5.2710
# 3 39.7886 30.5536 83.5017 2.5278 26.4033 4.6971
# 4 11.1941 5.8369 2.5278 27.5920 -11.8490 -12.4003
# 5 5.3038 -2.3825 26.4033 -11.8490 27.2155 8.5019
# 6 1.6330 5.2710 4.6971 -12.4003 8.5019 35.3487
#
#
#
# Elastic Compliance Matrix: (Units=1/GPa)
#
#
# Indices 1 2 3 4 5 6 
#
# 1 0.008582 -0.003664 -0.002335 -0.003074 -0.000944 -0.000391
# 2 -0.003664 0.023535 -0.012167 0.002880 0.017360 -0.004888
# 3 -0.002335 -0.012167 0.028931 -0.013370 -0.035068 0.001822
# 4 -0.003074 0.002880 -0.013370 0.059542 0.035416 0.013858
# 5 -0.000944 0.017360 -0.035068 0.035416 0.090118 -0.007136
# 6 -0.000391 -0.004888 0.001822 0.013858 -0.007136 0.035372
#
#
# Mechanical properties :
#
#
# Convention : Reuss Voigt Hill
#
# Bulk Modulus (GPa) = 40.45951 57.41360 48.93656
# Shear Modulus (GPa) = 17.20272 30.65955 23.93114
#
# Velocity S-wave (km/s) = 2.83838 3.78926 3.34775
# Velocity P-wave (km/s) = 5.44884 6.78473 6.15315
#
# Compressibility (1/GPa) = 0.02471607
#
# Stress axis : x y z
#
# Youngs Moduli (GPa) = 116.52476 42.48924 34.56476
#
# Poissons Ratio (x) = 0.15569 0.08071
# Poissons Ratio (y) = 0.42698 0.42055
# Poissons Ratio (z) = 0.27208 0.51697
#
# Static dielectric constant tensor:
#      x y z
#    x 1.792780 -0.004710 -0.033330 
#    y -0.004710 1.785310 0.011180 
#    z -0.033330 0.011180 1.807620 
# 
# From -- ./inp_files/538378.got.cif
#   From: 2010.05.17/outbox.cif.g08.bks.cpg/sg2_270_cif.got.tgz:538378.got - 2010.06.03 11:33:40.
