data_PCOD9024006
_publ_section_title
;
Structure prediction by ZEFSAII (Michael W. Deem and Ramdas Pophale) SiO2 
 PCOD9024006
Probable space group: P -1
;
_chemical_formula_sum "Si O2"
_cell_formula_units_Z 11
_cell_length_a 5.552136
_cell_length_b 11.290494
_cell_length_c 15.752817
_cell_angle_alpha 23.178266
_cell_angle_beta 102.798702
_cell_angle_gamma 100.343378
_cell_volume 378.263561
_symmetry_space_group_name_H-M "P -1"
_symmetry_group_IT_number 2
_symmetry_cell_setting 'triclinic'
loop_
_space_group_symop_operation_xyz
x,y,z
-x,-y,-z
loop_
_atom_site_type_symbol
_atom_site_label
_atom_site_fract_x
_atom_site_fract_y
_atom_site_fract_z
Si Si1 0.699411 0.232332 0.888581
Si Si2 0.202237 0.267889 0.071202
Si Si3 0.741901 0.138674 0.216160
Si Si4 0.000000 0.000000 0.500000
Si Si5 0.326577 0.628237 0.681091
Si Si6 0.989417 0.630867 0.320254
O O1 0.590476 0.446241 0.814003
O O2 0.765309 0.406561 0.693350
O O3 0.500000 0.000000 0.000000
O O4 0.928614 0.992426 0.084308
O O5 0.463979 0.078293 0.205426
O O6 0.962937 0.101091 0.190532
O O7 0.253561 0.506759 0.992345
O O8 0.169668 0.491555 0.838729
O O9 0.818003 0.978817 0.415704
O O10 0.753929 0.030985 0.527215
O O11 0.207116 0.525748 0.651488
O O12 0.000000 0.500000 0.500000
#
# Coordination Sequence:
#
# PCOD9024006 Si02
#       6
#     2   2   2   1   2   2
#     4   9  21  43  67  95 129 179 225 296 357 414
#     4   9  19  36  60  83 125 174 225 268 336 402
#     4   9  19  37  57  86 123 180 220 270 326 406
#     4  10  22  42  58  98 142 174 230 276 342 426
#     4  10  22  40  62  95 136 181 223 287 344 428
#     4  10  22  43  70 101 131 173 238 300 353 415
#
# _framework density 29.080251000000001
#
# number of rings (size 3 to 8) (size 9 to 14) (size 15 to 20)
#    0.000    2.545    0.000    0.000    2.545    5.091 
#   16.364    0.000    0.000    0.000    0.000    0.000 
#    0.000    0.000    0.000    0.000    0.000    0.000 
#
# Total GULP energy -61334.507123 kJ/mol
# GULP energy per Si atom -5575.864284 kJ/mol
# Density = 2.901406 g / cm^3
# Si number density = 29.080251 Si / 1000 Ang^3
#
#
#
# Elastic Constant Matrix: (Units=GPa)
#
#
# Indices 1 2 3 4 5 6 
#
# 1 159.7094 28.1944 26.3224 12.7703 -4.8667 -38.3512
# 2 28.1944 173.3311 45.2284 2.1638 -12.5743 -45.9817
# 3 26.3224 45.2284 96.0842 32.2157 -24.7344 -13.1575
# 4 12.7703 2.1638 32.2157 74.9887 -13.0339 7.5579
# 5 -4.8667 -12.5743 -24.7344 -13.0339 39.3564 0.9695
# 6 -38.3512 -45.9817 -13.1575 7.5579 0.9695 56.7583
#
#
#
# Elastic Compliance Matrix: (Units=1/GPa)
#
#
# Indices 1 2 3 4 5 6 
#
# 1 0.007827 0.000538 -0.001201 -0.001441 -0.000231 0.005642
# 2 0.000538 0.008190 -0.003144 0.000526 0.000729 0.006187
# 3 -0.001201 -0.003144 0.015992 -0.005442 0.007072 0.000952
# 4 -0.001441 0.000526 -0.005442 0.016696 0.002199 -0.004070
# 5 -0.000231 0.000729 0.007072 0.002199 0.030755 0.001255
# 6 0.005642 0.006187 0.000952 -0.004070 0.001255 0.027185
#
#
# Mechanical properties :
#
#
# Convention : Reuss Voigt Hill
#
# Bulk Modulus (GPa) = 40.99163 69.84612 55.41887
# Shear Modulus (GPa) = 40.85278 56.17934 48.51606
#
# Velocity S-wave (km/s) = 3.75217 4.40008 4.08898
# Velocity P-wave (km/s) = 5.73571 7.06291 6.43363
#
# Compressibility (1/GPa) = 0.02439523
#
# Stress axis : x y z
#
# Youngs Moduli (GPa) = 127.75530 122.10315 62.53148
#
# Poissons Ratio (x) = -0.06573 0.07513
# Poissons Ratio (y) = -0.06877 0.19659
# Poissons Ratio (z) = 0.15349 0.38388
#
# Static dielectric constant tensor:
#      x y z
#    x 2.409820 0.466320 -0.644340 
#    y 0.466320 -3.223060 9.691080 
#    z -0.644340 9.691080 -14.961070 
# 
# From -- ./inp_files/28604.got.cif
#   From: 2010.05.17/outbox.cif.g08.bks.cpg/sg2_15_cif.got.tgz:28604.got - 2010.06.03 11:33:40.
