data_PCOD9024455
_publ_section_title
;
Structure prediction by ZEFSAII (Michael W. Deem and Ramdas Pophale) SiO2 
 PCOD9024455
Probable space group: P -1
;
_chemical_formula_sum "Si O2"
_cell_formula_units_Z 16
_cell_length_a 16.820184
_cell_length_b 25.938464
_cell_length_c 4.965881
_cell_angle_alpha 96.346193
_cell_angle_beta 93.933873
_cell_angle_gamma 160.931173
_cell_volume 595.218229
_symmetry_space_group_name_H-M "P -1"
_symmetry_group_IT_number 2
_symmetry_cell_setting 'triclinic'
loop_
_space_group_symop_operation_xyz
x,y,z
-x,-y,-z
loop_
_atom_site_type_symbol
_atom_site_label
_atom_site_fract_x
_atom_site_fract_y
_atom_site_fract_z
Si Si1 0.703864 0.539565 0.694860
Si Si2 0.177596 0.482294 0.913919
Si Si3 0.889545 0.846120 0.500349
Si Si4 0.203858 0.597306 0.311596
Si Si5 0.965139 0.800080 0.091834
Si Si6 0.708703 0.244377 0.372072
Si Si7 0.261370 0.156402 0.942654
Si Si8 0.187151 0.893582 0.704356
O O1 0.365754 0.321050 0.438062
O O2 0.946121 0.699858 0.613602
O O3 0.813472 0.563560 0.933392
O O4 0.708916 0.598272 0.886330
O O5 0.856326 0.298108 0.650663
O O6 0.311169 0.613398 0.195204
O O7 0.402821 0.622008 0.795939
O O8 0.788620 0.834311 0.304992
O O9 0.902192 0.810562 0.254855
O O10 0.198531 0.056855 0.801976
O O11 0.406455 0.771115 0.557352
O O12 0.990452 0.441250 0.394951
O O13 0.000000 0.500000 0.000000
O O14 0.186652 0.905908 0.397688
O O15 0.064158 0.864870 0.841771
O O16 0.495513 0.081594 0.025286
O O17 0.000000 0.000000 0.000000
#
# Coordination Sequence:
#
# PCOD9024455 Si02
#       8
#     2   2   2   2   2   2   2   2
#     4   9  23  42  62  96 131 172 229 271 333 394
#     4  10  22  41  65  93 133 175 214 276 335 396
#     4  10  22  42  64  95 130 176 219 279 334 397
#     4   9  21  38  61  90 129 168 221 264 331 389
#     4  10  24  43  65  97 132 175 225 275 330 384
#     4  10  22  40  64  98 129 176 218 278 325 403
#     4  10  24  40  64  99 134 170 222 272 338 405
#     4  10  25  41  68  98 132 172 226 273 325 397
#
# _framework density 26.880897000000001
#
# number of rings (size 3 to 8) (size 9 to 14) (size 15 to 20)
#    0.750    1.500    0.000    0.375    7.000    9.000 
#    0.000    1.250    0.000    0.000    0.000    0.000 
#    0.000    0.000    0.000    0.000    0.000    0.000 
#
# Total GULP energy -89280.814642 kJ/mol
# GULP energy per Si atom -5580.050915 kJ/mol
# Density = 2.681972 g / cm^3
# Si number density = 26.880897 Si / 1000 Ang^3
#
#
#
# Elastic Constant Matrix: (Units=GPa)
#
#
# Indices 1 2 3 4 5 6 
#
# 1 83.3337 4.0960 -11.3541 -0.6300 -9.6317 -8.3368
# 2 4.0960 101.1800 12.4057 10.7817 -5.4775 -15.0334
# 3 -11.3541 12.4057 65.6702 -1.7547 1.5771 -5.4271
# 4 -0.6300 10.7817 -1.7547 45.4597 4.0593 -4.4138
# 5 -9.6317 -5.4775 1.5771 4.0593 35.8012 -2.5737
# 6 -8.3368 -15.0334 -5.4271 -4.4138 -2.5737 34.5676
#
#
#
# Elastic Compliance Matrix: (Units=1/GPa)
#
#
# Indices 1 2 3 4 5 6 
#
# 1 0.013159 -0.000114 0.002536 0.000354 0.003647 0.003839
# 2 -0.000114 0.011167 -0.001890 -0.002508 0.002361 0.004388
# 3 0.002536 -0.001890 0.016274 0.001381 -0.000301 0.002498
# 4 0.000354 -0.002508 0.001381 0.023092 -0.002827 0.001950
# 5 0.003647 0.002361 -0.000301 -0.002827 0.029876 0.003723
# 6 0.003839 0.004388 0.002498 0.001950 0.003723 0.032681
#
#
# Mechanical properties :
#
#
# Convention : Reuss Voigt Hill
#
# Bulk Modulus (GPa) = 24.00159 28.94211 26.47185
# Shear Modulus (GPa) = 35.95232 39.50144 37.72688
#
# Velocity S-wave (km/s) = 3.66111 3.83756 3.75037
# Velocity P-wave (km/s) = 5.17879 5.51598 5.35004
#
# Compressibility (1/GPa) = 0.04166391
#
# Stress axis : x y z
#
# Youngs Moduli (GPa) = 75.99181 89.55176 61.44876
#
# Poissons Ratio (x) = 0.01016 -0.15582
# Poissons Ratio (y) = 0.00863 0.11615
# Poissons Ratio (z) = -0.19270 0.16927
#
# Static dielectric constant tensor:
#      x y z
#    x 2.271210 0.063270 0.007200 
#    y 0.063270 2.118520 -0.057770 
#    z 0.007200 -0.057770 2.272150 
# 
# From -- ./inp_files/113155.got.cif
#   From: 2010.05.17/outbox.cif.g08.bks.cpg/sg2_57_cif.got.tgz:113155.got - 2010.06.03 11:33:40.
