data_PCOD9024824
_publ_section_title
;
Structure prediction by ZEFSAII (Michael W. Deem and Ramdas Pophale) SiO2 
 PCOD9024824
Probable space group: P -1
;
_chemical_formula_sum "Si O2"
_cell_formula_units_Z 12
_cell_length_a 10.138035
_cell_length_b 21.867940
_cell_length_c 5.095924
_cell_angle_alpha 61.117250
_cell_angle_beta 74.024857
_cell_angle_gamma 29.963452
_cell_volume 466.812158
_symmetry_space_group_name_H-M "P -1"
_symmetry_group_IT_number 2
_symmetry_cell_setting 'triclinic'
loop_
_space_group_symop_operation_xyz
x,y,z
-x,-y,-z
loop_
_atom_site_type_symbol
_atom_site_label
_atom_site_fract_x
_atom_site_fract_y
_atom_site_fract_z
Si Si1 0.431269 0.075600 0.630633
Si Si2 0.574760 0.391820 0.065545
Si Si3 0.818001 0.644833 0.192969
Si Si4 0.712369 0.199567 0.686391
Si Si5 0.975247 0.904746 0.751513
Si Si6 0.983686 0.371024 0.389727
O O1 0.115428 0.241490 0.475174
O O2 0.500000 0.000000 0.500000
O O3 0.648215 0.043803 0.591383
O O4 0.500000 0.000000 0.000000
O O5 0.541673 0.345552 0.397777
O O6 0.879285 0.235683 0.109569
O O7 0.500000 0.500000 0.000000
O O8 0.346065 0.480506 0.779953
O O9 0.499525 0.764204 0.170269
O O10 0.906391 0.667286 0.297136
O O11 0.000000 0.500000 0.500000
O O12 0.890097 0.628545 0.886298
O O13 0.935753 0.118662 0.954300
O O14 0.869883 0.114296 0.504152
#
# Coordination Sequence:
#
# PCOD9024824 Si02
#       6
#     2   2   2   2   2   2
#     4  12  26  47  67  95 141 179 218 276 330 402
#     4  10  23  39  65  97 130 166 228 268 334 391
#     4  12  22  44  67 100 141 168 225 281 328 394
#     4  10  22  40  66  92 128 176 205 278 331 375
#     4  10  22  42  63  91 131 169 218 261 344 371
#     4  12  26  41  71 104 126 182 226 269 337 396
#
# _framework density 25.706272999999999
#
# number of rings (size 3 to 8) (size 9 to 14) (size 15 to 20)
#    1.000    0.000    1.667    5.500    2.333    0.667 
#    0.000    5.000    0.000    0.000    0.000    0.000 
#    0.000    0.000    0.000    0.000    0.000    0.000 
#
# Total GULP energy -67215.502220 kJ/mol
# GULP energy per Si atom -5601.291852 kJ/mol
# Density = 2.564776 g / cm^3
# Si number density = 25.706273 Si / 1000 Ang^3
#
#
#
# Elastic Constant Matrix: (Units=GPa)
#
#
# Indices 1 2 3 4 5 6 
#
# 1 57.0975 -1.8222 11.4577 4.3680 17.2925 -5.1197
# 2 -1.8222 88.6459 27.3670 -1.8595 1.9671 10.5184
# 3 11.4577 27.3670 91.8044 3.7780 5.9332 9.3693
# 4 4.3680 -1.8595 3.7780 53.4516 6.1579 0.0141
# 5 17.2925 1.9671 5.9332 6.1579 48.9899 0.7751
# 6 -5.1197 10.5184 9.3693 0.0141 0.7751 46.9971
#
#
#
# Elastic Compliance Matrix: (Units=1/GPa)
#
#
# Indices 1 2 3 4 5 6 
#
# 1 0.020460 0.001071 -0.002669 -0.000652 -0.006902 0.002635
# 2 0.001071 0.012710 -0.003717 0.000675 -0.000492 -0.001979
# 3 -0.002669 -0.003717 0.012585 -0.000765 -0.000306 -0.001963
# 4 -0.000652 0.000675 -0.000765 0.019081 -0.002102 -0.000041
# 5 -0.006902 -0.000492 -0.000306 -0.002102 0.023185 -0.000963
# 6 0.002635 -0.001979 -0.001963 -0.000041 -0.000963 0.022415
#
#
# Mechanical properties :
#
#
# Convention : Reuss Voigt Hill
#
# Bulk Modulus (GPa) = 28.46817 34.61700 31.54259
# Shear Modulus (GPa) = 37.65791 43.25741 40.45766
#
# Velocity S-wave (km/s) = 3.83159 4.10659 3.97147
# Velocity P-wave (km/s) = 5.53834 5.99842 5.77297
#
# Compressibility (1/GPa) = 0.03512695
#
# Stress axis : x y z
#
# Youngs Moduli (GPa) = 48.87584 78.67729 79.45782
#
# Poissons Ratio (x) = -0.08429 0.21207
# Poissons Ratio (y) = -0.05236 0.29531
# Poissons Ratio (z) = 0.13045 0.29241
#
# Static dielectric constant tensor:
#      x y z
#    x 2.074640 0.045620 -0.068630 
#    y 0.045620 2.022020 -0.019650 
#    z -0.068630 -0.019650 1.954810 
# 
# From -- ./inp_files/47069.got.cif
#   From: 2010.05.17/outbox.cif.g08.bks.cpg/sg2_24_cif.got.tgz:47069.got - 2010.06.03 11:33:40.
