data_PCOD9024709
_publ_section_title
;
Structure prediction by ZEFSAII (Michael W. Deem and Ramdas Pophale) SiO2 
 PCOD9024709
Probable space group: P -1
;
_chemical_formula_sum "Si O2"
_cell_formula_units_Z 14
_cell_length_a 13.330607
_cell_length_b 9.377389
_cell_length_c 7.454730
_cell_angle_alpha 97.153104
_cell_angle_beta 75.917578
_cell_angle_gamma 41.890861
_cell_volume 532.094116
_symmetry_space_group_name_H-M "P -1"
_symmetry_group_IT_number 2
_symmetry_cell_setting 'triclinic'
loop_
_space_group_symop_operation_xyz
x,y,z
-x,-y,-z
loop_
_atom_site_type_symbol
_atom_site_label
_atom_site_fract_x
_atom_site_fract_y
_atom_site_fract_z
Si Si1 0.405558 0.866717 0.363780
Si Si2 0.088356 0.779093 0.183327
Si Si3 0.600891 0.391153 0.127810
Si Si4 0.902882 0.726406 0.701764
Si Si5 0.535058 0.174428 0.298472
Si Si6 0.848146 0.289760 0.426578
Si Si7 0.304354 0.260438 0.966577
O O1 0.469631 0.634092 0.340457
O O2 0.364421 0.987378 0.590919
O O3 0.567676 0.761881 0.181067
O O4 0.245835 0.044354 0.327698
O O5 0.137650 0.732519 0.366315
O O6 0.218110 0.734446 0.007410
O O7 0.135259 0.563237 0.083625
O O8 0.904875 0.069176 0.297438
O O9 0.619081 0.213748 0.169554
O O10 0.500000 0.500000 0.000000
O O11 0.000000 0.500000 0.500000
O O12 0.025153 0.723919 0.696867
O O13 0.815576 0.735901 0.901590
O O14 0.343973 0.437596 0.481569
O O15 0.523455 0.048804 0.159787
#
# Coordination Sequence:
#
# PCOD9024709 Si02
#       7
#     2   2   2   2   2   2   2
#     4  11  26  44  68 102 141 179 227 287 342 404
#     4  10  22  40  66 100 132 175 232 280 323 401
#     4  11  21  42  71  99 132 185 236 271 331 422
#     4  12  24  42  72 102 132 180 238 282 334 406
#     4  12  25  44  70 104 141 178 225 287 348 397
#     4  11  23  41  69 103 136 173 230 282 339 402
#     4  11  24  44  70  99 135 185 232 277 333 420
#
# _framework density 26.311136000000001
#
# number of rings (size 3 to 8) (size 9 to 14) (size 15 to 20)
#    0.000    0.857    2.857    4.714    4.000    0.000 
#    0.000    7.143    0.000    1.714    0.000    0.000 
#    0.000    0.000    0.000    0.000    0.000    0.000 
#
# Total GULP energy -77980.317700 kJ/mol
# GULP energy per Si atom -5570.022693 kJ/mol
# Density = 2.625125 g / cm^3
# Si number density = 26.311136 Si / 1000 Ang^3
#
#
#
# Elastic Constant Matrix: (Units=GPa)
#
#
# Indices 1 2 3 4 5 6 
#
# 1 174.3312 62.4992 195.7290 -147.1706 -18.3608 176.6430
# 2 62.4992 163.4974 56.7259 23.2350 -4.1250 60.5656
# 3 195.7290 56.7259 370.0932 -264.7441 -38.2474 288.0246
# 4 -147.1706 23.2350 -264.7441 295.1505 18.1762 -244.7313
# 5 -18.3608 -4.1250 -38.2474 18.1762 41.8883 -26.9345
# 6 176.6430 60.5656 288.0246 -244.7313 -26.9345 321.3631
#
#
#
# Elastic Compliance Matrix: (Units=1/GPa)
#
#
# Indices 1 2 3 4 5 6 
#
# 1 0.017400 -0.004752 -0.004356 0.003242 0.000316 -0.002269
# 2 -0.004752 0.011743 -0.002680 -0.009206 -0.002205 -0.004395
# 3 -0.004356 -0.002680 0.013985 0.007148 0.005073 -0.003766
# 4 0.003242 -0.009206 0.007148 0.018513 0.004147 0.007992
# 5 0.000316 -0.002205 0.005073 0.004147 0.027364 0.001147
# 6 -0.002269 -0.004395 -0.003766 0.007992 0.001147 0.014745
#
#
# Mechanical properties :
#
#
# Convention : Reuss Voigt Hill
#
# Bulk Modulus (GPa) = 51.14579 148.64777 99.89678
# Shear Modulus (GPa) = 37.35669 157.87822 97.61746
#
# Velocity S-wave (km/s) = 3.77212 7.75465 6.09768
# Velocity P-wave (km/s) = 6.20104 11.69608 9.36085
#
# Compressibility (1/GPa) = 0.01955195
#
# Stress axis : x y z
#
# Youngs Moduli (GPa) = 57.47080 85.15385 71.50416
#
# Poissons Ratio (x) = 0.40468 0.31151
# Poissons Ratio (y) = 0.27312 0.19160
# Poissons Ratio (z) = 0.25037 0.22818
#
# Static dielectric constant tensor:
#      x y z
#    x 2.128100 -0.000650 0.188160 
#    y -0.000650 1.723600 -0.023370 
#    z 0.188160 -0.023370 2.209200 
# 
# From -- ./inp_files/298160.got.cif
#   From: 2010.05.17/outbox.cif.g08.bks.cpg/sg2_150_cif.got.tgz:298160.got - 2010.06.03 11:33:40.
