data_PCOD9024603
_publ_section_title
;
Structure prediction by ZEFSAII (Michael W. Deem and Ramdas Pophale) SiO2 
 PCOD9024603
Probable space group: P -1
;
_chemical_formula_sum "Si O2"
_cell_formula_units_Z 16
_cell_length_a 19.483595
_cell_length_b 5.210401
_cell_length_c 9.266389
_cell_angle_alpha 51.840663
_cell_angle_beta 101.855051
_cell_angle_gamma 98.807336
_cell_volume 723.471686
_symmetry_space_group_name_H-M "P -1"
_symmetry_group_IT_number 2
_symmetry_cell_setting 'triclinic'
loop_
_space_group_symop_operation_xyz
x,y,z
-x,-y,-z
loop_
_atom_site_type_symbol
_atom_site_label
_atom_site_fract_x
_atom_site_fract_y
_atom_site_fract_z
Si Si1 0.231888 0.613644 0.000225
Si Si2 0.527857 0.081878 0.823595
Si Si3 0.142676 0.293278 0.318359
Si Si4 0.789657 0.637035 0.241286
Si Si5 0.079600 0.583813 0.465375
Si Si6 0.653897 0.893989 0.779551
Si Si7 0.719043 0.536369 0.526601
Si Si8 0.419332 0.194349 0.504293
O O1 0.214767 0.529137 0.856862
O O2 0.235893 0.995684 0.896940
O O3 0.169911 0.463878 0.125344
O O4 0.304786 0.430617 0.121689
O O5 0.471132 0.011417 0.696258
O O6 0.547297 0.467170 0.667411
O O7 0.597962 0.886933 0.885954
O O8 0.500000 0.000000 0.000000
O O9 0.096631 0.505004 0.333284
O O10 0.215774 0.257869 0.449604
O O11 0.103092 0.954391 0.383843
O O12 0.867962 0.628566 0.342109
O O13 0.739298 0.463027 0.397538
O O14 0.000000 0.500000 0.500000
O O15 0.610070 0.992481 0.583966
O O16 0.711131 0.186504 0.723093
O O17 0.647265 0.711379 0.461516
#
# Coordination Sequence:
#
# PCOD9024603 Si02
#       8
#     2   2   2   2   2   2   2   2
#     4  12  24  40  65 104 138 174 225 293 349 395
#     4  10  24  43  62  94 136 181 233 296 353 431
#     4  11  22  43  70  99 140 184 222 280 345 410
#     4  11  25  40  65 103 139 167 232 289 333 409
#     4  11  24  46  73 100 137 190 231 268 338 425
#     4  11  23  41  66  92 133 184 230 284 363 421
#     4  10  22  40  65  94 129 177 230 283 344 409
#     4  10  22  41  65  92 131 176 237 284 360 418
#
# _framework density 22.115586
#
# number of rings (size 3 to 8) (size 9 to 14) (size 15 to 20)
#    0.000    1.250    1.250    5.250    5.250    0.500 
#    0.000    3.750    0.000    0.000    0.000    0.000 
#    0.000    0.000    0.000    0.000    0.000    0.000 
#
# Total GULP energy -89515.016927 kJ/mol
# GULP energy per Si atom -5594.688558 kJ/mol
# Density = 2.206525 g / cm^3
# Si number density = 22.115586 Si / 1000 Ang^3
#
#
#
# Elastic Constant Matrix: (Units=GPa)
#
#
# Indices 1 2 3 4 5 6 
#
# 1 141.8109 35.6465 59.7365 17.0214 -29.8195 -5.5760
# 2 35.6465 110.7157 29.3437 16.3472 -16.8104 -6.1051
# 3 59.7365 29.3437 95.7504 33.6276 -21.4910 -6.6320
# 4 17.0214 16.3472 33.6276 33.0213 -14.8550 -9.6662
# 5 -29.8195 -16.8104 -21.4910 -14.8550 31.7850 5.3690
# 6 -5.5760 -6.1051 -6.6320 -9.6662 5.3690 29.2118
#
#
#
# Elastic Compliance Matrix: (Units=1/GPa)
#
#
# Indices 1 2 3 4 5 6 
#
# 1 0.011216 -0.001435 -0.006682 0.005375 0.007639 0.000698
# 2 -0.001435 0.010472 -0.000949 -0.002240 0.002416 0.000514
# 3 -0.006682 -0.000949 0.021123 -0.018754 -0.000791 -0.002739
# 4 0.005375 -0.002240 -0.018754 0.058897 0.016550 0.012747
# 5 0.007639 0.002416 -0.000791 0.016550 0.047350 -0.001443
# 6 0.000698 0.000514 -0.002739 0.012747 -0.001443 0.038335
#
#
# Mechanical properties :
#
#
# Convention : Reuss Voigt Hill
#
# Bulk Modulus (GPa) = 40.52318 66.41449 53.46883
# Shear Modulus (GPa) = 23.39173 33.70697 28.54935
#
# Velocity S-wave (km/s) = 3.25576 3.90824 3.59683
# Velocity P-wave (km/s) = 5.70057 7.10364 6.44042
#
# Compressibility (1/GPa) = 0.02467724
#
# Stress axis : x y z
#
# Youngs Moduli (GPa) = 89.15909 95.49489 47.34271
#
# Poissons Ratio (x) = 0.13706 0.31635
# Poissons Ratio (y) = 0.12797 0.04493
# Poissons Ratio (z) = 0.59578 0.09062
#
# Static dielectric constant tensor:
#      x y z
#    x 1.795810 0.007980 0.026340 
#    y 0.007980 1.855540 0.007870 
#    z 0.026340 0.007870 1.847180 
# 
# From -- ./inp_files/323223.got.cif
#   From: 2010.05.17/outbox.cif.g08.bks.cpg/sg2_162_cif.got.tgz:323223.got - 2010.06.03 11:33:40.
