data_PCOD9024231
_publ_section_title
;
Structure prediction by ZEFSAII (Michael W. Deem and Ramdas Pophale) SiO2 
 PCOD9024231
Probable space group: P -1
;
_chemical_formula_sum "Si O2"
_cell_formula_units_Z 12
_cell_length_a 11.926919
_cell_length_b 15.163348
_cell_length_c 18.262739
_cell_angle_alpha 20.671160
_cell_angle_beta 28.532501
_cell_angle_gamma 27.285732
_cell_volume 511.421756
_symmetry_space_group_name_H-M "P -1"
_symmetry_group_IT_number 2
_symmetry_cell_setting 'triclinic'
loop_
_space_group_symop_operation_xyz
x,y,z
-x,-y,-z
loop_
_atom_site_type_symbol
_atom_site_label
_atom_site_fract_x
_atom_site_fract_y
_atom_site_fract_z
Si Si1 0.203353 0.426961 0.037420
Si Si2 0.692796 0.334974 0.907924
Si Si3 0.951843 0.326132 0.392267
Si Si4 0.796555 0.831897 0.476621
Si Si5 0.018534 0.122483 0.015108
Si Si6 0.289113 0.075068 0.125222
O O1 0.340994 0.236490 0.038337
O O2 0.074678 0.273313 0.282573
O O3 0.402672 0.481629 0.933684
O O4 0.982815 0.702422 0.920791
O O5 0.844201 0.528534 0.657639
O O6 0.748211 0.256074 0.022340
O O7 0.802786 0.069247 0.000935
O O8 0.148184 0.186851 0.454027
O O9 0.744168 0.197271 0.619318
O O10 0.884257 0.646682 0.195155
O O11 0.500000 0.000000 0.500000
O O12 0.977829 0.946479 0.240737
O O13 0.500000 0.000000 0.000000
#
# Coordination Sequence:
#
# PCOD9024231 Si02
#       6
#     2   2   2   2   2   2
#     4  11  25  46  70 100 133 176 230 279 337 398
#     4  10  22  40  64 103 137 177 221 272 330 408
#     4  11  23  42  69  98 134 178 221 277 340 394
#     4  11  21  37  67  98 138 178 218 270 334 406
#     4  10  22  40  65 103 141 177 217 269 337 406
#     4  11  27  49  70  97 131 177 234 286 335 393
#
# _framework density 23.463999000000001
#
# number of rings (size 3 to 8) (size 9 to 14) (size 15 to 20)
#    0.000    1.333    0.000    5.000    4.667    3.333 
#    6.000    0.000    0.000    0.000    0.000    0.000 
#    0.000    0.000    0.000    0.000    0.000    0.000 
#
# Total GULP energy -67139.514081 kJ/mol
# GULP energy per Si atom -5594.959507 kJ/mol
# Density = 2.341059 g / cm^3
# Si number density = 23.463999 Si / 1000 Ang^3
#
#
#
# Elastic Constant Matrix: (Units=GPa)
#
#
# Indices 1 2 3 4 5 6 
#
# 1 97.9362 18.7024 27.3077 -11.0651 -1.7329 8.3784
# 2 18.7024 86.7313 28.1366 -7.9046 -6.7847 27.8943
# 3 27.3077 28.1366 161.3893 3.1704 -1.4631 19.0435
# 4 -11.0651 -7.9046 3.1704 29.0909 3.4850 3.8461
# 5 -1.7329 -6.7847 -1.4631 3.4850 39.0152 0.6918
# 6 8.3784 27.8943 19.0435 3.8461 0.6918 46.4830
#
#
#
# Elastic Compliance Matrix: (Units=1/GPa)
#
#
# Indices 1 2 3 4 5 6 
#
# 1 0.011495 -0.001215 -0.001702 0.004377 -0.000138 -0.001006
# 2 -0.001215 0.015861 -0.001561 0.004938 0.002366 -0.009104
# 3 -0.001702 -0.001561 0.006963 -0.001646 0.000087 -0.001474
# 4 0.004377 0.004938 -0.001646 0.038668 -0.002352 -0.006242
# 5 -0.000138 0.002366 0.000087 -0.002352 0.026279 -0.001627
# 6 -0.001006 -0.009104 -0.001474 -0.006242 -0.001627 0.028302
#
#
# Mechanical properties :
#
#
# Convention : Reuss Voigt Hill
#
# Bulk Modulus (GPa) = 39.42555 54.92781 47.17668
# Shear Modulus (GPa) = 34.48761 41.04518 37.76639
#
# Velocity S-wave (km/s) = 3.83797 4.18698 4.01627
# Velocity P-wave (km/s) = 6.03979 6.84358 6.45421
#
# Compressibility (1/GPa) = 0.02536426
#
# Stress axis : x y z
#
# Youngs Moduli (GPa) = 86.99101 63.04667 143.60806
#
# Poissons Ratio (x) = 0.07661 0.24439
# Poissons Ratio (y) = 0.10570 0.22417
# Poissons Ratio (z) = 0.14804 0.09842
#
# Static dielectric constant tensor:
#      x y z
#    x 1.905150 -0.043650 0.005790 
#    y -0.043650 1.920470 -0.036240 
#    z 0.005790 -0.036240 1.872680 
# 
# From -- ./inp_files/60163.got.cif
#   From: 2010.05.17/outbox.cif.g08.bks.cpg/sg2_31_cif.got.tgz:60163.got - 2010.06.03 11:33:40.
