data_PCOD9024797
_publ_section_title
;
Structure prediction by ZEFSAII (Michael W. Deem and Ramdas Pophale) SiO2 
 PCOD9024797
Probable space group: P -1
;
_chemical_formula_sum "Si O2"
_cell_formula_units_Z 16
_cell_length_a 11.555271
_cell_length_b 14.556061
_cell_length_c 8.161967
_cell_angle_alpha 39.896838
_cell_angle_beta 59.010975
_cell_angle_gamma 47.025509
_cell_volume 644.162780
_symmetry_space_group_name_H-M "P -1"
_symmetry_group_IT_number 2
_symmetry_cell_setting 'triclinic'
loop_
_space_group_symop_operation_xyz
x,y,z
-x,-y,-z
loop_
_atom_site_type_symbol
_atom_site_label
_atom_site_fract_x
_atom_site_fract_y
_atom_site_fract_z
Si Si1 0.372552 0.981208 0.892712
Si Si2 0.989351 0.844401 0.056810
Si Si3 0.785085 0.109333 0.397790
Si Si4 0.514919 0.254117 0.141538
Si Si5 0.230773 0.588190 0.800865
Si Si6 0.905442 0.740224 0.946202
Si Si7 0.715968 0.389864 0.641244
Si Si8 0.619674 0.742816 0.292070
O O1 0.369572 0.149110 0.717263
O O2 0.191995 0.029279 0.937573
O O3 0.472934 0.892017 0.780963
O O4 0.458361 0.857041 0.153434
O O5 0.102577 0.738161 0.266967
O O6 0.078619 0.923712 0.788453
O O7 0.980672 0.721536 0.097476
O O8 0.774780 0.252524 0.327568
O O9 0.833620 0.935156 0.685587
O O10 0.618942 0.184486 0.323547
O O11 0.342247 0.417938 0.052600
O O12 0.612693 0.314638 0.877579
O O13 0.296082 0.572282 0.592985
O O14 0.051559 0.629413 0.873893
O O15 0.762490 0.710028 0.109502
O O16 0.649756 0.562169 0.553998
#
# Coordination Sequence:
#
# PCOD9024797 Si02
#       8
#     2   2   2   2   2   2   2   2
#     4  10  22  40  66  90 127 159 211 259 304 366
#     4   9  21  40  65  96 118 160 212 263 304 359
#     4  10  23  41  65  92 129 163 209 255 315 365
#     4  11  24  40  66  99 120 161 214 263 306 361
#     4  11  22  39  64  95 127 165 201 264 309 369
#     4  10  23  41  63  87 131 171 205 245 318 376
#     4  11  24  38  67  99 124 156 214 260 315 358
#     4  10  23  43  62  93 127 169 200 258 316 371
#
# _framework density 24.838443999999999
#
# number of rings (size 3 to 8) (size 9 to 14) (size 15 to 20)
#    0.000    1.750    1.250    2.250    7.000    4.500 
#    0.000    1.875    8.250    0.000    0.000    0.000 
#    0.000    0.000    0.000    0.000    0.000    0.000 
#
# Total GULP energy -89682.126687 kJ/mol
# GULP energy per Si atom -5605.132918 kJ/mol
# Density = 2.478191 g / cm^3
# Si number density = 24.838444 Si / 1000 Ang^3
#
#
#
# Elastic Constant Matrix: (Units=GPa)
#
#
# Indices 1 2 3 4 5 6 
#
# 1 96.2833 38.6336 47.3166 -13.2534 21.5742 -11.6086
# 2 38.6336 96.8636 34.8129 -29.2018 -5.3007 -4.7502
# 3 47.3166 34.8129 61.8030 -9.6395 9.3124 0.2383
# 4 -13.2534 -29.2018 -9.6395 21.4748 -0.8347 1.5405
# 5 21.5742 -5.3007 9.3124 -0.8347 40.7540 -6.4043
# 6 -11.6086 -4.7502 0.2383 1.5405 -6.4043 53.1206
#
#
#
# Elastic Compliance Matrix: (Units=1/GPa)
#
#
# Indices 1 2 3 4 5 6 
#
# 1 0.019990 -0.003401 -0.011946 0.001823 -0.007766 0.003129
# 2 -0.003401 0.022271 -0.007081 0.025181 0.007051 0.001400
# 3 -0.011946 -0.007081 0.029015 -0.003800 -0.001853 -0.003487
# 4 0.001823 0.025181 -0.003800 0.080353 0.004971 0.000936
# 5 -0.007766 0.007051 -0.001853 0.004971 0.030479 0.002472
# 6 0.003129 0.001400 -0.003487 0.000936 0.002472 0.019921
#
#
# Mechanical properties :
#
#
# Convention : Reuss Voigt Hill
#
# Bulk Modulus (GPa) = 37.85173 55.16400 46.50787
# Shear Modulus (GPa) = 19.55477 32.01568 25.78523
#
# Velocity S-wave (km/s) = 2.80889 3.59410 3.22548
# Velocity P-wave (km/s) = 5.07859 6.28337 5.71283
#
# Compressibility (1/GPa) = 0.02641887
#
# Stress axis : x y z
#
# Youngs Moduli (GPa) = 50.02615 44.90077 34.46484
#
# Poissons Ratio (x) = 0.15272 0.41171
# Poissons Ratio (y) = 0.17016 0.24406
# Poissons Ratio (z) = 0.59760 0.31796
#
# Static dielectric constant tensor:
#      x y z
#    x 1.944580 -0.014830 -0.014540 
#    y -0.014830 1.993800 0.027560 
#    z -0.014540 0.027560 1.915730 
# 
# From -- ./inp_files/271509.got.cif
#   From: 2010.05.17/outbox.cif.g08.bks.cpg/sg2_136_cif.got.tgz:271509.got - 2010.06.03 11:33:40.
