data_PCOD9024585
_publ_section_title
;
Structure prediction by ZEFSAII (Michael W. Deem and Ramdas Pophale) SiO2 
 PCOD9024585
Probable space group: P -1
;
_chemical_formula_sum "Si O2"
_cell_formula_units_Z 14
_cell_length_a 10.891187
_cell_length_b 5.844888
_cell_length_c 13.692258
_cell_angle_alpha 112.011997
_cell_angle_beta 124.883981
_cell_angle_gamma 48.129070
_cell_volume 532.389981
_symmetry_space_group_name_H-M "P -1"
_symmetry_group_IT_number 2
_symmetry_cell_setting 'triclinic'
loop_
_space_group_symop_operation_xyz
x,y,z
-x,-y,-z
loop_
_atom_site_type_symbol
_atom_site_label
_atom_site_fract_x
_atom_site_fract_y
_atom_site_fract_z
Si Si1 0.973613 0.802810 0.077637
Si Si2 0.560252 0.416357 0.626311
Si Si3 0.760475 0.400260 0.996309
Si Si4 0.474637 0.911955 0.805751
Si Si5 0.116042 0.213486 0.404088
Si Si6 0.080318 0.303045 0.759599
Si Si7 0.710296 0.592558 0.345977
O O1 0.997904 0.768327 0.197341
O O2 0.128659 0.785779 0.081663
O O3 0.000000 0.500000 0.000000
O O4 0.773514 0.127462 0.016276
O O5 0.500000 0.500000 0.500000
O O6 0.573895 0.667688 0.724516
O O7 0.411411 0.422300 0.629466
O O8 0.748539 0.075817 0.648203
O O9 0.594045 0.726227 0.926821
O O10 0.863503 0.488056 0.130982
O O11 0.271437 0.009749 0.757801
O O12 0.416379 0.230413 0.779789
O O13 0.230917 0.200460 0.546731
O O14 0.058990 0.507251 0.360489
O O15 0.917400 0.296823 0.361787
#
# Coordination Sequence:
#
# PCOD9024585 Si02
#       7
#     2   2   2   2   2   2   2
#     4   9  21  38  60  94 126 170 221 267 329 392
#     4  12  26  42  68 104 134 179 230 276 346 402
#     4  10  22  40  65  93 133 174 222 272 331 401
#     4  11  25  42  64 101 131 175 231 274 337 403
#     4  10  23  45  70  94 137 178 222 284 340 398
#     4  10  23  42  64  95 131 177 222 272 338 395
#     4  10  24  48  65  99 137 175 227 284 340 405
#
# _framework density 26.296512
#
# number of rings (size 3 to 8) (size 9 to 14) (size 15 to 20)
#    0.000    1.714    1.429    0.857    8.000    4.571 
#    0.000    0.000    0.000    0.000    0.000    0.000 
#    0.000    0.000    0.000    0.000    0.000    0.000 
#
# Total GULP energy -78166.492321 kJ/mol
# GULP energy per Si atom -5583.320880 kJ/mol
# Density = 2.623666 g / cm^3
# Si number density = 26.296512 Si / 1000 Ang^3
#
#
#
# Elastic Constant Matrix: (Units=GPa)
#
#
# Indices 1 2 3 4 5 6 
#
# 1 125.2349 39.3242 20.3356 -14.0421 -36.4618 -19.3579
# 2 39.3242 132.6034 37.7120 -2.9817 -2.1496 -36.8212
# 3 20.3356 37.7120 81.1859 -22.6120 -10.8104 3.1632
# 4 -14.0421 -2.9817 -22.6120 66.9468 -1.4981 -12.5064
# 5 -36.4618 -2.1496 -10.8104 -1.4981 44.6247 4.2605
# 6 -19.3579 -36.8212 3.1632 -12.5064 4.2605 42.9593
#
#
#
# Elastic Compliance Matrix: (Units=1/GPa)
#
#
# Indices 1 2 3 4 5 6 
#
# 1 0.012604 -0.002600 0.000216 0.003470 0.010013 0.003452
# 2 -0.002600 0.013100 -0.006461 -0.000204 -0.004104 0.010880
# 3 0.000216 -0.006461 0.017430 0.004660 0.004802 -0.005843
# 4 0.003470 -0.000204 0.004660 0.018444 0.003999 0.006019
# 5 0.010013 -0.004104 0.004802 0.003999 0.031819 -0.001351
# 6 0.003452 0.010880 -0.005843 0.006019 -0.001351 0.036475
#
#
# Mechanical properties :
#
#
# Convention : Reuss Voigt Hill
#
# Bulk Modulus (GPa) = 39.30342 59.30753 49.30548
# Shear Modulus (GPa) = 32.04239 47.01634 39.52937
#
# Velocity S-wave (km/s) = 3.49449 4.23298 3.88134
# Velocity P-wave (km/s) = 5.59113 6.81859 6.23514
#
# Compressibility (1/GPa) = 0.02544308
#
# Stress axis : x y z
#
# Youngs Moduli (GPa) = 79.33839 76.33656 57.37377
#
# Poissons Ratio (x) = 0.19850 -0.01239
# Poissons Ratio (y) = 0.20631 0.37068
# Poissons Ratio (z) = -0.01713 0.49320
#
# Static dielectric constant tensor:
#      x y z
#    x 2.146550 0.063420 0.039780 
#    y 0.063420 2.175850 -0.066010 
#    z 0.039780 -0.066010 2.045560 
# 
# From -- ./inp_files/273039.got.cif
#   From: 2010.05.17/outbox.cif.g08.bks.cpg/sg2_137_cif.got.tgz:273039.got - 2010.06.03 11:33:40.
