data_PCOD9024418
_publ_section_title
;
Structure prediction by ZEFSAII (Michael W. Deem and Ramdas Pophale) SiO2 
 PCOD9024418
Probable space group: P -1
;
_chemical_formula_sum "Si O2"
_cell_formula_units_Z 16
_cell_length_a 6.733473
_cell_length_b 20.502495
_cell_length_c 12.018670
_cell_angle_alpha 145.652407
_cell_angle_beta 130.580659
_cell_angle_gamma 59.261997
_cell_volume 709.688769
_symmetry_space_group_name_H-M "P -1"
_symmetry_group_IT_number 2
_symmetry_cell_setting 'triclinic'
loop_
_space_group_symop_operation_xyz
x,y,z
-x,-y,-z
loop_
_atom_site_type_symbol
_atom_site_label
_atom_site_fract_x
_atom_site_fract_y
_atom_site_fract_z
Si Si1 0.221108 0.354764 0.484140
Si Si2 0.700784 0.213301 0.160752
Si Si3 0.699141 0.602447 0.676686
Si Si4 0.991374 0.082894 0.452891
Si Si5 0.794551 0.326648 0.666546
Si Si6 0.559403 0.007798 0.368705
Si Si7 0.980202 0.929222 0.779298
Si Si8 0.070579 0.505284 0.844714
O O1 0.232244 0.414409 0.450914
O O2 0.486696 0.286012 0.487121
O O3 0.224947 0.435032 0.709001
O O4 0.941247 0.283770 0.287136
O O5 0.453316 0.283304 0.199831
O O6 0.839605 0.172997 0.266869
O O7 0.592262 0.107742 0.896607
O O8 0.500000 0.500000 0.500000
O O9 0.929502 0.593458 0.836187
O O10 0.266150 0.034780 0.525257
O O11 0.906883 0.014092 0.212365
O O12 0.974458 0.219281 0.608386
O O13 0.778402 0.056792 0.432412
O O14 0.890115 0.407819 0.710411
O O15 0.806822 0.415254 0.900741
O O16 0.323799 0.095939 0.401721
O O17 0.000000 0.000000 0.000000
#
# Coordination Sequence:
#
# PCOD9024418 Si02
#       8
#     2   2   2   2   2   2   2   2
#     4  12  22  40  65  93 133 174 213 270 324 382
#     4  11  24  40  64  99 131 170 219 266 326 388
#     4  12  23  41  65  95 135 170 215 267 324 386
#     4  11  22  43  69  91 134 172 211 274 329 380
#     4  11  24  42  65  94 131 177 222 267 326 390
#     4  10  24  43  66  96 128 170 222 265 327 389
#     4  10  22  40  64  96 127 165 215 264 320 382
#     4  11  24  42  63  95 133 175 223 269 322 386
#
# _framework density 22.545093000000001
#
# number of rings (size 3 to 8) (size 9 to 14) (size 15 to 20)
#    0.000    1.000    2.500    4.125    0.000    4.000 
#    0.000    3.750    0.000    0.000    0.000    0.000 
#    0.000    0.000    0.000    0.000    0.000    0.000 
#
# Total GULP energy -89198.012554 kJ/mol
# GULP energy per Si atom -5574.875785 kJ/mol
# Density = 2.249378 g / cm^3
# Si number density = 22.545093 Si / 1000 Ang^3
#
#
#
# Elastic Constant Matrix: (Units=GPa)
#
#
# Indices 1 2 3 4 5 6 
#
# 1 101.9713 75.3327 17.5807 -17.8853 -14.4237 -0.8972
# 2 75.3327 158.4357 20.5240 -27.5960 -13.1917 -8.7878
# 3 17.5807 20.5240 56.9244 -6.3556 -18.4845 8.8849
# 4 -17.8853 -27.5960 -6.3556 33.5618 1.1279 -11.1094
# 5 -14.4237 -13.1917 -18.4845 1.1279 23.3667 -12.7773
# 6 -0.8972 -8.7878 8.8849 -11.1094 -12.7773 54.2667
#
#
#
# Elastic Compliance Matrix: (Units=1/GPa)
#
#
# Indices 1 2 3 4 5 6 
#
# 1 0.016184 -0.006351 -0.000326 0.003660 0.006879 0.001661
# 2 -0.006351 0.011164 -0.000727 0.006893 0.003722 0.004109
# 3 -0.000326 -0.000727 0.024353 0.003568 0.019091 0.001115
# 4 0.003660 0.006893 0.003568 0.041721 0.013720 0.012364
# 5 0.006879 0.003722 0.019091 0.013720 0.073230 0.017642
# 6 0.001661 0.004109 0.001115 0.012364 0.017642 0.025623
#
#
# Mechanical properties :
#
#
# Convention : Reuss Voigt Hill
#
# Bulk Modulus (GPa) = 27.10410 60.46737 43.78574
# Shear Modulus (GPa) = 22.79162 35.83199 29.31180
#
# Velocity S-wave (km/s) = 3.18297 3.99099 3.60966
# Velocity P-wave (km/s) = 5.05536 6.93658 6.06930
#
# Compressibility (1/GPa) = 0.03689479
#
# Stress axis : x y z
#
# Youngs Moduli (GPa) = 61.78969 89.57568 41.06193
#
# Poissons Ratio (x) = 0.56885 0.01337
# Poissons Ratio (y) = 0.39240 0.02986
# Poissons Ratio (z) = 0.02011 0.06513
#
# Static dielectric constant tensor:
#      x y z
#    x 1.823550 0.024190 -0.027690 
#    y 0.024190 1.819760 -0.037290 
#    z -0.027690 -0.037290 1.873580 
# 
# From -- ./inp_files/370476.got.cif
#   From: 2010.05.17/outbox.cif.g08.bks.cpg/sg2_186_cif.got.tgz:370476.got - 2010.06.03 11:33:40.
