data_PCOD9024808
_publ_section_title
;
Structure prediction by ZEFSAII (Michael W. Deem and Ramdas Pophale) SiO2 
 PCOD9024808
Probable space group: P -1
;
_chemical_formula_sum "Si O2"
_cell_formula_units_Z 16
_cell_length_a 9.288469
_cell_length_b 8.169412
_cell_length_c 12.826458
_cell_angle_alpha 95.274547
_cell_angle_beta 102.632776
_cell_angle_gamma 53.529875
_cell_volume 762.839841
_symmetry_space_group_name_H-M "P -1"
_symmetry_group_IT_number 2
_symmetry_cell_setting 'triclinic'
loop_
_space_group_symop_operation_xyz
x,y,z
-x,-y,-z
loop_
_atom_site_type_symbol
_atom_site_label
_atom_site_fract_x
_atom_site_fract_y
_atom_site_fract_z
Si Si1 0.550165 0.873287 0.232493
Si Si2 0.108565 0.064974 0.954654
Si Si3 0.892883 0.886350 0.286795
Si Si4 0.747636 0.467630 0.713858
Si Si5 0.649094 0.262540 0.412591
Si Si6 0.234196 0.292245 0.093919
Si Si7 0.478998 0.321593 0.970052
Si Si8 0.557430 0.288584 0.628356
O O1 0.733656 0.856173 0.259276
O O2 0.491314 0.848324 0.334294
O O3 0.390801 0.081681 0.164180
O O4 0.573958 0.694578 0.155750
O O5 0.068585 0.089589 0.826278
O O6 0.323677 0.883080 0.983848
O O7 0.094006 0.253973 0.018984
O O8 0.000000 0.000000 0.000000
O O9 0.082690 0.682077 0.343555
O O10 0.806985 0.088146 0.354397
O O11 0.555273 0.665531 0.651146
O O12 0.822737 0.538735 0.818170
O O13 0.675984 0.331154 0.724933
O O14 0.664903 0.202117 0.531779
O O15 0.617649 0.479851 0.411396
O O16 0.333290 0.331011 0.022236
O O17 0.500000 0.500000 0.000000
#
# Coordination Sequence:
#
# PCOD9024808 Si02
#       8
#     2   2   2   2   2   2   2   2
#     4  11  20  38  63  92 121 170 209 254 319 371
#     4  11  25  39  57  94 130 166 207 261 308 370
#     4  12  23  40  64  92 129 161 212 259 313 372
#     4  10  22  40  66  92 119 169 207 259 312 368
#     4   9  21  46  65  88 130 161 206 270 312 374
#     4  11  21  43  60  86 136 166 208 260 305 379
#     4  11  22  37  64  86 122 176 206 250 319 373
#     4   9  21  42  69  90 122 168 210 256 327 371
#
# _framework density 20.974259
#
# number of rings (size 3 to 8) (size 9 to 14) (size 15 to 20)
#    0.750    0.750    3.750    1.500    7.000    2.500 
#    0.000    0.625    0.000    0.000    0.000    0.000 
#    0.000    0.000    0.000    0.000    0.000    0.000 
#
# Total GULP energy -89209.320186 kJ/mol
# GULP energy per Si atom -5575.582512 kJ/mol
# Density = 2.092652 g / cm^3
# Si number density = 20.974259 Si / 1000 Ang^3
#
#
#
# Elastic Constant Matrix: (Units=GPa)
#
#
# Indices 1 2 3 4 5 6 
#
# 1 90.2183 32.3585 40.2078 -0.5547 -17.7938 18.3693
# 2 32.3585 63.6123 34.6228 18.3200 -11.4152 -9.7431
# 3 40.2078 34.6228 92.3830 12.2524 -15.5765 12.7968
# 4 -0.5547 18.3200 12.2524 35.6139 3.8718 -5.2915
# 5 -17.7938 -11.4152 -15.5765 3.8718 28.6231 -2.2050
# 6 18.3693 -9.7431 12.7968 -5.2915 -2.2050 35.8831
#
#
#
# Elastic Compliance Matrix: (Units=1/GPa)
#
#
# Indices 1 2 3 4 5 6 
#
# 1 0.019165 -0.010263 -0.002781 0.004420 0.004889 -0.010654
# 2 -0.010263 0.031402 -0.006819 -0.012351 0.005237 0.014713
# 3 -0.002781 -0.006819 0.016821 -0.003830 0.004707 -0.006702
# 4 0.004420 -0.012351 -0.003830 0.036913 -0.009207 0.000627
# 5 0.004889 0.005237 0.004707 -0.009207 0.043762 -0.001428
# 6 -0.010654 0.014713 -0.006702 0.000627 -0.001428 0.039712
#
#
# Mechanical properties :
#
#
# Convention : Reuss Voigt Hill
#
# Bulk Modulus (GPa) = 36.15063 51.17687 43.66375
# Shear Modulus (GPa) = 21.12193 29.29231 25.20712
#
# Velocity S-wave (km/s) = 3.17683 3.74114 3.47048
# Velocity P-wave (km/s) = 5.54342 6.56615 6.07634
#
# Compressibility (1/GPa) = 0.02766204
#
# Stress axis : x y z
#
# Youngs Moduli (GPa) = 52.17760 31.84486 59.45122
#
# Poissons Ratio (x) = 0.32681 0.16535
# Poissons Ratio (y) = 0.53548 0.40541
# Poissons Ratio (z) = 0.14512 0.21715
#
# Static dielectric constant tensor:
#      x y z
#    x 1.756460 0.028350 0.031330 
#    y 0.028350 2.206080 -0.114110 
#    z 0.031330 -0.114110 1.852560 
# 
# From -- ./inp_files/379548.got.cif
#   From: 2010.05.17/outbox.cif.g08.bks.cpg/sg2_190_cif.got.tgz:379548.got - 2010.06.03 11:33:40.
