data_PCOD9024801
_publ_section_title
;
Structure prediction by ZEFSAII (Michael W. Deem and Ramdas Pophale) SiO2 
 PCOD9024801
Probable space group: P -1
;
_chemical_formula_sum "Si O2"
_cell_formula_units_Z 16
_cell_length_a 9.233849
_cell_length_b 15.968196
_cell_length_c 8.713896
_cell_angle_alpha 48.970105
_cell_angle_beta 47.027785
_cell_angle_gamma 64.569343
_cell_volume 708.802492
_symmetry_space_group_name_H-M "P -1"
_symmetry_group_IT_number 2
_symmetry_cell_setting 'triclinic'
loop_
_space_group_symop_operation_xyz
x,y,z
-x,-y,-z
loop_
_atom_site_type_symbol
_atom_site_label
_atom_site_fract_x
_atom_site_fract_y
_atom_site_fract_z
Si Si1 0.337989 0.500110 0.483893
Si Si2 0.293925 0.248116 0.816775
Si Si3 0.903589 0.456002 0.945831
Si Si4 0.858796 0.679886 0.846980
Si Si5 0.608026 0.392884 0.990957
Si Si6 0.916765 0.110248 0.135973
Si Si7 0.487896 0.162644 0.496169
Si Si8 0.924001 0.870444 0.323564
O O1 0.500000 0.500000 0.500000
O O2 0.326691 0.373955 0.577566
O O3 0.365623 0.593065 0.224487
O O4 0.118582 0.510048 0.694446
O O5 0.448023 0.179388 0.686865
O O6 0.286752 0.268776 0.981099
O O7 0.081991 0.188762 0.003728
O O8 0.787090 0.560332 0.970679
O O9 0.814559 0.404298 0.919113
O O10 0.947860 0.357226 0.150886
O O11 0.904564 0.767242 0.576053
O O12 0.500000 0.500000 0.000000
O O13 0.500734 0.281829 0.258920
O O14 0.699346 0.113447 0.363091
O O15 0.980400 0.982486 0.239456
O O16 0.926756 0.147082 0.904951
O O17 0.289541 0.107858 0.629851
#
# Coordination Sequence:
#
# PCOD9024801 Si02
#       8
#     2   2   2   2   2   2   2   2
#     4  11  25  40  64  97 139 174 218 275 329 400
#     4  10  23  41  62  91 135 168 218 275 324 390
#     4  10  24  41  65  95 137 178 222 263 329 413
#     4  10  22  40  66  90 135 171 218 272 331 379
#     4  12  24  39  65  97 133 179 221 264 339 400
#     4  10  23  44  67  94 126 174 228 278 332 396
#     4  11  22  39  66  93 128 173 220 275 332 398
#     4  10  23  43  67  95 129 170 223 285 333 387
#
# _framework density 22.573284999999998
#
# number of rings (size 3 to 8) (size 9 to 14) (size 15 to 20)
#    0.000    1.500    1.250    3.000   12.250    1.500 
#    0.000    3.125    0.000    0.000    0.000    0.000 
#    0.000    0.000    0.000    0.000    0.000    0.000 
#
# Total GULP energy -89311.722124 kJ/mol
# GULP energy per Si atom -5581.982633 kJ/mol
# Density = 2.252191 g / cm^3
# Si number density = 22.573285 Si / 1000 Ang^3
#
#
#
# Elastic Constant Matrix: (Units=GPa)
#
#
# Indices 1 2 3 4 5 6 
#
# 1 115.0151 26.1113 36.1873 5.5780 -7.7190 12.9197
# 2 26.1113 80.0343 35.4338 20.9342 -1.4742 18.5854
# 3 36.1873 35.4338 108.5623 18.3258 13.5814 -0.4073
# 4 5.5780 20.9342 18.3258 47.9637 0.0859 -6.5884
# 5 -7.7190 -1.4742 13.5814 0.0859 39.3324 -0.9319
# 6 12.9197 18.5854 -0.4073 -6.5884 -0.9319 29.0933
#
#
#
# Elastic Compliance Matrix: (Units=1/GPa)
#
#
# Indices 1 2 3 4 5 6 
#
# 1 0.010748 -0.000793 -0.003738 -0.000062 0.003270 -0.004228
# 2 -0.000793 0.021115 -0.005411 -0.009150 0.002164 -0.015215
# 3 -0.003738 -0.005411 0.013179 -0.001574 -0.005371 0.004773
# 4 -0.000062 -0.009150 -0.001574 0.027099 0.000413 0.012001
# 5 0.003270 0.002164 -0.005371 0.000413 0.027955 -0.001921
# 6 -0.004228 -0.015215 0.004773 0.012001 -0.001921 0.048693
#
#
# Mechanical properties :
#
#
# Convention : Reuss Voigt Hill
#
# Bulk Modulus (GPa) = 39.74865 55.45295 47.60080
# Shear Modulus (GPa) = 28.23902 37.00317 32.62109
#
# Velocity S-wave (km/s) = 3.54078 4.05315 3.80560
# Velocity P-wave (km/s) = 5.86200 6.82079 6.35949
#
# Compressibility (1/GPa) = 0.02515809
#
# Stress axis : x y z
#
# Youngs Moduli (GPa) = 93.03863 47.35875 75.87933
#
# Poissons Ratio (x) = 0.03757 0.28366
# Poissons Ratio (y) = 0.07381 0.41055
# Poissons Ratio (z) = 0.34781 0.25624
#
# Static dielectric constant tensor:
#      x y z
#    x 1.911580 0.012750 0.000130 
#    y 0.012750 1.891380 0.051740 
#    z 0.000130 0.051740 1.843870 
# 
# From -- ./inp_files/216594.got.cif
#   From: 2010.05.17/outbox.cif.g08.bks.cpg/sg2_109_cif.got.tgz:216594.got - 2010.06.03 11:33:40.
