data_PCOD9024969
_publ_section_title
;
Structure prediction by ZEFSAII (Michael W. Deem and Ramdas Pophale) SiO2 
 PCOD9024969
Probable space group: P -1
;
_chemical_formula_sum "Si O2"
_cell_formula_units_Z 14
_cell_length_a 18.807471
_cell_length_b 8.909371
_cell_length_c 13.398732
_cell_angle_alpha 148.166799
_cell_angle_beta 38.007969
_cell_angle_gamma 120.804302
_cell_volume 637.957633
_symmetry_space_group_name_H-M "P -1"
_symmetry_group_IT_number 2
_symmetry_cell_setting 'triclinic'
loop_
_space_group_symop_operation_xyz
x,y,z
-x,-y,-z
loop_
_atom_site_type_symbol
_atom_site_label
_atom_site_fract_x
_atom_site_fract_y
_atom_site_fract_z
Si Si1 0.985606 0.836557 0.321314
Si Si2 0.638734 0.841410 0.315130
Si Si3 0.211131 0.231373 0.616482
Si Si4 0.092616 0.507559 0.294423
Si Si5 0.639818 0.464383 0.300109
Si Si6 0.180945 0.284850 0.288560
Si Si7 0.347551 0.649417 0.283742
O O1 0.859181 0.784334 0.415780
O O2 0.967854 0.103503 0.408164
O O3 0.000000 0.000000 0.500000
O O4 0.106775 0.496107 0.960127
O O5 0.628307 0.653935 0.317563
O O6 0.500000 0.000000 0.500000
O O7 0.665536 0.130329 0.483128
O O8 0.772742 0.601194 0.975318
O O9 0.317583 0.355079 0.561631
O O10 0.271795 0.886963 0.409814
O O11 0.139822 0.304884 0.228935
O O12 0.966570 0.494507 0.377292
O O13 0.500000 0.500000 0.500000
O O14 0.746375 0.083554 0.961505
O O15 0.284136 0.421998 0.250950
O O16 0.500000 0.500000 0.000000
#
# Coordination Sequence:
#
# PCOD9024969 Si02
#       7
#     2   2   2   2   2   2   2
#     4  11  21  39  68  99 130 172 231 287 335 414
#     4  11  25  44  68  97 132 183 227 285 350 410
#     4  10  22  40  66  98 129 187 226 268 358 415
#     4  11  23  41  67  94 140 171 224 289 341 407
#     4  11  22  42  69  96 134 179 233 280 343 423
#     4  11  23  41  68  98 131 182 222 280 348 401
#     4  11  22  42  66  96 135 181 229 272 347 426
#
# _framework density 21.945031
#
# number of rings (size 3 to 8) (size 9 to 14) (size 15 to 20)
#    0.000    1.143    2.857    5.143    0.000    0.571 
#    0.000    3.571    0.000    0.000    0.000    0.000 
#    0.000    0.000    0.000    0.000    0.000    0.000 
#
# Total GULP energy -78128.743817 kJ/mol
# GULP energy per Si atom -5580.624558 kJ/mol
# Density = 2.189508 g / cm^3
# Si number density = 21.945031 Si / 1000 Ang^3
#
#
#
# Elastic Constant Matrix: (Units=GPa)
#
#
# Indices 1 2 3 4 5 6 
#
# 1 149.3349 54.0397 42.5223 1.7871 -22.0453 30.8065
# 2 54.0397 133.9830 35.0446 0.5697 -16.7235 29.0932
# 3 42.5223 35.0446 102.8898 -2.8255 -26.0777 4.3352
# 4 1.7871 0.5697 -2.8255 43.9798 4.7711 -10.7472
# 5 -22.0453 -16.7235 -26.0777 4.7711 36.0360 -3.5135
# 6 30.8065 29.0932 4.3352 -10.7472 -3.5135 41.1529
#
#
#
# Elastic Compliance Matrix: (Units=1/GPa)
#
#
# Indices 1 2 3 4 5 6 
#
# 1 0.009761 -0.001493 -0.002525 -0.002434 0.003154 -0.006351
# 2 -0.001493 0.010235 -0.002175 -0.001942 0.001912 -0.006233
# 3 -0.002525 -0.002175 0.013226 0.000907 0.007178 0.002884
# 4 -0.002434 -0.001942 0.000907 0.025686 -0.004214 0.009448
# 5 0.003154 0.001912 0.007178 -0.004214 0.036076 -0.002489
# 6 -0.006351 -0.006233 0.002884 0.009448 -0.002489 0.035411
#
#
# Mechanical properties :
#
#
# Convention : Reuss Voigt Hill
#
# Bulk Modulus (GPa) = 47.99604 72.15786 60.07695
# Shear Modulus (GPa) = 33.39395 41.20716 37.30055
#
# Velocity S-wave (km/s) = 3.90514 4.33800 4.12725
# Velocity P-wave (km/s) = 6.50015 7.61863 7.08151
#
# Compressibility (1/GPa) = 0.02083505
#
# Stress axis : x y z
#
# Youngs Moduli (GPa) = 102.45217 97.70300 75.60674
#
# Poissons Ratio (x) = 0.14589 0.19092
# Poissons Ratio (y) = 0.15298 0.16446
# Poissons Ratio (z) = 0.25871 0.21252
#
# Static dielectric constant tensor:
#      x y z
#    x 1.868850 0.021420 -0.012380 
#    y 0.021420 1.855180 -0.060010 
#    z -0.012380 -0.060010 2.091130 
# 
# From -- ./inp_files/540598.got.cif
#   From: 2010.05.17/outbox.cif.g08.bks.cpg/sg2_271_cif.got.tgz:540598.got - 2010.06.03 11:33:40.
