data_PCOD9024166
_publ_section_title
;
Structure prediction by ZEFSAII (Michael W. Deem and Ramdas Pophale) SiO2 
 PCOD9024166
Probable space group: P -1
;
_chemical_formula_sum "Si O2"
_cell_formula_units_Z 16
_cell_length_a 20.750277
_cell_length_b 10.669335
_cell_length_c 5.639406
_cell_angle_alpha 58.530009
_cell_angle_beta 118.894560
_cell_angle_gamma 140.837878
_cell_volume 665.322653
_symmetry_space_group_name_H-M "P -1"
_symmetry_group_IT_number 2
_symmetry_cell_setting 'triclinic'
loop_
_space_group_symop_operation_xyz
x,y,z
-x,-y,-z
loop_
_atom_site_type_symbol
_atom_site_label
_atom_site_fract_x
_atom_site_fract_y
_atom_site_fract_z
Si Si1 0.831367 0.590267 0.723151
Si Si2 0.111572 0.841882 0.354021
Si Si3 0.108371 0.612939 0.203918
Si Si4 0.723325 0.939727 0.188676
Si Si5 0.412534 0.733208 0.358965
Si Si6 0.827378 0.846828 0.205648
Si Si7 0.929005 0.761118 0.188257
Si Si8 0.513672 0.822719 0.952478
O O1 0.859913 0.512012 0.651496
O O2 0.710336 0.440943 0.673487
O O3 0.876884 0.816629 0.529596
O O4 0.880586 0.606083 0.035804
O O5 0.106986 0.672854 0.409126
O O6 0.219840 0.016292 0.505988
O O7 0.020716 0.777061 0.419352
O O8 0.107825 0.934972 0.016853
O O9 0.201205 0.831986 0.020204
O O10 0.000000 0.500000 0.000000
O O11 0.731345 0.802685 0.181078
O O12 0.611137 0.850087 0.102634
O O13 0.456456 0.728022 0.689387
O O14 0.446517 0.952329 0.197052
O O15 0.450925 0.717790 0.192290
O O16 0.828513 0.714134 0.152775
O O17 0.000000 0.000000 0.000000
#
# Coordination Sequence:
#
# PCOD9024166 Si02
#       8
#     2   2   2   2   2   2   2   2
#     4  12  24  43  68 101 141 178 235 295 355 413
#     4  10  23  40  65  96 135 186 235 271 358 425
#     4  11  24  41  63 104 139 174 228 290 355 416
#     4  11  24  44  69  96 139 187 229 290 353 430
#     4  10  24  44  74 108 135 184 237 304 363 428
#     4  10  24  40  65  91 138 180 232 274 348 423
#     4  10  22  40  63  95 136 191 229 274 342 429
#     4  10  23  46  74 103 142 180 242 295 373 422
#
# _framework density 24.048480999999999
#
# number of rings (size 3 to 8) (size 9 to 14) (size 15 to 20)
#    0.000    1.500    2.500    1.500    7.000    5.000 
#    0.000    1.250    0.000    0.000    0.000    0.000 
#    0.000    0.000    0.000    0.000    0.000    0.000 
#
# Total GULP energy -89221.438956 kJ/mol
# GULP energy per Si atom -5576.339935 kJ/mol
# Density = 2.399375 g / cm^3
# Si number density = 24.048481 Si / 1000 Ang^3
#
#
#
# Elastic Constant Matrix: (Units=GPa)
#
#
# Indices 1 2 3 4 5 6 
#
# 1 239.6124 48.7382 72.3157 10.6941 17.3537 11.5767
# 2 48.7382 59.7777 39.7330 11.1921 5.3875 11.6572
# 3 72.3157 39.7330 118.0714 15.3623 13.2361 11.1292
# 4 10.6941 11.1921 15.3623 36.7336 -2.6990 9.5096
# 5 17.3537 5.3875 13.2361 -2.6990 44.6888 -1.3422
# 6 11.5767 11.6572 11.1292 9.5096 -1.3422 41.4963
#
#
#
# Elastic Compliance Matrix: (Units=1/GPa)
#
#
# Indices 1 2 3 4 5 6 
#
# 1 0.005536 -0.002881 -0.002304 0.000199 -0.001114 -0.000199
# 2 -0.002881 0.024138 -0.005527 -0.003265 -0.000464 -0.003762
# 3 -0.002304 -0.005527 0.012424 -0.002868 -0.002309 -0.000554
# 4 0.000199 -0.003265 -0.002868 0.030961 0.002874 -0.005372
# 5 -0.001114 -0.000464 -0.002309 0.002874 0.023758 0.001170
# 6 -0.000199 -0.003762 -0.000554 -0.005372 0.001170 0.026628
#
#
# Mechanical properties :
#
#
# Convention : Reuss Voigt Hill
#
# Bulk Modulus (GPa) = 48.36581 82.11503 65.24042
# Shear Modulus (GPa) = 32.94687 41.69536 37.32111
#
# Velocity S-wave (km/s) = 3.70539 4.16841 3.94370
# Velocity P-wave (km/s) = 6.20178 7.57544 6.92276
#
# Compressibility (1/GPa) = 0.02067576
#
# Stress axis : x y z
#
# Youngs Moduli (GPa) = 180.63745 41.42919 80.48652
#
# Poissons Ratio (x) = 0.11934 0.18540
# Poissons Ratio (y) = 0.52033 0.44486
# Poissons Ratio (z) = 0.41610 0.22898
#
# Static dielectric constant tensor:
#      x y z
#    x 1.848620 -0.114250 0.321710 
#    y -0.114250 1.772810 0.381720 
#    z 0.321710 0.381720 0.329780 
# 
# From -- ./inp_files/118586.got.cif
#   From: 2010.05.17/outbox.cif.g08.bks.cpg/sg2_60_cif.got.tgz:118586.got - 2010.06.03 11:33:40.
