data_PCOD9024159
_publ_section_title
;
Structure prediction by ZEFSAII (Michael W. Deem and Ramdas Pophale) SiO2 
 PCOD9024159
Probable space group: P -1
;
_chemical_formula_sum "Si O2"
_cell_formula_units_Z 16
_cell_length_a 12.590803
_cell_length_b 5.424160
_cell_length_c 21.255430
_cell_angle_alpha 91.713676
_cell_angle_beta 25.745003
_cell_angle_gamma 89.614346
_cell_volume 628.359831
_symmetry_space_group_name_H-M "P -1"
_symmetry_group_IT_number 2
_symmetry_cell_setting 'triclinic'
loop_
_space_group_symop_operation_xyz
x,y,z
-x,-y,-z
loop_
_atom_site_type_symbol
_atom_site_label
_atom_site_fract_x
_atom_site_fract_y
_atom_site_fract_z
Si Si1 0.978599 0.207839 0.207684
Si Si2 0.716447 0.092213 0.656566
Si Si3 0.258960 0.342613 0.940044
Si Si4 0.200437 0.437690 0.216959
Si Si5 0.754000 0.278727 0.503760
Si Si6 0.309606 0.813886 0.075471
Si Si7 0.498249 0.797407 0.604293
Si Si8 0.288912 0.833835 0.853634
O O1 0.071634 0.313631 0.224181
O O2 0.690649 0.204347 0.352346
O O3 0.111371 0.932275 0.134539
O O4 0.100891 0.350792 0.087411
O O5 0.551198 0.258210 0.796086
O O6 0.661128 0.252124 0.623917
O O7 0.572431 0.847381 0.725816
O O8 0.000000 0.000000 0.500000
O O9 0.209013 0.592928 0.929391
O O10 0.182761 0.104432 0.937651
O O11 0.178494 0.718243 0.206729
O O12 0.042526 0.325255 0.354259
O O13 0.492175 0.379143 0.064341
O O14 0.640882 0.529264 0.533569
O O15 0.669520 0.027453 0.515197
O O16 0.500000 0.000000 0.000000
O O17 0.326690 0.825482 0.758534
#
# Coordination Sequence:
#
# PCOD9024159 Si02
#       8
#     2   2   2   2   2   2   2   2
#     4  11  26  40  69  97 134 176 229 275 330 400
#     4   9  21  41  64  96 129 169 224 271 328 396
#     4  10  22  40  63  95 130 168 219 268 333 382
#     4  10  24  44  70  95 137 172 223 282 332 408
#     4  11  25  45  68  98 136 181 218 276 346 385
#     4   9  22  47  63  98 128 173 224 275 338 388
#     4  11  24  45  66  98 138 178 226 274 330 408
#     4   9  20  42  58  94 130 172 213 267 333 385
#
# _framework density 25.46312
#
# number of rings (size 3 to 8) (size 9 to 14) (size 15 to 20)
#    0.750    1.250    1.250    0.000    8.750    2.500 
#    4.500    0.000    0.000    0.000    0.000    0.000 
#    0.000    0.000    0.000    0.000    0.000    0.000 
#
# Total GULP energy -89294.287929 kJ/mol
# GULP energy per Si atom -5580.892996 kJ/mol
# Density = 2.540516 g / cm^3
# Si number density = 25.463120 Si / 1000 Ang^3
#
#
#
# Elastic Constant Matrix: (Units=GPa)
#
#
# Indices 1 2 3 4 5 6 
#
# 1 37.2449 20.2387 0.4291 0.5438 -1.3956 -2.0564
# 2 20.2387 165.8102 37.0105 -17.0058 -9.2563 -13.0745
# 3 0.4291 37.0105 93.1452 -11.8922 -2.9596 -4.5378
# 4 0.5438 -17.0058 -11.8922 41.9927 -8.6754 5.0099
# 5 -1.3956 -9.2563 -2.9596 -8.6754 41.0418 1.8748
# 6 -2.0564 -13.0745 -4.5378 5.0099 1.8748 31.0437
#
#
#
# Elastic Compliance Matrix: (Units=1/GPa)
#
#
# Indices 1 2 3 4 5 6 
#
# 1 0.029043 -0.003957 0.001243 -0.001760 -0.000221 0.000736
# 2 -0.003957 0.007602 -0.002518 0.002554 0.001845 0.002048
# 3 0.001243 -0.002518 0.012097 0.002530 0.000866 0.000330
# 4 -0.001760 0.002554 0.002530 0.027376 0.006645 -0.003491
# 5 -0.000221 0.001845 0.000866 0.006645 0.026322 -0.001773
# 6 0.000736 0.002048 0.000330 -0.003491 -0.001773 0.033843
#
#
# Mechanical properties :
#
#
# Convention : Reuss Voigt Hill
#
# Bulk Modulus (GPa) = 26.12477 45.72858 35.92667
# Shear Modulus (GPa) = 31.34629 38.71711 35.03170
#
# Velocity S-wave (km/s) = 3.51243 3.90361 3.71318
# Velocity P-wave (km/s) = 5.17027 6.18994 5.70294
#
# Compressibility (1/GPa) = 0.03827785
#
# Stress axis : x y z
#
# Youngs Moduli (GPa) = 34.43124 131.53633 82.66295
#
# Poissons Ratio (x) = 0.52052 -0.10272
# Poissons Ratio (y) = 0.13625 0.20816
# Poissons Ratio (z) = -0.04279 0.33122
#
# Static dielectric constant tensor:
#      x y z
#    x 2.097620 0.039220 -0.019660 
#    y 0.039220 2.083000 0.082740 
#    z -0.019660 0.082740 2.070500 
# 
# From -- ./inp_files/78086.got.cif
#   From: 2010.05.17/outbox.cif.g08.bks.cpg/sg2_40_cif.got.tgz:78086.got - 2010.06.03 11:33:40.
