data_PCOD9024346
_publ_section_title
;
Structure prediction by ZEFSAII (Michael W. Deem and Ramdas Pophale) SiO2 
 PCOD9024346
Probable space group: P -1
;
_chemical_formula_sum "Si O2"
_cell_formula_units_Z 14
_cell_length_a 18.589969
_cell_length_b 8.795056
_cell_length_c 7.625980
_cell_angle_alpha 59.594931
_cell_angle_beta 120.569563
_cell_angle_gamma 72.167079
_cell_volume 602.830786
_symmetry_space_group_name_H-M "P -1"
_symmetry_group_IT_number 2
_symmetry_cell_setting 'triclinic'
loop_
_space_group_symop_operation_xyz
x,y,z
-x,-y,-z
loop_
_atom_site_type_symbol
_atom_site_label
_atom_site_fract_x
_atom_site_fract_y
_atom_site_fract_z
Si Si1 0.679062 0.415993 0.789176
Si Si2 0.888183 0.533815 0.860757
Si Si3 0.572407 0.029403 0.686771
Si Si4 0.207059 0.087697 0.983028
Si Si5 0.027910 0.681554 0.264154
Si Si6 0.107402 0.732811 0.675000
Si Si7 0.652213 0.769149 0.291102
O O1 0.533205 0.677198 0.519781
O O2 0.700822 0.515611 0.595134
O O3 0.729361 0.149102 0.939102
O O4 0.766039 0.355024 0.088477
O O5 0.936416 0.327178 0.884195
O O6 0.737268 0.790239 0.470220
O O7 0.884405 0.464135 0.092156
O O8 0.000000 0.500000 0.000000
O O9 0.500000 0.000000 0.500000
O O10 0.676164 0.987242 0.747606
O O11 0.654829 0.793052 0.073404
O O12 0.109640 0.373202 0.592167
O O13 0.120361 0.125282 0.995061
O O14 0.070628 0.752246 0.421118
O O15 0.000000 0.000000 0.500000
O O16 0.500000 0.000000 0.000000
#
# Coordination Sequence:
#
# PCOD9024346 Si02
#       7
#     2   2   2   2   2   2   2
#     4  10  22  40  64  93 127 172 214 275 330 386
#     4  11  23  40  67  98 130 177 221 268 338 390
#     4  11  22  40  68  92 124 173 220 267 333 398
#     4  11  21  39  63  91 129 168 219 269 323 391
#     4  11  23  40  67  93 133 175 219 267 327 400
#     4  11  23  42  65  97 133 168 222 273 331 386
#     4   9  21  41  62  90 130 166 218 269 332 393
#
# _framework density 23.223763000000002
#
# number of rings (size 3 to 8) (size 9 to 14) (size 15 to 20)
#    0.000    1.429    2.857    3.000    0.000    2.857 
#    0.000    0.714    3.143    0.000    0.000    0.000 
#    0.000    0.000    0.000    0.000    0.000    0.000 
#
# Total GULP energy -78154.019869 kJ/mol
# GULP energy per Si atom -5582.429991 kJ/mol
# Density = 2.317090 g / cm^3
# Si number density = 23.223763 Si / 1000 Ang^3
#
#
#
# Elastic Constant Matrix: (Units=GPa)
#
#
# Indices 1 2 3 4 5 6 
#
# 1 89.0126 26.9511 31.1229 3.5967 50.8121 -4.3949
# 2 26.9511 127.5757 44.8279 -0.5325 13.8257 -1.4597
# 3 31.1229 44.8279 82.4477 11.7181 34.2978 14.7686
# 4 3.5967 -0.5325 11.7181 51.4507 2.4178 10.2294
# 5 50.8121 13.8257 34.2978 2.4178 48.8020 6.0137
# 6 -4.3949 -1.4597 14.7686 10.2294 6.0137 37.0956
#
#
#
# Elastic Compliance Matrix: (Units=1/GPa)
#
#
# Indices 1 2 3 4 5 6 
#
# 1 0.032400 -0.004253 0.004073 -0.003288 -0.036319 0.008844
# 2 -0.004253 0.010621 -0.007228 0.001488 0.006257 0.001367
# 3 0.004073 -0.007228 0.023402 -0.003823 -0.017813 -0.005177
# 4 -0.003288 0.001488 -0.003823 0.021411 0.005315 -0.005575
# 5 -0.036319 0.006257 -0.017813 0.005315 0.069994 -0.009778
# 6 0.008844 0.001367 -0.005177 -0.005575 -0.009778 0.033242
#
#
# Mechanical properties :
#
#
# Convention : Reuss Voigt Hill
#
# Bulk Modulus (GPa) = 19.37704 56.09332 37.73518
# Shear Modulus (GPa) = 22.41280 40.54527 31.47904
#
# Velocity S-wave (km/s) = 3.10994 4.18287 3.68566
# Velocity P-wave (km/s) = 4.61058 6.89452 5.86480
#
# Compressibility (1/GPa) = 0.05160747
#
# Stress axis : x y z
#
# Youngs Moduli (GPa) = 30.86454 94.15670 42.73098
#
# Poissons Ratio (x) = 0.40040 -0.17406
# Poissons Ratio (y) = 0.13125 0.30888
# Poissons Ratio (z) = -0.12572 0.68060
#
# Static dielectric constant tensor:
#      x y z
#    x 1.965390 0.037300 0.034320 
#    y 0.037300 1.919960 -0.024620 
#    z 0.034320 -0.024620 1.944030 
# 
# From -- ./inp_files/328532.got.cif
#   From: 2010.05.17/outbox.cif.g08.bks.cpg/sg2_165_cif.got.tgz:328532.got - 2010.06.03 11:33:40.
