data_PCOD9024002
_publ_section_title
;
Structure prediction by ZEFSAII (Michael W. Deem and Ramdas Pophale) SiO2 
 PCOD9024002
Probable space group: P -1
;
_chemical_formula_sum "Si O2"
_cell_formula_units_Z 16
_cell_length_a 30.524721
_cell_length_b 8.309076
_cell_length_c 15.318869
_cell_angle_alpha 130.800294
_cell_angle_beta 18.998762
_cell_angle_gamma 141.051945
_cell_volume 728.620640
_symmetry_space_group_name_H-M "P -1"
_symmetry_group_IT_number 2
_symmetry_cell_setting 'triclinic'
loop_
_space_group_symop_operation_xyz
x,y,z
-x,-y,-z
loop_
_atom_site_type_symbol
_atom_site_label
_atom_site_fract_x
_atom_site_fract_y
_atom_site_fract_z
Si Si1 0.584912 0.648825 0.520585
Si Si2 0.998915 0.008120 0.665958
Si Si3 0.669950 0.414449 0.138364
Si Si4 0.320905 0.434917 0.338810
Si Si5 0.967456 0.451692 0.828403
Si Si6 0.181971 0.732827 0.688639
Si Si7 0.198338 0.297792 0.714978
Si Si8 0.909625 0.322332 0.696296
O O1 0.564042 0.423962 0.417916
O O2 0.420241 0.631255 0.801156
O O3 0.644022 0.631971 0.497616
O O4 0.748276 0.971930 0.305027
O O5 0.168872 0.223519 0.481439
O O6 0.931027 0.165961 0.815560
O O7 0.062495 0.901400 0.436542
O O8 0.850801 0.734419 0.903781
O O9 0.714481 0.221310 0.014575
O O10 0.324361 0.695235 0.423726
O O11 0.249288 0.304756 0.522767
O O12 0.500000 0.500000 0.000000
O O13 0.985200 0.490422 0.704374
O O14 0.134516 0.681231 0.656778
O O15 0.822622 0.473208 0.141538
O O16 0.000000 0.500000 0.000000
O O17 0.000000 0.000000 0.000000
O O18 0.000000 0.500000 0.500000
#
# Coordination Sequence:
#
# PCOD9024002 Si02
#       8
#     2   2   2   2   2   2   2   2
#     4  11  22  38  64  97 132 164 231 289 324 395
#     4  10  23  43  67  90 137 180 223 270 350 417
#     4  10  22  40  62  95 129 178 222 271 338 403
#     4  11  26  44  68 105 140 175 224 296 356 404
#     4  11  21  39  69 100 121 176 235 274 333 414
#     4  11  21  41  71 100 133 177 226 288 353 413
#     4  12  22  42  73 101 132 176 236 283 342 417
#     4  10  22  40  64  91 131 175 221 271 334 408
#
# _framework density 21.959302000000001
#
# number of rings (size 3 to 8) (size 9 to 14) (size 15 to 20)
#    0.000    1.250    3.750    2.625    3.500    0.000 
#   11.250    1.250    0.000    0.000    0.000    0.000 
#    0.000    0.000    0.000    0.000    0.000    0.000 
#
# Total GULP energy -89231.249396 kJ/mol
# GULP energy per Si atom -5576.953087 kJ/mol
# Density = 2.190932 g / cm^3
# Si number density = 21.959302 Si / 1000 Ang^3
#
#
#
# Elastic Constant Matrix: (Units=GPa)
#
#
# Indices 1 2 3 4 5 6 
#
# 1 135.9351 14.0634 44.9630 14.3737 -4.5844 10.1161
# 2 14.0634 76.1060 32.1963 29.3834 -3.6187 -4.6176
# 3 44.9630 32.1963 82.7083 27.3877 -0.9079 -1.5523
# 4 14.3737 29.3834 27.3877 32.7487 -0.7580 -3.0241
# 5 -4.5844 -3.6187 -0.9079 -0.7580 35.5124 9.2955
# 6 10.1161 -4.6176 -1.5523 -3.0241 9.2955 28.8517
#
#
#
# Elastic Compliance Matrix: (Units=1/GPa)
#
#
# Indices 1 2 3 4 5 6 
#
# 1 0.009491 0.000545 -0.005216 -0.000639 0.002264 -0.004317
# 2 0.000545 0.020662 -0.002939 -0.016214 0.001557 0.000757
# 3 -0.005216 -0.002939 0.019938 -0.011628 -0.001123 0.001574
# 4 -0.000639 -0.016214 -0.011628 0.055359 -0.001731 0.003363
# 5 0.002264 0.001557 -0.001123 -0.001731 0.031398 -0.010902
# 6 -0.004317 0.000757 0.001574 0.003363 -0.010902 0.040245
#
#
# Mechanical properties :
#
#
# Convention : Reuss Voigt Hill
#
# Bulk Modulus (GPa) = 28.67761 53.02166 40.84964
# Shear Modulus (GPa) = 24.51727 32.99099 28.75413
#
# Velocity S-wave (km/s) = 3.34501 3.88025 3.62253
# Velocity P-wave (km/s) = 5.29213 6.65379 6.01164
#
# Compressibility (1/GPa) = 0.03487041
#
# Stress axis : x y z
#
# Youngs Moduli (GPa) = 105.36726 48.39739 50.15430
#
# Poissons Ratio (x) = -0.02639 0.26162
# Poissons Ratio (y) = -0.05745 0.14742
# Poissons Ratio (z) = 0.54964 0.14226
#
# Static dielectric constant tensor:
#      x y z
#    x 1.838060 -0.028050 -0.026700 
#    y -0.028050 1.855270 0.037440 
#    z -0.026700 0.037440 1.852710 
# 
# From -- ./inp_files/544880.got.cif
#   From: 2010.05.17/outbox.cif.g08.bks.cpg/sg2_273_cif.got.tgz:544880.got - 2010.06.03 11:33:40.
