data_PCOD9024148
_publ_section_title
;
Structure prediction by ZEFSAII (Michael W. Deem and Ramdas Pophale) SiO2 
 PCOD9024148
Probable space group: P -1
;
_chemical_formula_sum "Si O2"
_cell_formula_units_Z 16
_cell_length_a 10.756991
_cell_length_b 9.030907
_cell_length_c 11.028192
_cell_angle_alpha 81.783106
_cell_angle_beta 55.020363
_cell_angle_gamma 54.257425
_cell_volume 682.145278
_symmetry_space_group_name_H-M "P -1"
_symmetry_group_IT_number 2
_symmetry_cell_setting 'triclinic'
loop_
_space_group_symop_operation_xyz
x,y,z
-x,-y,-z
loop_
_atom_site_type_symbol
_atom_site_label
_atom_site_fract_x
_atom_site_fract_y
_atom_site_fract_z
Si Si1 0.115050 0.087125 0.245509
Si Si2 0.971840 0.598384 0.133232
Si Si3 0.254587 0.502783 0.617378
Si Si4 0.872771 0.512945 0.685159
Si Si5 0.794281 0.966251 0.075562
Si Si6 0.101652 0.070396 0.592121
Si Si7 0.658148 0.267049 0.304929
Si Si8 0.396291 0.065426 0.251462
O O1 0.320970 0.024792 0.179068
O O2 0.944476 0.309355 0.347729
O O3 0.040917 0.979416 0.357448
O O4 0.122048 0.062071 0.100656
O O5 0.782962 0.639226 0.296170
O O6 0.120153 0.468191 0.172377
O O7 0.947158 0.786834 0.095851
O O8 0.000000 0.500000 0.000000
O O9 0.428945 0.394606 0.439419
O O10 0.299595 0.589341 0.692397
O O11 0.676465 0.718447 0.739746
O O12 0.000000 0.500000 0.500000
O O13 0.948657 0.296851 0.670712
O O14 0.724915 0.161941 0.152035
O O15 0.620626 0.950730 0.163855
O O16 0.268646 0.047852 0.420749
O O17 0.231707 0.910097 0.641545
#
# Coordination Sequence:
#
# PCOD9024148 Si02
#       8
#     2   2   2   2   2   2   2   2
#     4  11  23  43  64  97 135 179 216 272 344 400
#     4  12  22  40  66  99 130 175 221 277 336 396
#     4  10  22  40  63  94 135 168 217 275 338 394
#     4  10  22  40  63  97 128 175 225 274 332 398
#     4  12  25  40  70 100 136 172 223 282 332 399
#     4  10  22  40  67  93 127 177 226 270 329 404
#     4  10  23  40  63 100 127 168 219 280 330 389
#     4  11  23  41  64  98 131 177 223 272 328 404
#
# _framework density 23.455413
#
# number of rings (size 3 to 8) (size 9 to 14) (size 15 to 20)
#    0.000    1.250    3.750    1.500    3.500    4.000 
#    0.000    1.875    0.000    0.000    0.000    0.000 
#    0.000    0.000    0.000    0.000    0.000    0.000 
#
# Total GULP energy -89121.958378 kJ/mol
# GULP energy per Si atom -5570.122399 kJ/mol
# Density = 2.340203 g / cm^3
# Si number density = 23.455413 Si / 1000 Ang^3
#
#
#
# Elastic Constant Matrix: (Units=GPa)
#
#
# Indices 1 2 3 4 5 6 
#
# 1 65.2150 10.8212 29.4232 -10.5293 0.3654 -2.6963
# 2 10.8212 89.4363 21.3057 -7.7026 4.0012 4.1582
# 3 29.4232 21.3057 74.8080 -4.5364 2.8471 5.3971
# 4 -10.5293 -7.7026 -4.5364 35.0032 4.6253 2.1884
# 5 0.3654 4.0012 2.8471 4.6253 37.7117 2.3055
# 6 -2.6963 4.1582 5.3971 2.1884 2.3055 22.0281
#
#
#
# Elastic Compliance Matrix: (Units=1/GPa)
#
#
# Indices 1 2 3 4 5 6 
#
# 1 0.019769 -0.000327 -0.007667 0.004687 -0.000393 0.003936
# 2 -0.000327 0.012299 -0.003050 0.002489 -0.001271 -0.001729
# 3 -0.007667 -0.003050 0.017585 -0.000332 -0.000609 -0.004574
# 4 0.004687 0.002489 -0.000332 0.031162 -0.003954 -0.002497
# 5 -0.000393 -0.001271 -0.000609 -0.003954 0.027316 -0.002125
# 6 0.003936 -0.001729 -0.004574 -0.002497 -0.002125 0.047796
#
#
# Mechanical properties :
#
#
# Convention : Reuss Voigt Hill
#
# Bulk Modulus (GPa) = 36.27895 39.17327 37.72611
# Shear Modulus (GPa) = 26.70890 30.14256 28.42573
#
# Velocity S-wave (km/s) = 3.37814 3.58872 3.48502
# Velocity P-wave (km/s) = 5.54225 5.82317 5.68444
#
# Compressibility (1/GPa) = 0.02756419
#
# Stress axis : x y z
#
# Youngs Moduli (GPa) = 50.58430 81.30805 56.86708
#
# Poissons Ratio (x) = 0.02660 0.43600
# Poissons Ratio (y) = 0.01655 0.17345
# Poissons Ratio (z) = 0.38783 0.24800
#
# Static dielectric constant tensor:
#      x y z
#    x 2.026360 0.013930 0.038600 
#    y 0.013930 1.863160 -0.002940 
#    z 0.038600 -0.002940 1.882100 
# 
# From -- ./inp_files/419282.got.cif
#   From: 2010.05.17/outbox.cif.g08.bks.cpg/sg2_210_cif.got.tgz:419282.got - 2010.06.03 11:33:40.
