data_PCOD9024103
_publ_section_title
;
Structure prediction by ZEFSAII (Michael W. Deem and Ramdas Pophale) SiO2 
 PCOD9024103
Probable space group: P -1
;
_chemical_formula_sum "Si O2"
_cell_formula_units_Z 16
_cell_length_a 7.681386
_cell_length_b 11.294272
_cell_length_c 15.050797
_cell_angle_alpha 144.321612
_cell_angle_beta 122.376537
_cell_angle_gamma 74.674252
_cell_volume 603.328366
_symmetry_space_group_name_H-M "P -1"
_symmetry_group_IT_number 2
_symmetry_cell_setting 'triclinic'
loop_
_space_group_symop_operation_xyz
x,y,z
-x,-y,-z
loop_
_atom_site_type_symbol
_atom_site_label
_atom_site_fract_x
_atom_site_fract_y
_atom_site_fract_z
Si Si1 0.747407 0.836957 0.329658
Si Si2 0.849901 0.831385 0.581621
Si Si3 0.075000 0.513092 0.791422
Si Si4 0.859565 0.645292 0.659438
Si Si5 0.520525 0.808169 0.723236
Si Si6 0.585962 0.204086 0.521878
Si Si7 0.020198 0.696881 0.059157
Si Si8 0.703191 0.888872 0.151561
O O1 0.667138 0.779725 0.171696
O O2 0.766142 0.625574 0.251736
O O3 0.614295 0.978890 0.420005
O O4 0.000000 0.000000 0.500000
O O5 0.918915 0.772452 0.661749
O O6 0.589353 0.707874 0.424651
O O7 0.841294 0.074058 0.720815
O O8 0.085846 0.887267 0.632147
O O9 0.043698 0.594922 0.735757
O O10 0.833823 0.372607 0.681266
O O11 0.137449 0.687417 0.992999
O O12 0.750431 0.772032 0.774239
O O13 0.669487 0.418156 0.443385
O O14 0.498274 0.827434 0.622338
O O15 0.478450 0.018221 0.876651
O O16 0.789070 0.742774 0.020906
O O17 0.000000 0.500000 0.000000
#
# Coordination Sequence:
#
# PCOD9024103 Si02
#       8
#     2   2   2   2   2   2   2   2
#     4   9  16  30  53  76  96 127 175 212 245 292
#     4   9  19  33  52  79 102 131 166 212 255 292
#     4  10  17  31  53  74 102 139 167 199 252 312
#     4   9  17  30  53  78 103 127 170 211 251 293
#     4   8  15  31  52  78  99 134 167 206 253 301
#     4   8  16  31  54  79  97 125 174 220 245 282
#     4  10  20  35  51  72 104 143 168 196 258 310
#     4   9  18  32  53  73 101 138 168 203 252 306
#
# _framework density 26.519556000000001
#
# number of rings (size 3 to 8) (size 9 to 14) (size 15 to 20)
#    0.750    2.250    1.250    1.500    0.000    1.000 
#    0.000    6.875    0.000    3.000    0.000    0.000 
#    0.000    0.000    0.000    0.000    0.000    0.000 
#
# Total GULP energy -89200.780991 kJ/mol
# GULP energy per Si atom -5575.048812 kJ/mol
# Density = 2.645920 g / cm^3
# Si number density = 26.519556 Si / 1000 Ang^3
#
#
#
# Elastic Constant Matrix: (Units=GPa)
#
#
# Indices 1 2 3 4 5 6 
#
# 1 89.6310 40.5372 9.3865 4.4589 -1.8917 -15.7048
# 2 40.5372 157.3582 8.5824 28.4013 -6.6556 -2.0250
# 3 9.3865 8.5824 35.8404 7.7845 9.5339 1.3353
# 4 4.4589 28.4013 7.7845 21.0879 -5.7193 -13.7414
# 5 -1.8917 -6.6556 9.5339 -5.7193 32.9749 1.9429
# 6 -15.7048 -2.0250 1.3353 -13.7414 1.9429 46.1519
#
#
#
# Elastic Compliance Matrix: (Units=1/GPa)
#
#
# Indices 1 2 3 4 5 6 
#
# 1 0.015621 -0.005982 -0.007165 0.014561 0.003730 0.009439
# 2 -0.005982 0.011332 0.004546 -0.021598 -0.002646 -0.007989
# 3 -0.007165 0.004546 0.040270 -0.031728 -0.015922 -0.012180
# 4 0.014561 -0.021598 -0.031728 0.116764 0.023621 0.038696
# 5 0.003730 -0.002646 -0.015922 0.023621 0.038292 0.007035
# 6 0.009439 -0.007989 -0.012180 0.038696 0.007035 0.036107
#
#
# Mechanical properties :
#
#
# Convention : Reuss Voigt Hill
#
# Bulk Modulus (GPa) = 19.99226 44.42688 32.20957
# Shear Modulus (GPa) = 17.10800 34.99785 26.05293
#
# Velocity S-wave (km/s) = 2.54265 3.63671 3.13773
# Velocity P-wave (km/s) = 4.02184 5.86712 5.02982
#
# Compressibility (1/GPa) = 0.05001936
#
# Stress axis : x y z
#
# Youngs Moduli (GPa) = 64.01669 88.24887 24.83260
#
# Poissons Ratio (x) = 0.52792 0.17792
# Poissons Ratio (y) = 0.38296 -0.11288
# Poissons Ratio (z) = 0.45868 -0.40116
#
# Static dielectric constant tensor:
#      x y z
#    x 2.264050 -0.032120 -0.002790 
#    y -0.032120 2.047050 -0.005630 
#    z -0.002790 -0.005630 2.228030 
# 
# From -- ./inp_files/247858.got.cif
#   From: 2010.05.17/outbox.cif.g08.bks.cpg/sg2_124_cif.got.tgz:247858.got - 2010.06.03 11:33:40.
