data_PCOD9025206
_publ_section_title
;
Structure prediction by ZEFSAII (Michael W. Deem and Ramdas Pophale) SiO2 
 PCOD9025206
Probable space group: P -1
;
_chemical_formula_sum "Si O2"
_cell_formula_units_Z 16
_cell_length_a 10.512674
_cell_length_b 11.295003
_cell_length_c 8.588031
_cell_angle_alpha 114.449136
_cell_angle_beta 89.400739
_cell_angle_gamma 129.636454
_cell_volume 666.496054
_symmetry_space_group_name_H-M "P -1"
_symmetry_group_IT_number 2
_symmetry_cell_setting 'triclinic'
loop_
_space_group_symop_operation_xyz
x,y,z
-x,-y,-z
loop_
_atom_site_type_symbol
_atom_site_label
_atom_site_fract_x
_atom_site_fract_y
_atom_site_fract_z
Si Si1 0.996554 0.949160 0.794936
Si Si2 0.071544 0.720936 0.759279
Si Si3 0.333973 0.399605 0.561799
Si Si4 0.717189 0.680152 0.119050
Si Si5 0.458763 0.699214 0.122310
Si Si6 0.171479 0.713525 0.086843
Si Si7 0.603609 0.951133 0.539318
Si Si8 0.278399 0.629480 0.560340
O O1 0.086298 0.870194 0.758306
O O2 0.812293 0.788585 0.628051
O O3 0.089332 0.126703 0.791805
O O4 0.000000 0.000000 0.000000
O O5 0.190934 0.698910 0.659848
O O6 0.865878 0.527105 0.647780
O O7 0.138637 0.767815 0.959005
O O8 0.500000 0.500000 0.500000
O O9 0.337156 0.364841 0.723480
O O10 0.285156 0.518400 0.624117
O O11 0.599854 0.703968 0.038272
O O12 0.686442 0.516612 0.956314
O O13 0.343788 0.739242 0.084848
O O14 0.584347 0.839769 0.335782
O O15 0.218247 0.855636 0.293735
O O16 0.000000 0.500000 0.000000
O O17 0.474841 0.797697 0.587916
O O18 0.500000 0.000000 0.500000
#
# Coordination Sequence:
#
# PCOD9025206 Si02
#       8
#     2   2   2   2   2   2   2   2
#     4  11  28  45  73 105 146 194 242 294 365 429
#     4  10  23  43  67 101 139 180 231 298 351 425
#     4  11  25  47  75 107 145 189 243 297 359 432
#     4  11  25  47  76  99 146 192 242 300 347 430
#     4  10  24  44  71 101 136 186 240 284 362 417
#     4  11  24  43  69 102 139 179 231 294 358 426
#     4  10  22  40  67  98 135 181 226 285 348 431
#     4  10  22  43  68 101 138 181 232 290 360 416
#
# _framework density 24.006143999999999
#
# number of rings (size 3 to 8) (size 9 to 14) (size 15 to 20)
#    0.000    1.500    0.000    3.375   12.250    2.500 
#    4.500    0.000    0.000    0.000    0.000    0.000 
#    0.000    0.000    0.000    0.000    0.000    0.000 
#
# Total GULP energy -89323.445659 kJ/mol
# GULP energy per Si atom -5582.715354 kJ/mol
# Density = 2.395150 g / cm^3
# Si number density = 24.006144 Si / 1000 Ang^3
#
#
#
# Elastic Constant Matrix: (Units=GPa)
#
#
# Indices 1 2 3 4 5 6 
#
# 1 80.2198 8.4280 17.1474 5.2131 -1.9327 -17.0734
# 2 8.4280 109.0368 57.3767 29.1797 5.7480 5.9494
# 3 17.1474 57.3767 152.1521 24.2550 6.2806 -2.7233
# 4 5.2131 29.1797 24.2550 42.7298 -2.3144 -5.2212
# 5 -1.9327 5.7480 6.2806 -2.3144 37.7786 4.2054
# 6 -17.0734 5.9494 -2.7233 -5.2212 4.2054 26.8225
#
#
#
# Elastic Compliance Matrix: (Units=1/GPa)
#
#
# Indices 1 2 3 4 5 6 
#
# 1 0.014885 -0.001344 -0.001154 0.000964 0.000123 0.009824
# 2 -0.001344 0.013764 -0.003836 -0.007817 -0.001380 -0.005603
# 3 -0.001154 -0.003836 0.008535 -0.002052 -0.001104 0.000757
# 4 0.000964 -0.007817 -0.002052 0.030876 0.002610 0.007740
# 5 0.000123 -0.001380 -0.001104 0.002610 0.027422 -0.003519
# 6 0.009824 -0.005603 0.000757 0.007740 -0.003519 0.046913
#
#
# Mechanical properties :
#
#
# Convention : Reuss Voigt Hill
#
# Bulk Modulus (GPa) = 40.78822 56.36811 48.57817
# Shear Modulus (GPa) = 30.63080 38.69660 34.66370
#
# Velocity S-wave (km/s) = 3.57593 4.01926 3.80406
# Velocity P-wave (km/s) = 5.83758 6.71349 6.29080
#
# Compressibility (1/GPa) = 0.02451688
#
# Stress axis : x y z
#
# Youngs Moduli (GPa) = 67.18302 72.65170 117.16157
#
# Poissons Ratio (x) = 0.09764 0.13516
# Poissons Ratio (y) = 0.09029 0.44945
# Poissons Ratio (z) = 0.07750 0.27871
#
# Static dielectric constant tensor:
#      x y z
#    x 1.955890 0.045820 0.000380 
#    y 0.045820 1.936610 0.012330 
#    z 0.000380 0.012330 1.953340 
# 
# From -- ./inp_files/263079.got.cif
#   From: 2010.05.17/outbox.cif.g08.bks.cpg/sg2_132_cif.got.tgz:263079.got - 2010.06.03 11:33:40.
