data_PCOD9025592
_publ_section_title
;
Structure prediction by ZEFSAII (Michael W. Deem and Ramdas Pophale) SiO2 
 PCOD9025592
Probable space group: P -1
;
_chemical_formula_sum "Si O2"
_cell_formula_units_Z 16
_cell_length_a 13.246726
_cell_length_b 7.580359
_cell_length_c 9.598374
_cell_angle_alpha 64.001656
_cell_angle_beta 69.927146
_cell_angle_gamma 41.540046
_cell_volume 574.288352
_symmetry_space_group_name_H-M "P -1"
_symmetry_group_IT_number 2
_symmetry_cell_setting 'triclinic'
loop_
_space_group_symop_operation_xyz
x,y,z
-x,-y,-z
loop_
_atom_site_type_symbol
_atom_site_label
_atom_site_fract_x
_atom_site_fract_y
_atom_site_fract_z
Si Si1 0.389477 0.923575 0.384645
Si Si2 0.119438 0.679488 0.502094
Si Si3 0.406145 0.517374 0.330861
Si Si4 0.347101 0.634331 0.906340
Si Si5 0.852200 0.802183 0.049620
Si Si6 0.682707 0.648936 0.203905
Si Si7 0.109748 0.838218 0.141997
Si Si8 0.047926 0.502145 0.316925
O O1 0.376677 0.729712 0.381267
O O2 0.467052 0.783330 0.547956
O O3 0.507587 0.897739 0.246042
O O4 0.223430 0.226689 0.355225
O O5 0.245427 0.612014 0.358973
O O6 0.227108 0.501926 0.645525
O O7 0.049893 0.551631 0.560058
O O8 0.000000 0.000000 0.500000
O O9 0.480405 0.525108 0.157040
O O10 0.304180 0.567089 0.813723
O O11 0.259735 0.949538 0.869396
O O12 0.274256 0.591356 0.075562
O O13 0.756145 0.742211 0.063953
O O14 0.999359 0.557184 0.156043
O O15 0.890639 0.934386 0.884790
O O16 0.027154 0.759610 0.277474
O O17 0.000000 0.000000 0.000000
#
# Coordination Sequence:
#
# PCOD9025592 Si02
#       8
#     2   2   2   2   2   2   2   2
#     4   9  20  38  70  99 139 177 235 285 347 405
#     4  10  22  40  70 100 135 176 239 280 337 416
#     4   9  19  42  65 102 137 181 223 297 345 406
#     4   9  21  41  72  98 141 179 226 285 357 407
#     4   9  22  43  72  95 142 182 230 279 353 412
#     4   9  19  45  73 101 132 183 236 287 343 414
#     4  10  23  43  64 103 142 180 224 294 349 409
#     4  11  22  43  65 100 135 190 231 281 344 420
#
# _framework density 27.860569000000002
#
# number of rings (size 3 to 8) (size 9 to 14) (size 15 to 20)
#    0.750    1.750    0.000    1.500    0.000    5.000 
#    4.500   10.625    0.000    0.000    0.000    0.000 
#    0.000    0.000    0.000    0.000    0.000    0.000 
#
# Total GULP energy -89463.043516 kJ/mol
# GULP energy per Si atom -5591.440220 kJ/mol
# Density = 2.779716 g / cm^3
# Si number density = 27.860569 Si / 1000 Ang^3
#
#
#
# Elastic Constant Matrix: (Units=GPa)
#
#
# Indices 1 2 3 4 5 6 
#
# 1 160.7494 48.3653 79.1390 8.5864 -123.2987 -20.2870
# 2 48.3653 154.4968 49.0784 6.0415 -30.8143 -17.2696
# 3 79.1390 49.0784 130.2344 6.5627 30.3769 -8.1618
# 4 8.5864 6.0415 6.5627 49.3494 6.7134 -3.1041
# 5 -123.2987 -30.8143 30.3769 6.7134 -81.3920 -16.6723
# 6 -20.2870 -17.2696 -8.1618 -3.1041 -16.6723 33.4564
#
#
#
# Elastic Compliance Matrix: (Units=1/GPa)
#
#
# Indices 1 2 3 4 5 6 
#
# 1 0.003476 -0.001976 -0.000424 0.000219 -0.004414 -0.001195
# 2 -0.001976 0.007585 -0.001339 -0.000174 -0.000798 0.001977
# 3 -0.000424 -0.001339 0.007853 -0.001114 0.003458 0.002587
# 4 0.000219 -0.000174 -0.001114 0.020437 0.000601 0.001967
# 5 -0.004414 -0.000798 0.003458 0.000601 -0.003184 -0.003775
# 6 -0.001195 0.001977 0.002587 0.001967 -0.003775 0.029118
#
#
# Mechanical properties :
#
#
# Convention : Reuss Voigt Hill
#
# Bulk Modulus (GPa) = 87.44603 88.73845 88.09224
# Shear Modulus (GPa) = 65.29533 18.20930 41.75232
#
# Velocity S-wave (km/s) = 4.84637 2.55931 3.87540
# Velocity P-wave (km/s) = 7.92285 6.37601 7.19114
#
# Compressibility (1/GPa) = 0.01143562
#
# Stress axis : x y z
#
# Youngs Moduli (GPa) = 287.65958 131.83416 127.34793
#
# Poissons Ratio (x) = 0.26049 0.05403
# Poissons Ratio (y) = 0.56839 0.17053
# Poissons Ratio (z) = 0.12204 0.17654
#
# Static dielectric constant tensor:
#      x y z
#    x 2.212600 -0.023360 0.216450 
#    y -0.023360 2.038110 0.256160 
#    z 0.216450 0.256160 1.749110 
# 
# From -- ./inp_files/528166.got.cif
#   From: 2010.05.17/outbox.cif.g08.bks.cpg/sg2_265_cif.got.tgz:528166.got - 2010.06.03 11:33:40.
