data_PCOD9025877
_publ_section_title
;
Structure prediction by ZEFSAII (Michael W. Deem and Ramdas Pophale) SiO2 
 PCOD9025877
Probable space group: P -1
;
_chemical_formula_sum "Si O2"
_cell_formula_units_Z 16
_cell_length_a 11.329158
_cell_length_b 15.025200
_cell_length_c 8.094994
_cell_angle_alpha 69.106167
_cell_angle_beta 93.936668
_cell_angle_gamma 37.794157
_cell_volume 623.828598
_symmetry_space_group_name_H-M "P -1"
_symmetry_group_IT_number 2
_symmetry_cell_setting 'triclinic'
loop_
_space_group_symop_operation_xyz
x,y,z
-x,-y,-z
loop_
_atom_site_type_symbol
_atom_site_label
_atom_site_fract_x
_atom_site_fract_y
_atom_site_fract_z
Si Si1 0.230584 0.525298 0.168459
Si Si2 0.025775 0.993045 0.811358
Si Si3 0.580605 0.061965 0.954504
Si Si4 0.367043 0.399382 0.627919
Si Si5 0.430965 0.835402 0.787691
Si Si6 0.014206 0.176859 0.273558
Si Si7 0.904463 0.679312 0.372573
Si Si8 0.379604 0.585135 0.659496
O O1 0.235340 0.477528 0.384451
O O2 0.363479 0.357061 0.174685
O O3 0.398884 0.500658 0.224751
O O4 0.994338 0.730146 0.916414
O O5 0.278221 0.859226 0.851911
O O6 0.976671 0.929358 0.753362
O O7 0.825482 0.209063 0.587897
O O8 0.000000 0.000000 0.000000
O O9 0.569466 0.176292 0.803055
O O10 0.386466 0.142313 0.771922
O O11 0.476484 0.159429 0.064168
O O12 0.832386 0.832170 0.166692
O O13 0.454819 0.441890 0.652185
O O14 0.113499 0.567591 0.595444
O O15 0.237252 0.021412 0.524776
O O16 0.758878 0.353259 0.231479
O O17 0.000000 0.500000 0.500000
#
# Coordination Sequence:
#
# PCOD9025877 Si02
#       8
#     2   2   2   2   2   2   2   2
#     4  12  24  38  59  90 134 177 212 255 304 374
#     4  11  22  36  58  83 122 171 214 265 299 356
#     4  10  22  40  73  93 118 164 206 264 327 381
#     4  11  24  38  63  98 127 162 216 268 309 368
#     4  11  23  40  59  89 127 167 213 253 319 374
#     4  11  22  39  56  81 130 173 210 264 300 354
#     4   9  20  44  68  97 122 149 207 271 326 379
#     4  11  21  40  57  88 131 175 219 250 305 372
#
# _framework density 25.648071999999999
#
# number of rings (size 3 to 8) (size 9 to 14) (size 15 to 20)
#    0.000    1.250    2.500    4.500    3.500    2.000 
#    0.000    0.625    0.000    7.500    0.000    0.000 
#    0.000    0.000    0.000    0.000    0.000    0.000 
#
# Total GULP energy -89237.400596 kJ/mol
# GULP energy per Si atom -5577.337537 kJ/mol
# Density = 2.558970 g / cm^3
# Si number density = 25.648072 Si / 1000 Ang^3
#
#
#
# Elastic Constant Matrix: (Units=GPa)
#
#
# Indices 1 2 3 4 5 6 
#
# 1 233.2201 57.2664 -17.5162 40.1950 -64.7967 -32.5327
# 2 57.2664 115.3913 33.9438 -4.2301 -39.8120 6.5715
# 3 -17.5162 33.9438 148.7192 -35.6738 -32.0356 15.1701
# 4 40.1950 -4.2301 -35.6738 72.9910 -15.1098 -26.0321
# 5 -64.7967 -39.8120 -32.0356 -15.1098 64.7512 17.9172
# 6 -32.5327 6.5715 15.1701 -26.0321 17.9172 33.7687
#
#
#
# Elastic Compliance Matrix: (Units=1/GPa)
#
#
# Indices 1 2 3 4 5 6 
#
# 1 0.007179 -0.002349 0.002175 -0.000883 0.005893 0.002588
# 2 -0.002349 0.013242 -0.000649 0.000361 0.007895 -0.008459
# 3 0.002175 -0.000649 0.010553 0.004394 0.009123 -0.003972
# 4 -0.000883 0.000361 0.004394 0.021212 0.003210 0.011754
# 5 0.005893 0.007895 0.009123 0.003210 0.036055 -0.016613
# 6 0.002588 -0.008459 -0.003972 0.011754 -0.016613 0.053413
#
#
# Mechanical properties :
#
#
# Convention : Reuss Voigt Hill
#
# Bulk Modulus (GPa) = 34.09690 71.63542 52.86616
# Shear Modulus (GPa) = 32.66414 62.54463 47.60438
#
# Velocity S-wave (km/s) = 3.57256 4.94355 4.31288
# Velocity P-wave (km/s) = 5.50823 7.78303 6.74226
#
# Compressibility (1/GPa) = 0.02932818
#
# Stress axis : x y z
#
# Youngs Moduli (GPa) = 139.30425 75.51985 94.76122
#
# Poissons Ratio (x) = 0.17739 -0.20613
# Poissons Ratio (y) = 0.32721 0.06148
# Poissons Ratio (z) = -0.30303 0.04900
#
# Static dielectric constant tensor:
#      x y z
#    x 0.349600 3.647470 0.890710 
#    y 3.647470 -5.471550 -1.930530 
#    z 0.890710 -1.930530 1.552450 
# 
# From -- ./inp_files/313184.got.cif
#   From: 2010.05.17/outbox.cif.g08.bks.cpg/sg2_157_cif.got.tgz:313184.got - 2010.06.03 11:33:40.
