data_PCOD9025245
_publ_section_title
;
Structure prediction by ZEFSAII (Michael W. Deem and Ramdas Pophale) SiO2 
 PCOD9025245
Probable space group: P -1
;
_chemical_formula_sum "Si O2"
_cell_formula_units_Z 16
_cell_length_a 11.102773
_cell_length_b 9.222889
_cell_length_c 11.546822
_cell_angle_alpha 47.585336
_cell_angle_beta 54.619004
_cell_angle_gamma 62.555396
_cell_volume 706.846146
_symmetry_space_group_name_H-M "P -1"
_symmetry_group_IT_number 2
_symmetry_cell_setting 'triclinic'
loop_
_space_group_symop_operation_xyz
x,y,z
-x,-y,-z
loop_
_atom_site_type_symbol
_atom_site_label
_atom_site_fract_x
_atom_site_fract_y
_atom_site_fract_z
Si Si1 0.896625 0.707759 0.431562
Si Si2 0.296761 0.691181 0.830120
Si Si3 0.833813 0.952380 0.129473
Si Si4 0.302103 0.270882 0.062384
Si Si5 0.826469 0.059883 0.820016
Si Si6 0.563375 0.232829 0.507526
Si Si7 0.572508 0.339214 0.706945
Si Si8 0.406753 0.211537 0.296680
O O1 0.840544 0.751422 0.307078
O O2 0.750582 0.737753 0.577539
O O3 0.000000 0.500000 0.500000
O O4 0.008898 0.873156 0.305992
O O5 0.297070 0.739719 0.667818
O O6 0.470323 0.657156 0.794161
O O7 0.236973 0.871703 0.845026
O O8 0.221002 0.493955 0.995793
O O9 0.778282 0.973253 0.017552
O O10 0.000000 0.000000 0.000000
O O11 0.376759 0.233746 0.165431
O O12 0.199978 0.106767 0.169124
O O13 0.429403 0.281338 0.887858
O O14 0.714869 0.255530 0.746806
O O15 0.586898 0.234452 0.630075
O O16 0.451960 0.428456 0.435109
O O17 0.525887 0.019190 0.603418
#
# Coordination Sequence:
#
# PCOD9025245 Si02
#       8
#     2   2   2   2   2   2   2   2
#     4  11  28  46  70 100 137 180 234 281 346 414
#     4  11  24  42  71 103 135 180 229 284 341 405
#     4  10  24  46  72  98 139 183 226 277 346 414
#     4  11  25  41  69 102 137 176 229 279 340 407
#     4  11  24  46  69  96 138 187 223 276 343 412
#     4  10  22  40  68 101 142 172 224 287 338 403
#     4  10  22  42  67 106 136 176 224 282 349 401
#     4  12  24  43  70 103 138 179 230 291 338 402
#
# _framework density 22.635760000000001
#
# number of rings (size 3 to 8) (size 9 to 14) (size 15 to 20)
#    0.000    1.250    2.500    1.875    8.750    0.500 
#    4.500    2.500    0.000    0.000    0.000    0.000 
#    0.000    0.000    0.000    0.000    0.000    0.000 
#
# Total GULP energy -89372.158062 kJ/mol
# GULP energy per Si atom -5585.759879 kJ/mol
# Density = 2.258424 g / cm^3
# Si number density = 22.635760 Si / 1000 Ang^3
#
#
#
# Elastic Constant Matrix: (Units=GPa)
#
#
# Indices 1 2 3 4 5 6 
#
# 1 88.1998 37.4895 49.3829 11.8045 5.7252 1.0076
# 2 37.4895 107.7483 43.7561 -0.3072 6.1529 -1.6896
# 3 49.3829 43.7561 111.4606 6.5200 17.2030 2.7598
# 4 11.8045 -0.3072 6.5200 46.8221 7.2924 6.2057
# 5 5.7252 6.1529 17.2030 7.2924 52.5337 5.8399
# 6 1.0076 -1.6896 2.7598 6.2057 5.8399 34.3503
#
#
#
# Elastic Compliance Matrix: (Units=1/GPa)
#
#
# Indices 1 2 3 4 5 6 
#
# 1 0.016513 -0.003397 -0.005937 -0.003554 0.001003 0.000297
# 2 -0.003397 0.011783 -0.003180 0.001315 -0.000233 0.000737
# 3 -0.005937 -0.003180 0.013365 0.000203 -0.003327 -0.000527
# 4 -0.003554 0.001315 0.000203 0.023120 -0.002645 -0.003574
# 5 0.001003 -0.000233 -0.003327 -0.002645 0.020723 -0.002819
# 6 0.000297 0.000737 -0.000527 -0.003574 -0.002819 0.030307
#
#
# Mechanical properties :
#
#
# Convention : Reuss Voigt Hill
#
# Bulk Modulus (GPa) = 60.11944 63.18507 61.65225
# Shear Modulus (GPa) = 34.15718 38.52658 36.34188
#
# Velocity S-wave (km/s) = 3.88879 4.13003 4.01123
# Velocity P-wave (km/s) = 6.83964 7.12161 6.98205
#
# Compressibility (1/GPa) = 0.01663356
#
# Stress axis : x y z
#
# Youngs Moduli (GPa) = 60.55795 84.86963 74.82299
#
# Poissons Ratio (x) = 0.28833 0.44420
# Poissons Ratio (y) = 0.20574 0.23790
# Poissons Ratio (z) = 0.35951 0.26985
#
# Static dielectric constant tensor:
#      x y z
#    x 1.894460 -0.073660 -0.033140 
#    y -0.073660 1.905820 0.052460 
#    z -0.033140 0.052460 1.986460 
# 
# From -- ./inp_files/418864.got.cif
#   From: 2010.05.17/outbox.cif.g08.bks.cpg/sg2_210_cif.got.tgz:418864.got - 2010.06.03 11:33:40.
