data_PCOD9025636
_publ_section_title
;
Structure prediction by ZEFSAII (Michael W. Deem and Ramdas Pophale) SiO2 
 PCOD9025636
Probable space group: P -1
;
_chemical_formula_sum "Si O2"
_cell_formula_units_Z 15
_cell_length_a 17.494154
_cell_length_b 14.243703
_cell_length_c 11.216655
_cell_angle_alpha 29.591643
_cell_angle_beta 132.994848
_cell_angle_gamma 151.354759
_cell_volume 621.504661
_symmetry_space_group_name_H-M "P -1"
_symmetry_group_IT_number 2
_symmetry_cell_setting 'triclinic'
loop_
_space_group_symop_operation_xyz
x,y,z
-x,-y,-z
loop_
_atom_site_type_symbol
_atom_site_label
_atom_site_fract_x
_atom_site_fract_y
_atom_site_fract_z
Si Si1 0.415870 0.828557 0.434107
Si Si2 0.659429 0.875950 0.603626
Si Si3 0.500000 0.500000 0.500000
Si Si4 0.701222 0.435214 0.668727
Si Si5 0.825794 0.767353 0.002003
Si Si6 0.150936 0.644730 0.918778
Si Si7 0.016403 0.885172 0.857512
Si Si8 0.363349 0.186912 0.954298
O O1 0.601811 0.000356 0.448920
O O2 0.356123 0.700747 0.375460
O O3 0.306193 0.551464 0.716664
O O4 0.390969 0.015201 0.222011
O O5 0.766504 0.899923 0.779537
O O6 0.491345 0.512505 0.798219
O O7 0.760444 0.058032 0.387259
O O8 0.588429 0.433975 0.611733
O O9 0.422276 0.271423 0.785888
O O10 0.717087 0.277835 0.944428
O O11 0.887340 0.799883 0.449388
O O12 0.871958 0.757349 0.931429
O O13 0.000000 0.000000 0.000000
O O14 0.068470 0.378710 0.033562
O O15 0.000000 0.500000 0.000000
O O16 0.171180 0.992130 0.968683
#
# Coordination Sequence:
#
# PCOD9025636 Si02
#       8
#     2   2   1   2   2   2   2   2
#     4  12  26  49  77 110 149 203 248 305 373 442
#     4  12  28  50  74 111 147 195 257 305 370 445
#     4  10  22  40  70 104 150 184 236 304 356 436
#     4  11  23  44  74 110 152 189 245 298 375 442
#     4  12  27  51  77 105 153 195 251 320 366 437
#     4  12  28  44  75 114 154 193 244 307 379 447
#     4  11  25  48  73 114 150 199 249 304 375 440
#     4  11  26  46  76 110 148 196 249 303 373 446
#
# _framework density 24.134976999999999
#
# number of rings (size 3 to 8) (size 9 to 14) (size 15 to 20)
#    0.000    0.533    4.000    3.200   11.200    2.133 
#    2.400    0.000    0.000    0.000    0.000    0.000 
#    0.000    0.000    0.000    0.000    0.000    0.000 
#
# Total GULP energy -83872.536600 kJ/mol
# GULP energy per Si atom -5591.502440 kJ/mol
# Density = 2.408004 g / cm^3
# Si number density = 24.134977 Si / 1000 Ang^3
#
#
#
# Elastic Constant Matrix: (Units=GPa)
#
#
# Indices 1 2 3 4 5 6 
#
# 1 69.0612 1.0923 27.4155 -6.0736 -13.8582 -1.6445
# 2 1.0923 93.2707 35.4545 18.9574 10.2172 2.4140
# 3 27.4155 35.4545 169.6573 29.5535 1.7301 22.5265
# 4 -6.0736 18.9574 29.5535 39.0382 7.0186 8.2972
# 5 -13.8582 10.2172 1.7301 7.0186 42.8504 -1.5312
# 6 -1.6445 2.4140 22.5265 8.2972 -1.5312 27.8648
#
#
#
# Elastic Compliance Matrix: (Units=1/GPa)
#
#
# Indices 1 2 3 4 5 6 
#
# 1 0.017608 -0.000200 -0.004039 0.004222 0.005334 0.003358
# 2 -0.000200 0.012621 -0.002014 -0.004623 -0.002172 0.001780
# 3 -0.004039 -0.002014 0.008557 -0.004840 -0.000578 -0.005572
# 4 0.004222 -0.004623 -0.004840 0.033955 -0.003103 -0.005719
# 5 0.005334 -0.002172 -0.000578 -0.003103 0.026231 0.003336
# 6 0.003358 0.001780 -0.005572 -0.005719 0.003336 0.042322
#
#
# Mechanical properties :
#
#
# Convention : Reuss Voigt Hill
#
# Bulk Modulus (GPa) = 38.05324 51.10152 44.57738
# Shear Modulus (GPa) = 30.75787 39.81912 35.28849
#
# Velocity S-wave (km/s) = 3.57376 4.06624 3.82793
# Velocity P-wave (km/s) = 5.72976 6.57761 6.16827
#
# Compressibility (1/GPa) = 0.02627897
#
# Stress axis : x y z
#
# Youngs Moduli (GPa) = 56.79200 79.23353 116.86838
#
# Poissons Ratio (x) = 0.01586 0.47205
# Poissons Ratio (y) = 0.01136 0.23538
# Poissons Ratio (z) = 0.22939 0.15958
#
# Static dielectric constant tensor:
#      x y z
#    x 1.894000 0.000740 0.012810 
#    y 0.000740 1.945810 -0.016180 
#    z 0.012810 -0.016180 1.870010 
# 
# From -- ./inp_files/465743.got.cif
#   From: 2010.05.17/outbox.cif.g08.bks.cpg/sg2_233_cif.got.tgz:465743.got - 2010.06.03 11:33:40.
