data_PCOD9025326
_publ_section_title
;
Structure prediction by ZEFSAII (Michael W. Deem and Ramdas Pophale) SiO2 
 PCOD9025326
Probable space group: P -1
;
_chemical_formula_sum "Si O2"
_cell_formula_units_Z 16
_cell_length_a 12.522623
_cell_length_b 8.654993
_cell_length_c 12.206775
_cell_angle_alpha 145.479084
_cell_angle_beta 96.230525
_cell_angle_gamma 81.648357
_cell_volume 741.661306
_symmetry_space_group_name_H-M "P -1"
_symmetry_group_IT_number 2
_symmetry_cell_setting 'triclinic'
loop_
_space_group_symop_operation_xyz
x,y,z
-x,-y,-z
loop_
_atom_site_type_symbol
_atom_site_label
_atom_site_fract_x
_atom_site_fract_y
_atom_site_fract_z
Si Si1 0.343458 0.383749 0.464247
Si Si2 0.872427 0.812987 0.981879
Si Si3 0.488040 0.314702 0.221950
Si Si4 0.184556 0.851812 0.615480
Si Si5 0.713691 0.366032 0.699280
Si Si6 0.880111 0.335039 0.128582
Si Si7 0.957043 0.716988 0.528822
Si Si8 0.227708 0.856452 0.186934
O O1 0.423787 0.334253 0.341315
O O2 0.402680 0.546117 0.659571
O O3 0.241668 0.588177 0.532669
O O4 0.308691 0.087034 0.314414
O O5 0.834081 0.915234 0.158145
O O6 0.867863 0.067769 0.046169
O O7 0.789551 0.602487 0.812398
O O8 0.997063 0.687607 0.918357
O O9 0.409134 0.503484 0.244033
O O10 0.500000 0.000000 0.000000
O O11 0.258962 0.868969 0.526864
O O12 0.064264 0.806300 0.537525
O O13 0.747926 0.278122 0.772650
O O14 0.879686 0.586929 0.358848
O O15 0.787590 0.348170 0.034458
O O16 0.000000 0.500000 0.500000
O O17 0.889759 0.971831 0.724785
#
# Coordination Sequence:
#
# PCOD9025326 Si02
#       8
#     2   2   2   2   2   2   2   2
#     4  10  22  40  68  94 120 154 214 263 305 369
#     4  11  20  36  61  85 120 167 212 260 292 354
#     4  10  22  45  71  93 111 156 213 267 316 363
#     4  11  20  39  63  89 122 168 212 256 298 361
#     4  11  26  40  60  92 132 163 206 257 317 370
#     4  11  21  35  61  88 121 170 218 251 291 360
#     4  12  20  38  63  92 125 168 217 249 297 361
#     4  12  25  40  58  96 136 168 198 249 313 377
#
# _framework density 21.57319
#
# number of rings (size 3 to 8) (size 9 to 14) (size 15 to 20)
#    0.000    1.000    5.000    3.000    0.000    3.500 
#    0.000    0.625    0.000    0.000    0.000    0.000 
#    0.000    0.000    0.000    0.000    0.000    0.000 
#
# Total GULP energy -89408.452029 kJ/mol
# GULP energy per Si atom -5588.028252 kJ/mol
# Density = 2.152409 g / cm^3
# Si number density = 21.573190 Si / 1000 Ang^3
#
#
#
# Elastic Constant Matrix: (Units=GPa)
#
#
# Indices 1 2 3 4 5 6 
#
# 1 61.6323 8.8846 15.2699 -0.8932 22.9240 -6.5269
# 2 8.8846 41.4004 5.8295 -19.3484 9.4479 -16.2255
# 3 15.2699 5.8295 113.3885 -24.1006 12.2367 -6.4689
# 4 -0.8932 -19.3484 -24.1006 25.7857 -2.5622 5.1286
# 5 22.9240 9.4479 12.2367 -2.5622 34.3361 -5.5678
# 6 -6.5269 -16.2255 -6.4689 5.1286 -5.5678 14.7615
#
#
#
# Elastic Compliance Matrix: (Units=1/GPa)
#
#
# Indices 1 2 3 4 5 6 
#
# 1 0.022391 -0.003264 -0.002524 -0.005791 -0.013222 0.002231
# 2 -0.003264 0.077200 0.013107 0.055987 -0.008791 0.066389
# 3 -0.002524 0.013107 0.013761 0.020067 -0.003542 0.011013
# 4 -0.005791 0.055987 0.020067 0.092073 -0.006410 0.033366
# 5 -0.013222 -0.008791 -0.003542 -0.006410 0.041273 0.000734
# 6 0.002231 0.066389 0.011013 0.033366 0.000734 0.135215
#
#
# Mechanical properties :
#
#
# Convention : Reuss Voigt Hill
#
# Bulk Modulus (GPa) = 7.81319 30.70990 19.26154
# Shear Modulus (GPa) = 12.19693 27.40580 19.80137
#
# Velocity S-wave (km/s) = 2.38034 3.56808 3.03292
# Velocity P-wave (km/s) = 3.34429 5.58937 4.60572
#
# Compressibility (1/GPa) = 0.12798877
#
# Stress axis : x y z
#
# Youngs Moduli (GPa) = 44.65994 12.95340 72.66882
#
# Poissons Ratio (x) = 0.04228 0.18343
# Poissons Ratio (y) = 0.14579 -0.95246
# Poissons Ratio (z) = 0.11273 -0.16978
#
# Static dielectric constant tensor:
#      x y z
#    x 1.789630 0.013050 -0.003180 
#    y 0.013050 1.772380 -0.008930 
#    z -0.003180 -0.008930 1.846100 
# 
# From -- ./inp_files/418652.got.cif
#   From: 2010.05.17/outbox.cif.g08.bks.cpg/sg2_210_cif.got.tgz:418652.got - 2010.06.03 11:33:40.
