data_PCOD9025767
_publ_section_title
;
Structure prediction by ZEFSAII (Michael W. Deem and Ramdas Pophale) SiO2 
 PCOD9025767
Probable space group: P -1
;
_chemical_formula_sum "Si O2"
_cell_formula_units_Z 16
_cell_length_a 16.412939
_cell_length_b 5.455232
_cell_length_c 9.385023
_cell_angle_alpha 91.568516
_cell_angle_beta 113.429866
_cell_angle_gamma 73.265286
_cell_volume 734.724070
_symmetry_space_group_name_H-M "P -1"
_symmetry_group_IT_number 2
_symmetry_cell_setting 'triclinic'
loop_
_space_group_symop_operation_xyz
x,y,z
-x,-y,-z
loop_
_atom_site_type_symbol
_atom_site_label
_atom_site_fract_x
_atom_site_fract_y
_atom_site_fract_z
Si Si1 0.258844 0.962509 0.720106
Si Si2 0.358046 0.398146 0.733997
Si Si3 0.047796 0.712971 0.185469
Si Si4 0.883997 0.845667 0.848339
Si Si5 0.954568 0.785645 0.414793
Si Si6 0.701695 0.032606 0.921989
Si Si7 0.558694 0.771935 0.934148
Si Si8 0.480927 0.566306 0.323261
O O1 0.312568 0.169140 0.720117
O O2 0.152397 0.110721 0.618731
O O3 0.291249 0.684996 0.660855
O O4 0.267624 0.912338 0.896924
O O5 0.441515 0.310014 0.677817
O O6 0.401305 0.436718 0.918898
O O7 0.112206 0.418236 0.232234
O O8 0.973301 0.765123 0.259782
O O9 0.108122 0.911218 0.232408
O O10 0.982597 0.764408 0.000964
O O11 0.793509 0.929355 0.887900
O O12 0.000000 0.500000 0.500000
O O13 0.000000 0.000000 0.500000
O O14 0.623308 0.260187 0.789238
O O15 0.643847 0.834126 0.914937
O O16 0.502468 0.681111 0.771927
O O17 0.500000 0.000000 0.000000
O O18 0.500000 0.500000 0.500000
#
# Coordination Sequence:
#
# PCOD9025767 Si02
#       8
#     2   2   2   2   2   2   2   2
#     4  11  24  44  74 102 130 183 248 284 333 426
#     4  11  23  44  72 101 139 185 244 287 339 425
#     4  10  22  43  65  97 133 175 215 280 353 403
#     4  10  22  40  71  96 130 170 228 283 331 409
#     4  12  25  46  70 102 143 178 226 292 357 411
#     4  11  23  42  70 101 132 183 240 289 332 427
#     4  11  22  43  73  98 134 189 246 289 347 420
#     4  12  26  45  66 104 148 186 228 303 364 408
#
# _framework density 21.776880999999999
#
# number of rings (size 3 to 8) (size 9 to 14) (size 15 to 20)
#    0.000    1.000    3.750    3.375    1.750    0.500 
#    6.750    0.000    0.000    0.000    0.000    0.000 
#    0.000    0.000    0.000    0.000    0.000    0.000 
#
# Total GULP energy -89312.507972 kJ/mol
# GULP energy per Si atom -5582.031748 kJ/mol
# Density = 2.172732 g / cm^3
# Si number density = 21.776881 Si / 1000 Ang^3
#
#
#
# Elastic Constant Matrix: (Units=GPa)
#
#
# Indices 1 2 3 4 5 6 
#
# 1 133.5445 52.3446 16.6825 -12.1287 -2.7967 -7.5275
# 2 52.3446 152.0292 28.5903 -16.3215 4.4253 -6.3779
# 3 16.6825 28.5903 74.9862 -10.3502 -0.5340 12.8174
# 4 -12.1287 -16.3215 -10.3502 22.5696 -5.9221 2.0984
# 5 -2.7967 4.4253 -0.5340 -5.9221 27.8925 -8.8659
# 6 -7.5275 -6.3779 12.8174 2.0984 -8.8659 32.3080
#
#
#
# Elastic Compliance Matrix: (Units=1/GPa)
#
#
# Indices 1 2 3 4 5 6 
#
# 1 0.009112 -0.002587 -0.001045 0.003033 0.002772 0.002591
# 2 -0.002587 0.008364 -0.002456 0.003269 -0.000399 0.001701
# 3 -0.001045 -0.002456 0.016660 0.005863 -0.000663 -0.007900
# 4 0.003033 0.003269 0.005863 0.053985 0.010885 -0.001493
# 5 0.002772 -0.000399 -0.000663 0.010885 0.042213 0.011707
# 6 0.002591 0.001701 -0.007900 -0.001493 0.011707 0.038335
#
#
# Mechanical properties :
#
#
# Convention : Reuss Voigt Hill
#
# Bulk Modulus (GPa) = 45.53813 61.75495 53.64654
# Shear Modulus (GPa) = 26.57228 34.08351 30.32790
#
# Velocity S-wave (km/s) = 3.49693 3.96046 3.73589
# Velocity P-wave (km/s) = 6.10421 7.02376 6.58007
#
# Compressibility (1/GPa) = 0.02195962
#
# Stress axis : x y z
#
# Youngs Moduli (GPa) = 109.74113 119.55603 60.02549
#
# Poissons Ratio (x) = 0.30932 0.06274
# Poissons Ratio (y) = 0.28393 0.14741
# Poissons Ratio (z) = 0.11471 0.29360
#
# Static dielectric constant tensor:
#      x y z
#    x 1.814260 0.198460 0.076070 
#    y 0.198460 2.722650 0.259860 
#    z 0.076070 0.259860 1.945660 
# 
# From -- ./inp_files/288664.got.cif
#   From: 2010.05.17/outbox.cif.g08.bks.cpg/sg2_145_cif.got.tgz:288664.got - 2010.06.03 11:33:40.
