data_PCOD9025118
_publ_section_title
;
Structure prediction by ZEFSAII (Michael W. Deem and Ramdas Pophale) SiO2 
 PCOD9025118
Probable space group: P -1
;
_chemical_formula_sum "Si O2"
_cell_formula_units_Z 16
_cell_length_a 15.767072
_cell_length_b 8.810336
_cell_length_c 8.345977
_cell_angle_alpha 94.320902
_cell_angle_beta 136.761288
_cell_angle_gamma 103.781361
_cell_volume 715.343808
_symmetry_space_group_name_H-M "P -1"
_symmetry_group_IT_number 2
_symmetry_cell_setting 'triclinic'
loop_
_space_group_symop_operation_xyz
x,y,z
-x,-y,-z
loop_
_atom_site_type_symbol
_atom_site_label
_atom_site_fract_x
_atom_site_fract_y
_atom_site_fract_z
Si Si1 0.558904 0.645795 0.362324
Si Si2 0.234058 0.462242 0.519341
Si Si3 0.224656 0.787959 0.487109
Si Si4 0.702028 0.673157 0.908978
Si Si5 0.529866 0.985162 0.354405
Si Si6 0.966300 0.343563 0.319758
Si Si7 0.743068 0.013178 0.154034
Si Si8 0.904795 0.563344 0.019731
O O1 0.647450 0.597706 0.350792
O O2 0.636776 0.682058 0.645861
O O3 0.414214 0.485923 0.175155
O O4 0.536787 0.810567 0.310668
O O5 0.272015 0.656734 0.632768
O O6 0.109510 0.349381 0.454251
O O7 0.173411 0.457894 0.256229
O O8 0.064017 0.684520 0.224723
O O9 0.326952 0.864851 0.487996
O O10 0.236154 0.940922 0.627886
O O11 0.741318 0.841100 0.076737
O O12 0.833992 0.641472 0.051089
O O13 0.500000 0.000000 0.500000
O O14 0.405717 0.997550 0.091812
O O15 0.898894 0.395004 0.079773
O O16 0.000000 0.500000 0.500000
O O17 0.861673 0.170394 0.238526
#
# Coordination Sequence:
#
# PCOD9025118 Si02
#       8
#     2   2   2   2   2   2   2   2
#     4  10  22  43  63  97 125 164 221 270 310 371
#     4  10  22  40  70  92 132 169 212 265 315 378
#     4  11  24  43  60  96 132 165 212 262 326 378
#     4  10  22  40  67  94 129 170 211 263 324 372
#     4  12  26  41  68  95 122 168 222 265 314 382
#     4  11  21  41  64  99 129 168 211 257 322 382
#     4  12  24  42  65  93 133 170 209 266 320 386
#     4  10  22  40  67  95 126 173 212 264 318 379
#
# _framework density 22.366865000000001
#
# number of rings (size 3 to 8) (size 9 to 14) (size 15 to 20)
#    0.000    1.250    3.750    3.375    7.000    1.500 
#    2.250    3.750    0.000    0.000    0.000    0.000 
#    0.000    0.000    0.000    0.000    0.000    0.000 
#
# Total GULP energy -89545.974371 kJ/mol
# GULP energy per Si atom -5596.623398 kJ/mol
# Density = 2.231596 g / cm^3
# Si number density = 22.366865 Si / 1000 Ang^3
#
#
#
# Elastic Constant Matrix: (Units=GPa)
#
#
# Indices 1 2 3 4 5 6 
#
# 1 181.1874 53.9260 33.3715 18.5259 29.5261 -13.6278
# 2 53.9260 73.6741 21.6340 25.5993 20.6075 -9.9742
# 3 33.3715 21.6340 52.4045 21.2549 1.3583 1.5193
# 4 18.5259 25.5993 21.2549 32.9070 -0.4435 0.3679
# 5 29.5261 20.6075 1.3583 -0.4435 38.5536 3.2869
# 6 -13.6278 -9.9742 1.5193 0.3679 3.2869 53.5842
#
#
#
# Elastic Compliance Matrix: (Units=1/GPa)
#
#
# Indices 1 2 3 4 5 6 
#
# 1 0.008049 -0.003550 -0.003863 0.000648 -0.004273 0.001754
# 2 -0.003550 0.027121 -0.001253 -0.018514 -0.012379 0.005068
# 3 -0.003863 -0.001253 0.028116 -0.014952 0.002642 -0.002072
# 4 0.000648 -0.018514 -0.014952 0.054274 0.010883 -0.003898
# 5 -0.004273 -0.012379 0.002642 0.010883 0.036351 -0.005770
# 6 0.001754 0.005068 -0.002072 -0.003898 -0.005770 0.020491
#
#
# Mechanical properties :
#
#
# Convention : Reuss Voigt Hill
#
# Bulk Modulus (GPa) = 21.76069 58.34768 40.05419
# Shear Modulus (GPa) = 24.14858 38.23125 31.18992
#
# Velocity S-wave (km/s) = 3.28938 4.13883 3.73831
# Velocity P-wave (km/s) = 4.91699 6.99880 6.04814
#
# Compressibility (1/GPa) = 0.04595442
#
# Stress axis : x y z
#
# Youngs Moduli (GPa) = 124.23713 36.87177 35.56749
#
# Poissons Ratio (x) = 0.13089 0.13741
# Poissons Ratio (y) = 0.44101 0.04455
# Poissons Ratio (z) = 0.47996 0.04619
#
# Static dielectric constant tensor:
#      x y z
#    x 1.852240 -0.028960 -0.083630 
#    y -0.028960 1.824290 0.007270 
#    z -0.083630 0.007270 1.890120 
# 
# From -- ./inp_files/181344.got.cif
#   From: 2010.05.17/outbox.cif.g08.bks.cpg/sg2_91_cif.got.tgz:181344.got - 2010.06.03 11:33:40.
