data_PCOD9025186
_publ_section_title
;
Structure prediction by ZEFSAII (Michael W. Deem and Ramdas Pophale) SiO2 
 PCOD9025186
Probable space group: P -1
;
_chemical_formula_sum "Si O2"
_cell_formula_units_Z 16
_cell_length_a 6.356615
_cell_length_b 18.004789
_cell_length_c 17.654465
_cell_angle_alpha 24.116405
_cell_angle_beta 69.070469
_cell_angle_gamma 82.417221
_cell_volume 663.945205
_symmetry_space_group_name_H-M "P -1"
_symmetry_group_IT_number 2
_symmetry_cell_setting 'triclinic'
loop_
_space_group_symop_operation_xyz
x,y,z
-x,-y,-z
loop_
_atom_site_type_symbol
_atom_site_label
_atom_site_fract_x
_atom_site_fract_y
_atom_site_fract_z
Si Si1 0.092029 0.656964 0.140512
Si Si2 0.552631 0.120232 0.303178
Si Si3 0.433657 0.140338 0.691385
Si Si4 0.835581 0.120885 0.557531
Si Si5 0.855581 0.719700 0.973973
Si Si6 0.741909 0.369042 0.582451
Si Si7 0.610351 0.493483 0.870154
Si Si8 0.915685 0.783715 0.259251
O O1 0.865206 0.654298 0.119773
O O2 0.275969 0.893471 0.925280
O O3 0.260397 0.592046 0.127753
O O4 0.977953 0.510313 0.363294
O O5 0.849672 0.194742 0.172492
O O6 0.500000 0.000000 0.500000
O O7 0.337234 0.961549 0.419068
O O8 0.534360 0.332283 0.100522
O O9 0.693108 0.217219 0.536331
O O10 0.518098 0.218044 0.693918
O O11 0.213954 0.207573 0.651696
O O12 0.142830 0.278561 0.355976
O O13 0.812448 0.917571 0.791083
O O14 0.645289 0.541732 0.109338
O O15 0.731212 0.550281 0.463297
O O16 0.823505 0.227950 0.750864
O O17 0.000000 0.000000 0.000000
#
# Coordination Sequence:
#
# PCOD9025186 Si02
#       8
#     2   2   2   2   2   2   2   2
#     4  11  22  41  66 101 132 173 228 285 340 404
#     4  10  23  44  65  95 141 180 220 276 342 411
#     4  12  23  42  69  97 131 177 226 286 341 399
#     4  11  23  40  66 102 133 173 237 279 337 411
#     4  10  22  40  67  97 134 176 223 281 345 394
#     4  11  26  45  66  99 135 180 229 282 344 418
#     4  10  22  41  63 102 134 173 230 281 334 411
#     4  11  26  47  67  96 140 179 226 281 353 411
#
# _framework density 24.098374
#
# number of rings (size 3 to 8) (size 9 to 14) (size 15 to 20)
#    0.000    1.250    6.250    0.375    1.750    7.000 
#    2.250    1.250    0.000    0.000    0.000    0.000 
#    0.000    0.000    0.000    0.000    0.000    0.000 
#
# Total GULP energy -89339.890035 kJ/mol
# GULP energy per Si atom -5583.743127 kJ/mol
# Density = 2.404353 g / cm^3
# Si number density = 24.098374 Si / 1000 Ang^3
#
#
#
# Elastic Constant Matrix: (Units=GPa)
#
#
# Indices 1 2 3 4 5 6 
#
# 1 123.3257 28.5976 55.3049 -17.3508 -6.7900 19.6057
# 2 28.5976 46.4289 24.8322 -3.1437 13.5488 -0.8642
# 3 55.3049 24.8322 123.5574 -8.4181 -1.7943 12.5851
# 4 -17.3508 -3.1437 -8.4181 33.2802 6.0850 -1.8310
# 5 -6.7900 13.5488 -1.7943 6.0850 53.6949 -2.1115
# 6 19.6057 -0.8642 12.5851 -1.8310 -2.1115 29.3123
#
#
#
# Elastic Compliance Matrix: (Units=1/GPa)
#
#
# Indices 1 2 3 4 5 6 
#
# 1 0.013112 -0.006779 -0.003449 0.004485 0.002469 -0.007031
# 2 -0.006779 0.030359 -0.003832 0.000260 -0.008420 0.006484
# 3 -0.003449 -0.003832 0.010673 0.000272 0.000766 -0.002316
# 4 0.004485 0.000260 0.000272 0.033009 -0.003281 -0.001283
# 5 0.002469 -0.008420 0.000766 -0.003281 0.021423 -0.000890
# 6 -0.007031 0.006484 -0.002316 -0.001283 -0.000890 0.039860
#
#
# Mechanical properties :
#
#
# Convention : Reuss Voigt Hill
#
# Bulk Modulus (GPa) = 38.42683 56.75348 47.59015
# Shear Modulus (GPa) = 26.99347 35.56264 31.27806
#
# Velocity S-wave (km/s) = 3.35048 3.84569 3.60659
# Velocity P-wave (km/s) = 5.56309 6.58187 6.09381
#
# Compressibility (1/GPa) = 0.02602349
#
# Stress axis : x y z
#
# Youngs Moduli (GPa) = 76.26635 32.93924 93.69513
#
# Poissons Ratio (x) = 0.22330 0.32315
# Poissons Ratio (y) = 0.51702 0.35904
# Poissons Ratio (z) = 0.26304 0.12623
#
# Static dielectric constant tensor:
#      x y z
#    x 2.060490 0.000590 -0.018370 
#    y 0.000590 1.929140 0.004690 
#    z -0.018370 0.004690 1.970530 
# 
# From -- ./inp_files/584259.got.cif
#   From: 2010.05.17/outbox.cif.g08.bks.cpg/sg2_293_cif.got.tgz:584259.got - 2010.06.03 11:33:40.
