data_PCOD9025323
_publ_section_title
;
Structure prediction by ZEFSAII (Michael W. Deem and Ramdas Pophale) SiO2 
 PCOD9025323
Probable space group: P -1
;
_chemical_formula_sum "Si O2"
_cell_formula_units_Z 16
_cell_length_a 20.358825
_cell_length_b 9.491999
_cell_length_c 14.166458
_cell_angle_alpha 33.647717
_cell_angle_beta 25.439607
_cell_angle_gamma 36.739266
_cell_volume 637.267079
_symmetry_space_group_name_H-M "P -1"
_symmetry_group_IT_number 2
_symmetry_cell_setting 'triclinic'
loop_
_space_group_symop_operation_xyz
x,y,z
-x,-y,-z
loop_
_atom_site_type_symbol
_atom_site_label
_atom_site_fract_x
_atom_site_fract_y
_atom_site_fract_z
Si Si1 0.379502 0.585848 0.480960
Si Si2 0.129845 0.674296 0.901691
Si Si3 0.505727 0.041589 0.133053
Si Si4 0.557752 0.389095 0.189603
Si Si5 0.869858 0.126087 0.007548
Si Si6 0.934264 0.264052 0.317982
Si Si7 0.809573 0.180020 0.734763
Si Si8 0.318838 0.236048 0.439169
O O1 0.302649 0.567080 0.694058
O O2 0.483209 0.365513 0.403739
O O3 0.219440 0.677301 0.578208
O O4 0.483059 0.802611 0.233735
O O5 0.128614 0.673323 0.018788
O O6 0.024126 0.498260 0.085306
O O7 0.038596 0.976195 0.834797
O O8 0.381653 0.061518 0.366829
O O9 0.471868 0.308938 0.969126
O O10 0.669104 0.034899 0.977036
O O11 0.739795 0.261045 0.028000
O O12 0.459295 0.267446 0.308828
O O13 0.799661 0.890874 0.275904
O O14 0.877028 0.214242 0.524450
O O15 0.059348 0.006096 0.271212
O O16 0.747331 0.477483 0.677904
#
# Coordination Sequence:
#
# PCOD9025323 Si02
#       8
#     2   2   2   2   2   2   2   2
#     4  12  24  43  68 105 133 175 229 285 331 395
#     4  11  25  44  65  96 142 179 220 282 341 398
#     4  11  24  43  69  99 141 173 223 281 337 399
#     4  11  24  40  71  99 134 175 231 276 333 402
#     4  11  24  44  67  96 136 185 224 273 336 407
#     4  11  23  40  66  95 134 174 218 275 335 396
#     4  10  22  40  68  93 129 179 217 268 338 396
#     4  11  21  46  66  98 133 181 220 275 336 405
#
# _framework density 25.107212000000001
#
# number of rings (size 3 to 8) (size 9 to 14) (size 15 to 20)
#    0.000    1.000    5.000    2.625    1.750    4.500 
#    0.000    1.250    0.000    0.000    0.000    0.000 
#    0.000    0.000    0.000    0.000    0.000    0.000 
#
# Total GULP energy -89520.898354 kJ/mol
# GULP energy per Si atom -5595.056147 kJ/mol
# Density = 2.505007 g / cm^3
# Si number density = 25.107212 Si / 1000 Ang^3
#
#
#
# Elastic Constant Matrix: (Units=GPa)
#
#
# Indices 1 2 3 4 5 6 
#
# 1 66.9847 39.2213 6.5260 -5.8946 -4.2143 -0.6660
# 2 39.2213 74.2460 -4.4157 3.2565 5.8893 -0.0556
# 3 6.5260 -4.4157 62.3555 2.7928 -3.6618 -0.1965
# 4 -5.8946 3.2565 2.7928 43.3903 11.9534 -2.9680
# 5 -4.2143 5.8893 -3.6618 11.9534 35.9268 10.8548
# 6 -0.6660 -0.0556 -0.1965 -2.9680 10.8548 42.1791
#
#
#
# Elastic Compliance Matrix: (Units=1/GPa)
#
#
# Indices 1 2 3 4 5 6 
#
# 1 0.023353 -0.012959 -0.003308 0.003370 0.003504 -0.000328
# 2 -0.012959 0.020904 0.002701 -0.002317 -0.004122 0.000733
# 3 -0.003308 0.002701 0.016781 -0.002274 0.001817 -0.000598
# 4 0.003370 -0.002317 -0.002274 0.026803 -0.009711 0.004425
# 5 0.003504 -0.004122 0.001817 -0.009711 0.035269 -0.009701
# 6 -0.000328 0.000733 -0.000598 0.004425 -0.009701 0.026509
#
#
# Mechanical properties :
#
#
# Convention : Reuss Voigt Hill
#
# Bulk Modulus (GPa) = 29.49382 31.80551 30.64967
# Shear Modulus (GPa) = 26.58819 35.11623 30.85221
#
# Velocity S-wave (km/s) = 3.25774 3.74391 3.50925
# Velocity P-wave (km/s) = 5.09148 5.60219 5.35293
#
# Compressibility (1/GPa) = 0.03390541
#
# Stress axis : x y z
#
# Youngs Moduli (GPa) = 42.82149 47.83696 59.59063
#
# Poissons Ratio (x) = 0.61993 0.19712
# Poissons Ratio (y) = 0.55493 -0.16093
# Poissons Ratio (z) = 0.14165 -0.12919
#
# Static dielectric constant tensor:
#      x y z
#    x 1.977470 -0.013190 0.041260 
#    y -0.013190 2.013240 0.031390 
#    z 0.041260 0.031390 2.036530 
# 
# From -- ./inp_files/399744.got.cif
#   From: 2010.05.17/outbox.cif.g08.bks.cpg/sg2_200_cif.got.tgz:399744.got - 2010.06.03 11:33:40.
