data_PCOD9025634
_publ_section_title
;
Structure prediction by ZEFSAII (Michael W. Deem and Ramdas Pophale) SiO2 
 PCOD9025634
Probable space group: P -1
;
_chemical_formula_sum "Si O2"
_cell_formula_units_Z 14
_cell_length_a 7.251375
_cell_length_b 10.157649
_cell_length_c 15.626348
_cell_angle_alpha 141.188699
_cell_angle_beta 137.470729
_cell_angle_gamma 63.805511
_cell_volume 463.057845
_symmetry_space_group_name_H-M "P -1"
_symmetry_group_IT_number 2
_symmetry_cell_setting 'triclinic'
loop_
_space_group_symop_operation_xyz
x,y,z
-x,-y,-z
loop_
_atom_site_type_symbol
_atom_site_label
_atom_site_fract_x
_atom_site_fract_y
_atom_site_fract_z
Si Si1 0.878666 0.748812 0.775208
Si Si2 0.624519 0.666192 0.023557
Si Si3 0.106392 0.253121 0.564785
Si Si4 0.470011 0.072728 0.131087
Si Si5 0.311823 0.434579 0.562031
Si Si6 0.390247 0.909758 0.545552
Si Si7 0.800420 0.312402 0.973346
O O1 0.649006 0.866109 0.786876
O O2 0.752562 0.585264 0.571726
O O3 0.992340 0.680616 0.870550
O O4 0.162459 0.914432 0.913381
O O5 0.360464 0.472796 0.792748
O O6 0.656431 0.904385 0.113588
O O7 0.860405 0.543393 0.059626
O O8 0.506246 0.712026 0.098467
O O9 0.061426 0.318063 0.484663
O O10 0.840680 0.193623 0.509310
O O11 0.225152 0.045260 0.502703
O O12 0.557609 0.310651 0.238251
O O13 0.526591 0.289352 0.569907
O O14 0.698152 0.097358 0.769190
#
# Coordination Sequence:
#
# PCOD9025634 Si02
#       7
#     2   2   2   2   2   2   2
#     4  10  22  42  69 103 147 188 248 290 360 440
#     4   9  19  41  68  98 146 181 240 302 348 428
#     4  10  24  44  70 111 142 192 248 299 364 436
#     4  10  22  40  70 104 145 197 237 295 368 427
#     4  12  24  43  75 104 148 191 242 302 366 438
#     4  10  22  44  76 102 145 194 244 303 365 427
#     4   9  19  41  73  99 135 196 241 294 359 425
#
# _framework density 30.233803999999999
#
# number of rings (size 3 to 8) (size 9 to 14) (size 15 to 20)
#    0.000    2.000    0.000    3.429    6.000    0.571 
#    2.571    4.286    0.000    3.429    0.000    0.000 
#    0.000    0.143    0.000    0.000    0.000    0.000 
#
# Total GULP energy -78314.803793 kJ/mol
# GULP energy per Si atom -5593.914557 kJ/mol
# Density = 3.016499 g / cm^3
# Si number density = 30.233804 Si / 1000 Ang^3
#
#
#
# Elastic Constant Matrix: (Units=GPa)
#
#
# Indices 1 2 3 4 5 6 
#
# 1 127.2129 94.0269 19.2415 -0.1009 -20.3973 -3.6946
# 2 94.0269 247.2149 83.0622 36.6959 0.2373 -10.2302
# 3 19.2415 83.0622 135.8858 19.3096 -15.0892 -7.0505
# 4 -0.1009 36.6959 19.3096 69.5719 -9.4919 -0.0755
# 5 -20.3973 0.2373 -15.0892 -9.4919 31.8379 -0.8847
# 6 -3.6946 -10.2302 -7.0505 -0.0755 -0.8847 60.5628
#
#
#
# Elastic Compliance Matrix: (Units=1/GPa)
#
#
# Indices 1 2 3 4 5 6 
#
# 1 0.014905 -0.007445 0.003164 0.004781 0.012535 0.000209
# 2 -0.007445 0.009226 -0.004843 -0.004695 -0.008522 0.000410
# 3 0.003164 -0.004843 0.010634 0.000605 0.007303 0.000720
# 4 0.004781 -0.004695 0.000605 0.017877 0.008706 -0.000282
# 5 0.012535 -0.008522 0.007303 0.008706 0.045584 0.000852
# 6 0.000209 0.000410 0.000720 -0.000282 0.000852 0.016690
#
#
# Mechanical properties :
#
#
# Convention : Reuss Voigt Hill
#
# Bulk Modulus (GPa) = 60.54740 100.33054 80.43897
# Shear Modulus (GPa) = 36.05685 53.32670 44.69177
#
# Velocity S-wave (km/s) = 3.45715 4.20433 3.84891
# Velocity P-wave (km/s) = 6.00048 7.53827 6.81290
#
# Compressibility (1/GPa) = 0.01651599
#
# Stress axis : x y z
#
# Youngs Moduli (GPa) = 67.09213 108.38785 94.03761
#
# Poissons Ratio (x) = 0.80695 -0.29751
# Poissons Ratio (y) = 0.49950 0.45545
# Poissons Ratio (z) = -0.21226 0.52495
#
# Static dielectric constant tensor:
#      x y z
#    x 2.294710 -0.020540 0.035660 
#    y -0.020540 2.461260 -0.047260 
#    z 0.035660 -0.047260 2.413710 
# 
# From -- ./inp_files/495660.got.cif
#   From: 2010.05.17/outbox.cif.g08.bks.cpg/sg2_248_cif.got.tgz:495660.got - 2010.06.03 11:33:40.
