data_PCOD9025838
_publ_section_title
;
Structure prediction by ZEFSAII (Michael W. Deem and Ramdas Pophale) SiO2 
 PCOD9025838
Probable space group: P -1
;
_chemical_formula_sum "Si O2"
_cell_formula_units_Z 11
_cell_length_a 9.140470
_cell_length_b 6.702160
_cell_length_c 16.958899
_cell_angle_alpha 81.149867
_cell_angle_beta 153.743019
_cell_angle_gamma 104.267126
_cell_volume 439.939801
_symmetry_space_group_name_H-M "P -1"
_symmetry_group_IT_number 2
_symmetry_cell_setting 'triclinic'
loop_
_space_group_symop_operation_xyz
x,y,z
-x,-y,-z
loop_
_atom_site_type_symbol
_atom_site_label
_atom_site_fract_x
_atom_site_fract_y
_atom_site_fract_z
Si Si1 0.453874 0.788573 0.635401
Si Si2 0.732170 0.784060 0.475687
Si Si3 0.094146 0.460402 0.202343
Si Si4 0.000000 0.500000 0.500000
Si Si5 0.200451 0.227869 0.047325
Si Si6 0.368413 0.812639 0.888779
O O1 0.774585 0.740761 0.750261
O O2 0.475126 0.688202 0.740932
O O3 0.095095 0.633596 0.452008
O O4 0.430056 0.018835 0.620928
O O5 0.438455 0.616163 0.389031
O O6 0.823755 0.689456 0.443731
O O7 0.064932 0.849825 0.685413
O O8 0.798411 0.387228 0.126399
O O9 0.990743 0.590441 0.071340
O O10 0.338476 0.198095 0.030161
O O11 0.000000 0.000000 0.000000
O O12 0.500000 0.000000 0.000000
#
# Coordination Sequence:
#
# PCOD9025838 Si02
#       6
#     2   2   2   1   2   2
#     4  11  23  43  77 111 142 192 249 311 364 435
#     4  11  24  48  78 107 151 191 256 299 376 435
#     4  11  26  48  74 111 150 199 244 306 379 440
#     4  10  22  40  72 116 136 190 244 318 356 426
#     4  12  24  47  75 104 149 192 250 305 367 439
#     4  12  28  48  73 111 154 200 241 306 376 449
#
# _framework density 25.003420999999999
#
# number of rings (size 3 to 8) (size 9 to 14) (size 15 to 20)
#    0.000    0.727    3.636    3.273    0.000    2.182 
#    6.545    0.000    0.000    0.000    0.000    0.000 
#    0.000    0.000    0.000    0.000    0.000    0.000 
#
# Total GULP energy -61296.319715 kJ/mol
# GULP energy per Si atom -5572.392701 kJ/mol
# Density = 2.494651 g / cm^3
# Si number density = 25.003421 Si / 1000 Ang^3
#
#
#
# Elastic Constant Matrix: (Units=GPa)
#
#
# Indices 1 2 3 4 5 6 
#
# 1 162.3396 81.2041 35.2711 -1.8856 29.3670 4.9153
# 2 81.2041 156.3418 56.9124 -24.8488 21.6193 -11.5408
# 3 35.2711 56.9124 92.0841 -13.7634 7.2937 -11.2860
# 4 -1.8856 -24.8488 -13.7634 46.0788 -0.4257 6.8326
# 5 29.3670 21.6193 7.2937 -0.4257 40.9743 9.0836
# 6 4.9153 -11.5408 -11.2860 6.8326 9.0836 48.6638
#
#
#
# Elastic Compliance Matrix: (Units=1/GPa)
#
#
# Indices 1 2 3 4 5 6 
#
# 1 0.009267 -0.004316 -0.001029 -0.002119 -0.003945 -0.001164
# 2 -0.004316 0.011394 -0.004288 0.004366 -0.002555 0.002008
# 3 -0.001029 -0.004288 0.014421 0.001625 -0.000040 0.002211
# 4 -0.002119 0.004366 0.001625 0.024712 -0.000426 -0.001764
# 5 -0.003945 -0.002555 -0.000040 -0.000426 0.029854 -0.005730
# 6 -0.001164 0.002008 0.002211 -0.001764 -0.005730 0.022973
#
#
# Mechanical properties :
#
#
# Convention : Reuss Voigt Hill
#
# Bulk Modulus (GPa) = 63.22675 84.17121 73.69898
# Shear Modulus (GPa) = 36.45398 42.96857 39.71127
#
# Velocity S-wave (km/s) = 3.82247 4.14999 3.98959
# Velocity P-wave (km/s) = 6.69506 7.52995 7.12474
#
# Compressibility (1/GPa) = 0.01581609
#
# Stress axis : x y z
#
# Youngs Moduli (GPa) = 107.91475 87.76351 69.34295
#
# Poissons Ratio (x) = 0.37876 0.07136
# Poissons Ratio (y) = 0.46573 0.29735
# Poissons Ratio (z) = 0.11105 0.37635
#
# Static dielectric constant tensor:
#      x y z
#    x 1.956690 -0.173360 -0.248540 
#    y -0.173360 1.465590 -0.792890 
#    z -0.248540 -0.792890 0.934580 
# 
# From -- ./inp_files/17469.got.cif
#   From: 2010.05.17/outbox.cif.g08.bks.cpg/sg2_9_cif.got.tgz:17469.got - 2010.06.03 11:33:40.
