data_PCOD9025387
_publ_section_title
;
Structure prediction by ZEFSAII (Michael W. Deem and Ramdas Pophale) SiO2 
 PCOD9025387
Probable space group: P -1
;
_chemical_formula_sum "Si O2"
_cell_formula_units_Z 16
_cell_length_a 11.988536
_cell_length_b 11.103091
_cell_length_c 8.963418
_cell_angle_alpha 58.615940
_cell_angle_beta 47.006036
_cell_angle_gamma 53.662645
_cell_volume 689.049665
_symmetry_space_group_name_H-M "P -1"
_symmetry_group_IT_number 2
_symmetry_cell_setting 'triclinic'
loop_
_space_group_symop_operation_xyz
x,y,z
-x,-y,-z
loop_
_atom_site_type_symbol
_atom_site_label
_atom_site_fract_x
_atom_site_fract_y
_atom_site_fract_z
Si Si1 0.031901 0.677473 0.822384
Si Si2 0.285663 0.389694 0.753547
Si Si3 0.918907 0.884500 0.293269
Si Si4 0.636287 0.831871 0.445970
Si Si5 0.773073 0.915458 0.728372
Si Si6 0.480897 0.670578 0.875923
Si Si7 0.832523 0.228984 0.077966
Si Si8 0.518378 0.215414 0.875996
O O1 0.188023 0.558377 0.665691
O O2 0.113464 0.678831 0.907730
O O3 0.933990 0.842795 0.733218
O O4 0.874107 0.629787 0.014193
O O5 0.364236 0.249853 0.657323
O O6 0.426255 0.366373 0.763643
O O7 0.804117 0.859250 0.285675
O O8 0.843766 0.870370 0.528109
O O9 0.906852 0.056408 0.180260
O O10 0.095907 0.768306 0.154866
O O11 0.632603 0.711266 0.652638
O O12 0.500000 0.000000 0.500000
O O13 0.675757 0.095078 0.726833
O O14 0.627005 0.852024 0.931404
O O15 0.357762 0.727399 0.811138
O O16 0.500000 0.500000 0.000000
O O17 0.431077 0.757473 0.022150
#
# Coordination Sequence:
#
# PCOD9025387 Si02
#       8
#     2   2   2   2   2   2   2   2
#     4  10  22  42  65  96 140 174 221 284 350 404
#     4  10  22  42  68  97 130 184 227 275 342 414
#     4  11  23  42  67 100 130 179 231 280 331 408
#     4  12  23  44  75  98 129 187 245 269 333 429
#     4  10  22  40  69 100 127 180 233 283 333 407
#     4  12  27  45  66 101 142 176 221 294 350 398
#     4  11  25  42  67  98 140 176 224 286 344 394
#     4  10  22  40  68  97 135 172 232 285 335 407
#
# _framework density 23.220388
#
# number of rings (size 3 to 8) (size 9 to 14) (size 15 to 20)
#    0.000    1.250    3.750    1.500    7.000    1.500 
#    2.250    2.500    0.000    0.000    0.000    0.000 
#    0.000    0.000    0.000    0.000    0.000    0.000 
#
# Total GULP energy -89225.136486 kJ/mol
# GULP energy per Si atom -5576.571030 kJ/mol
# Density = 2.316754 g / cm^3
# Si number density = 23.220388 Si / 1000 Ang^3
#
#
#
# Elastic Constant Matrix: (Units=GPa)
#
#
# Indices 1 2 3 4 5 6 
#
# 1 111.8988 29.3335 -1.0650 9.9981 11.6291 -3.3981
# 2 29.3335 105.0898 16.2053 11.9222 0.9714 -12.8505
# 3 -1.0650 16.2053 56.5205 12.6198 2.7523 -0.6706
# 4 9.9981 11.9222 12.6198 25.6555 5.2297 -1.3637
# 5 11.6291 0.9714 2.7523 5.2297 27.6756 -1.5549
# 6 -3.3981 -12.8505 -0.6706 -1.3637 -1.5549 31.6923
#
#
#
# Elastic Compliance Matrix: (Units=1/GPa)
#
#
# Indices 1 2 3 4 5 6 
#
# 1 0.010352 -0.002854 0.001832 -0.002828 -0.003916 -0.000322
# 2 -0.002854 0.011591 -0.002729 -0.003089 0.001889 0.004296
# 3 0.001832 -0.002729 0.020658 -0.009454 -0.000994 -0.000928
# 4 -0.002828 -0.003089 -0.009454 0.047539 -0.006749 -0.000041
# 5 -0.003916 0.001889 -0.000994 -0.006749 0.039196 0.001958
# 6 -0.000322 0.004296 -0.000928 -0.000041 0.001958 0.033335
#
#
# Mechanical properties :
#
#
# Convention : Reuss Voigt Hill
#
# Bulk Modulus (GPa) = 28.49105 40.27296 34.38200
# Shear Modulus (GPa) = 27.49149 32.27370 29.88260
#
# Velocity S-wave (km/s) = 3.44457 3.73216 3.59125
# Velocity P-wave (km/s) = 5.30251 5.99612 5.65995
#
# Compressibility (1/GPa) = 0.03509874
#
# Stress axis : x y z
#
# Youngs Moduli (GPa) = 96.59821 86.27034 48.40783
#
# Poissons Ratio (x) = 0.24626 -0.08867
# Poissons Ratio (y) = 0.27574 0.13209
# Poissons Ratio (z) = -0.17694 0.23540
#
# Static dielectric constant tensor:
#      x y z
#    x 1.722820 0.050750 0.240470 
#    y 0.050750 1.947170 -0.098760 
#    z 0.240470 -0.098760 1.547290 
# 
# From -- ./inp_files/261953.got.cif
#   From: 2010.05.17/outbox.cif.g08.bks.cpg/sg2_131_cif.got.tgz:261953.got - 2010.06.03 11:33:40.
