data_PCOD9025842
_publ_section_title
;
Structure prediction by ZEFSAII (Michael W. Deem and Ramdas Pophale) SiO2 
 PCOD9025842
Probable space group: P -1
;
_chemical_formula_sum "Si O2"
_cell_formula_units_Z 16
_cell_length_a 14.642231
_cell_length_b 5.307300
_cell_length_c 10.655810
_cell_angle_alpha 120.647029
_cell_angle_beta 105.541960
_cell_angle_gamma 96.317935
_cell_volume 655.271453
_symmetry_space_group_name_H-M "P -1"
_symmetry_group_IT_number 2
_symmetry_cell_setting 'triclinic'
loop_
_space_group_symop_operation_xyz
x,y,z
-x,-y,-z
loop_
_atom_site_type_symbol
_atom_site_label
_atom_site_fract_x
_atom_site_fract_y
_atom_site_fract_z
Si Si1 0.284040 0.534635 0.150980
Si Si2 0.926625 0.039230 0.373475
Si Si3 0.432484 0.562827 0.705498
Si Si4 0.698314 0.753458 0.651335
Si Si5 0.292640 0.351742 0.827073
Si Si6 0.468941 0.199174 0.825778
Si Si7 0.940289 0.656547 0.928707
Si Si8 0.902282 0.617261 0.634460
O O1 0.316044 0.380343 0.246521
O O2 0.165907 0.367734 0.059870
O O3 0.301072 0.895582 0.267323
O O4 0.317820 0.487948 0.010487
O O5 0.892653 0.342465 0.464338
O O6 0.998117 0.117851 0.299562
O O7 0.825160 0.764123 0.261914
O O8 0.000000 0.000000 0.500000
O O9 0.382510 0.444517 0.525447
O O10 0.350112 0.553688 0.782380
O O11 0.486357 0.326060 0.723399
O O12 0.501329 0.909816 0.804135
O O13 0.805887 0.731320 0.639427
O O14 0.347837 0.087634 0.766273
O O15 0.500000 0.500000 0.000000
O O16 0.917304 0.486802 0.742954
O O17 0.000000 0.500000 0.000000
O O18 0.000000 0.000000 0.000000
#
# Coordination Sequence:
#
# PCOD9025842 Si02
#       8
#     2   2   2   2   2   2   2   2
#     4  11  25  38  63  89 131 168 215 273 322 378
#     4  11  23  39  60  90 127 166 219 279 311 369
#     4  10  22  40  72  94 129 164 216 258 318 390
#     4  11  23  43  63  94 129 177 220 258 320 383
#     4  10  25  38  67  96 129 168 216 264 335 370
#     4  10  22  42  72 104 129 161 213 267 319 389
#     4  11  23  38  55  77 117 167 218 258 315 371
#     4  10  24  37  58  84 123 173 221 267 310 365
#
# _framework density 24.417362000000001
#
# number of rings (size 3 to 8) (size 9 to 14) (size 15 to 20)
#    0.750    0.750    0.000    4.875   12.250    1.000 
#    0.000    0.000    0.000    4.500    0.000    0.000 
#    0.000    0.000    0.000    0.000    0.000    0.000 
#
# Total GULP energy -89426.375849 kJ/mol
# GULP energy per Si atom -5589.148491 kJ/mol
# Density = 2.436179 g / cm^3
# Si number density = 24.417362 Si / 1000 Ang^3
#
#
#
# Elastic Constant Matrix: (Units=GPa)
#
#
# Indices 1 2 3 4 5 6 
#
# 1 97.2780 34.2238 15.2870 0.1312 -3.4122 24.0130
# 2 34.2238 177.7127 45.3860 2.6310 -1.6102 -6.0513
# 3 15.2870 45.3860 86.7296 -4.3598 8.9399 -0.1654
# 4 0.1312 2.6310 -4.3598 46.1053 -4.9123 3.3120
# 5 -3.4122 -1.6102 8.9399 -4.9123 29.2097 2.7601
# 6 24.0130 -6.0513 -0.1654 3.3120 2.7601 39.9456
#
#
#
# Elastic Compliance Matrix: (Units=1/GPa)
#
#
# Indices 1 2 3 4 5 6 
#
# 1 0.013697 -0.002591 -0.001324 0.000928 0.002860 -0.008906
# 2 -0.002591 0.007095 -0.003368 -0.000827 0.000731 0.002636
# 3 -0.001324 -0.003368 0.014044 0.001001 -0.004524 0.000573
# 4 0.000928 -0.000827 0.001001 0.022434 0.003794 -0.002801
# 5 0.002860 0.000731 -0.004524 0.003794 0.037058 -0.004502
# 6 -0.008906 0.002636 0.000573 -0.002801 -0.004502 0.031333
#
#
# Mechanical properties :
#
#
# Convention : Reuss Voigt Hill
#
# Bulk Modulus (GPa) = 49.33262 61.27930 55.30596
# Shear Modulus (GPa) = 34.01778 40.84035 37.42907
#
# Velocity S-wave (km/s) = 3.73658 4.09417 3.91946
# Velocity P-wave (km/s) = 6.23409 6.89208 6.57132
#
# Compressibility (1/GPa) = 0.02027056
#
# Stress axis : x y z
#
# Youngs Moduli (GPa) = 73.00938 140.94846 71.20674
#
# Poissons Ratio (x) = 0.36517 0.09425
# Poissons Ratio (y) = 0.18915 0.23982
# Poissons Ratio (z) = 0.09663 0.47471
#
# Static dielectric constant tensor:
#      x y z
#    x 2.013160 0.021310 0.030050 
#    y 0.021310 1.929510 -0.013700 
#    z 0.030050 -0.013700 1.972600 
# 
# From -- ./inp_files/468202.got.cif
#   From: 2010.05.17/outbox.cif.g08.bks.cpg/sg2_235_cif.got.tgz:468202.got - 2010.06.03 11:33:40.
