data_PCOD9025575
_publ_section_title
;
Structure prediction by ZEFSAII (Michael W. Deem and Ramdas Pophale) SiO2 
 PCOD9025575
Probable space group: P -1
;
_chemical_formula_sum "Si O2"
_cell_formula_units_Z 16
_cell_length_a 32.689861
_cell_length_b 17.695542
_cell_length_c 6.703581
_cell_angle_alpha 136.817309
_cell_angle_beta 46.539650
_cell_angle_gamma 164.165365
_cell_volume 722.147931
_symmetry_space_group_name_H-M "P -1"
_symmetry_group_IT_number 2
_symmetry_cell_setting 'triclinic'
loop_
_space_group_symop_operation_xyz
x,y,z
-x,-y,-z
loop_
_atom_site_type_symbol
_atom_site_label
_atom_site_fract_x
_atom_site_fract_y
_atom_site_fract_z
Si Si1 0.835817 0.646623 0.365269
Si Si2 0.271837 0.274995 0.777749
Si Si3 0.312369 0.699876 0.407154
Si Si4 0.959209 0.437023 0.287455
Si Si5 0.479560 0.213491 0.768773
Si Si6 0.745629 0.994304 0.853659
Si Si7 0.083014 0.383362 0.254264
Si Si8 0.385185 0.648052 0.781893
O O1 0.752992 0.486328 0.546093
O O2 0.737808 0.534433 0.316694
O O3 0.855859 0.559659 0.043297
O O4 0.000000 0.000000 0.500000
O O5 0.320997 0.442277 0.754016
O O6 0.304812 0.209184 0.474346
O O7 0.363452 0.472557 0.048567
O O8 0.094004 0.962291 0.803450
O O9 0.597687 0.026515 0.311319
O O10 0.172516 0.488122 0.335288
O O11 0.415982 0.810690 0.130809
O O12 0.902203 0.458387 0.483697
O O13 0.000000 0.500000 0.500000
O O14 0.114835 0.703702 0.160642
O O15 0.828263 0.121203 0.032671
O O16 0.491564 0.186198 0.452036
O O17 0.381777 0.146301 0.970687
#
# Coordination Sequence:
#
# PCOD9025575 Si02
#       8
#     2   2   2   2   2   2   2   2
#     4  11  23  40  68  99 131 173 225 271 341 393
#     4  11  25  43  68  96 140 178 221 278 333 395
#     4  11  24  43  69  96 135 175 224 282 328 391
#     4  10  22  40  69  99 130 168 221 276 335 390
#     4  12  25  43  67  97 138 179 223 270 338 398
#     4  10  24  44  65 100 134 173 225 275 329 401
#     4  10  22  41  65  97 129 171 220 278 329 394
#     4  11  25  42  63  96 135 177 228 273 329 397
#
# _framework density 22.156123999999998
#
# number of rings (size 3 to 8) (size 9 to 14) (size 15 to 20)
#    0.000    1.250    1.250    3.750    1.750   10.500 
#    0.000    0.000    0.000    0.000    0.000    0.000 
#    0.000    0.000    0.000    0.000    0.000    0.000 
#
# Total GULP energy -89530.391506 kJ/mol
# GULP energy per Si atom -5595.649469 kJ/mol
# Density = 2.210570 g / cm^3
# Si number density = 22.156124 Si / 1000 Ang^3
#
#
#
# Elastic Constant Matrix: (Units=GPa)
#
#
# Indices 1 2 3 4 5 6 
#
# 1 70.7094 13.3358 36.0006 -9.5244 3.7866 8.6971
# 2 13.3358 64.2731 29.7451 6.5145 -6.2490 13.4942
# 3 36.0006 29.7451 133.8202 -9.7774 -12.8771 5.0028
# 4 -9.5244 6.5145 -9.7774 46.5248 4.9353 -3.8432
# 5 3.7866 -6.2490 -12.8771 4.9353 43.5104 -1.7779
# 6 8.6971 13.4942 5.0028 -3.8432 -1.7779 30.1607
#
#
#
# Elastic Compliance Matrix: (Units=1/GPa)
#
#
# Indices 1 2 3 4 5 6 
#
# 1 0.017706 -0.001545 -0.004411 0.003001 -0.003552 -0.003510
# 2 -0.001545 0.020151 -0.003904 -0.004875 0.002082 -0.008421
# 3 -0.004411 -0.003904 0.009830 0.001575 0.002625 0.001744
# 4 0.003001 -0.004875 0.001575 0.023766 -0.003031 0.003904
# 5 -0.003552 0.002082 0.002625 -0.003031 0.024742 0.000730
# 6 -0.003510 -0.008421 0.001744 0.003904 0.000730 0.038187
#
#
# Mechanical properties :
#
#
# Convention : Reuss Voigt Hill
#
# Bulk Modulus (GPa) = 35.75890 47.44063 41.59977
# Shear Modulus (GPa) = 30.59549 36.68726 33.64138
#
# Velocity S-wave (km/s) = 3.72008 4.07363 3.90086
# Velocity P-wave (km/s) = 5.88444 6.60185 6.25344
#
# Compressibility (1/GPa) = 0.02796507
#
# Stress axis : x y z
#
# Youngs Moduli (GPa) = 56.47884 49.62649 101.73190
#
# Poissons Ratio (x) = 0.07667 0.44876
# Poissons Ratio (y) = 0.08725 0.39720
# Poissons Ratio (z) = 0.24914 0.19376
#
# Static dielectric constant tensor:
#      x y z
#    x 1.781600 0.006060 0.009290 
#    y 0.006060 1.806610 0.006830 
#    z 0.009290 0.006830 1.868690 
# 
# From -- ./inp_files/128764.got.cif
#   From: 2010.05.17/outbox.cif.g08.bks.cpg/sg2_65_cif.got.tgz:128764.got - 2010.06.03 11:33:40.
