data_PCOD9025092
_publ_section_title
;
Structure prediction by ZEFSAII (Michael W. Deem and Ramdas Pophale) SiO2 
 PCOD9025092
Probable space group: P -1
;
_chemical_formula_sum "Si O2"
_cell_formula_units_Z 10
_cell_length_a 5.503322
_cell_length_b 15.324078
_cell_length_c 5.536398
_cell_angle_alpha 100.865799
_cell_angle_beta 56.059267
_cell_angle_gamma 87.020293
_cell_volume 373.254253
_symmetry_space_group_name_H-M "P -1"
_symmetry_group_IT_number 2
_symmetry_cell_setting 'triclinic'
loop_
_space_group_symop_operation_xyz
x,y,z
-x,-y,-z
loop_
_atom_site_type_symbol
_atom_site_label
_atom_site_fract_x
_atom_site_fract_y
_atom_site_fract_z
Si Si1 0.376360 0.230674 0.313460
Si Si2 0.478522 0.075368 0.841777
Si Si3 0.002262 0.865346 0.205655
Si Si4 0.212183 0.571419 0.440438
Si Si5 0.351036 0.607263 0.875591
O O1 0.304883 0.172469 0.094765
O O2 0.170879 0.208974 0.630080
O O3 0.402082 0.331989 0.284110
O O4 0.720794 0.179168 0.139800
O O5 0.257134 0.062592 0.740204
O O6 0.815989 0.094995 0.658718
O O7 0.500000 0.000000 0.000000
O O8 0.152471 0.621838 0.753356
O O9 0.535743 0.502120 0.237780
O O10 0.000000 0.500000 0.500000
O O11 0.226623 0.629347 0.223485
#
# Coordination Sequence:
#
# PCOD9025092 Si02
#       5
#     2   2   2   2   2
#     4  10  26  41  68  98 139 180 233 287 354 416
#     4  10  24  45  69 101 138 182 231 287 352 421
#     4  10  25  42  68 100 135 184 229 288 351 419
#     4  10  22  40  67  92 136 173 237 279 360 412
#     4  10  23  41  62 101 128 186 225 296 343 431
#
# _framework density 26.791391000000001
#
# number of rings (size 3 to 8) (size 9 to 14) (size 15 to 20)
#    1.200    0.800    0.000    1.200    8.400    3.200 
#    0.000    0.000    0.000    0.000    0.000    0.000 
#    0.000    0.000    0.000    0.000    0.000    0.000 
#
# Total GULP energy -55790.731904 kJ/mol
# GULP energy per Si atom -5579.073190 kJ/mol
# Density = 2.673041 g / cm^3
# Si number density = 26.791391 Si / 1000 Ang^3
#
#
#
# Elastic Constant Matrix: (Units=GPa)
#
#
# Indices 1 2 3 4 5 6 
#
# 1 170.8255 40.2338 76.3610 -24.2424 3.3215 -10.0659
# 2 40.2338 117.2062 28.8685 -19.5069 -7.2764 -5.4104
# 3 76.3610 28.8685 123.7001 -54.5201 -0.0445 -0.6058
# 4 -24.2424 -19.5069 -54.5201 48.4556 6.7216 -11.1606
# 5 3.3215 -7.2764 -0.0445 6.7216 47.7237 -2.7111
# 6 -10.0659 -5.4104 -0.6058 -11.1606 -2.7111 50.8546
#
#
#
# Elastic Compliance Matrix: (Units=1/GPa)
#
#
# Indices 1 2 3 4 5 6 
#
# 1 0.008776 -0.001991 -0.006502 -0.003523 -0.000387 0.000654
# 2 -0.001991 0.009850 0.000667 0.003921 0.001179 0.001585
# 3 -0.006502 0.000667 0.022230 0.023300 -0.002478 0.004030
# 4 -0.003523 0.003921 0.023300 0.049894 -0.005557 0.010651
# 5 -0.000387 0.001179 -0.002478 -0.005557 0.021939 -0.000031
# 6 0.000654 0.001585 0.004030 0.010651 -0.000031 0.022346
#
#
# Mechanical properties :
#
#
# Convention : Reuss Voigt Hill
#
# Bulk Modulus (GPa) = 39.67754 78.07316 58.87535
# Shear Modulus (GPa) = 31.42890 47.15799 39.29344
#
# Velocity S-wave (km/s) = 3.42877 4.20002 3.83383
# Velocity P-wave (km/s) = 5.52424 7.26117 6.45143
#
# Compressibility (1/GPa) = 0.02520318
#
# Stress axis : x y z
#
# Youngs Moduli (GPa) = 113.95338 101.52096 44.98328
#
# Poissons Ratio (x) = 0.20213 0.29248
# Poissons Ratio (y) = 0.22689 -0.02999
# Poissons Ratio (z) = 0.74093 -0.06767
#
# Static dielectric constant tensor:
#      x y z
#    x 2.180870 -0.092650 0.029230 
#    y -0.092650 2.159530 0.094320 
#    z 0.029230 0.094320 2.129000 
# 
# From -- ./inp_files/2710.got.cif
#   From: 2010.05.17/outbox.cif.g08.bks.cpg/sg2_2_cif.got.tgz:2710.got - 2010.06.03 11:33:40.
