data_PCOD9025667
_publ_section_title
;
Structure prediction by ZEFSAII (Michael W. Deem and Ramdas Pophale) SiO2 
 PCOD9025667
Probable space group: P -1
;
_chemical_formula_sum "Si O2"
_cell_formula_units_Z 15
_cell_length_a 14.855542
_cell_length_b 27.432019
_cell_length_c 15.269804
_cell_angle_alpha 17.490145
_cell_angle_beta 19.272175
_cell_angle_gamma 19.148415
_cell_volume 552.131340
_symmetry_space_group_name_H-M "P -1"
_symmetry_group_IT_number 2
_symmetry_cell_setting 'triclinic'
loop_
_space_group_symop_operation_xyz
x,y,z
-x,-y,-z
loop_
_atom_site_type_symbol
_atom_site_label
_atom_site_fract_x
_atom_site_fract_y
_atom_site_fract_z
Si Si1 0.693579 0.831788 0.173881
Si Si2 0.000000 0.000000 0.000000
Si Si3 0.176201 0.356880 0.796279
Si Si4 0.764906 0.721330 0.587148
Si Si5 0.364192 0.696770 0.837234
Si Si6 0.196681 0.738503 0.554749
Si Si7 0.563520 0.633807 0.106910
Si Si8 0.314807 0.087407 0.395723
O O1 0.832678 0.671595 0.249034
O O2 0.452270 0.816851 0.484765
O O3 0.997530 0.795001 0.011767
O O4 0.500000 0.000000 0.000000
O O5 0.210523 0.016959 0.696581
O O6 0.212256 0.775470 0.192649
O O7 0.515333 0.232017 0.733139
O O8 0.095785 0.568004 0.520252
O O9 0.938144 0.314827 0.143561
O O10 0.541328 0.692778 0.770995
O O11 0.697054 0.665750 0.838849
O O12 0.668248 0.937550 0.310876
O O13 0.500000 0.500000 0.000000
O O14 0.909463 0.898423 0.500173
O O15 0.338361 0.578089 0.626202
O O16 0.698714 0.716155 0.916242
#
# Coordination Sequence:
#
# PCOD9025667 Si02
#       8
#     2   1   2   2   2   2   2   2
#     4  12  28  48  78 105 158 187 244 305 378 431
#     4  10  22  40  70  94 136 184 238 296 350 414
#     4  11  26  48  70 108 147 192 234 298 369 428
#     4  10  24  45  73 101 148 182 248 291 361 426
#     4  12  26  49  76 114 141 198 244 303 362 452
#     4  11  27  44  75 105 146 189 241 295 359 439
#     4  10  24  44  68 100 145 190 235 298 365 411
#     4  11  25  46  69 106 140 194 244 300 352 433
#
# _framework density 27.167446999999999
#
# number of rings (size 3 to 8) (size 9 to 14) (size 15 to 20)
#    0.000    1.067    1.333    3.600   13.067    0.533 
#    4.800    0.000    0.000    0.000    0.000    0.000 
#    0.000    0.000    0.000    0.000    0.000    0.000 
#
# Total GULP energy -83846.049109 kJ/mol
# GULP energy per Si atom -5589.736607 kJ/mol
# Density = 2.710561 g / cm^3
# Si number density = 27.167447 Si / 1000 Ang^3
#
#
#
# Elastic Constant Matrix: (Units=GPa)
#
#
# Indices 1 2 3 4 5 6 
#
# 1 78.9334 0.1863 -8.3461 -17.5090 -7.0543 0.0274
# 2 0.1863 91.0654 -10.5333 4.2652 -2.8623 -1.0455
# 3 -8.3461 -10.5333 71.4602 4.0964 11.3999 4.4136
# 4 -17.5090 4.2652 4.0964 30.3410 1.3015 -7.5702
# 5 -7.0543 -2.8623 11.3999 1.3015 31.3400 -4.0310
# 6 0.0274 -1.0455 4.4136 -7.5702 -4.0310 53.4526
#
#
#
# Elastic Compliance Matrix: (Units=1/GPa)
#
#
# Indices 1 2 3 4 5 6 
#
# 1 0.014951 -0.000260 0.000651 0.008800 0.002919 0.001400
# 2 -0.000260 0.011284 0.001693 -0.002026 0.000418 -0.000174
# 3 0.000651 0.001693 0.015441 -0.002203 -0.005477 -0.001967
# 4 0.008800 -0.002026 -0.002203 0.040027 0.001698 0.005935
# 5 0.002919 0.000418 -0.005477 0.001698 0.034954 0.003335
# 6 0.001400 -0.000174 -0.001967 0.005935 0.003335 0.019958
#
#
# Mechanical properties :
#
#
# Convention : Reuss Voigt Hill
#
# Bulk Modulus (GPa) = 21.81271 22.67477 22.24374
# Shear Modulus (GPa) = 33.84617 40.37020 37.10819
#
# Velocity S-wave (km/s) = 3.53347 3.85902 3.69983
# Velocity P-wave (km/s) = 4.96927 5.31229 5.14364
#
# Compressibility (1/GPa) = 0.04584483
#
# Stress axis : x y z
#
# Youngs Moduli (GPa) = 66.88564 88.62491 64.76299
#
# Poissons Ratio (x) = 0.02301 -0.04218
# Poissons Ratio (y) = 0.01736 -0.10965
# Poissons Ratio (z) = -0.04356 -0.15005
#
# Static dielectric constant tensor:
#      x y z
#    x 2.559520 -0.221710 -1.011490 
#    y -0.221710 2.262170 0.394180 
#    z -1.011490 0.394180 3.894030 
# 
# From -- ./inp_files/535711.got.cif
#   From: 2010.05.17/outbox.cif.g08.bks.cpg/sg2_268_cif.got.tgz:535711.got - 2010.06.03 11:33:40.
