data_PCOD9025595
_publ_section_title
;
Structure prediction by ZEFSAII (Michael W. Deem and Ramdas Pophale) SiO2 
 PCOD9025595
Probable space group: P -1
;
_chemical_formula_sum "Si O2"
_cell_formula_units_Z 14
_cell_length_a 9.839511
_cell_length_b 8.758872
_cell_length_c 9.461806
_cell_angle_alpha 118.116058
_cell_angle_beta 121.278463
_cell_angle_gamma 61.870093
_cell_volume 586.203115
_symmetry_space_group_name_H-M "P -1"
_symmetry_group_IT_number 2
_symmetry_cell_setting 'triclinic'
loop_
_space_group_symop_operation_xyz
x,y,z
-x,-y,-z
loop_
_atom_site_type_symbol
_atom_site_label
_atom_site_fract_x
_atom_site_fract_y
_atom_site_fract_z
Si Si1 0.104168 0.381895 0.131883
Si Si2 0.650934 0.083030 0.633740
Si Si3 0.076141 0.145810 0.531430
Si Si4 0.253053 0.647618 0.690788
Si Si5 0.391292 0.502010 0.252933
Si Si6 0.822811 0.025480 0.990897
Si Si7 0.776218 0.568608 0.162101
O O1 0.263221 0.450810 0.267451
O O2 0.167916 0.172602 0.036406
O O3 0.959583 0.417787 0.185538
O O4 0.000000 0.500000 0.000000
O O5 0.623118 0.286981 0.654232
O O6 0.500000 0.000000 0.500000
O O7 0.810215 0.953266 0.580528
O O8 0.689596 0.084276 0.820526
O O9 0.187789 0.238296 0.727363
O O10 0.918415 0.311198 0.468197
O O11 0.000000 0.000000 0.500000
O O12 0.419319 0.617612 0.677178
O O13 0.291926 0.477073 0.745168
O O14 0.221472 0.826159 0.847721
O O15 0.669070 0.541392 0.957211
O O16 0.000000 0.000000 0.000000
#
# Coordination Sequence:
#
# PCOD9025595 Si02
#       7
#     2   2   2   2   2   2   2
#     4  10  22  40  70 100 137 178 225 279 340 401
#     4  12  26  47  72 101 139 181 228 283 341 408
#     4  12  28  44  68 104 143 177 225 290 346 394
#     4  12  25  43  72 101 139 177 234 280 338 406
#     4  11  25  44  70 104 137 178 229 282 343 405
#     4  12  22  44  73 103 131 185 233 275 336 420
#     4  11  22  44  71  97 137 181 230 275 339 408
#
# _framework density 23.882508000000001
#
# number of rings (size 3 to 8) (size 9 to 14) (size 15 to 20)
#    0.000    0.571    4.286    3.429    6.000    2.857 
#    0.000    2.143    0.000    0.000    0.000    0.000 
#    0.000    0.000    0.000    0.000    0.000    0.000 
#
# Total GULP energy -78411.747779 kJ/mol
# GULP energy per Si atom -5600.839127 kJ/mol
# Density = 2.382815 g / cm^3
# Si number density = 23.882508 Si / 1000 Ang^3
#
#
#
# Elastic Constant Matrix: (Units=GPa)
#
#
# Indices 1 2 3 4 5 6 
#
# 1 103.6169 13.6808 12.8731 -0.6210 23.1154 -16.4855
# 2 13.6808 96.0625 28.3456 26.9106 11.4629 2.9892
# 3 12.8731 28.3456 119.4866 14.7357 19.1857 -3.0054
# 4 -0.6210 26.9106 14.7357 43.9409 3.9729 5.4585
# 5 23.1154 11.4629 19.1857 3.9729 35.3701 4.2143
# 6 -16.4855 2.9892 -3.0054 5.4585 4.2143 44.4638
#
#
#
# Elastic Compliance Matrix: (Units=1/GPa)
#
#
# Indices 1 2 3 4 5 6 
#
# 1 0.012620 -0.001300 0.000382 0.000957 -0.008797 0.005508
# 2 -0.001300 0.013433 -0.001888 -0.007412 -0.001593 -0.000452
# 3 0.000382 -0.001888 0.009847 -0.001895 -0.004961 0.001637
# 4 0.000957 -0.007412 -0.001895 0.028291 -0.000046 -0.002744
# 5 -0.008797 -0.001593 -0.004961 -0.000046 0.038080 -0.007093
# 6 0.005508 -0.000452 0.001637 -0.002744 -0.007093 0.025683
#
#
# Mechanical properties :
#
#
# Convention : Reuss Voigt Hill
#
# Bulk Modulus (GPa) = 33.01683 47.66276 40.33980
# Shear Modulus (GPa) = 34.80417 42.37274 38.58845
#
# Velocity S-wave (km/s) = 3.82161 4.21671 4.02402
# Velocity P-wave (km/s) = 5.77301 6.61121 6.20628
#
# Compressibility (1/GPa) = 0.03028758
#
# Stress axis : x y z
#
# Youngs Moduli (GPa) = 79.24092 74.44609 101.54900
#
# Poissons Ratio (x) = 0.09676 -0.03876
# Poissons Ratio (y) = 0.10300 0.19173
# Poissons Ratio (z) = -0.03025 0.14056
#
# Static dielectric constant tensor:
#      x y z
#    x 1.893610 0.046980 -0.093930 
#    y 0.046980 1.846190 0.047480 
#    z -0.093930 0.047480 1.819280 
# 
# From -- ./inp_files/380444.got.cif
#   From: 2010.05.17/outbox.cif.g08.bks.cpg/sg2_191_cif.got.tgz:380444.got - 2010.06.03 11:33:40.
