data_PCOD9025348
_publ_section_title
;
Structure prediction by ZEFSAII (Michael W. Deem and Ramdas Pophale) SiO2 
 PCOD9025348
Probable space group: P -1
;
_chemical_formula_sum "Si O2"
_cell_formula_units_Z 16
_cell_length_a 12.816382
_cell_length_b 11.981846
_cell_length_c 5.451080
_cell_angle_alpha 61.603583
_cell_angle_beta 85.246645
_cell_angle_gamma 79.684140
_cell_volume 724.463621
_symmetry_space_group_name_H-M "P -1"
_symmetry_group_IT_number 2
_symmetry_cell_setting 'triclinic'
loop_
_space_group_symop_operation_xyz
x,y,z
-x,-y,-z
loop_
_atom_site_type_symbol
_atom_site_label
_atom_site_fract_x
_atom_site_fract_y
_atom_site_fract_z
Si Si1 0.259757 0.579044 0.244567
Si Si2 0.534313 0.361417 0.013957
Si Si3 0.625351 0.683946 0.302810
Si Si4 0.783672 0.776323 0.810965
Si Si5 0.569702 0.873346 0.510176
Si Si6 0.918811 0.279357 0.621668
Si Si7 0.075781 0.444953 0.263290
Si Si8 0.998365 0.141370 0.244273
O O1 0.339189 0.660020 0.015184
O O2 0.329428 0.439304 0.415219
O O3 0.204068 0.653065 0.414675
O O4 0.153813 0.548764 0.171191
O O5 0.475896 0.356315 0.770119
O O6 0.500000 0.500000 0.000000
O O7 0.488217 0.246855 0.276404
O O8 0.593964 0.827136 0.273321
O O9 0.724415 0.694292 0.095222
O O10 0.685822 0.867842 0.612004
O O11 0.841627 0.680563 0.697706
O O12 0.879221 0.838719 0.838479
O O13 0.500000 0.000000 0.500000
O O14 0.947629 0.224153 0.402541
O O15 0.999316 0.383988 0.530617
O O16 0.941343 0.180376 0.952263
O O17 0.000000 0.500000 0.000000
O O18 0.000000 0.000000 0.500000
#
# Coordination Sequence:
#
# PCOD9025348 Si02
#       8
#     2   2   2   2   2   2   2   2
#     4  12  21  39  68 101 138 176 227 294 374 423
#     4  11  24  42  66 103 135 179 237 300 368 427
#     4  11  22  43  69  98 138 182 233 294 369 434
#     4  10  22  40  68  95 128 184 230 287 360 426
#     4  11  25  46  66  98 137 185 243 294 353 446
#     4  11  25  42  67 106 139 184 239 293 358 449
#     4  11  21  41  67 105 145 181 229 292 362 446
#     4  11  25  47  68  98 145 187 241 297 358 433
#
# _framework density 22.085303
#
# number of rings (size 3 to 8) (size 9 to 14) (size 15 to 20)
#    0.000    1.000    2.500    4.875    1.750    4.000 
#    4.500    0.000    0.000    0.000    0.000    0.000 
#    0.000    0.000    0.000    0.000    0.000    0.000 
#
# Total GULP energy -89170.366449 kJ/mol
# GULP energy per Si atom -5573.147903 kJ/mol
# Density = 2.203504 g / cm^3
# Si number density = 22.085303 Si / 1000 Ang^3
#
#
#
# Elastic Constant Matrix: (Units=GPa)
#
#
# Indices 1 2 3 4 5 6 
#
# 1 123.9227 21.9185 20.1976 11.3076 -20.6307 -19.4033
# 2 21.9185 91.2971 4.0610 -7.5713 0.6746 -22.5464
# 3 20.1976 4.0610 69.9397 -1.2992 -3.5462 0.3778
# 4 11.3076 -7.5713 -1.2992 27.5022 -1.1794 -1.3823
# 5 -20.6307 0.6746 -3.5462 -1.1794 39.7745 5.3552
# 6 -19.4033 -22.5464 0.3778 -1.3823 5.3552 37.1243
#
#
#
# Elastic Compliance Matrix: (Units=1/GPa)
#
#
# Indices 1 2 3 4 5 6 
#
# 1 0.010641 -0.001977 -0.002826 -0.004674 0.004686 0.003540
# 2 -0.001977 0.013802 -0.000293 0.004899 -0.002198 0.007852
# 3 -0.002826 -0.000293 0.015182 0.001717 0.000182 -0.001772
# 4 -0.004674 0.004899 0.001717 0.039760 -0.001473 0.002208
# 5 0.004686 -0.002198 0.000182 -0.001473 0.027983 -0.002979
# 6 0.003540 0.007852 -0.001772 0.002208 -0.002979 0.034085
#
#
# Mechanical properties :
#
#
# Convention : Reuss Voigt Hill
#
# Bulk Modulus (GPa) = 33.97709 41.94597 37.96153
# Shear Modulus (GPa) = 30.96798 36.81237 33.89018
#
# Velocity S-wave (km/s) = 3.74866 4.08711 3.92154
# Velocity P-wave (km/s) = 5.84418 6.42702 6.14252
#
# Compressibility (1/GPa) = 0.02943160
#
# Stress axis : x y z
#
# Youngs Moduli (GPa) = 93.97939 72.45085 65.86742
#
# Poissons Ratio (x) = 0.14323 0.18617
# Poissons Ratio (y) = 0.18579 0.01932
# Poissons Ratio (z) = 0.26563 0.02125
#
# Static dielectric constant tensor:
#      x y z
#    x 1.748980 0.005230 0.010980 
#    y 0.005230 1.928990 0.074000 
#    z 0.010980 0.074000 1.906430 
# 
# From -- ./inp_files/68444.got.cif
#   From: 2010.05.17/outbox.cif.g08.bks.cpg/sg2_35_cif.got.tgz:68444.got - 2010.06.03 11:33:40.
