data_PCOD9025005
_publ_section_title
;
Structure prediction by ZEFSAII (Michael W. Deem and Ramdas Pophale) SiO2 
 PCOD9025005
Probable space group: P -1
;
_chemical_formula_sum "Si O2"
_cell_formula_units_Z 16
_cell_length_a 9.773779
_cell_length_b 23.646618
_cell_length_c 11.174422
_cell_angle_alpha 158.898427
_cell_angle_beta 129.325703
_cell_angle_gamma 49.953322
_cell_volume 706.510002
_symmetry_space_group_name_H-M "P -1"
_symmetry_group_IT_number 2
_symmetry_cell_setting 'triclinic'
loop_
_space_group_symop_operation_xyz
x,y,z
-x,-y,-z
loop_
_atom_site_type_symbol
_atom_site_label
_atom_site_fract_x
_atom_site_fract_y
_atom_site_fract_z
Si Si1 0.835307 0.200132 0.338076
Si Si2 0.455136 0.643285 0.351391
Si Si3 0.109223 0.163979 0.996646
Si Si4 0.735477 0.284036 0.033487
Si Si5 0.573929 0.136940 0.446457
Si Si6 0.463693 0.834348 0.098523
Si Si7 0.753027 0.632686 0.700398
Si Si8 0.833278 0.858818 0.747958
O O1 0.727762 0.338089 0.635855
O O2 0.017394 0.231996 0.440087
O O3 0.695794 0.162098 0.082152
O O4 0.877562 0.038084 0.120778
O O5 0.442381 0.803170 0.580435
O O6 0.612035 0.634356 0.516738
O O7 0.500000 0.500000 0.000000
O O8 0.273202 0.021015 0.775869
O O9 0.097689 0.287449 0.123557
O O10 0.144872 0.215337 0.253575
O O11 0.905316 0.137422 0.843889
O O12 0.799076 0.452269 0.415328
O O13 0.642403 0.268587 0.825204
O O14 0.597030 0.265462 0.023460
O O15 0.378532 0.122302 0.359438
O O16 0.500000 0.000000 0.500000
O O17 0.647093 0.744906 0.963818
#
# Coordination Sequence:
#
# PCOD9025005 Si02
#       8
#     2   2   2   2   2   2   2   2
#     4  10  22  40  67 100 133 174 224 283 341 394
#     4  11  21  41  69  98 136 176 223 277 341 406
#     4  12  23  42  66 101 133 180 233 283 337 405
#     4  12  25  43  65  98 144 179 222 282 348 407
#     4  12  23  41  69 101 130 180 231 284 335 405
#     4  11  23  43  68 101 135 178 229 281 342 412
#     4  11  24  42  70  95 139 185 225 274 350 410
#     4  11  21  40  68  96 132 172 229 286 332 398
#
# _framework density 22.646529999999998
#
# number of rings (size 3 to 8) (size 9 to 14) (size 15 to 20)
#    0.000    0.750    5.000    4.500    0.000    0.000 
#    0.000    1.875    2.750    0.000    0.000    0.000 
#    0.000    0.000    0.000    0.000    0.000    0.000 
#
# Total GULP energy -89381.646946 kJ/mol
# GULP energy per Si atom -5586.352934 kJ/mol
# Density = 2.259499 g / cm^3
# Si number density = 22.646530 Si / 1000 Ang^3
#
#
#
# Elastic Constant Matrix: (Units=GPa)
#
#
# Indices 1 2 3 4 5 6 
#
# 1 156.8535 11.0973 43.9336 6.7639 -44.3213 -3.9646
# 2 11.0973 54.7038 10.1229 2.7811 -9.6194 7.0044
# 3 43.9336 10.1229 89.6018 5.2344 -29.0583 -2.0546
# 4 6.7639 2.7811 5.2344 23.0740 6.9700 6.7972
# 5 -44.3213 -9.6194 -29.0583 6.9700 28.6700 8.9572
# 6 -3.9646 7.0044 -2.0546 6.7972 8.9572 33.0759
#
#
#
# Elastic Compliance Matrix: (Units=1/GPa)
#
#
# Indices 1 2 3 4 5 6 
#
# 1 0.014813 0.003360 0.003637 -0.014044 0.032579 -0.004646
# 2 0.003360 0.021925 0.002399 -0.007718 0.019271 -0.007724
# 3 0.003637 0.002399 0.020085 -0.014144 0.031623 -0.004482
# 4 -0.014044 -0.007718 -0.014144 0.068280 -0.055236 -0.000001
# 5 0.032579 0.019271 0.031623 -0.055236 0.145384 -0.026232
# 6 -0.004646 -0.007724 -0.004482 -0.000001 -0.026232 0.038138
#
#
# Mechanical properties :
#
#
# Convention : Reuss Voigt Hill
#
# Bulk Modulus (GPa) = 13.22501 47.94074 30.58287
# Shear Modulus (GPa) = 15.87108 32.69767 24.28438
#
# Velocity S-wave (km/s) = 2.65017 3.80389 3.27819
# Velocity P-wave (km/s) = 3.90089 6.36458 5.27849
#
# Compressibility (1/GPa) = 0.07561431
#
# Stress axis : x y z
#
# Youngs Moduli (GPa) = 67.50922 45.61032 49.78761
#
# Poissons Ratio (x) = -0.15324 -0.18106
# Poissons Ratio (y) = -0.22682 -0.11945
# Poissons Ratio (z) = -0.24551 -0.10943
#
# Static dielectric constant tensor:
#      x y z
#    x 1.839310 0.000930 0.024990 
#    y 0.000930 1.893940 0.034830 
#    z 0.024990 0.034830 1.887930 
# 
# From -- ./inp_files/407293.got.cif
#   From: 2010.05.17/outbox.cif.g08.bks.cpg/sg2_204_cif.got.tgz:407293.got - 2010.06.03 11:33:40.
