data_PCOD9025285
_publ_section_title
;
Structure prediction by ZEFSAII (Michael W. Deem and Ramdas Pophale) SiO2 
 PCOD9025285
Probable space group: P -1
;
_chemical_formula_sum "Si O2"
_cell_formula_units_Z 15
_cell_length_a 9.085863
_cell_length_b 12.628808
_cell_length_c 9.469751
_cell_angle_alpha 115.634683
_cell_angle_beta 55.466820
_cell_angle_gamma 78.703019
_cell_volume 649.244485
_symmetry_space_group_name_H-M "P -1"
_symmetry_group_IT_number 2
_symmetry_cell_setting 'triclinic'
loop_
_space_group_symop_operation_xyz
x,y,z
-x,-y,-z
loop_
_atom_site_type_symbol
_atom_site_label
_atom_site_fract_x
_atom_site_fract_y
_atom_site_fract_z
Si Si1 0.679120 0.466053 0.268842
Si Si2 0.000000 0.500000 0.500000
Si Si3 0.139275 0.175630 0.777813
Si Si4 0.700873 0.740828 0.008354
Si Si5 0.068456 0.947842 0.593419
Si Si6 0.783182 0.678926 0.444530
Si Si7 0.531071 0.382249 0.809651
Si Si8 0.421701 0.896973 0.978660
O O1 0.500000 0.500000 0.500000
O O2 0.781960 0.553148 0.297468
O O3 0.525052 0.538665 0.260373
O O4 0.881347 0.299360 0.030872
O O5 0.946130 0.606313 0.449672
O O6 0.914818 0.636669 0.733782
O O7 0.274699 0.165850 0.836864
O O8 0.180646 0.236525 0.647135
O O9 0.177430 0.024355 0.637668
O O10 0.649426 0.646844 0.074886
O O11 0.506800 0.816521 0.038485
O O12 0.234760 0.774357 0.406842
O O13 0.000000 0.000000 0.500000
O O14 0.840798 0.011112 0.835399
O O15 0.547674 0.787608 0.716538
O O16 0.500000 0.500000 0.000000
O O17 0.500000 0.000000 0.000000
#
# Coordination Sequence:
#
# PCOD9025285 Si02
#       8
#     2   1   2   2   2   2   2   2
#     4  12  26  45  70 114 151 194 252 318 374 444
#     4  10  22  40  68 106 154 188 254 294 372 452
#     4  12  25  48  82 108 156 197 259 317 384 460
#     4  11  24  46  74 114 144 207 248 308 382 453
#     4  12  26  50  75 113 147 202 252 316 389 456
#     4  11  23  44  72 107 149 199 249 312 376 446
#     4  12  28  47  79 106 152 199 259 310 385 459
#     4  11  26  47  72 108 154 196 252 309 383 453
#
# _framework density 23.103776
#
# number of rings (size 3 to 8) (size 9 to 14) (size 15 to 20)
#    0.000    0.533    4.000    3.600    3.733    4.800 
#    0.000    2.000    0.000    0.000    0.000    0.000 
#    0.000    0.000    0.000    0.000    0.000    0.000 
#
# Total GULP energy -83663.013581 kJ/mol
# GULP energy per Si atom -5577.534239 kJ/mol
# Density = 2.305119 g / cm^3
# Si number density = 23.103776 Si / 1000 Ang^3
#
#
#
# Elastic Constant Matrix: (Units=GPa)
#
#
# Indices 1 2 3 4 5 6 
#
# 1 92.6011 28.1810 49.1881 1.9110 27.6722 -1.2922
# 2 28.1810 55.8473 40.6812 -7.6424 10.3351 -6.1692
# 3 49.1881 40.6812 146.5254 3.8328 4.0711 -12.9146
# 4 1.9110 -7.6424 3.8328 52.2728 0.3972 9.2171
# 5 27.6722 10.3351 4.0711 0.3972 47.7186 -0.3125
# 6 -1.2922 -6.1692 -12.9146 9.2171 -0.3125 41.6264
#
#
#
# Elastic Compliance Matrix: (Units=1/GPa)
#
#
# Indices 1 2 3 4 5 6 
#
# 1 0.016921 -0.003932 -0.004457 -0.000558 -0.008585 -0.001381
# 2 -0.003932 0.025141 -0.005609 0.004086 -0.002714 0.000939
# 3 -0.004457 -0.005609 0.010073 -0.001876 0.002973 0.002593
# 4 -0.000558 0.004086 -0.001876 0.020698 -0.000604 -0.004581
# 5 -0.008585 -0.002714 0.002973 -0.000604 0.026278 0.000585
# 6 -0.001381 0.000939 0.002593 -0.004581 0.000585 0.025943
#
#
# Mechanical properties :
#
#
# Convention : Reuss Voigt Hill
#
# Bulk Modulus (GPa) = 41.42645 59.00826 50.21735
# Shear Modulus (GPa) = 31.03739 40.11849 35.57794
#
# Velocity S-wave (km/s) = 3.66921 4.17159 3.92844
# Velocity P-wave (km/s) = 5.99335 6.98562 6.50842
#
# Compressibility (1/GPa) = 0.02413917
#
# Stress axis : x y z
#
# Youngs Moduli (GPa) = 59.09847 39.77598 99.27187
#
# Poissons Ratio (x) = 0.15639 0.44249
# Poissons Ratio (y) = 0.23236 0.55681
# Poissons Ratio (z) = 0.26342 0.22310
#
# Static dielectric constant tensor:
#      x y z
#    x 1.818370 0.065000 -0.127540 
#    y 0.065000 1.726880 0.139990 
#    z -0.127540 0.139990 1.794190 
# 
# From -- ./inp_files/189010.got.cif
#   From: 2010.05.17/outbox.cif.g08.bks.cpg/sg2_95_cif.got.tgz:189010.got - 2010.06.03 11:33:40.
