data_PCOD9025701
_publ_section_title
;
Structure prediction by ZEFSAII (Michael W. Deem and Ramdas Pophale) SiO2 
 PCOD9025701
Probable space group: P -1
;
_chemical_formula_sum "Si O2"
_cell_formula_units_Z 13
_cell_length_a 13.833446
_cell_length_b 20.349569
_cell_length_c 22.985593
_cell_angle_alpha 16.611833
_cell_angle_beta 20.701192
_cell_angle_gamma 28.104152
_cell_volume 647.327027
_symmetry_space_group_name_H-M "P -1"
_symmetry_group_IT_number 2
_symmetry_cell_setting 'triclinic'
loop_
_space_group_symop_operation_xyz
x,y,z
-x,-y,-z
loop_
_atom_site_type_symbol
_atom_site_label
_atom_site_fract_x
_atom_site_fract_y
_atom_site_fract_z
Si Si1 0.181911 0.791169 0.764508
Si Si2 0.800585 0.465972 0.338567
Si Si3 0.777556 0.647404 0.573962
Si Si4 0.216445 0.327476 0.315410
Si Si5 0.254254 0.858844 0.462845
Si Si6 0.151607 0.861701 0.079883
Si Si7 0.000000 0.500000 0.000000
O O1 0.461014 0.686143 0.711876
O O2 0.092332 0.700628 0.827932
O O3 0.241860 0.067740 0.500580
O O4 0.952799 0.683607 0.031435
O O5 0.500000 0.500000 0.500000
O O6 0.777182 0.244649 0.496334
O O7 0.985723 0.422564 0.326126
O O8 0.855625 0.682866 0.567083
O O9 0.810989 0.387595 0.756314
O O10 0.964171 0.817056 0.280875
O O11 0.500000 0.500000 0.000000
O O12 0.215180 0.641339 0.712582
O O13 0.000000 0.000000 0.500000
O O14 0.547072 0.011089 0.180027
O O15 0.000000 0.000000 0.000000
#
# Coordination Sequence:
#
# PCOD9025701 Si02
#       7
#     2   2   2   2   2   2   1
#     4  11  24  46  72 103 139 187 238 292 348 433
#     4  11  27  45  67 106 142 182 236 293 364 419
#     4  11  26  44  70 109 137 182 247 283 358 420
#     4  12  27  44  75  99 142 193 234 288 357 424
#     4  11  24  45  71  95 138 181 233 287 347 422
#     4  11  26  44  74 103 141 183 233 302 348 416
#     4  10  22  40  70  98 130 176 232 276 348 406
#
# _framework density 20.082585999999999
#
# number of rings (size 3 to 8) (size 9 to 14) (size 15 to 20)
#    0.000    0.923    1.538    4.154    8.615    1.846 
#    5.538    0.000    0.000    0.000    0.000    0.000 
#    0.000    0.000    0.000    0.000    0.000    0.000 
#
# Total GULP energy -72472.141216 kJ/mol
# GULP energy per Si atom -5574.780094 kJ/mol
# Density = 2.003688 g / cm^3
# Si number density = 20.082586 Si / 1000 Ang^3
#
#
#
# Elastic Constant Matrix: (Units=GPa)
#
#
# Indices 1 2 3 4 5 6 
#
# 1 153.2138 60.4157 86.3062 3.4063 0.7918 24.6541
# 2 60.4157 106.7196 70.6388 17.9431 -8.0325 3.2077
# 3 86.3062 70.6388 159.9777 11.4961 -11.0266 2.6641
# 4 3.4063 17.9431 11.4961 40.9598 5.5073 -4.2410
# 5 0.7918 -8.0325 -11.0266 5.5073 28.5725 -1.9148
# 6 24.6541 3.2077 2.6641 -4.2410 -1.9148 37.1945
#
#
#
# Elastic Compliance Matrix: (Units=1/GPa)
#
#
# Indices 1 2 3 4 5 6 
#
# 1 0.012104 -0.003890 -0.005126 0.001953 -0.004274 -0.007318
# 2 -0.003890 0.015513 -0.004074 -0.005765 0.004081 0.001085
# 3 -0.005126 -0.004074 0.011097 -0.001087 0.003691 0.003020
# 4 0.001953 -0.005765 -0.001087 0.028298 -0.007407 0.002126
# 5 -0.004274 0.004081 0.003691 -0.007407 0.039344 0.003398
# 6 -0.007318 0.001085 0.003020 0.002126 0.003398 0.031844
#
#
# Mechanical properties :
#
#
# Convention : Reuss Voigt Hill
#
# Bulk Modulus (GPa) = 79.77137 94.95917 87.36527
# Shear Modulus (GPa) = 29.66355 34.84870 32.25612
#
# Velocity S-wave (km/s) = 3.84745 4.17018 4.01206
# Velocity P-wave (km/s) = 7.71654 8.40084 8.06595
#
# Compressibility (1/GPa) = 0.01253583
#
# Stress axis : x y z
#
# Youngs Moduli (GPa) = 82.61652 64.46342 90.11360
#
# Poissons Ratio (x) = 0.25075 0.46188
# Poissons Ratio (y) = 0.32136 0.36710
# Poissons Ratio (z) = 0.42346 0.26261
#
# Static dielectric constant tensor:
#      x y z
#    x 1.835600 0.196070 -0.008900 
#    y 0.196070 1.970190 -0.062730 
#    z -0.008900 -0.062730 1.689460 
# 
# From -- ./inp_files/131286.got.cif
#   From: 2010.05.17/outbox.cif.g08.bks.cpg/sg2_66_cif.got.tgz:131286.got - 2010.06.03 11:33:40.
