data_PCOD9025722
_publ_section_title
;
Structure prediction by ZEFSAII (Michael W. Deem and Ramdas Pophale) SiO2 
 PCOD9025722
Probable space group: P -1
;
_chemical_formula_sum "Si O2"
_cell_formula_units_Z 15
_cell_length_a 8.803309
_cell_length_b 8.742941
_cell_length_c 12.515823
_cell_angle_alpha 133.743852
_cell_angle_beta 108.706379
_cell_angle_gamma 67.413249
_cell_volume 640.348530
_symmetry_space_group_name_H-M "P -1"
_symmetry_group_IT_number 2
_symmetry_cell_setting 'triclinic'
loop_
_space_group_symop_operation_xyz
x,y,z
-x,-y,-z
loop_
_atom_site_type_symbol
_atom_site_label
_atom_site_fract_x
_atom_site_fract_y
_atom_site_fract_z
Si Si1 0.000000 0.000000 0.500000
Si Si2 0.660025 0.751170 0.644693
Si Si3 0.711496 0.522827 0.331912
Si Si4 0.771704 0.568909 0.021640
Si Si5 0.651354 0.886354 0.325673
Si Si6 0.441342 0.255323 0.138365
Si Si7 0.965619 0.164622 0.795506
Si Si8 0.002063 0.855151 0.825979
O O1 0.181573 0.025445 0.601620
O O2 0.914317 0.065577 0.629175
O O3 0.713824 0.558216 0.477084
O O4 0.608097 0.698960 0.727041
O O5 0.819880 0.845136 0.745323
O O6 0.505669 0.920610 0.640055
O O7 0.658742 0.754851 0.374053
O O8 0.584959 0.376843 0.205438
O O9 0.887283 0.390016 0.261152
O O10 0.648848 0.700122 0.145226
O O11 0.933490 0.657181 0.125966
O O12 0.708183 0.645219 0.926396
O O13 0.817552 0.308567 0.903344
O O14 0.500000 0.000000 0.000000
O O15 0.070562 0.977277 0.803675
O O16 0.000000 0.000000 0.000000
#
# Coordination Sequence:
#
# PCOD9025722 Si02
#       8
#     1   2   2   2   2   2   2   2
#     4  10  24  42  72 100 146 182 236 294 360 424
#     4  12  27  47  73 106 147 186 245 295 364 427
#     4  12  28  46  73 107 147 190 240 297 368 421
#     4  10  22  40  70  99 139 183 242 287 355 425
#     4  11  25  47  73 105 143 188 240 296 357 429
#     4  12  25  46  71 105 144 188 238 298 355 429
#     4  10  22  41  67 101 135 189 234 291 354 424
#     4  12  26  46  72 101 148 188 240 297 360 426
#
# _framework density 23.424742999999999
#
# number of rings (size 3 to 8) (size 9 to 14) (size 15 to 20)
#    0.000    0.800    1.333    5.200    5.600    3.733 
#    0.000    0.000    0.000    0.000    0.000    0.000 
#    0.000    0.000    0.000    0.000    0.000    0.000 
#
# Total GULP energy -83622.858560 kJ/mol
# GULP energy per Si atom -5574.857237 kJ/mol
# Density = 2.337143 g / cm^3
# Si number density = 23.424743 Si / 1000 Ang^3
#
#
#
# Elastic Constant Matrix: (Units=GPa)
#
#
# Indices 1 2 3 4 5 6 
#
# 1 80.5091 15.0384 28.8730 1.1570 13.4142 -15.9235
# 2 15.0384 67.0802 30.0087 -14.8722 3.2085 -13.9721
# 3 28.8730 30.0087 150.8150 -21.8895 -13.8247 -19.6267
# 4 1.1570 -14.8722 -21.8895 19.6042 9.1708 -0.3696
# 5 13.4142 3.2085 -13.8247 9.1708 47.2427 -6.3157
# 6 -15.9235 -13.9721 -19.6267 -0.3696 -6.3157 34.5375
#
#
#
# Elastic Compliance Matrix: (Units=1/GPa)
#
#
# Indices 1 2 3 4 5 6 
#
# 1 0.015295 -0.001981 -0.002940 -0.003833 -0.003811 0.003842
# 2 -0.001981 0.021021 -0.000796 0.016935 -0.003492 0.006681
# 3 -0.002940 -0.000796 0.009440 0.009038 0.002463 0.004234
# 4 -0.003833 0.016935 0.009038 0.079824 -0.011719 0.008931
# 5 -0.003811 -0.003492 0.002463 -0.011719 0.025861 0.002833
# 6 0.003842 0.006681 0.004234 0.008931 0.002833 0.036448
#
#
# Mechanical properties :
#
#
# Convention : Reuss Voigt Hill
#
# Bulk Modulus (GPa) = 29.13527 49.58273 39.35900
# Shear Modulus (GPa) = 23.72310 35.24250 29.48280
#
# Velocity S-wave (km/s) = 3.18581 3.88299 3.55155
# Velocity P-wave (km/s) = 5.09875 6.42778 5.80145
#
# Compressibility (1/GPa) = 0.03432266
#
# Stress axis : x y z
#
# Youngs Moduli (GPa) = 65.37994 47.57161 105.92674
#
# Poissons Ratio (x) = 0.09424 0.31139
# Poissons Ratio (y) = 0.12952 0.08434
# Poissons Ratio (z) = 0.19220 0.03788
#
# Static dielectric constant tensor:
#      x y z
#    x 1.970120 0.012740 -0.069110 
#    y 0.012740 1.913080 0.029480 
#    z -0.069110 0.029480 1.870820 
# 
# From -- ./inp_files/185732.got.cif
#   From: 2010.05.17/outbox.cif.g08.bks.cpg/sg2_93_cif.got.tgz:185732.got - 2010.06.03 11:33:40.
