data_PCOD9025788
_publ_section_title
;
Structure prediction by ZEFSAII (Michael W. Deem and Ramdas Pophale) SiO2 
 PCOD9025788
Probable space group: P -1
;
_chemical_formula_sum "Si O2"
_cell_formula_units_Z 10
_cell_length_a 5.317287
_cell_length_b 15.104380
_cell_length_c 8.985054
_cell_angle_alpha 43.415277
_cell_angle_beta 117.821408
_cell_angle_gamma 96.218521
_cell_volume 405.811223
_symmetry_space_group_name_H-M "P -1"
_symmetry_group_IT_number 2
_symmetry_cell_setting 'triclinic'
loop_
_space_group_symop_operation_xyz
x,y,z
-x,-y,-z
loop_
_atom_site_type_symbol
_atom_site_label
_atom_site_fract_x
_atom_site_fract_y
_atom_site_fract_z
Si Si1 0.553700 0.708896 0.719231
Si Si2 0.568899 0.619251 0.291790
Si Si3 0.328723 0.879469 0.749475
Si Si4 0.878496 0.454835 0.280231
Si Si5 0.362734 0.967562 0.154485
O O1 0.444174 0.810139 0.707075
O O2 0.309814 0.635970 0.714213
O O3 0.541334 0.808936 0.456265
O O4 0.861419 0.575095 0.009494
O O5 0.500000 0.500000 0.500000
O O6 0.718695 0.550031 0.262339
O O7 0.803265 0.644863 0.439643
O O8 0.305484 0.762145 0.998648
O O9 0.570193 0.935969 0.819882
O O10 0.000000 0.000000 0.500000
O O11 0.500000 0.000000 0.000000
O O12 0.000000 0.000000 0.000000
#
# Coordination Sequence:
#
# PCOD9025788 Si02
#       5
#     2   2   2   2   2
#     4  10  22  45  71 100 141 188 242 300 365 431
#     4  10  22  40  71  99 138 184 237 298 359 429
#     4  11  25  45  71 108 147 190 242 304 370 438
#     4   9  21  44  69  99 137 184 243 295 357 436
#     4  12  27  46  73 105 150 195 244 304 371 446
#
# _framework density 24.642001
#
# number of rings (size 3 to 8) (size 9 to 14) (size 15 to 20)
#    0.000    1.600    0.000    3.000    5.600    0.000 
#    3.600    3.000    0.000    0.000    0.000    0.000 
#    0.000    0.000    0.000    0.000    0.000    0.000 
#
# Total GULP energy -55979.336112 kJ/mol
# GULP energy per Si atom -5597.933611 kJ/mol
# Density = 2.458591 g / cm^3
# Si number density = 24.642001 Si / 1000 Ang^3
#
#
#
# Elastic Constant Matrix: (Units=GPa)
#
#
# Indices 1 2 3 4 5 6 
#
# 1 83.7910 48.6662 66.9416 12.3732 -13.3245 -5.8125
# 2 48.6662 192.3965 48.5324 19.7839 6.1935 5.3011
# 3 66.9416 48.5324 256.7780 -9.2853 -33.1412 -10.3935
# 4 12.3732 19.7839 -9.2853 33.7467 11.2825 0.2623
# 5 -13.3245 6.1935 -33.1412 11.2825 39.9595 -0.4205
# 6 -5.8125 5.3011 -10.3935 0.2623 -0.4205 43.5636
#
#
#
# Elastic Compliance Matrix: (Units=1/GPa)
#
#
# Indices 1 2 3 4 5 6 
#
# 1 0.019241 -0.003318 -0.003809 -0.008219 0.006114 0.002171
# 2 -0.003318 0.006564 -0.000795 -0.002102 -0.002204 -0.001440
# 3 -0.003809 -0.000795 0.005518 0.002456 0.002746 0.000917
# 4 -0.008219 -0.002102 0.002456 0.038303 -0.011199 -0.000594
# 5 0.006114 -0.002204 0.002746 -0.011199 0.032867 0.002124
# 6 0.002171 -0.001440 0.000917 -0.000594 0.002124 0.023662
#
#
# Mechanical properties :
#
#
# Convention : Reuss Voigt Hill
#
# Bulk Modulus (GPa) = 64.59825 95.69399 80.14612
# Shear Modulus (GPa) = 33.97693 48.04232 41.00963
#
# Velocity S-wave (km/s) = 3.71728 4.42023 4.08391
# Velocity P-wave (km/s) = 6.68549 8.06035 7.40490
#
# Compressibility (1/GPa) = 0.01548030
#
# Stress axis : x y z
#
# Youngs Moduli (GPa) = 51.97189 152.34659 181.22759
#
# Poissons Ratio (x) = 0.50542 0.69035
# Poissons Ratio (y) = 0.17242 0.14399
# Poissons Ratio (z) = 0.19798 0.12104
#
# Static dielectric constant tensor:
#      x y z
#    x 2.043060 0.168110 -0.088910 
#    y 0.168110 2.310250 -0.201530 
#    z -0.088910 -0.201530 2.210760 
# 
# From -- ./inp_files/18166.got.cif
#   From: 2010.05.17/outbox.cif.g08.bks.cpg/sg2_10_cif.got.tgz:18166.got - 2010.06.03 11:33:40.
