data_PCOD9025654
_publ_section_title
;
Structure prediction by ZEFSAII (Michael W. Deem and Ramdas Pophale) SiO2 
 PCOD9025654
Probable space group: P -1
;
_chemical_formula_sum "Si O2"
_cell_formula_units_Z 13
_cell_length_a 18.770514
_cell_length_b 11.423532
_cell_length_c 14.184480
_cell_angle_alpha 146.362078
_cell_angle_beta 21.543301
_cell_angle_gamma 148.036675
_cell_volume 576.289030
_symmetry_space_group_name_H-M "P -1"
_symmetry_group_IT_number 2
_symmetry_cell_setting 'triclinic'
loop_
_space_group_symop_operation_xyz
x,y,z
-x,-y,-z
loop_
_atom_site_type_symbol
_atom_site_label
_atom_site_fract_x
_atom_site_fract_y
_atom_site_fract_z
Si Si1 0.000000 0.500000 0.000000
Si Si2 0.736104 0.215944 0.415440
Si Si3 0.530918 0.874361 0.609079
Si Si4 0.038659 0.111341 0.826809
Si Si5 0.713579 0.499207 0.475287
Si Si6 0.019563 0.627322 0.463653
Si Si7 0.494120 0.851029 0.997672
O O1 0.971913 0.725716 0.134954
O O2 0.958866 0.584280 0.216298
O O3 0.616822 0.310702 0.548101
O O4 0.870315 0.450913 0.457604
O O5 0.611833 0.046437 0.536664
O O6 0.881177 0.117443 0.108804
O O7 0.729437 0.822779 0.369632
O O8 0.343658 0.647284 0.651833
O O9 0.461466 0.999936 0.862347
O O10 0.981875 0.859215 0.685201
O O11 0.632253 0.699385 0.716549
O O12 0.000000 0.500000 0.500000
O O13 0.255880 0.685152 0.182787
O O14 0.500000 0.000000 0.000000
#
# Coordination Sequence:
#
# PCOD9025654 Si02
#       7
#     1   2   2   2   2   2   2
#     4  10  24  46  60  98 130 176 220 268 330 394
#     4  11  23  40  65 101 131 173 217 271 336 385
#     4  11  23  41  65  98 130 171 220 272 328 396
#     4  10  22  40  70  93 134 170 221 270 327 397
#     4  11  25  41  65  93 135 174 217 272 326 395
#     4  11  22  42  69 100 128 173 223 271 326 394
#     4  11  25  43  67  98 131 174 224 270 331 393
#
# _framework density 22.558125
#
# number of rings (size 3 to 8) (size 9 to 14) (size 15 to 20)
#    0.000    1.231    3.077    3.692    2.154    8.000 
#    0.000    4.615    0.000    0.000    0.000    0.000 
#    0.000    0.000    0.000    0.000    0.000    0.000 
#
# Total GULP energy -72469.322901 kJ/mol
# GULP energy per Si atom -5574.563300 kJ/mol
# Density = 2.250678 g / cm^3
# Si number density = 22.558125 Si / 1000 Ang^3
#
#
#
# Elastic Constant Matrix: (Units=GPa)
#
#
# Indices 1 2 3 4 5 6 
#
# 1 154.1198 90.8096 25.0330 42.3309 13.4820 -29.2294
# 2 90.8096 121.1192 24.5474 39.2705 -5.3560 -32.3298
# 3 25.0330 24.5474 118.8818 41.4899 5.0731 -27.2920
# 4 42.3309 39.2705 41.4899 56.6366 -11.6270 0.9240
# 5 13.4820 -5.3560 5.0731 -11.6270 29.8937 5.0232
# 6 -29.2294 -32.3298 -27.2920 0.9240 5.0232 69.9343
#
#
#
# Elastic Compliance Matrix: (Units=1/GPa)
#
#
# Indices 1 2 3 4 5 6 
#
# 1 0.017462 -0.008116 0.005776 -0.015368 -0.017507 0.007261
# 2 -0.008116 0.017805 0.001509 -0.006847 0.003041 0.005300
# 3 0.005776 0.001509 0.017819 -0.021845 -0.015786 0.011488
# 4 -0.015368 -0.006847 -0.021845 0.057505 0.035376 -0.021414
# 5 -0.017507 0.003041 -0.015786 0.035376 0.061176 -0.016933
# 6 0.007261 0.005300 0.011488 -0.021414 -0.016933 0.025766
#
#
# Mechanical properties :
#
#
# Convention : Reuss Voigt Hill
#
# Bulk Modulus (GPa) = 19.44621 74.98896 47.21759
# Shear Modulus (GPa) = 23.11230 48.20829 35.66030
#
# Velocity S-wave (km/s) = 3.20436 4.62786 3.98026
# Velocity P-wave (km/s) = 4.72544 7.86580 6.48847
#
# Compressibility (1/GPa) = 0.05142390
#
# Stress axis : x y z
#
# Youngs Moduli (GPa) = 57.26774 56.16497 56.12055
#
# Poissons Ratio (x) = 0.45584 -0.32417
# Poissons Ratio (y) = 0.46479 -0.08470
# Poissons Ratio (z) = -0.33079 -0.08476
#
# Static dielectric constant tensor:
#      x y z
#    x 1.936340 0.039380 -0.066180 
#    y 0.039380 1.813810 0.048450 
#    z -0.066180 0.048450 1.776570 
# 
# From -- ./inp_files/173719.got.cif
#   From: 2010.05.17/outbox.cif.g08.bks.cpg/sg2_87_cif.got.tgz:173719.got - 2010.06.03 11:33:40.
