data_PCOD9025650
_publ_section_title
;
Structure prediction by ZEFSAII (Michael W. Deem and Ramdas Pophale) SiO2 
 PCOD9025650
Probable space group: P -1
;
_chemical_formula_sum "Si O2"
_cell_formula_units_Z 16
_cell_length_a 5.945843
_cell_length_b 14.122317
_cell_length_c 9.127129
_cell_angle_alpha 66.103846
_cell_angle_beta 74.238469
_cell_angle_gamma 84.869670
_cell_volume 674.170951
_symmetry_space_group_name_H-M "P -1"
_symmetry_group_IT_number 2
_symmetry_cell_setting 'triclinic'
loop_
_space_group_symop_operation_xyz
x,y,z
-x,-y,-z
loop_
_atom_site_type_symbol
_atom_site_label
_atom_site_fract_x
_atom_site_fract_y
_atom_site_fract_z
Si Si1 0.043103 0.964214 0.771855
Si Si2 0.844450 0.706241 0.548133
Si Si3 0.217547 0.383977 0.094540
Si Si4 0.552529 0.283194 0.591331
Si Si5 0.140858 0.598573 0.352208
Si Si6 0.899248 0.131484 0.476014
Si Si7 0.327974 0.080722 0.900147
Si Si8 0.244571 0.618079 0.982546
O O1 0.151375 0.897719 0.663092
O O2 0.880824 0.037064 0.652368
O O3 0.223611 0.029750 0.800391
O O4 0.882085 0.905629 0.955479
O O5 0.885036 0.623757 0.718395
O O6 0.600638 0.678432 0.537669
O O7 0.847003 0.816659 0.562660
O O8 0.003229 0.697573 0.379577
O O9 0.258172 0.505052 0.972645
O O10 0.482925 0.338831 0.085825
O O11 0.997040 0.336403 0.071215
O O12 0.617498 0.380085 0.620139
O O13 0.441853 0.190825 0.767603
O O14 0.750461 0.224754 0.501920
O O15 0.177715 0.603986 0.172349
O O16 0.000000 0.500000 0.500000
O O17 0.500000 0.000000 0.000000
#
# Coordination Sequence:
#
# PCOD9025650 Si02
#       8
#     2   2   2   2   2   2   2   2
#     4  10  22  40  70  91 132 169 219 270 342 405
#     4  11  24  43  66  95 139 174 231 282 346 403
#     4  10  23  42  68  94 133 178 223 297 345 411
#     4  11  25  41  67  96 137 173 230 279 336 416
#     4  11  25  44  69  98 133 182 229 284 345 414
#     4  10  22  42  62  99 127 173 219 278 329 413
#     4  11  22  42  64  97 131 176 213 273 339 407
#     4  10  23  44  66  97 131 174 237 282 352 411
#
# _framework density 23.732851
#
# number of rings (size 3 to 8) (size 9 to 14) (size 15 to 20)
#    0.000    1.500    3.750    0.000    5.250    4.000 
#    2.250    0.000    0.000    0.000    0.000    0.000 
#    0.000    0.000    0.000    0.000    0.000    0.000 
#
# Total GULP energy -89102.127327 kJ/mol
# GULP energy per Si atom -5568.882958 kJ/mol
# Density = 2.367883 g / cm^3
# Si number density = 23.732851 Si / 1000 Ang^3
#
#
#
# Elastic Constant Matrix: (Units=GPa)
#
#
# Indices 1 2 3 4 5 6 
#
# 1 99.4602 19.5462 47.9519 15.0093 7.7155 24.7761
# 2 19.5462 63.7733 40.7390 20.1978 2.4280 25.1991
# 3 47.9519 40.7390 136.0800 23.8128 7.7003 29.0828
# 4 15.0093 20.1978 23.8128 39.1316 13.1092 -0.0882
# 5 7.7155 2.4280 7.7003 13.1092 38.4695 4.0720
# 6 24.7761 25.1991 29.0828 -0.0882 4.0720 31.9274
#
#
#
# Elastic Compliance Matrix: (Units=1/GPa)
#
#
# Indices 1 2 3 4 5 6 
#
# 1 0.014438 0.003992 -0.002652 -0.006279 0.000799 -0.012058
# 2 0.003992 0.032890 -0.002247 -0.019623 0.007222 -0.027985
# 3 -0.002652 -0.002247 0.011139 -0.004880 0.000787 -0.006429
# 4 -0.006279 -0.019623 -0.004880 0.046182 -0.015106 0.026860
# 5 0.000799 0.007222 0.000787 -0.015106 0.031544 -0.011103
# 6 -0.012058 -0.027985 -0.006429 0.026860 -0.011103 0.070113
#
#
# Mechanical properties :
#
#
# Convention : Reuss Voigt Hill
#
# Bulk Modulus (GPa) = 17.65137 57.30974 37.48056
# Shear Modulus (GPa) = 22.02602 34.64413 28.33508
#
# Velocity S-wave (km/s) = 3.04975 3.82482 3.45906
# Velocity P-wave (km/s) = 4.45589 6.61105 5.63741
#
# Compressibility (1/GPa) = 0.05665282
#
# Stress axis : x y z
#
# Youngs Moduli (GPa) = 69.26325 30.40415 89.77244
#
# Poissons Ratio (x) = -0.12137 0.23808
# Poissons Ratio (y) = -0.27649 0.20173
# Poissons Ratio (z) = 0.18369 0.06832
#
# Static dielectric constant tensor:
#      x y z
#    x 2.575330 0.066480 -0.050650 
#    y 0.066480 1.972840 -0.056600 
#    z -0.050650 -0.056600 1.854870 
# 
# From -- ./inp_files/107014.got.cif
#   From: 2010.05.17/outbox.cif.g08.bks.cpg/sg2_54_cif.got.tgz:107014.got - 2010.06.03 11:33:40.
