data_PCOD9025952
_publ_section_title
;
Structure prediction by ZEFSAII (Michael W. Deem and Ramdas Pophale) SiO2 
 PCOD9025952
Probable space group: P -1
;
_chemical_formula_sum "Si O2"
_cell_formula_units_Z 16
_cell_length_a 9.401854
_cell_length_b 11.340475
_cell_length_c 18.687246
_cell_angle_alpha 41.498685
_cell_angle_beta 42.671047
_cell_angle_gamma 73.392636
_cell_volume 722.624380
_symmetry_space_group_name_H-M "P -1"
_symmetry_group_IT_number 2
_symmetry_cell_setting 'triclinic'
loop_
_space_group_symop_operation_xyz
x,y,z
-x,-y,-z
loop_
_atom_site_type_symbol
_atom_site_label
_atom_site_fract_x
_atom_site_fract_y
_atom_site_fract_z
Si Si1 0.079179 0.939380 0.846961
Si Si2 0.957851 0.193696 0.933456
Si Si3 0.631721 0.322812 0.499742
Si Si4 0.276309 0.934706 0.058685
Si Si5 0.940699 0.183345 0.364546
Si Si6 0.957649 0.465158 0.446407
Si Si7 0.282004 0.317364 0.315320
Si Si8 0.902909 0.622881 0.936550
O O1 0.328809 0.185745 0.657563
O O2 0.808478 0.905242 0.976145
O O3 0.059280 0.857903 0.812195
O O4 0.096343 0.799462 0.966538
O O5 0.719507 0.116269 0.002930
O O6 0.200545 0.430218 0.707480
O O7 0.000000 0.000000 0.000000
O O8 0.730832 0.198822 0.476624
O O9 0.693819 0.317942 0.563247
O O10 0.046851 0.701883 0.279967
O O11 0.500000 0.000000 0.000000
O O12 0.177078 0.285170 0.287382
O O13 0.028849 0.324722 0.195599
O O14 0.822306 0.928558 0.509873
O O15 0.145747 0.405107 0.372455
O O16 0.000000 0.500000 0.500000
O O17 0.592898 0.484802 0.125509
O O18 0.000000 0.500000 0.000000
#
# Coordination Sequence:
#
# PCOD9025952 Si02
#       8
#     2   2   2   2   2   2   2   2
#     4  11  24  40  64  95 129 180 212 269 341 385
#     4   9  21  40  62  87 127 174 213 267 325 390
#     4  10  22  43  65  96 133 168 227 266 329 408
#     4  10  22  41  59  91 126 167 223 264 319 389
#     4  10  23  44  71  96 131 178 221 283 338 390
#     4  10  23  41  65  97 128 173 214 277 329 386
#     4  10  23  46  68  97 134 174 229 276 336 404
#     4  12  25  41  67 102 132 174 226 276 340 395
#
# _framework density 22.141517
#
# number of rings (size 3 to 8) (size 9 to 14) (size 15 to 20)
#    0.000    1.750    0.000    2.625    3.500    7.500 
#    4.500    5.000    0.000    0.000    0.000    0.000 
#    0.000    0.000    0.000    0.000    0.000    0.000 
#
# Total GULP energy -89235.533857 kJ/mol
# GULP energy per Si atom -5577.220866 kJ/mol
# Density = 2.209112 g / cm^3
# Si number density = 22.141517 Si / 1000 Ang^3
#
#
#
# Elastic Constant Matrix: (Units=GPa)
#
#
# Indices 1 2 3 4 5 6 
#
# 1 160.4228 52.6059 57.1421 6.4553 -7.1697 17.8698
# 2 52.6059 71.5557 15.8724 4.9988 0.8429 22.1792
# 3 57.1421 15.8724 92.5106 0.4579 1.9635 18.9220
# 4 6.4553 4.9988 0.4579 16.4999 3.4106 1.3758
# 5 -7.1697 0.8429 1.9635 3.4106 49.4316 3.3686
# 6 17.8698 22.1792 18.9220 1.3758 3.3686 34.6210
#
#
#
# Elastic Compliance Matrix: (Units=1/GPa)
#
#
# Indices 1 2 3 4 5 6 
#
# 1 0.010513 -0.006952 -0.005756 -0.002413 0.001896 0.002084
# 2 -0.006952 0.022441 0.002974 -0.003044 -0.000464 -0.012247
# 3 -0.005756 0.002974 0.015361 0.001764 -0.001121 -0.007291
# 4 -0.002413 -0.003044 0.001764 0.063392 -0.004754 0.000175
# 5 0.001896 -0.000464 -0.001121 -0.004754 0.021017 -0.001925
# 6 0.002084 -0.012247 -0.007291 0.000175 -0.001925 0.039819
#
#
# Mechanical properties :
#
#
# Convention : Reuss Voigt Hill
#
# Bulk Modulus (GPa) = 34.66588 63.97000 49.31794
# Shear Modulus (GPa) = 24.79847 33.36841 29.08344
#
# Velocity S-wave (km/s) = 3.35027 3.88629 3.62819
# Velocity P-wave (km/s) = 5.53681 7.00655 6.31459
#
# Compressibility (1/GPa) = 0.02884681
#
# Stress axis : x y z
#
# Youngs Moduli (GPa) = 95.12009 44.56208 65.10105
#
# Poissons Ratio (x) = 0.30980 0.37469
# Poissons Ratio (y) = 0.66128 -0.19360
# Poissons Ratio (z) = 0.54747 -0.13252
#
# Static dielectric constant tensor:
#      x y z
#    x 1.831110 0.086740 0.011630 
#    y 0.086740 1.841190 -0.043740 
#    z 0.011630 -0.043740 1.789590 
# 
# From -- ./inp_files/559663.got.cif
#   From: 2010.05.17/outbox.cif.g08.bks.cpg/sg2_280_cif.got.tgz:559663.got - 2010.06.03 11:33:40.
