data_PCOD9025430
_publ_section_title
;
Structure prediction by ZEFSAII (Michael W. Deem and Ramdas Pophale) SiO2 
 PCOD9025430
Probable space group: P -1
;
_chemical_formula_sum "Si O2"
_cell_formula_units_Z 15
_cell_length_a 24.867131
_cell_length_b 12.048003
_cell_length_c 5.232599
_cell_angle_alpha 125.654778
_cell_angle_beta 57.064760
_cell_angle_gamma 149.435765
_cell_volume 644.418194
_symmetry_space_group_name_H-M "P -1"
_symmetry_group_IT_number 2
_symmetry_cell_setting 'triclinic'
loop_
_space_group_symop_operation_xyz
x,y,z
-x,-y,-z
loop_
_atom_site_type_symbol
_atom_site_label
_atom_site_fract_x
_atom_site_fract_y
_atom_site_fract_z
Si Si1 0.069212 0.817447 0.549127
Si Si2 0.500000 0.000000 0.500000
Si Si3 0.443175 0.188615 0.768862
Si Si4 0.261188 0.967859 0.286272
Si Si5 0.823454 0.405936 0.684521
Si Si6 0.617371 0.656397 0.172460
Si Si7 0.831790 0.892696 0.799834
Si Si8 0.245374 0.548236 0.577021
O O1 0.144704 0.815411 0.299228
O O2 0.946002 0.575240 0.557500
O O3 0.096455 0.964723 0.443556
O O4 0.108349 0.947536 0.891048
O O5 0.471904 0.083689 0.489779
O O6 0.627457 0.235952 0.432099
O O7 0.439580 0.302234 0.722190
O O8 0.533176 0.391910 0.012818
O O9 0.331114 0.005296 0.956728
O O10 0.243904 0.844247 0.413753
O O11 0.331436 0.218660 0.521089
O O12 0.786326 0.427031 0.565346
O O13 0.807823 0.470489 0.065405
O O14 0.721344 0.790350 0.921813
O O15 0.797799 0.679261 0.637011
#
# Coordination Sequence:
#
# PCOD9025430 Si02
#       8
#     2   1   2   2   2   2   2   2
#     4  11  25  44  74 100 136 186 240 298 339 412
#     4  12  24  44  70 106 144 180 228 286 360 418
#     4  11  21  43  67 100 138 185 230 288 352 422
#     4  11  23  42  67 102 138 179 238 289 352 418
#     4  12  27  46  70 102 143 188 233 294 353 410
#     4  10  22  40  68  99 138 185 235 286 346 423
#     4  11  23  46  70 103 138 187 239 286 348 416
#     4  12  27  47  70 103 145 185 232 287 356 425
#
# _framework density 23.276809
#
# number of rings (size 3 to 8) (size 9 to 14) (size 15 to 20)
#    0.000    0.800    4.000    3.200    0.000    3.733 
#    2.400    3.333    0.000    0.000    0.000    0.000 
#    0.000    0.000    0.000    0.000    0.000    0.000 
#
# Total GULP energy -83678.629064 kJ/mol
# GULP energy per Si atom -5578.575271 kJ/mol
# Density = 2.322383 g / cm^3
# Si number density = 23.276809 Si / 1000 Ang^3
#
#
#
# Elastic Constant Matrix: (Units=GPa)
#
#
# Indices 1 2 3 4 5 6 
#
# 1 78.9761 14.4643 25.0747 -13.3447 8.4510 2.0998
# 2 14.4643 66.6404 13.5002 -21.5544 2.7280 4.2560
# 3 25.0747 13.5002 50.8937 -10.4569 14.3228 4.8420
# 4 -13.3447 -21.5544 -10.4569 33.3087 -8.0399 -9.3014
# 5 8.4510 2.7280 14.3228 -8.0399 32.5375 -6.0962
# 6 2.0998 4.2560 4.8420 -9.3014 -6.0962 37.6088
#
#
#
# Elastic Compliance Matrix: (Units=1/GPa)
#
#
# Indices 1 2 3 4 5 6 
#
# 1 0.015590 -0.000807 -0.006819 0.003940 0.000201 0.001106
# 2 -0.000807 0.019739 -0.003409 0.012806 0.003594 0.002000
# 3 -0.006819 -0.003409 0.027367 -0.000263 -0.010915 -0.004591
# 4 0.003940 0.012806 -0.000263 0.045809 0.011504 0.011559
# 5 0.000201 0.003594 -0.010915 0.011504 0.039959 0.010310
# 6 0.001106 0.002000 -0.004591 0.011559 0.010310 0.031423
#
#
# Mechanical properties :
#
#
# Convention : Reuss Voigt Hill
#
# Bulk Modulus (GPa) = 24.61478 33.62095 29.11787
# Shear Modulus (GPa) = 23.20198 30.25574 26.72886
#
# Velocity S-wave (km/s) = 3.16062 3.60922 3.39234
# Velocity P-wave (km/s) = 4.89051 5.64304 5.28020
#
# Compressibility (1/GPa) = 0.04062599
#
# Stress axis : x y z
#
# Youngs Moduli (GPa) = 64.14476 50.66194 36.53980
#
# Poissons Ratio (x) = 0.04087 0.24917
# Poissons Ratio (y) = 0.05174 0.12457
# Poissons Ratio (z) = 0.43741 0.17271
#
# Static dielectric constant tensor:
#      x y z
#    x 1.876160 -0.010330 -0.002960 
#    y -0.010330 1.860580 0.025330 
#    z -0.002960 0.025330 1.884380 
# 
# From -- ./inp_files/47834.got.cif
#   From: 2010.05.17/outbox.cif.g08.bks.cpg/sg2_24_cif.got.tgz:47834.got - 2010.06.03 11:33:40.
