data_PCOD9025720
_publ_section_title
;
Structure prediction by ZEFSAII (Michael W. Deem and Ramdas Pophale) SiO2 
 PCOD9025720
Probable space group: P -1
;
_chemical_formula_sum "Si O2"
_cell_formula_units_Z 16
_cell_length_a 20.322514
_cell_length_b 13.965423
_cell_length_c 9.470252
_cell_angle_alpha 134.471653
_cell_angle_beta 42.588729
_cell_angle_gamma 156.988655
_cell_volume 708.361719
_symmetry_space_group_name_H-M "P -1"
_symmetry_group_IT_number 2
_symmetry_cell_setting 'triclinic'
loop_
_space_group_symop_operation_xyz
x,y,z
-x,-y,-z
loop_
_atom_site_type_symbol
_atom_site_label
_atom_site_fract_x
_atom_site_fract_y
_atom_site_fract_z
Si Si1 0.263134 0.683802 0.892192
Si Si2 0.990365 0.780759 0.027413
Si Si3 0.113799 0.371859 0.538505
Si Si4 0.583598 0.534104 0.240719
Si Si5 0.216420 0.193393 0.526923
Si Si6 0.042640 0.696621 0.571288
Si Si7 0.588030 0.902503 0.755043
Si Si8 0.308383 0.333167 0.099228
O O1 0.207249 0.579158 0.715134
O O2 0.086943 0.440233 0.006598
O O3 0.430357 0.792530 0.802659
O O4 0.319555 0.897967 0.064959
O O5 0.871807 0.764310 0.265175
O O6 0.182587 0.061057 0.045575
O O7 0.993110 0.749074 0.824166
O O8 0.239800 0.387491 0.338471
O O9 0.069781 0.395142 0.485500
O O10 0.926052 0.082273 0.581198
O O11 0.400718 0.405242 0.368274
O O12 0.716030 0.760176 0.373052
O O13 0.511213 0.324238 0.227681
O O14 0.688761 0.626704 0.029700
O O15 0.250829 0.936758 0.443736
O O16 0.000000 0.500000 0.500000
O O17 0.500000 0.500000 0.000000
#
# Coordination Sequence:
#
# PCOD9025720 Si02
#       8
#     2   2   2   2   2   2   2   2
#     4  11  26  47  73 102 142 193 237 296 346 427
#     4  11  24  43  71 101 142 184 236 285 361 421
#     4  11  26  45  72 108 141 180 243 297 356 410
#     4  11  22  43  69 101 141 188 236 278 362 431
#     4  10  22  40  70  99 135 180 227 293 346 425
#     4  12  25  48  73 103 139 189 240 290 349 425
#     4  11  25  48  72  99 143 194 238 283 358 430
#     4  11  28  42  68 107 148 182 230 304 360 413
#
# _framework density 22.587330999999999
#
# number of rings (size 3 to 8) (size 9 to 14) (size 15 to 20)
#    0.000    1.000    3.750    1.500    7.000    3.500 
#    2.250    1.250    0.000    0.000    0.000    0.000 
#    0.000    0.000    0.000    0.000    0.000    0.000 
#
# Total GULP energy -89338.078447 kJ/mol
# GULP energy per Si atom -5583.629903 kJ/mol
# Density = 2.253592 g / cm^3
# Si number density = 22.587331 Si / 1000 Ang^3
#
#
#
# Elastic Constant Matrix: (Units=GPa)
#
#
# Indices 1 2 3 4 5 6 
#
# 1 65.8240 25.4724 7.5952 4.8764 5.7602 2.0284
# 2 25.4724 103.0532 6.1056 4.1996 -1.8785 -3.8796
# 3 7.5952 6.1056 68.1365 5.9860 18.9888 2.1288
# 4 4.8764 4.1996 5.9860 37.4933 1.6265 -4.3456
# 5 5.7602 -1.8785 18.9888 1.6265 29.9514 1.7171
# 6 2.0284 -3.8796 2.1288 -4.3456 1.7171 37.3752
#
#
#
# Elastic Compliance Matrix: (Units=1/GPa)
#
#
# Indices 1 2 3 4 5 6 
#
# 1 0.017358 -0.004302 -0.000482 -0.001727 -0.003128 -0.001418
# 2 -0.004302 0.010938 -0.001106 -0.000434 0.002164 0.001282
# 3 -0.000482 -0.001106 0.018226 -0.002332 -0.011355 -0.000876
# 4 -0.001727 -0.000434 -0.002332 0.027707 0.000084 0.003399
# 5 -0.003128 0.002164 -0.011355 0.000084 0.041368 -0.000850
# 6 -0.001418 0.001282 -0.000876 0.003399 -0.000850 0.027450
#
#
# Mechanical properties :
#
#
# Convention : Reuss Voigt Hill
#
# Bulk Modulus (GPa) = 28.78273 35.04002 31.91137
# Shear Modulus (GPa) = 30.04694 34.15334 32.10014
#
# Velocity S-wave (km/s) = 3.65122 3.89274 3.77391
# Velocity P-wave (km/s) = 5.52682 5.97924 5.75748
#
# Compressibility (1/GPa) = 0.03474305
#
# Stress axis : x y z
#
# Youngs Moduli (GPa) = 57.61121 91.42450 54.86684
#
# Poissons Ratio (x) = 0.39330 0.02643
# Poissons Ratio (y) = 0.24784 0.06067
# Poissons Ratio (z) = 0.02775 0.10109
#
# Static dielectric constant tensor:
#      x y z
#    x 1.934960 -0.001360 -0.046800 
#    y -0.001360 1.834380 0.002300 
#    z -0.046800 0.002300 1.912880 
# 
# From -- ./inp_files/347675.got.cif
#   From: 2010.05.17/outbox.cif.g08.bks.cpg/sg2_174_cif.got.tgz:347675.got - 2010.06.03 11:33:40.
