data_PCOD9025540
_publ_section_title
;
Structure prediction by ZEFSAII (Michael W. Deem and Ramdas Pophale) SiO2 
 PCOD9025540
Probable space group: P -1
;
_chemical_formula_sum "Si O2"
_cell_formula_units_Z 16
_cell_length_a 9.226577
_cell_length_b 12.605478
_cell_length_c 17.282030
_cell_angle_alpha 29.434648
_cell_angle_beta 116.632289
_cell_angle_gamma 129.760041
_cell_volume 727.185948
_symmetry_space_group_name_H-M "P -1"
_symmetry_group_IT_number 2
_symmetry_cell_setting 'triclinic'
loop_
_space_group_symop_operation_xyz
x,y,z
-x,-y,-z
loop_
_atom_site_type_symbol
_atom_site_label
_atom_site_fract_x
_atom_site_fract_y
_atom_site_fract_z
Si Si1 0.283744 0.636914 0.336598
Si Si2 0.638204 0.950803 0.117668
Si Si3 0.423568 0.482738 0.720731
Si Si4 0.709076 0.773571 0.863227
Si Si5 0.166949 0.169496 0.497307
Si Si6 0.199424 0.086040 0.034799
Si Si7 0.043561 0.774793 0.858085
Si Si8 0.771101 0.320265 0.535791
O O1 0.496731 0.772225 0.265798
O O2 0.155403 0.381263 0.413162
O O3 0.308863 0.617425 0.446472
O O4 0.225352 0.846403 0.185759
O O5 0.687956 0.785377 0.183554
O O6 0.830300 0.167118 0.070371
O O7 0.500000 0.000000 0.000000
O O8 0.633738 0.669921 0.609962
O O9 0.396406 0.357896 0.877702
O O10 0.293747 0.596604 0.607238
O O11 0.849181 0.767018 0.837871
O O12 0.692894 0.020514 0.692777
O O13 0.500000 0.500000 0.000000
O O14 0.820436 0.853849 0.920579
O O15 0.151345 0.975380 0.684090
O O16 0.000000 0.000000 0.500000
O O17 0.000000 0.000000 0.000000
O O18 0.000000 0.500000 0.000000
O O19 0.000000 0.500000 0.500000
#
# Coordination Sequence:
#
# PCOD9025540 Si02
#       8
#     2   2   2   2   2   2   2   2
#     4  10  22  40  69  95 138 180 237 285 353 411
#     4  11  22  40  71 102 136 179 238 290 343 418
#     4  11  23  41  71 106 136 181 243 288 354 423
#     4  11  28  46  71 103 144 185 238 300 366 428
#     4  11  27  43  68 103 149 188 239 298 359 419
#     4  11  23  42  72 102 138 184 238 288 355 433
#     4  12  29  46  74 101 144 190 241 290 368 433
#     4  11  22  44  71  96 136 183 238 298 358 428
#
# _framework density 22.002624999999998
#
# number of rings (size 3 to 8) (size 9 to 14) (size 15 to 20)
#    0.000    1.000    1.250    5.250   10.500    2.000 
#    0.000    0.625    0.000    0.000    0.000    0.000 
#    0.000    0.000    0.000    0.000    0.000    0.000 
#
# Total GULP energy -89208.953364 kJ/mol
# GULP energy per Si atom -5575.559585 kJ/mol
# Density = 2.195255 g / cm^3
# Si number density = 22.002625 Si / 1000 Ang^3
#
#
#
# Elastic Constant Matrix: (Units=GPa)
#
#
# Indices 1 2 3 4 5 6 
#
# 1 72.4658 13.2875 28.2760 -10.2806 -12.8373 -10.2946
# 2 13.2875 97.7130 41.6813 -15.2928 17.1189 10.4517
# 3 28.2760 41.6813 132.8691 -8.1076 1.2780 0.7833
# 4 -10.2806 -15.2928 -8.1076 37.3488 -6.4489 -2.4990
# 5 -12.8373 17.1189 1.2780 -6.4489 33.3857 0.9772
# 6 -10.2946 10.4517 0.7833 -2.4990 0.9772 35.1343
#
#
#
# Elastic Compliance Matrix: (Units=1/GPa)
#
#
# Indices 1 2 3 4 5 6 
#
# 1 0.018905 -0.002870 -0.002918 0.005514 0.009725 0.006580
# 2 -0.002870 0.014456 -0.003658 0.002691 -0.007720 -0.004654
# 3 -0.002918 -0.003658 0.009278 -0.000226 0.000355 0.000000
# 4 0.005514 0.002691 -0.000226 0.030672 0.006592 0.002819
# 5 0.009725 -0.007720 0.000355 0.006592 0.038778 0.004529
# 6 0.006580 -0.004654 0.000000 0.002819 0.004529 0.031849
#
#
# Mechanical properties :
#
#
# Convention : Reuss Voigt Hill
#
# Bulk Modulus (GPa) = 42.11533 52.17084 47.14309
# Shear Modulus (GPa) = 29.28307 35.82728 32.55518
#
# Velocity S-wave (km/s) = 3.65209 4.03962 3.85074
# Velocity P-wave (km/s) = 6.07999 6.74690 6.42211
#
# Compressibility (1/GPa) = 0.02374432
#
# Stress axis : x y z
#
# Youngs Moduli (GPa) = 52.89719 69.17369 107.78542
#
# Poissons Ratio (x) = 0.19856 0.31457
# Poissons Ratio (y) = 0.15184 0.39431
# Poissons Ratio (z) = 0.15438 0.25306
#
# Static dielectric constant tensor:
#      x y z
#    x 1.903280 0.006170 -0.026730 
#    y 0.006170 1.807490 -0.025250 
#    z -0.026730 -0.025250 1.817620 
# 
# From -- ./inp_files/559557.got.cif
#   From: 2010.05.17/outbox.cif.g08.bks.cpg/sg2_280_cif.got.tgz:559557.got - 2010.06.03 11:33:40.
