data_PCOD9025192
_publ_section_title
;
Structure prediction by ZEFSAII (Michael W. Deem and Ramdas Pophale) SiO2 
 PCOD9025192
Probable space group: P -1
;
_chemical_formula_sum "Si O2"
_cell_formula_units_Z 16
_cell_length_a 8.986304
_cell_length_b 13.913161
_cell_length_c 7.631590
_cell_angle_alpha 124.390911
_cell_angle_beta 105.914670
_cell_angle_gamma 106.357709
_cell_volume 632.354275
_symmetry_space_group_name_H-M "P -1"
_symmetry_group_IT_number 2
_symmetry_cell_setting 'triclinic'
loop_
_space_group_symop_operation_xyz
x,y,z
-x,-y,-z
loop_
_atom_site_type_symbol
_atom_site_label
_atom_site_fract_x
_atom_site_fract_y
_atom_site_fract_z
Si Si1 0.031508 0.725426 0.839142
Si Si2 0.202721 0.027445 0.122019
Si Si3 0.516057 0.318607 0.397773
Si Si4 0.280840 0.111528 0.639028
Si Si5 0.984467 0.802725 0.300186
Si Si6 0.851572 0.352657 0.712595
Si Si7 0.368257 0.475681 0.667400
Si Si8 0.679436 0.316148 0.970729
O O1 0.144187 0.653298 0.831072
O O2 0.836565 0.633050 0.586435
O O3 0.989550 0.757847 0.055803
O O4 0.165098 0.874289 0.941496
O O5 0.356749 0.154855 0.184858
O O6 0.264004 0.076684 0.392194
O O7 0.000000 0.000000 0.000000
O O8 0.721936 0.352783 0.524075
O O9 0.468817 0.392762 0.613244
O O10 0.522212 0.398901 0.308953
O O11 0.206802 0.212064 0.741235
O O12 0.141098 0.966340 0.539672
O O13 0.489414 0.183698 0.842006
O O14 0.039476 0.720509 0.359657
O O15 0.707656 0.274379 0.744783
O O16 0.000000 0.500000 0.000000
O O17 0.342422 0.553551 0.899961
#
# Coordination Sequence:
#
# PCOD9025192 Si02
#       8
#     2   2   2   2   2   2   2   2
#     4  10  22  42  67  92 129 175 209 270 330 380
#     4  11  22  42  66  94 131 168 218 267 327 384
#     4  11  24  41  64  95 127 175 213 266 327 383
#     4  10  22  40  67  98 122 171 216 266 319 388
#     4   9  22  40  66  91 132 161 213 263 329 379
#     4  11  24  42  65  97 130 167 214 275 323 375
#     4  11  25  42  65  91 136 174 217 259 331 392
#     4  11  24  40  70  94 126 169 225 262 316 392
#
# _framework density 25.30227
#
# number of rings (size 3 to 8) (size 9 to 14) (size 15 to 20)
#    0.000    1.500    2.500    1.875    7.000    4.000 
#    2.250    0.625    0.000    0.000    0.000    0.000 
#    0.000    0.000    0.000    0.000    0.000    0.000 
#
# Total GULP energy -89600.697739 kJ/mol
# GULP energy per Si atom -5600.043609 kJ/mol
# Density = 2.524468 g / cm^3
# Si number density = 25.302270 Si / 1000 Ang^3
#
#
#
# Elastic Constant Matrix: (Units=GPa)
#
#
# Indices 1 2 3 4 5 6 
#
# 1 89.8486 17.4984 28.6558 3.8852 13.5470 -3.4246
# 2 17.4984 74.8306 15.1252 20.3441 5.2304 2.6515
# 3 28.6558 15.1252 91.7940 3.0120 14.2537 3.1743
# 4 3.8852 20.3441 3.0120 30.4302 4.6855 5.3123
# 5 13.5470 5.2304 14.2537 4.6855 47.1226 3.6137
# 6 -3.4246 2.6515 3.1743 5.3123 3.6137 39.4624
#
#
#
# Elastic Compliance Matrix: (Units=1/GPa)
#
#
# Indices 1 2 3 4 5 6 
#
# 1 0.013116 -0.002354 -0.003365 0.000334 -0.002660 0.001766
# 2 -0.002354 0.017284 -0.001817 -0.011180 0.000400 0.000249
# 3 -0.003365 -0.001817 0.012664 0.000991 -0.002678 -0.001077
# 4 0.000334 -0.011180 0.000991 0.041451 -0.002923 -0.004612
# 5 -0.002660 0.000400 -0.002678 -0.002923 0.023178 -0.001771
# 6 0.001766 0.000249 -0.001077 -0.004612 -0.001771 0.026347
#
#
# Mechanical properties :
#
#
# Convention : Reuss Voigt Hill
#
# Bulk Modulus (GPa) = 35.72593 42.11465 38.92029
# Shear Modulus (GPa) = 31.55717 36.41597 33.98657
#
# Velocity S-wave (km/s) = 3.53541 3.79784 3.66898
# Velocity P-wave (km/s) = 5.55120 5.99268 5.77616
#
# Compressibility (1/GPa) = 0.02799087
#
# Stress axis : x y z
#
# Youngs Moduli (GPa) = 76.24529 57.85733 78.96121
#
# Poissons Ratio (x) = 0.13620 0.26574
# Poissons Ratio (y) = 0.17949 0.14347
# Poissons Ratio (z) = 0.25660 0.10513
#
# Static dielectric constant tensor:
#      x y z
#    x 2.004460 0.032900 -0.047050 
#    y 0.032900 2.047820 -0.037330 
#    z -0.047050 -0.037330 2.003380 
# 
# From -- ./inp_files/205532.got.cif
#   From: 2010.05.17/outbox.cif.g08.bks.cpg/sg2_103_cif.got.tgz:205532.got - 2010.06.03 11:33:40.
