data_PCOD9025213
_publ_section_title
;
Structure prediction by ZEFSAII (Michael W. Deem and Ramdas Pophale) SiO2 
 PCOD9025213
Probable space group: P -1
;
_chemical_formula_sum "Si O2"
_cell_formula_units_Z 14
_cell_length_a 9.969264
_cell_length_b 7.267272
_cell_length_c 8.580058
_cell_angle_alpha 77.811920
_cell_angle_beta 88.785490
_cell_angle_gamma 70.364227
_cell_volume 571.438303
_symmetry_space_group_name_H-M "P -1"
_symmetry_group_IT_number 2
_symmetry_cell_setting 'triclinic'
loop_
_space_group_symop_operation_xyz
x,y,z
-x,-y,-z
loop_
_atom_site_type_symbol
_atom_site_label
_atom_site_fract_x
_atom_site_fract_y
_atom_site_fract_z
Si Si1 0.699168 0.895147 0.873899
Si Si2 0.056576 0.990421 0.677589
Si Si3 0.233601 0.732194 0.271224
Si Si4 0.006479 0.381786 0.181871
Si Si5 0.639116 0.453378 0.399789
Si Si6 0.538764 0.620987 0.839798
Si Si7 0.210923 0.248714 0.750772
O O1 0.569027 0.818137 0.856839
O O2 0.832029 0.767296 0.783426
O O3 0.676427 0.123578 0.797153
O O4 0.750073 0.841184 0.060382
O O5 0.930455 0.130640 0.770559
O O6 0.180443 0.085391 0.672390
O O7 0.000000 0.000000 0.500000
O O8 0.085661 0.766441 0.781631
O O9 0.241810 0.676262 0.462735
O O10 0.312550 0.530101 0.210936
O O11 0.935098 0.556787 0.274201
O O12 0.000000 0.500000 0.000000
O O13 0.500000 0.500000 0.500000
O O14 0.593088 0.344055 0.278825
O O15 0.673193 0.651021 0.318394
O O16 0.500000 0.500000 0.000000
#
# Coordination Sequence:
#
# PCOD9025213 Si02
#       7
#     2   2   2   2   2   2   2
#     4  10  22  40  67  99 127 168 216 272 328 384
#     4  11  24  41  65 100 131 172 217 262 333 397
#     4  10  24  43  64  97 135 165 218 277 322 385
#     4   9  21  39  66  96 128 164 207 264 333 387
#     4  10  23  43  64  91 130 175 216 267 322 378
#     4  11  22  43  68  94 127 173 225 263 321 385
#     4  11  22  42  65  94 134 171 215 271 323 389
#
# _framework density 24.499580000000002
#
# number of rings (size 3 to 8) (size 9 to 14) (size 15 to 20)
#    0.000    1.714    1.429    1.714    0.000   15.429 
#    2.571    0.000    0.000    0.000    0.000    0.000 
#    0.000    0.000    0.000    0.000    0.000    0.000 
#
# Total GULP energy -78266.869358 kJ/mol
# GULP energy per Si atom -5590.490668 kJ/mol
# Density = 2.444382 g / cm^3
# Si number density = 24.499580 Si / 1000 Ang^3
#
#
#
# Elastic Constant Matrix: (Units=GPa)
#
#
# Indices 1 2 3 4 5 6 
#
# 1 70.2761 40.2007 11.8818 11.3414 -13.6373 26.8809
# 2 40.2007 142.2350 25.1138 -10.3046 5.6984 36.2482
# 3 11.8818 25.1138 89.3519 -7.9881 -1.5479 18.3444
# 4 11.3414 -10.3046 -7.9881 34.7467 8.4473 -5.7347
# 5 -13.6373 5.6984 -1.5479 8.4473 26.9404 6.0449
# 6 26.8809 36.2482 18.3444 -5.7347 6.0449 68.2819
#
#
#
# Elastic Compliance Matrix: (Units=1/GPa)
#
#
# Indices 1 2 3 4 5 6 
#
# 1 0.033747 -0.008950 -0.000902 -0.023044 0.029021 -0.012796
# 2 -0.008950 0.010834 -0.001214 0.008057 -0.009328 -0.000399
# 3 -0.000902 -0.001214 0.012305 0.002351 0.000248 -0.002130
# 4 -0.023044 0.008057 0.002351 0.048561 -0.030924 0.010979
# 5 0.029021 -0.009328 0.000248 -0.030924 0.066871 -0.015056
# 6 -0.012796 -0.000399 -0.002130 0.010979 -0.015056 0.022722
#
#
# Mechanical properties :
#
#
# Convention : Reuss Voigt Hill
#
# Bulk Modulus (GPa) = 28.77474 50.69505 39.73490
# Shear Modulus (GPa) = 21.85731 40.97160 31.41445
#
# Velocity S-wave (km/s) = 2.99013 4.09386 3.58473
# Velocity P-wave (km/s) = 4.86741 6.56379 5.77819
#
# Compressibility (1/GPa) = 0.03475270
#
# Stress axis : x y z
#
# Youngs Moduli (GPa) = 29.63248 92.30463 81.26871
#
# Poissons Ratio (x) = 0.82610 0.07333
# Poissons Ratio (y) = 0.26520 0.09868
# Poissons Ratio (z) = 0.02674 0.11208
#
# Static dielectric constant tensor:
#      x y z
#    x 2.094660 -0.051500 0.044650 
#    y -0.051500 1.917750 -0.001180 
#    z 0.044650 -0.001180 1.917940 
# 
# From -- ./inp_files/49474.got.cif
#   From: 2010.05.17/outbox.cif.g08.bks.cpg/sg2_25_cif.got.tgz:49474.got - 2010.06.03 11:33:40.
