data_PCOD9025039
_publ_section_title
;
Structure prediction by ZEFSAII (Michael W. Deem and Ramdas Pophale) SiO2 
 PCOD9025039
Probable space group: P -1
;
_chemical_formula_sum "Si O2"
_cell_formula_units_Z 16
_cell_length_a 8.960329
_cell_length_b 10.861468
_cell_length_c 8.175421
_cell_angle_alpha 112.228208
_cell_angle_beta 76.190669
_cell_angle_gamma 89.833879
_cell_volume 711.378741
_symmetry_space_group_name_H-M "P -1"
_symmetry_group_IT_number 2
_symmetry_cell_setting 'triclinic'
loop_
_space_group_symop_operation_xyz
x,y,z
-x,-y,-z
loop_
_atom_site_type_symbol
_atom_site_label
_atom_site_fract_x
_atom_site_fract_y
_atom_site_fract_z
Si Si1 0.652705 0.595989 0.746077
Si Si2 0.597632 0.033659 0.332380
Si Si3 0.037756 0.647761 0.094634
Si Si4 0.305627 0.042919 0.201988
Si Si5 0.803915 0.795432 0.009663
Si Si6 0.220732 0.281591 0.548235
Si Si7 0.358735 0.738569 0.041474
Si Si8 0.549966 0.300687 0.634305
O O1 0.748441 0.634553 0.581801
O O2 0.620101 0.442142 0.672576
O O3 0.735618 0.654754 0.911868
O O4 0.483495 0.680847 0.846750
O O5 0.487203 0.043690 0.205065
O O6 0.639109 0.182207 0.441217
O O7 0.500000 0.000000 0.500000
O O8 0.723591 0.908293 0.209526
O O9 0.968597 0.746977 0.018692
O O10 0.940369 0.686855 0.303141
O O11 0.219347 0.650235 0.053244
O O12 0.000000 0.500000 0.000000
O O13 0.230834 0.126113 0.416199
O O14 0.286446 0.889162 0.107225
O O15 0.230253 0.124938 0.110439
O O16 0.370523 0.308700 0.630778
O O17 0.438119 0.739508 0.199110
#
# Coordination Sequence:
#
# PCOD9025039 Si02
#       8
#     2   2   2   2   2   2   2   2
#     4  11  22  43  71 101 127 175 229 280 318 397
#     4  11  19  37  66 103 133 170 219 279 333 386
#     4  12  27  47  65  94 138 183 216 274 346 399
#     4  10  22  40  67 103 127 174 225 279 324 396
#     4  11  23  43  69  91 138 178 222 269 343 395
#     4  10  24  43  68  95 137 171 221 274 341 393
#     4  12  24  40  69  98 134 171 229 273 328 397
#     4  11  22  38  68 103 130 171 227 278 326 393
#
# _framework density 22.491534999999999
#
# number of rings (size 3 to 8) (size 9 to 14) (size 15 to 20)
#    0.000    1.000    2.500    4.875    3.500    1.000 
#    0.000    8.125    0.000    0.000    0.000    0.000 
#    0.000    0.000    0.000    0.000    0.000    0.000 
#
# Total GULP energy -89325.308317 kJ/mol
# GULP energy per Si atom -5582.831770 kJ/mol
# Density = 2.244034 g / cm^3
# Si number density = 22.491535 Si / 1000 Ang^3
#
#
#
# Elastic Constant Matrix: (Units=GPa)
#
#
# Indices 1 2 3 4 5 6 
#
# 1 44.0837 -10.0992 10.8005 -9.5979 8.5659 3.1684
# 2 -10.0992 113.9392 19.1702 15.1029 19.4491 9.4449
# 3 10.8005 19.1702 61.9181 1.2245 16.0909 -0.5925
# 4 -9.5979 15.1029 1.2245 43.9102 1.3882 13.6700
# 5 8.5659 19.4491 16.0909 1.3882 25.6389 -1.4338
# 6 3.1684 9.4449 -0.5925 13.6700 -1.4338 38.7266
#
#
#
# Elastic Compliance Matrix: (Units=1/GPa)
#
#
# Indices 1 2 3 4 5 6 
#
# 1 0.029019 0.004791 -0.003692 0.007220 -0.011772 -0.006583
# 2 0.004791 0.011579 -0.002029 -0.001653 -0.009190 -0.003004
# 3 -0.003692 -0.002029 0.019956 -0.000665 -0.009661 0.000979
# 4 0.007220 -0.001653 -0.000665 0.028225 -0.002843 -0.010266
# 5 -0.011772 -0.009190 -0.009661 -0.002843 0.056469 0.006151
# 6 -0.006583 -0.003004 0.000979 -0.010266 0.006151 0.030960
#
#
# Mechanical properties :
#
#
# Convention : Reuss Voigt Hill
#
# Bulk Modulus (GPa) = 17.03700 28.85374 22.94537
# Shear Modulus (GPa) = 25.29979 34.99311 30.14645
#
# Velocity S-wave (km/s) = 3.35753 3.94869 3.66505
# Velocity P-wave (km/s) = 4.75626 5.80052 5.30415
#
# Compressibility (1/GPa) = 0.05869577
#
# Stress axis : x y z
#
# Youngs Moduli (GPa) = 34.46051 86.35964 50.11133
#
# Poissons Ratio (x) = -0.41379 0.18500
# Poissons Ratio (y) = -0.16512 0.10166
# Poissons Ratio (z) = 0.12722 0.17519
#
# Static dielectric constant tensor:
#      x y z
#    x 1.828940 -0.012020 0.000980 
#    y -0.012020 1.884720 -0.009050 
#    z 0.000980 -0.009050 1.881540 
# 
# From -- ./inp_files/189192.got.cif
#   From: 2010.05.17/outbox.cif.g08.bks.cpg/sg2_95_cif.got.tgz:189192.got - 2010.06.03 11:33:40.
