data_PCOD9025828
_publ_section_title
;
Structure prediction by ZEFSAII (Michael W. Deem and Ramdas Pophale) SiO2 
 PCOD9025828
Probable space group: P -1
;
_chemical_formula_sum "Si O2"
_cell_formula_units_Z 15
_cell_length_a 9.101759
_cell_length_b 19.352469
_cell_length_c 9.529834
_cell_angle_alpha 28.695196
_cell_angle_beta 59.909800
_cell_angle_gamma 52.156462
_cell_volume 633.468769
_symmetry_space_group_name_H-M "P -1"
_symmetry_group_IT_number 2
_symmetry_cell_setting 'triclinic'
loop_
_space_group_symop_operation_xyz
x,y,z
-x,-y,-z
loop_
_atom_site_type_symbol
_atom_site_label
_atom_site_fract_x
_atom_site_fract_y
_atom_site_fract_z
Si Si1 0.412214 0.950443 0.333949
Si Si2 0.000000 0.000000 0.500000
Si Si3 0.459926 0.183140 0.215991
Si Si4 0.913549 0.185654 0.679384
Si Si5 0.166574 0.783560 0.039985
Si Si6 0.048092 0.370269 0.085459
Si Si7 0.158806 0.527609 0.288430
Si Si8 0.529509 0.209986 0.709254
O O1 0.540130 0.810625 0.625051
O O2 0.419103 0.879246 0.304663
O O3 0.203501 0.009743 0.386976
O O4 0.479573 0.091096 0.042817
O O5 0.973628 0.050644 0.253962
O O6 0.259565 0.307618 0.039759
O O7 0.500000 0.000000 0.500000
O O8 0.633350 0.216883 0.022070
O O9 0.909127 0.260777 0.702381
O O10 0.703236 0.238919 0.631104
O O11 0.029093 0.228135 0.432190
O O12 0.000000 0.000000 0.000000
O O13 0.184618 0.670647 0.099812
O O14 0.000000 0.500000 0.000000
O O15 0.909499 0.425281 0.921753
O O16 0.348570 0.371700 0.486393
O O17 0.000000 0.500000 0.500000
#
# Coordination Sequence:
#
# PCOD9025828 Si02
#       8
#     2   1   2   2   2   2   2   2
#     4  10  22  43  73 105 147 194 248 312 372 450
#     4  10  22  40  72 106 142 188 246 306 368 448
#     4  11  25  44  75 108 144 193 254 314 377 452
#     4  12  27  48  77 111 148 197 255 314 382 453
#     4  11  26  44  76 105 148 191 250 307 378 449
#     4  12  29  50  76 109 157 199 254 318 388 460
#     4  12  29  47  76 109 153 203 252 314 386 452
#     4  11  25  45  72 104 152 197 250 304 381 453
#
# _framework density 23.679147
#
# number of rings (size 3 to 8) (size 9 to 14) (size 15 to 20)
#    0.000    0.800    0.000    5.600   14.933    4.267 
#    0.000    0.000    0.000    0.000    0.000    0.000 
#    0.000    0.000    0.000    0.000    0.000    0.000 
#
# Total GULP energy -83781.356613 kJ/mol
# GULP energy per Si atom -5585.423774 kJ/mol
# Density = 2.362525 g / cm^3
# Si number density = 23.679147 Si / 1000 Ang^3
#
#
#
# Elastic Constant Matrix: (Units=GPa)
#
#
# Indices 1 2 3 4 5 6 
#
# 1 103.7657 20.3387 -0.4516 -5.3943 13.9137 -5.3011
# 2 20.3387 74.8224 13.5127 -1.6471 5.7389 15.7097
# 3 -0.4516 13.5127 47.7532 15.5122 16.0011 8.2443
# 4 -5.3943 -1.6471 15.5122 42.2066 3.2894 3.5594
# 5 13.9137 5.7389 16.0011 3.2894 41.5610 -4.4104
# 6 -5.3011 15.7097 8.2443 3.5594 -4.4104 46.4218
#
#
#
# Elastic Compliance Matrix: (Units=1/GPa)
#
#
# Indices 1 2 3 4 5 6 
#
# 1 0.010927 -0.003329 0.001775 0.000770 -0.003768 0.001642
# 2 -0.003329 0.016238 -0.004396 0.002283 -0.000177 -0.005286
# 3 0.001775 -0.004396 0.029733 -0.009680 -0.011082 -0.003901
# 4 0.000770 0.002283 -0.009680 0.027453 0.000876 -0.000987
# 5 -0.003768 -0.000177 -0.011082 0.000876 0.030009 0.004382
# 6 0.001642 -0.005286 -0.003901 -0.000987 0.004382 0.024703
#
#
# Mechanical properties :
#
#
# Convention : Reuss Voigt Hill
#
# Bulk Modulus (GPa) = 22.22458 32.57122 27.39790
# Shear Modulus (GPa) = 30.12718 38.90063 34.51390
#
# Velocity S-wave (km/s) = 3.57081 4.05757 3.82195
# Velocity P-wave (km/s) = 5.13878 5.97804 5.57423
#
# Compressibility (1/GPa) = 0.04499522
#
# Stress axis : x y z
#
# Youngs Moduli (GPa) = 91.52004 61.58508 33.63255
#
# Poissons Ratio (x) = 0.20505 -0.05968
# Poissons Ratio (y) = 0.30471 0.14785
# Poissons Ratio (z) = -0.16241 0.27074
#
# Static dielectric constant tensor:
#      x y z
#    x 1.891250 0.041210 -0.009080 
#    y 0.041210 1.936960 -0.041680 
#    z -0.009080 -0.041680 1.979740 
# 
# From -- ./inp_files/216324.got.cif
#   From: 2010.05.17/outbox.cif.g08.bks.cpg/sg2_109_cif.got.tgz:216324.got - 2010.06.03 11:33:40.
