data_PCOD9025734
_publ_section_title
;
Structure prediction by ZEFSAII (Michael W. Deem and Ramdas Pophale) SiO2 
 PCOD9025734
Probable space group: P -1
;
_chemical_formula_sum "Si O2"
_cell_formula_units_Z 14
_cell_length_a 11.673931
_cell_length_b 16.644933
_cell_length_c 8.118648
_cell_angle_alpha 55.392059
_cell_angle_beta 39.886094
_cell_angle_gamma 34.774896
_cell_volume 568.546623
_symmetry_space_group_name_H-M "P -1"
_symmetry_group_IT_number 2
_symmetry_cell_setting 'triclinic'
loop_
_space_group_symop_operation_xyz
x,y,z
-x,-y,-z
loop_
_atom_site_type_symbol
_atom_site_label
_atom_site_fract_x
_atom_site_fract_y
_atom_site_fract_z
Si Si1 0.838237 0.433632 0.397636
Si Si2 0.339042 0.313387 0.839569
Si Si3 0.014302 0.927064 0.305584
Si Si4 0.467409 0.079707 0.603736
Si Si5 0.980452 0.391762 0.652442
Si Si6 0.511931 0.383771 0.859335
Si Si7 0.228023 0.013025 0.169431
O O1 0.680230 0.599163 0.384498
O O2 0.969220 0.359211 0.515464
O O3 0.654576 0.417700 0.578733
O O4 0.070035 0.361942 0.097515
O O5 0.374731 0.366168 0.901690
O O6 0.570373 0.144290 0.787673
O O7 0.972521 0.889310 0.574028
O O8 0.260115 0.774736 0.128308
O O9 0.744338 0.020998 0.399197
O O10 0.090124 0.006701 0.181907
O O11 0.227129 0.247930 0.639973
O O12 0.500000 0.000000 0.500000
O O13 0.380764 0.042964 0.891231
O O14 0.000000 0.500000 0.500000
O O15 0.703942 0.484268 0.937202
#
# Coordination Sequence:
#
# PCOD9025734 Si02
#       7
#     2   2   2   2   2   2   2
#     4  11  23  42  67  99 139 181 225 278 355 397
#     4  10  22  40  71 101 138 175 228 293 332 414
#     4  10  24  45  72 101 140 179 236 288 339 414
#     4  12  27  46  73 102 143 188 226 285 346 419
#     4  12  27  47  68 102 144 181 231 282 347 414
#     4  11  23  44  70 101 137 179 233 289 336 417
#     4  10  23  45  69 103 135 180 237 282 350 401
#
# _framework density 24.624189000000001
#
# number of rings (size 3 to 8) (size 9 to 14) (size 15 to 20)
#    0.000    1.143    1.429    3.857    4.000    5.143 
#    2.571    0.000    0.000    0.000    0.000    0.000 
#    0.000    0.000    0.000    0.000    0.000    0.000 
#
# Total GULP energy -78431.358128 kJ/mol
# GULP energy per Si atom -5602.239866 kJ/mol
# Density = 2.456814 g / cm^3
# Si number density = 24.624189 Si / 1000 Ang^3
#
#
#
# Elastic Constant Matrix: (Units=GPa)
#
#
# Indices 1 2 3 4 5 6 
#
# 1 79.3997 36.0517 12.6373 9.1378 -13.4163 -10.8675
# 2 36.0517 167.1806 39.7696 17.4206 -11.9054 -22.6032
# 3 12.6373 39.7696 77.2022 7.5840 -27.2208 -0.1280
# 4 9.1378 17.4206 7.5840 33.9429 -1.3474 -1.3812
# 5 -13.4163 -11.9054 -27.2208 -1.3474 33.8548 3.0010
# 6 -10.8675 -22.6032 -0.1280 -1.3812 3.0010 37.4471
#
#
#
# Elastic Compliance Matrix: (Units=1/GPa)
#
#
# Indices 1 2 3 4 5 6 
#
# 1 0.015158 -0.002529 0.001096 -0.002708 0.005685 0.002321
# 2 -0.002529 0.008246 -0.004301 -0.002496 -0.002041 0.004300
# 3 0.001096 -0.004301 0.020801 -0.002250 0.015873 -0.003562
# 4 -0.002708 -0.002496 -0.002250 0.031841 -0.002410 -0.000933
# 5 0.005685 -0.002041 0.015873 -0.002410 0.044018 -0.003144
# 6 0.002321 0.004300 -0.003562 -0.000933 -0.003144 0.030179
#
#
# Mechanical properties :
#
#
# Convention : Reuss Voigt Hill
#
# Bulk Modulus (GPa) = 30.54634 55.63330 43.08982
# Shear Modulus (GPa) = 28.96460 36.73724 32.85092
#
# Velocity S-wave (km/s) = 3.43339 3.86672 3.65648
# Velocity P-wave (km/s) = 5.30561 6.52514 5.94672
#
# Compressibility (1/GPa) = 0.03273715
#
# Stress axis : x y z
#
# Youngs Moduli (GPa) = 65.97095 121.26686 48.07416
#
# Poissons Ratio (x) = 0.30664 -0.05268
# Poissons Ratio (y) = 0.16682 0.20679
# Poissons Ratio (z) = -0.07229 0.52162
#
# Static dielectric constant tensor:
#      x y z
#    x 1.982000 -0.002320 0.031490 
#    y -0.002320 1.976250 0.024570 
#    z 0.031490 0.024570 1.989580 
# 
# From -- ./inp_files/278933.got.cif
#   From: 2010.05.17/outbox.cif.g08.bks.cpg/sg2_140_cif.got.tgz:278933.got - 2010.06.03 11:33:40.
