data_PCOD9025800
_publ_section_title
;
Structure prediction by ZEFSAII (Michael W. Deem and Ramdas Pophale) SiO2 
 PCOD9025800
Probable space group: P -1
;
_chemical_formula_sum "Si O2"
_cell_formula_units_Z 12
_cell_length_a 14.955455
_cell_length_b 11.648095
_cell_length_c 9.589617
_cell_angle_alpha 126.800863
_cell_angle_beta 27.957621
_cell_angle_gamma 135.293949
_cell_volume 548.845434
_symmetry_space_group_name_H-M "P -1"
_symmetry_group_IT_number 2
_symmetry_cell_setting 'triclinic'
loop_
_space_group_symop_operation_xyz
x,y,z
-x,-y,-z
loop_
_atom_site_type_symbol
_atom_site_label
_atom_site_fract_x
_atom_site_fract_y
_atom_site_fract_z
Si Si1 0.564307 0.372808 0.748946
Si Si2 0.946841 0.495583 0.735189
Si Si3 0.932669 0.993768 0.292082
Si Si4 0.287570 0.875966 0.118670
Si Si5 0.343587 0.004995 0.836060
Si Si6 0.744424 0.727480 0.155197
O O1 0.435962 0.198163 0.877340
O O2 0.465822 0.343015 0.706404
O O3 0.820014 0.431143 0.453960
O O4 0.500000 0.500000 0.000000
O O5 0.802334 0.309473 0.846960
O O6 0.000000 0.500000 0.500000
O O7 0.813302 0.594247 0.010861
O O8 0.881664 0.064979 0.551309
O O9 0.737866 0.840651 0.371177
O O10 0.106335 0.935706 0.047530
O O11 0.053503 0.144382 0.127350
O O12 0.500000 0.000000 0.000000
O O13 0.331723 0.908030 0.919108
O O14 0.500000 0.000000 0.500000
#
# Coordination Sequence:
#
# PCOD9025800 Si02
#       6
#     2   2   2   2   2   2
#     4  11  22  39  71  98 133 185 229 277 352 409
#     4  12  21  43  68 100 141 182 231 290 345 410
#     4  10  22  44  70 100 141 178 233 284 347 410
#     4  12  27  43  71 105 139 184 235 284 347 418
#     4  11  25  46  73 101 138 186 231 287 348 415
#     4  10  22  40  72 101 134 185 226 283 351 414
#
# _framework density 21.864080000000001
#
# number of rings (size 3 to 8) (size 9 to 14) (size 15 to 20)
#    0.000    1.000    3.333    3.500    7.000    0.000 
#    0.000    5.833    0.000    0.000    0.000    0.000 
#    0.000    0.000    0.000    0.000    0.000    0.000 
#
# Total GULP energy -67138.844583 kJ/mol
# GULP energy per Si atom -5594.903715 kJ/mol
# Density = 2.181432 g / cm^3
# Si number density = 21.864080 Si / 1000 Ang^3
#
#
#
# Elastic Constant Matrix: (Units=GPa)
#
#
# Indices 1 2 3 4 5 6 
#
# 1 159.5845 90.0848 55.2685 -9.7485 -12.5736 -5.8416
# 2 90.0848 142.7298 31.9268 -4.4042 2.3095 -6.8677
# 3 55.2685 31.9268 74.5786 8.1460 5.7145 -14.2695
# 4 -9.7485 -4.4042 8.1460 34.7395 3.8904 -6.0463
# 5 -12.5736 2.3095 5.7145 3.8904 47.6718 -8.8527
# 6 -5.8416 -6.8677 -14.2695 -6.0463 -8.8527 38.2584
#
#
#
# Elastic Compliance Matrix: (Units=1/GPa)
#
#
# Indices 1 2 3 4 5 6 
#
# 1 0.013315 -0.006594 -0.007920 0.004194 0.004358 -0.000433
# 2 -0.006594 0.011132 0.000428 -0.000186 -0.002201 0.000612
# 3 -0.007920 0.000428 0.020938 -0.005846 -0.003212 0.005010
# 4 0.004194 -0.000186 -0.005846 0.031925 -0.000151 0.003437
# 5 0.004358 -0.002201 -0.003212 -0.000151 0.023462 0.004477
# 6 -0.000433 0.000612 0.005010 0.003437 0.004477 0.029629
#
#
# Mechanical properties :
#
#
# Convention : Reuss Voigt Hill
#
# Bulk Modulus (GPa) = 58.09796 81.27257 69.68526
# Shear Modulus (GPa) = 30.43000 37.44145 33.93572
#
# Velocity S-wave (km/s) = 3.73470 4.14268 3.94397
# Velocity P-wave (km/s) = 6.72513 7.75467 7.25818
#
# Compressibility (1/GPa) = 0.01721231
#
# Stress axis : x y z
#
# Youngs Moduli (GPa) = 75.10157 89.83056 47.76044
#
# Poissons Ratio (x) = 0.59239 0.37824
# Poissons Ratio (y) = 0.49526 -0.02042
# Poissons Ratio (z) = 0.59477 -0.03841
#
# Static dielectric constant tensor:
#      x y z
#    x 1.773950 0.004870 -0.045530 
#    y 0.004870 1.796160 0.003380 
#    z -0.045530 0.003380 1.847070 
# 
# From -- ./inp_files/151149.got.cif
#   From: 2010.05.17/outbox.cif.g08.bks.cpg/sg2_76_cif.got.tgz:151149.got - 2010.06.03 11:33:40.
