data_PCOD9025551
_publ_section_title
;
Structure prediction by ZEFSAII (Michael W. Deem and Ramdas Pophale) SiO2 
 PCOD9025551
Probable space group: P -1
;
_chemical_formula_sum "Si O2"
_cell_formula_units_Z 14
_cell_length_a 14.433708
_cell_length_b 5.308889
_cell_length_c 13.555945
_cell_angle_alpha 67.487131
_cell_angle_beta 138.711867
_cell_angle_gamma 99.966193
_cell_volume 621.884311
_symmetry_space_group_name_H-M "P -1"
_symmetry_group_IT_number 2
_symmetry_cell_setting 'triclinic'
loop_
_space_group_symop_operation_xyz
x,y,z
-x,-y,-z
loop_
_atom_site_type_symbol
_atom_site_label
_atom_site_fract_x
_atom_site_fract_y
_atom_site_fract_z
Si Si1 0.504369 0.954919 0.126643
Si Si2 0.653115 0.058690 0.693709
Si Si3 0.359727 0.419014 0.086337
Si Si4 0.671989 0.632030 0.627712
Si Si5 0.237216 0.392157 0.521274
Si Si6 0.902626 0.278947 0.482487
Si Si7 0.923073 0.265566 0.278183
O O1 0.434533 0.680385 0.132825
O O2 0.662371 0.870464 0.310276
O O3 0.427249 0.236822 0.074426
O O4 0.500000 0.000000 0.000000
O O5 0.717833 0.315899 0.751721
O O6 0.496376 0.235279 0.513663
O O7 0.632831 0.814993 0.788625
O O8 0.734280 0.879510 0.694442
O O9 0.197828 0.553290 0.909304
O O10 0.704847 0.589879 0.544520
O O11 0.229482 0.626991 0.564257
O O12 0.070642 0.379039 0.381845
O O13 0.863989 0.215199 0.348383
O O14 0.000000 0.500000 0.500000
O O15 0.014468 0.042553 0.662203
#
# Coordination Sequence:
#
# PCOD9025551 Si02
#       7
#     2   2   2   2   2   2   2
#     4  12  28  42  67 105 140 170 223 285 335 393
#     4  10  22  42  66  97 131 174 222 276 347 392
#     4  12  26  46  67  99 140 180 216 280 349 397
#     4  10  22  40  69  97 128 172 227 281 329 404
#     4  11  24  41  69  99 130 178 225 283 323 401
#     4   9  21  40  65  92 131 181 227 261 325 414
#     4  10  24  41  69  92 137 185 224 262 341 416
#
# _framework density 22.512228
#
# number of rings (size 3 to 8) (size 9 to 14) (size 15 to 20)
#    0.000    1.429    1.429    2.143   18.000    0.000 
#    0.000    1.429    0.000    0.000    0.000    0.000 
#    0.000    0.000    0.000    0.000    0.000    0.000 
#
# Total GULP energy -78007.537604 kJ/mol
# GULP energy per Si atom -5571.966972 kJ/mol
# Density = 2.246099 g / cm^3
# Si number density = 22.512228 Si / 1000 Ang^3
#
#
#
# Elastic Constant Matrix: (Units=GPa)
#
#
# Indices 1 2 3 4 5 6 
#
# 1 96.2755 17.2785 -10.9922 -2.4375 -13.4697 -14.8784
# 2 17.2785 117.7251 9.3659 -23.5608 2.8580 -1.3303
# 3 -10.9922 9.3659 63.6065 -13.9673 -2.8640 19.6451
# 4 -2.4375 -23.5608 -13.9673 34.1017 4.3385 4.2074
# 5 -13.4697 2.8580 -2.8640 4.3385 29.2656 -5.6202
# 6 -14.8784 -1.3303 19.6451 4.2074 -5.6202 31.3908
#
#
#
# Elastic Compliance Matrix: (Units=1/GPa)
#
#
# Indices 1 2 3 4 5 6 
#
# 1 0.013185 -0.002633 -0.000115 -0.002980 0.008311 0.008097
# 2 -0.002633 0.010538 0.000512 0.008167 -0.003963 -0.002926
# 3 -0.000115 0.000512 0.023428 0.012390 -0.002887 -0.016872
# 4 -0.002980 0.008167 0.012390 0.043203 -0.010529 -0.016496
# 5 0.008311 -0.003963 -0.002887 -0.010529 0.042463 0.014592
# 6 0.008097 -0.002926 -0.016872 -0.016496 0.014592 0.050953
#
#
# Mechanical properties :
#
#
# Convention : Reuss Voigt Hill
#
# Bulk Modulus (GPa) = 23.42994 34.32350 28.87672
# Shear Modulus (GPa) = 24.69544 36.41528 30.55536
#
# Velocity S-wave (km/s) = 3.31566 4.02628 3.68812
# Velocity P-wave (km/s) = 5.00883 6.07406 5.56698
#
# Compressibility (1/GPa) = 0.04268044
#
# Stress axis : x y z
#
# Youngs Moduli (GPa) = 75.84465 94.89710 42.68350
#
# Poissons Ratio (x) = 0.24983 0.00489
# Poissons Ratio (y) = 0.19967 -0.02186
# Poissons Ratio (z) = 0.00870 -0.04860
#
# Static dielectric constant tensor:
#      x y z
#    x 1.861430 0.007200 -0.018230 
#    y 0.007200 2.372990 0.203800 
#    z -0.018230 0.203800 1.862570 
# 
# From -- ./inp_files/525220.got.cif
#   From: 2010.05.17/outbox.cif.g08.bks.cpg/sg2_263_cif.got.tgz:525220.got - 2010.06.03 11:33:40.
