data_PCOD9025883
_publ_section_title
;
Structure prediction by ZEFSAII (Michael W. Deem and Ramdas Pophale) SiO2 
 PCOD9025883
Probable space group: P -1
;
_chemical_formula_sum "Si O2"
_cell_formula_units_Z 13
_cell_length_a 11.611100
_cell_length_b 13.245033
_cell_length_c 9.352366
_cell_angle_alpha 99.776023
_cell_angle_beta 46.282998
_cell_angle_gamma 62.792907
_cell_volume 605.471721
_symmetry_space_group_name_H-M "P -1"
_symmetry_group_IT_number 2
_symmetry_cell_setting 'triclinic'
loop_
_space_group_symop_operation_xyz
x,y,z
-x,-y,-z
loop_
_atom_site_type_symbol
_atom_site_label
_atom_site_fract_x
_atom_site_fract_y
_atom_site_fract_z
Si Si1 0.720187 0.441976 0.394443
Si Si2 0.679895 0.006443 0.818931
Si Si3 0.480330 0.223943 0.310878
Si Si4 0.396763 0.838935 0.367903
Si Si5 0.273274 0.203890 0.722398
Si Si6 0.708648 0.332305 0.679766
Si Si7 0.000000 0.000000 0.000000
O O1 0.500000 0.500000 0.500000
O O2 0.634307 0.602600 0.537475
O O3 0.746418 0.367902 0.502550
O O4 0.993254 0.302310 0.036195
O O5 0.995202 0.828786 0.542427
O O6 0.645783 0.060657 0.699753
O O7 0.500000 0.000000 0.000000
O O8 0.557559 0.153634 0.068083
O O9 0.284531 0.244414 0.563258
O O10 0.750293 0.081819 0.139895
O O11 0.650683 0.742914 0.221537
O O12 0.411190 0.717699 0.262397
O O13 0.143630 0.967162 0.721865
O O14 0.500000 0.000000 0.500000
O O15 0.500000 0.500000 0.000000
#
# Coordination Sequence:
#
# PCOD9025883 Si02
#       7
#     2   2   2   2   2   2   1
#     4  12  27  43  70 105 141 182 240 294 355 417
#     4  12  26  46  71 103 139 193 236 284 356 425
#     4  11  24  44  71 100 141 183 236 289 358 410
#     4  11  24  45  73  98 143 184 238 284 355 412
#     4  11  25  44  71 103 142 183 238 293 352 422
#     4  12  27  45  66 105 140 184 236 290 353 421
#     4  10  22  40  74 100 128 182 234 288 344 410
#
# _framework density 21.470860999999999
#
# number of rings (size 3 to 8) (size 9 to 14) (size 15 to 20)
#    0.000    0.615    1.538    6.462    8.615    2.462 
#    0.000    3.077    0.000    0.000    0.000    0.000 
#    0.000    0.000    0.000    0.000    0.000    0.000 
#
# Total GULP energy -72546.294758 kJ/mol
# GULP energy per Si atom -5580.484212 kJ/mol
# Density = 2.142199 g / cm^3
# Si number density = 21.470861 Si / 1000 Ang^3
#
#
#
# Elastic Constant Matrix: (Units=GPa)
#
#
# Indices 1 2 3 4 5 6 
#
# 1 52.7791 2.2507 38.8918 4.0175 -5.3844 5.9515
# 2 2.2507 82.5249 40.1448 -25.3844 15.0252 9.7523
# 3 38.8918 40.1448 160.0592 -18.5229 -8.1534 -1.4712
# 4 4.0175 -25.3844 -18.5229 39.2057 0.0588 18.2001
# 5 -5.3844 15.0252 -8.1534 0.0588 32.6934 -11.9325
# 6 5.9515 9.7523 -1.4712 18.2001 -11.9325 42.7204
#
#
#
# Elastic Compliance Matrix: (Units=1/GPa)
#
#
# Indices 1 2 3 4 5 6 
#
# 1 0.024459 0.001655 -0.006753 -0.003565 0.000755 -0.002288
# 2 0.001655 0.034176 -0.006902 0.032701 -0.028191 -0.030076
# 3 -0.006753 -0.006902 0.009808 -0.001640 0.006465 0.005358
# 4 -0.003565 0.032701 -0.001640 0.067046 -0.032442 -0.044650
# 5 0.000755 -0.028191 0.006465 -0.032442 0.058765 0.036788
# 6 -0.002288 -0.030076 0.005358 -0.044650 0.036788 0.060075
#
#
# Mechanical properties :
#
#
# Convention : Reuss Voigt Hill
#
# Bulk Modulus (GPa) = 22.50114 50.88197 36.69155
# Shear Modulus (GPa) = 17.05642 37.19561 27.12602
#
# Velocity S-wave (km/s) = 2.82157 4.16670 3.55827
# Velocity P-wave (km/s) = 4.59539 6.84822 5.83162
#
# Compressibility (1/GPa) = 0.04444220
#
# Stress axis : x y z
#
# Youngs Moduli (GPa) = 40.88472 29.26062 101.95278
#
# Poissons Ratio (x) = -0.04841 0.68851
# Poissons Ratio (y) = -0.06765 0.70366
# Poissons Ratio (z) = 0.27610 0.20195
#
# Static dielectric constant tensor:
#      x y z
#    x 1.776050 0.042050 0.007860 
#    y 0.042050 1.779330 0.026080 
#    z 0.007860 0.026080 1.754860 
# 
# From -- ./inp_files/174253.got.cif
#   From: 2010.05.17/outbox.cif.g08.bks.cpg/sg2_88_cif.got.tgz:174253.got - 2010.06.03 11:33:40.
