data_PCOD9025223
_publ_section_title
;
Structure prediction by ZEFSAII (Michael W. Deem and Ramdas Pophale) SiO2 
 PCOD9025223
Probable space group: P -1
;
_chemical_formula_sum "Si O2"
_cell_formula_units_Z 14
_cell_length_a 25.805576
_cell_length_b 14.470942
_cell_length_c 14.120987
_cell_angle_alpha 38.778708
_cell_angle_beta 21.420590
_cell_angle_gamma 23.187506
_cell_volume 643.214123
_symmetry_space_group_name_H-M "P -1"
_symmetry_group_IT_number 2
_symmetry_cell_setting 'triclinic'
loop_
_space_group_symop_operation_xyz
x,y,z
-x,-y,-z
loop_
_atom_site_type_symbol
_atom_site_label
_atom_site_fract_x
_atom_site_fract_y
_atom_site_fract_z
Si Si1 0.112786 0.743002 0.207799
Si Si2 0.224204 0.868361 0.088271
Si Si3 0.104941 0.486936 0.572474
Si Si4 0.127598 0.570277 0.904289
Si Si5 0.818454 0.368081 0.507569
Si Si6 0.467046 0.966482 0.477300
Si Si7 0.401842 0.628793 0.460257
O O1 0.103355 0.597585 0.398216
O O2 0.177287 0.812835 0.119594
O O3 0.350157 0.536994 0.892883
O O4 0.830005 0.043602 0.406420
O O5 0.185587 0.125738 0.825755
O O6 0.994828 0.177736 0.268882
O O7 0.214971 0.751071 0.280010
O O8 0.049564 0.631610 0.646109
O O9 0.390678 0.163603 0.373479
O O10 0.904652 0.524291 0.880922
O O11 0.287364 0.340488 0.735927
O O12 0.278586 0.586011 0.661167
O O13 0.519616 0.673094 0.744731
O O14 0.500000 0.000000 0.500000
O O15 0.500000 0.500000 0.500000
#
# Coordination Sequence:
#
# PCOD9025223 Si02
#       7
#     2   2   2   2   2   2   2
#     4  11  24  43  70  97 128 171 225 290 334 389
#     4   9  18  31  50  86 124 165 202 252 306 363
#     4   9  24  38  68  96 137 173 229 271 325 380
#     4  10  24  44  66  95 138 179 224 271 332 401
#     4   9  17  30  51  83 130 165 203 246 299 367
#     4  10  22  40  67  99 142 186 217 254 321 403
#     4  12  27  49  71  95 128 173 224 287 360 410
#
# _framework density 21.765692999999999
#
# number of rings (size 3 to 8) (size 9 to 14) (size 15 to 20)
#    0.857    1.143    0.000    2.571    4.000    5.714 
#    0.000    1.429    0.000    0.857    0.000    0.000 
#    0.000    0.000    0.000    0.000    0.000    0.000 
#
# Total GULP energy -78180.233248 kJ/mol
# GULP energy per Si atom -5584.302375 kJ/mol
# Density = 2.171615 g / cm^3
# Si number density = 21.765693 Si / 1000 Ang^3
#
#
#
# Elastic Constant Matrix: (Units=GPa)
#
#
# Indices 1 2 3 4 5 6 
#
# 1 51.2873 26.0892 24.9747 7.7838 16.1314 -23.3684
# 2 26.0892 157.2985 60.9565 7.0376 10.9601 -18.8515
# 3 24.9747 60.9565 107.4888 2.0428 26.9999 -7.9721
# 4 7.7838 7.0376 2.0428 48.5973 -1.9501 4.0135
# 5 16.1314 10.9601 26.9999 -1.9501 20.4688 -5.2432
# 6 -23.3684 -18.8515 -7.9721 4.0135 -5.2432 32.7372
#
#
#
# Elastic Compliance Matrix: (Units=1/GPa)
#
#
# Indices 1 2 3 4 5 6 
#
# 1 0.041931 -0.001506 -0.000178 -0.009692 -0.026267 0.026002
# 2 -0.001506 0.008916 -0.005579 -0.000924 0.004593 0.003550
# 3 -0.000178 -0.005579 0.017533 -0.000538 -0.020642 -0.002311
# 4 -0.009692 -0.000924 -0.000538 0.023384 0.008753 -0.009047
# 5 -0.026267 0.004593 -0.020642 0.008753 0.093299 -0.007262
# 6 0.026002 0.003550 -0.002311 -0.009047 -0.007262 0.050534
#
#
# Mechanical properties :
#
#
# Convention : Reuss Voigt Hill
#
# Bulk Modulus (GPa) = 18.56882 60.01283 39.29083
# Shear Modulus (GPa) = 18.65156 33.96427 26.30791
#
# Velocity S-wave (km/s) = 2.93050 3.95454 3.48039
# Velocity P-wave (km/s) = 4.47216 6.96299 5.85164
#
# Compressibility (1/GPa) = 0.05385371
#
# Stress axis : x y z
#
# Youngs Moduli (GPa) = 23.84879 112.15955 57.03671
#
# Poissons Ratio (x) = 0.16886 0.01015
# Poissons Ratio (y) = 0.03590 0.31822
# Poissons Ratio (z) = 0.00425 0.62577
#
# Static dielectric constant tensor:
#      x y z
#    x 1.737970 -0.044860 0.015930 
#    y -0.044860 1.884870 -0.056900 
#    z 0.015930 -0.056900 1.808350 
# 
# From -- ./inp_files/109516.got.cif
#   From: 2010.05.17/outbox.cif.g08.bks.cpg/sg2_55_cif.got.tgz:109516.got - 2010.06.03 11:33:40.
