data_PCOD9025727
_publ_section_title
;
Structure prediction by ZEFSAII (Michael W. Deem and Ramdas Pophale) SiO2 
 PCOD9025727
Probable space group: P -1
;
_chemical_formula_sum "Si O2"
_cell_formula_units_Z 16
_cell_length_a 9.640154
_cell_length_b 11.221642
_cell_length_c 9.218522
_cell_angle_alpha 50.058644
_cell_angle_beta 71.852869
_cell_angle_gamma 73.899057
_cell_volume 722.449771
_symmetry_space_group_name_H-M "P -1"
_symmetry_group_IT_number 2
_symmetry_cell_setting 'triclinic'
loop_
_space_group_symop_operation_xyz
x,y,z
-x,-y,-z
loop_
_atom_site_type_symbol
_atom_site_label
_atom_site_fract_x
_atom_site_fract_y
_atom_site_fract_z
Si Si1 0.596432 0.340948 0.629796
Si Si2 0.056874 0.575393 0.066078
Si Si3 0.685739 0.685263 0.755599
Si Si4 0.541502 0.149210 0.523445
Si Si5 0.536960 0.179998 0.059554
Si Si6 0.789953 0.128103 0.211081
Si Si7 0.056283 0.129429 0.488554
Si Si8 0.096093 0.560707 0.550190
O O1 0.500000 0.500000 0.500000
O O2 0.610743 0.247505 0.547868
O O3 0.748259 0.399535 0.586248
O O4 0.527177 0.232818 0.855667
O O5 0.204534 0.473978 0.161118
O O6 0.920940 0.575096 0.220654
O O7 0.106961 0.741393 0.884233
O O8 0.000000 0.500000 0.000000
O O9 0.600620 0.753161 0.584616
O O10 0.560289 0.689288 0.915317
O O11 0.799200 0.806255 0.674893
O O12 0.660712 0.121377 0.377842
O O13 0.506188 0.988015 0.737808
O O14 0.706839 0.171592 0.056320
O O15 0.887580 0.964801 0.312157
O O16 0.961323 0.283263 0.459678
O O17 0.000000 0.000000 0.500000
O O18 0.000000 0.500000 0.500000
#
# Coordination Sequence:
#
# PCOD9025727 Si02
#       8
#     2   2   2   2   2   2   2   2
#     4  12  29  44  69  96 143 192 230 277 351 430
#     4  11  24  41  68 100 142 178 243 287 352 412
#     4  10  22  40  71 100 134 181 228 303 344 406
#     4  11  22  44  67 102 142 173 233 291 352 414
#     4  11  23  42  68  98 134 175 234 282 355 410
#     4  11  21  40  72 104 129 174 235 296 346 406
#     4  11  21  42  73 102 137 180 240 288 350 405
#     4  11  27  49  68 102 148 188 229 292 355 423
#
# _framework density 22.146867
#
# number of rings (size 3 to 8) (size 9 to 14) (size 15 to 20)
#    0.000    1.000    2.500    4.875    8.750    1.000 
#    0.000    2.500    0.000    0.000    0.000    0.000 
#    0.000    0.000    0.000    0.000    0.000    0.000 
#
# Total GULP energy -89260.358873 kJ/mol
# GULP energy per Si atom -5578.772430 kJ/mol
# Density = 2.209646 g / cm^3
# Si number density = 22.146867 Si / 1000 Ang^3
#
#
#
# Elastic Constant Matrix: (Units=GPa)
#
#
# Indices 1 2 3 4 5 6 
#
# 1 67.8591 14.8040 27.4823 -10.0897 -9.9334 16.4753
# 2 14.8040 52.9953 11.6672 -6.8646 4.0940 15.3534
# 3 27.4823 11.6672 114.8889 -3.7352 6.4653 -3.7909
# 4 -10.0897 -6.8646 -3.7352 34.4498 7.3441 5.8224
# 5 -9.9334 4.0940 6.4653 7.3441 26.9352 -4.9787
# 6 16.4753 15.3534 -3.7909 5.8224 -4.9787 39.6261
#
#
#
# Elastic Compliance Matrix: (Units=1/GPa)
#
#
# Indices 1 2 3 4 5 6 
#
# 1 0.021106 -0.002095 -0.005303 0.005255 0.006382 -0.008441
# 2 -0.002095 0.024651 -0.001648 0.007745 -0.008272 -0.011015
# 3 -0.005303 -0.001648 0.010426 -0.000621 -0.003390 0.003506
# 4 0.005255 0.007745 -0.000621 0.036474 -0.011256 -0.012019
# 5 0.006382 -0.008272 -0.003390 -0.011256 0.046037 0.007665
# 6 -0.008441 -0.011015 0.003506 -0.012019 0.007665 0.036078
#
#
# Mechanical properties :
#
#
# Convention : Reuss Voigt Hill
#
# Bulk Modulus (GPa) = 26.25320 38.18338 32.21829
# Shear Modulus (GPa) = 24.32370 32.32155 28.32263
#
# Velocity S-wave (km/s) = 3.31764 3.82438 3.57999
# Velocity P-wave (km/s) = 5.15321 6.06462 5.62739
#
# Compressibility (1/GPa) = 0.03809060
#
# Stress axis : x y z
#
# Youngs Moduli (GPa) = 47.37986 40.56609 95.91223
#
# Poissons Ratio (x) = 0.08500 0.50860
# Poissons Ratio (y) = 0.09927 0.15810
# Poissons Ratio (z) = 0.25124 0.06687
#
# Static dielectric constant tensor:
#      x y z
#    x 1.860130 -0.065340 0.048230 
#    y -0.065340 1.632920 0.115170 
#    z 0.048230 0.115170 1.810970 
# 
# From -- ./inp_files/184101.got.cif
#   From: 2010.05.17/outbox.cif.g08.bks.cpg/sg2_93_cif.got.tgz:184101.got - 2010.06.03 11:33:40.
