data_PCOD9025645
_publ_section_title
;
Structure prediction by ZEFSAII (Michael W. Deem and Ramdas Pophale) SiO2 
 PCOD9025645
Probable space group: P -1
;
_chemical_formula_sum "Si O2"
_cell_formula_units_Z 15
_cell_length_a 22.371235
_cell_length_b 7.631111
_cell_length_c 11.148407
_cell_angle_alpha 139.983368
_cell_angle_beta 138.658346
_cell_angle_gamma 28.487278
_cell_volume 564.684699
_symmetry_space_group_name_H-M "P -1"
_symmetry_group_IT_number 2
_symmetry_cell_setting 'triclinic'
loop_
_space_group_symop_operation_xyz
x,y,z
-x,-y,-z
loop_
_atom_site_type_symbol
_atom_site_label
_atom_site_fract_x
_atom_site_fract_y
_atom_site_fract_z
Si Si1 0.200840 0.333718 0.558323
Si Si2 0.080524 0.242138 0.657621
Si Si3 0.892364 0.593816 0.972363
Si Si4 0.587363 0.405248 0.336956
Si Si5 0.500000 0.500000 0.500000
Si Si6 0.727062 0.627111 0.568606
Si Si7 0.588617 0.850532 0.935593
Si Si8 0.878667 0.266157 0.124042
O O1 0.270661 0.277032 0.514545
O O2 0.154432 0.676120 0.754117
O O3 0.071532 0.458241 0.392176
O O4 0.305104 0.933796 0.580062
O O5 0.106759 0.442867 0.720121
O O6 0.138465 0.848416 0.481170
O O7 0.147698 0.157113 0.840230
O O8 0.769465 0.758647 0.799455
O O9 0.986462 0.151026 0.931488
O O10 0.000000 0.500000 0.000000
O O11 0.470712 0.632904 0.375188
O O12 0.626937 0.613103 0.455540
O O13 0.583083 0.195478 0.111602
O O14 0.535346 0.748083 0.707458
O O15 0.743840 0.457111 0.964691
O O16 0.500000 0.000000 0.000000
#
# Coordination Sequence:
#
# PCOD9025645 Si02
#       8
#     2   2   2   2   1   2   2   2
#     4  11  21  39  63  90 133 170 203 255 307 371
#     4  12  22  39  60  89 133 168 213 248 304 377
#     4  12  25  37  55  95 136 171 210 254 304 380
#     4  10  23  41  65  93 121 162 215 258 316 377
#     4  10  22  40  70  88 120 160 204 276 324 366
#     4  12  23  41  63  93 132 173 208 254 310 374
#     4   9  20  40  62  92 116 152 213 267 316 371
#     4  11  22  39  64  91 124 172 215 256 317 375
#
# _framework density 26.563493999999999
#
# number of rings (size 3 to 8) (size 9 to 14) (size 15 to 20)
#    0.000    1.067    5.333    2.800    3.733    0.000 
#    0.000    0.667    0.000   20.000    0.000    0.000 
#    0.000    0.000    0.000    0.000    0.000    0.000 
#
# Total GULP energy -83645.061322 kJ/mol
# GULP energy per Si atom -5576.337421 kJ/mol
# Density = 2.650303 g / cm^3
# Si number density = 26.563494 Si / 1000 Ang^3
#
#
#
# Elastic Constant Matrix: (Units=GPa)
#
#
# Indices 1 2 3 4 5 6 
#
# 1 189.3194 -33.4257 73.2688 21.5511 -17.6057 -51.6616
# 2 -33.4257 84.8581 -43.4963 -44.9029 34.2781 32.5867
# 3 73.2688 -43.4963 245.8548 -2.4078 -42.0840 -57.2883
# 4 21.5511 -44.9029 -2.4078 40.3390 -26.2847 -24.1751
# 5 -17.6057 34.2781 -42.0840 -26.2847 62.8176 32.7553
# 6 -51.6616 32.5867 -57.2883 -24.1751 32.7553 100.1474
#
#
#
# Elastic Compliance Matrix: (Units=1/GPa)
#
#
# Indices 1 2 3 4 5 6 
#
# 1 0.006902 -0.001037 -0.002171 -0.005133 -0.002220 0.002143
# 2 -0.001037 0.039216 0.008804 0.048189 0.003150 0.002344
# 3 -0.002171 0.008804 0.008040 0.016725 0.005481 0.002859
# 4 -0.005133 0.048189 0.016725 0.101278 0.021301 0.008720
# 5 -0.002220 0.003150 0.005481 0.021301 0.027703 -0.002953
# 6 0.002143 0.002344 0.002859 0.008720 -0.002953 0.015035
#
#
# Mechanical properties :
#
#
# Convention : Reuss Voigt Hill
#
# Bulk Modulus (GPa) = 15.30200 56.96955 36.13578
# Shear Modulus (GPa) = 23.95041 75.57316 49.76179
#
# Velocity S-wave (km/s) = 3.00597 5.33964 4.33288
# Velocity P-wave (km/s) = 4.22148 7.71420 6.21811
#
# Compressibility (1/GPa) = 0.06535092
#
# Stress axis : x y z
#
# Youngs Moduli (GPa) = 144.88723 25.49991 124.37086
#
# Poissons Ratio (x) = 0.02643 0.27004
# Poissons Ratio (y) = 0.15019 -1.09499
# Poissons Ratio (z) = 0.31459 -0.22451
#
# Static dielectric constant tensor:
#      x y z
#    x 2.021920 0.564840 0.099310 
#    y 0.564840 1.277790 -0.189560 
#    z 0.099310 -0.189560 2.061730 
# 
# From -- ./inp_files/469066.got.cif
#   From: 2010.05.17/outbox.cif.g08.bks.cpg/sg2_235_cif.got.tgz:469066.got - 2010.06.03 11:33:40.
