data_PCOD9025022
_publ_section_title
;
Structure prediction by ZEFSAII (Michael W. Deem and Ramdas Pophale) SiO2 
 PCOD9025022
Probable space group: P -1
;
_chemical_formula_sum "Si O2"
_cell_formula_units_Z 15
_cell_length_a 7.830891
_cell_length_b 8.726727
_cell_length_c 15.487682
_cell_angle_alpha 129.242456
_cell_angle_beta 45.876278
_cell_angle_gamma 116.092284
_cell_volume 588.414244
_symmetry_space_group_name_H-M "P -1"
_symmetry_group_IT_number 2
_symmetry_cell_setting 'triclinic'
loop_
_space_group_symop_operation_xyz
x,y,z
-x,-y,-z
loop_
_atom_site_type_symbol
_atom_site_label
_atom_site_fract_x
_atom_site_fract_y
_atom_site_fract_z
Si Si1 0.000000 0.000000 0.000000
Si Si2 0.113094 0.569739 0.685416
Si Si3 0.001060 0.962463 0.771797
Si Si4 0.322753 0.711660 0.232753
Si Si5 0.147651 0.334202 0.938485
Si Si6 0.684093 0.153450 0.532085
Si Si7 0.414620 0.446092 0.374398
Si Si8 0.555107 0.997489 0.855855
O O1 0.983728 0.777406 0.976686
O O2 0.720578 0.975189 0.059113
O O3 0.204125 0.483879 0.530904
O O4 0.336879 0.537621 0.656646
O O5 0.064669 0.804394 0.768967
O O6 0.881867 0.451633 0.752698
O O7 0.724755 0.022178 0.888907
O O8 0.085238 0.877071 0.620264
O O9 0.160768 0.151095 0.801992
O O10 0.583427 0.611179 0.112394
O O11 0.283350 0.857796 0.381191
O O12 0.321210 0.848148 0.198353
O O13 0.000000 0.500000 0.000000
O O14 0.601100 0.378220 0.625562
O O15 0.500000 0.000000 0.500000
O O16 0.401566 0.232608 0.262366
#
# Coordination Sequence:
#
# PCOD9025022 Si02
#       8
#     1   2   2   2   2   2   2   2
#     4  10  26  48  68  96 136 184 234 292 338 400
#     4  10  22  40  67 101 134 179 223 275 343 419
#     4  11  24  45  69 103 136 180 229 279 354 415
#     4  11  24  42  66 106 139 174 235 282 338 419
#     4  11  26  49  72  99 137 185 238 290 350 407
#     4  11  23  39  69 101 141 177 220 282 341 420
#     4  10  23  40  65  95 141 182 216 274 352 403
#     4  11  25  45  69  98 140 182 229 288 340 409
#
# _framework density 25.492246000000002
#
# number of rings (size 3 to 8) (size 9 to 14) (size 15 to 20)
#    0.000    1.333    1.333    3.200    9.333    3.733 
#    4.800    1.333    0.000    0.000    0.000    0.000 
#    0.000    0.000    0.000    0.000    0.000    0.000 
#
# Total GULP energy -83824.204235 kJ/mol
# GULP energy per Si atom -5588.280282 kJ/mol
# Density = 2.543422 g / cm^3
# Si number density = 25.492246 Si / 1000 Ang^3
#
#
#
# Elastic Constant Matrix: (Units=GPa)
#
#
# Indices 1 2 3 4 5 6 
#
# 1 110.4972 51.7023 3.9362 -6.1614 -37.4419 -5.3289
# 2 51.7023 161.0359 44.9367 1.6472 -36.9330 7.3075
# 3 3.9362 44.9367 68.1954 3.2189 -27.2587 -7.7463
# 4 -6.1614 1.6472 3.2189 50.0886 9.5249 -7.4479
# 5 -37.4419 -36.9330 -27.2587 9.5249 47.2217 -0.5794
# 6 -5.3289 7.3075 -7.7463 -7.4479 -0.5794 53.4739
#
#
#
# Elastic Compliance Matrix: (Units=1/GPa)
#
#
# Indices 1 2 3 4 5 6 
#
# 1 0.015436 -0.004118 0.007652 -0.000554 0.013587 0.003280
# 2 -0.004118 0.009536 -0.005927 -0.001021 0.000944 -0.002704
# 3 0.007652 -0.005927 0.025579 -0.002962 0.016856 0.005048
# 4 -0.000554 -0.001021 -0.002962 0.021906 -0.007334 0.002627
# 5 0.013587 0.000944 0.016856 -0.007334 0.043936 0.003122
# 6 0.003280 -0.002704 0.005048 0.002627 0.003122 0.020528
#
#
# Mechanical properties :
#
#
# Convention : Reuss Voigt Hill
#
# Bulk Modulus (GPa) = 21.85138 60.09767 40.97452
# Shear Modulus (GPa) = 31.85511 46.10040 38.97775
#
# Velocity S-wave (km/s) = 3.53880 4.25715 3.91449
# Velocity P-wave (km/s) = 5.02871 6.91307 6.04477
#
# Compressibility (1/GPa) = 0.04576371
#
# Stress axis : x y z
#
# Youngs Moduli (GPa) = 64.78531 104.87005 39.09477
#
# Poissons Ratio (x) = 0.43187 -0.29917
# Poissons Ratio (y) = 0.26679 0.23173
# Poissons Ratio (z) = -0.49576 0.62161
#
# Static dielectric constant tensor:
#      x y z
#    x 2.094690 -0.001060 0.225830 
#    y -0.001060 1.924640 -0.044270 
#    z 0.225830 -0.044270 2.366890 
# 
# From -- ./inp_files/587507.got.cif
#   From: 2010.05.17/outbox.cif.g08.bks.cpg/sg2_294_cif.got.tgz:587507.got - 2010.06.03 11:33:40.
