data_PCOD9025471
_publ_section_title
;
Structure prediction by ZEFSAII (Michael W. Deem and Ramdas Pophale) SiO2 
 PCOD9025471
Probable space group: P -1
;
_chemical_formula_sum "Si O2"
_cell_formula_units_Z 16
_cell_length_a 8.348337
_cell_length_b 25.521303
_cell_length_c 26.399713
_cell_angle_alpha 10.881327
_cell_angle_beta 34.123800
_cell_angle_gamma 36.014587
_cell_volume 595.216761
_symmetry_space_group_name_H-M "P -1"
_symmetry_group_IT_number 2
_symmetry_cell_setting 'triclinic'
loop_
_space_group_symop_operation_xyz
x,y,z
-x,-y,-z
loop_
_atom_site_type_symbol
_atom_site_label
_atom_site_fract_x
_atom_site_fract_y
_atom_site_fract_z
Si Si1 0.402351 0.131638 0.156260
Si Si2 0.180480 0.014435 0.592454
Si Si3 0.794672 0.741554 0.810032
Si Si4 0.662163 0.015744 0.057068
Si Si5 0.951120 0.384978 0.794425
Si Si6 0.604313 0.605398 0.542118
Si Si7 0.839393 0.209115 0.724909
Si Si8 0.786347 0.396821 0.941864
O O1 0.408375 0.125466 0.220926
O O2 0.478898 0.846699 0.380299
O O3 0.641569 0.380296 0.850163
O O4 0.068761 0.163947 0.201333
O O5 0.110208 0.337921 0.304515
O O6 0.500000 0.000000 0.500000
O O7 0.157092 0.892764 0.770982
O O8 0.559452 0.606712 0.962577
O O9 0.000000 0.000000 0.500000
O O10 0.000000 0.500000 0.000000
O O11 0.525560 0.279014 0.870875
O O12 0.623109 0.077357 0.949180
O O13 0.546903 0.728514 0.383911
O O14 0.000000 0.000000 0.000000
O O15 0.171849 0.578032 0.521009
O O16 0.908161 0.445263 0.807505
O O17 0.027909 0.065895 0.071307
O O18 0.937465 0.629764 0.448138
#
# Coordination Sequence:
#
# PCOD9025471 Si02
#       8
#     2   2   2   2   2   2   2   2
#     4  10  24  39  61  89 121 160 204 252 302 357
#     4  12  25  43  63  87 119 159 205 253 303 359
#     4  11  23  41  64  88 118 156 198 251 310 365
#     4  10  18  30  51  85 127 159 188 239 304 359
#     4  10  21  36  58  87 120 155 196 242 296 352
#     4  10  19  31  50  84 125 160 192 242 304 357
#     4  10  17  31  54  84 118 155 191 236 291 355
#     4  11  24  41  60  88 119 154 200 249 301 362
#
# _framework density 26.880963999999999
#
# number of rings (size 3 to 8) (size 9 to 14) (size 15 to 20)
#    0.000    1.500    0.000    7.875    0.000   10.000 
#    0.000    0.000    0.000    0.000    0.000   17.500 
#    0.000    0.000    0.000    0.000    0.000    0.000 
#
# Total GULP energy -89368.736539 kJ/mol
# GULP energy per Si atom -5585.546034 kJ/mol
# Density = 2.681978 g / cm^3
# Si number density = 26.880964 Si / 1000 Ang^3
#
#
#
# Elastic Constant Matrix: (Units=GPa)
#
#
# Indices 1 2 3 4 5 6 
#
# 1 72.3105 19.7262 19.8223 22.9082 -8.7092 -10.6991
# 2 19.7262 99.8709 37.9708 5.1718 -6.3339 19.2376
# 3 19.8223 37.9708 174.3766 1.6496 10.3852 0.3438
# 4 22.9082 5.1718 1.6496 42.6096 0.8999 -8.6930
# 5 -8.7092 -6.3339 10.3852 0.8999 36.3160 15.5842
# 6 -10.6991 19.2376 0.3438 -8.6930 15.5842 45.5900
#
#
#
# Elastic Compliance Matrix: (Units=1/GPa)
#
#
# Indices 1 2 3 4 5 6 
#
# 1 0.018820 -0.002909 -0.001635 -0.009229 0.003551 0.002683
# 2 -0.002909 0.014081 -0.003095 -0.002058 0.006675 -0.009275
# 3 -0.001635 -0.003095 0.006813 0.001595 -0.004013 0.002547
# 4 -0.009229 -0.002058 0.001595 0.030128 -0.006655 0.006710
# 5 0.003551 0.006675 -0.004013 -0.006655 0.037790 -0.016140
# 6 0.002683 -0.009275 0.002547 0.006710 -0.016140 0.033256
#
#
# Mechanical properties :
#
#
# Convention : Reuss Voigt Hill
#
# Bulk Modulus (GPa) = 40.92531 55.73295 48.32913
# Shear Modulus (GPa) = 30.42983 42.83902 36.63443
#
# Velocity S-wave (km/s) = 3.36820 3.99639 3.69567
# Velocity P-wave (km/s) = 5.51218 6.48638 6.01902
#
# Compressibility (1/GPa) = 0.02443476
#
# Stress axis : x y z
#
# Youngs Moduli (GPa) = 53.13598 71.01847 146.76807
#
# Poissons Ratio (x) = 0.20660 0.24001
# Poissons Ratio (y) = 0.15458 0.45427
# Poissons Ratio (z) = 0.08690 0.21982
#
# Static dielectric constant tensor:
#      x y z
#    x 2.191990 -0.060120 0.010010 
#    y -0.060120 2.217550 0.146390 
#    z 0.010010 0.146390 2.061450 
# 
# From -- ./inp_files/617661.got.cif
#   From: 2010.05.17/outbox.cif.g08.bks.cpg/sg2_309_cif.got.tgz:617661.got - 2010.06.03 11:33:40.
