data_PCOD9025331
_publ_section_title
;
Structure prediction by ZEFSAII (Michael W. Deem and Ramdas Pophale) SiO2 
 PCOD9025331
Probable space group: P -1
;
_chemical_formula_sum "Si O2"
_cell_formula_units_Z 16
_cell_length_a 8.134370
_cell_length_b 25.530502
_cell_length_c 9.170662
_cell_angle_alpha 135.475881
_cell_angle_beta 32.995110
_cell_angle_gamma 128.801730
_cell_volume 725.198269
_symmetry_space_group_name_H-M "P -1"
_symmetry_group_IT_number 2
_symmetry_cell_setting 'triclinic'
loop_
_space_group_symop_operation_xyz
x,y,z
-x,-y,-z
loop_
_atom_site_type_symbol
_atom_site_label
_atom_site_fract_x
_atom_site_fract_y
_atom_site_fract_z
Si Si1 0.521826 0.608743 0.705663
Si Si2 0.378983 0.769066 0.228015
Si Si3 0.269330 0.812285 0.084251
Si Si4 0.232783 0.945577 0.154020
Si Si5 0.449713 0.425966 0.709015
Si Si6 0.083354 0.494426 0.661591
Si Si7 0.601076 0.731697 0.446299
Si Si8 0.935013 0.196389 0.184852
O O1 0.650956 0.607699 0.442577
O O2 0.779772 0.585197 0.578499
O O3 0.373123 0.683937 0.007100
O O4 0.252662 0.542842 0.764057
O O5 0.339426 0.819966 0.217109
O O6 0.128579 0.787008 0.566676
O O7 0.716623 0.781837 0.067798
O O8 0.303259 0.888636 0.118861
O O9 0.927917 0.772038 0.242107
O O10 0.507948 0.759798 0.731274
O O11 0.122757 0.889131 0.994101
O O12 0.000000 0.000000 0.500000
O O13 0.500000 0.000000 0.000000
O O14 0.404272 0.357789 0.719164
O O15 0.784825 0.459638 0.485585
O O16 0.262532 0.494621 0.034117
O O17 0.321210 0.758213 0.613260
#
# Coordination Sequence:
#
# PCOD9025331 Si02
#       8
#     2   2   2   2   2   2   2   2
#     4   9  20  31  55  83 121 157 200 259 308 341
#     4  12  23  39  61  95 133 154 197 264 319 345
#     4  11  22  39  67  95 117 161 211 243 283 373
#     4  11  23  46  71  89 120 165 204 235 291 376
#     4  10  17  31  54  82 108 153 215 257 283 336
#     4   9  19  29  51  87 114 153 214 261 286 353
#     4  11  20  39  61  87 123 165 214 248 295 361
#     4  11  26  40  61  95 129 157 195 254 317 367
#
# _framework density 22.062932
#
# number of rings (size 3 to 8) (size 9 to 14) (size 15 to 20)
#    0.750    0.750    1.250    6.375    1.750    0.000 
#    0.000    3.750    0.000    4.500    0.000    0.000 
#    0.000    0.000    0.000    0.000    0.000    0.000 
#
# Total GULP energy -89322.186673 kJ/mol
# GULP energy per Si atom -5582.636667 kJ/mol
# Density = 2.201272 g / cm^3
# Si number density = 22.062932 Si / 1000 Ang^3
#
#
#
# Elastic Constant Matrix: (Units=GPa)
#
#
# Indices 1 2 3 4 5 6 
#
# 1 49.3554 27.9398 6.6298 -4.0175 -3.7258 -1.2193
# 2 27.9398 91.6636 21.7810 5.3309 -9.5573 -15.7226
# 3 6.6298 21.7810 114.3883 0.5324 -5.3092 -4.5638
# 4 -4.0175 5.3309 0.5324 34.3421 1.8286 -3.1167
# 5 -3.7258 -9.5573 -5.3092 1.8286 26.9953 -3.6296
# 6 -1.2193 -15.7226 -4.5638 -3.1167 -3.6296 30.3473
#
#
#
# Elastic Compliance Matrix: (Units=1/GPa)
#
#
# Indices 1 2 3 4 5 6 
#
# 1 0.025298 -0.008476 0.000001 0.004014 -0.000182 -0.002984
# 2 -0.008476 0.016083 -0.001985 -0.003017 0.005418 0.008031
# 3 0.000001 -0.001985 0.009194 0.000150 0.001164 0.000509
# 4 0.004014 -0.003017 0.000150 0.030311 -0.002342 0.001454
# 5 -0.000182 0.005418 0.001164 -0.002342 0.040340 0.007559
# 6 -0.002984 0.008031 0.000509 0.001454 0.007559 0.038123
#
#
# Mechanical properties :
#
#
# Convention : Reuss Voigt Hill
#
# Bulk Modulus (GPa) = 33.72036 40.90093 37.31065
# Shear Modulus (GPa) = 26.29466 31.60740 28.95103
#
# Velocity S-wave (km/s) = 3.45599 3.78908 3.62636
# Velocity P-wave (km/s) = 5.58946 6.14177 5.87212
#
# Compressibility (1/GPa) = 0.02965567
#
# Stress axis : x y z
#
# Youngs Moduli (GPa) = 39.52828 62.17926 108.77033
#
# Poissons Ratio (x) = 0.52702 -0.00016
# Poissons Ratio (y) = 0.33503 0.21593
# Poissons Ratio (z) = -0.00006 0.12344
#
# Static dielectric constant tensor:
#      x y z
#    x 1.924160 -0.015940 0.009170 
#    y -0.015940 1.826990 0.004020 
#    z 0.009170 0.004020 1.778390 
# 
# From -- ./inp_files/226416.got.cif
#   From: 2010.05.17/outbox.cif.g08.bks.cpg/sg2_114_cif.got.tgz:226416.got - 2010.06.03 11:33:40.
