data_PCOD9025866
_publ_section_title
;
Structure prediction by ZEFSAII (Michael W. Deem and Ramdas Pophale) SiO2 
 PCOD9025866
Probable space group: P -1
;
_chemical_formula_sum "Si O2"
_cell_formula_units_Z 14
_cell_length_a 8.771070
_cell_length_b 12.145680
_cell_length_c 9.282519
_cell_angle_alpha 131.002884
_cell_angle_beta 121.842290
_cell_angle_gamma 75.599947
_cell_volume 626.598956
_symmetry_space_group_name_H-M "P -1"
_symmetry_group_IT_number 2
_symmetry_cell_setting 'triclinic'
loop_
_space_group_symop_operation_xyz
x,y,z
-x,-y,-z
loop_
_atom_site_type_symbol
_atom_site_label
_atom_site_fract_x
_atom_site_fract_y
_atom_site_fract_z
Si Si1 0.518726 0.140647 0.525817
Si Si2 0.974457 0.893695 0.762590
Si Si3 0.869705 0.573877 0.392807
Si Si4 0.118229 0.384929 0.894724
Si Si5 0.487125 0.669089 0.031748
Si Si6 0.917183 0.100615 0.658814
Si Si7 0.613012 0.056213 0.964574
O O1 0.495347 0.271110 0.741207
O O2 0.727045 0.158713 0.588604
O O3 0.500000 0.000000 0.500000
O O4 0.401914 0.080084 0.274805
O O5 0.859529 0.734184 0.592201
O O6 0.184730 0.880428 0.826019
O O7 0.893458 0.991074 0.687126
O O8 0.000000 0.000000 0.000000
O O9 0.942682 0.622668 0.310544
O O10 0.000000 0.500000 0.500000
O O11 0.690117 0.453763 0.179604
O O12 0.335574 0.395947 0.991268
O O13 0.065356 0.245523 0.854129
O O14 0.000000 0.500000 0.000000
O O15 0.462265 0.811394 0.044417
O O16 0.000000 0.000000 0.500000
O O17 0.500000 0.000000 0.000000
#
# Coordination Sequence:
#
# PCOD9025866 Si02
#       7
#     2   2   2   2   2   2   2
#     4  10  22  40  73 102 144 190 245 294 353 444
#     4  12  26  44  74 107 146 192 240 299 365 439
#     4  12  27  49  73 106 152 191 244 306 367 443
#     4  12  28  48  75 106 146 191 246 312 371 437
#     4  11  24  50  72 104 147 198 251 295 367 450
#     4  12  23  45  72 107 145 191 249 297 358 431
#     4  11  23  42  72 112 148 185 240 306 364 427
#
# _framework density 22.342838
#
# number of rings (size 3 to 8) (size 9 to 14) (size 15 to 20)
#    0.000    0.571    2.857    6.429    4.000    0.000 
#    0.000    0.714    0.000    0.000    0.000    0.000 
#    0.000    0.000    0.000    0.000    0.000    0.000 
#
# Total GULP energy -78093.255449 kJ/mol
# GULP energy per Si atom -5578.089675 kJ/mol
# Density = 2.229198 g / cm^3
# Si number density = 22.342838 Si / 1000 Ang^3
#
#
#
# Elastic Constant Matrix: (Units=GPa)
#
#
# Indices 1 2 3 4 5 6 
#
# 1 129.7569 27.3738 64.4810 11.4201 4.7599 -20.6759
# 2 27.3738 135.6383 51.9651 18.0645 0.9742 -3.2432
# 3 64.4810 51.9651 156.0058 22.8598 9.0095 -7.1767
# 4 11.4201 18.0645 22.8598 42.8392 -7.1891 3.4533
# 5 4.7599 0.9742 9.0095 -7.1891 47.8234 -0.1568
# 6 -20.6759 -3.2432 -7.1767 3.4533 -0.1568 38.4354
#
#
#
# Elastic Compliance Matrix: (Units=1/GPa)
#
#
# Indices 1 2 3 4 5 6 
#
# 1 0.010617 -0.000403 -0.003832 -0.001103 -0.000476 0.005059
# 2 -0.000403 0.008677 -0.002369 -0.002316 -0.000038 0.000281
# 3 -0.003832 -0.002369 0.009355 -0.003259 -0.001823 -0.000229
# 4 -0.001103 -0.002316 -0.003259 0.027484 0.004890 -0.003847
# 5 -0.000476 -0.000038 -0.001823 0.004890 0.022034 -0.000949
# 6 0.005059 0.000281 -0.000229 -0.003847 -0.000949 0.029062
#
#
# Mechanical properties :
#
#
# Convention : Reuss Voigt Hill
#
# Bulk Modulus (GPa) = 64.76552 78.78231 71.77391
# Shear Modulus (GPa) = 39.81406 44.32501 42.06954
#
# Velocity S-wave (km/s) = 4.22591 4.45888 4.34396
# Velocity P-wave (km/s) = 7.27057 7.86423 7.57322
#
# Compressibility (1/GPa) = 0.01544032
#
# Stress axis : x y z
#
# Youngs Moduli (GPa) = 94.19164 115.24674 106.89042
#
# Poissons Ratio (x) = 0.04647 0.40960
# Poissons Ratio (y) = 0.03798 0.25324
# Poissons Ratio (z) = 0.36094 0.27304
#
# Static dielectric constant tensor:
#      x y z
#    x 2.034720 -0.058510 0.044850 
#    y -0.058510 1.792810 -0.002510 
#    z 0.044850 -0.002510 1.886450 
# 
# From -- ./inp_files/190999.got.cif
#   From: 2010.05.17/outbox.cif.g08.bks.cpg/sg2_96_cif.got.tgz:190999.got - 2010.06.03 11:33:40.
