data_PCOD9025081
_publ_section_title
;
Structure prediction by ZEFSAII (Michael W. Deem and Ramdas Pophale) SiO2 
 PCOD9025081
Probable space group: P -1
;
_chemical_formula_sum "Si O2"
_cell_formula_units_Z 15
_cell_length_a 18.181449
_cell_length_b 24.151652
_cell_length_c 8.871596
_cell_angle_alpha 26.189745
_cell_angle_beta 140.830932
_cell_angle_gamma 157.534947
_cell_volume 622.453966
_symmetry_space_group_name_H-M "P -1"
_symmetry_group_IT_number 2
_symmetry_cell_setting 'triclinic'
loop_
_space_group_symop_operation_xyz
x,y,z
-x,-y,-z
loop_
_atom_site_type_symbol
_atom_site_label
_atom_site_fract_x
_atom_site_fract_y
_atom_site_fract_z
Si Si1 0.000000 0.000000 0.500000
Si Si2 0.321855 0.592840 0.519003
Si Si3 0.446421 0.090420 0.632030
Si Si4 0.615721 0.709189 0.473588
Si Si5 0.361865 0.897539 0.675560
Si Si6 0.245634 0.321070 0.642380
Si Si7 0.082527 0.936970 0.473721
Si Si8 0.040701 0.788081 0.307837
O O1 0.764918 0.743125 0.706896
O O2 0.089646 0.010566 0.465436
O O3 0.405219 0.683404 0.598449
O O4 0.470796 0.641460 0.533927
O O5 0.088836 0.353587 0.700724
O O6 0.340345 0.748022 0.092554
O O7 0.456448 0.084138 0.483681
O O8 0.216792 0.930092 0.700464
O O9 0.500000 0.000000 0.000000
O O10 0.476146 0.549799 0.499609
O O11 0.789105 0.961966 0.081266
O O12 0.148019 0.763521 0.608543
O O13 0.500000 0.000000 0.500000
O O14 0.145084 0.270413 0.448068
O O15 0.108642 0.280317 0.642686
O O16 0.196534 0.132606 0.060461
#
# Coordination Sequence:
#
# PCOD9025081 Si02
#       8
#     1   2   2   2   2   2   2   2
#     4  12  24  38  66  98 132 166 216 266 328 396
#     4  10  22  40  67  91 133 176 211 269 334 382
#     4  10  22  41  67  97 133 172 215 270 327 389
#     4  11  23  41  65 100 128 168 222 270 325 393
#     4  11  21  39  69  95 127 173 224 270 321 386
#     4  10  24  42  68  94 132 174 216 268 334 386
#     4  11  22  44  66  97 135 172 216 273 328 391
#     4  11  21  41  66  95 131 169 222 269 323 393
#
# _framework density 24.098168000000001
#
# number of rings (size 3 to 8) (size 9 to 14) (size 15 to 20)
#    0.000    1.333    5.333    0.400    0.000    2.133 
#    0.000    2.000    2.933    0.000    0.000    0.000 
#    0.000    0.000    0.000    0.000    0.000    0.000 
#
# Total GULP energy -83694.956822 kJ/mol
# GULP energy per Si atom -5579.663788 kJ/mol
# Density = 2.404332 g / cm^3
# Si number density = 24.098168 Si / 1000 Ang^3
#
#
#
# Elastic Constant Matrix: (Units=GPa)
#
#
# Indices 1 2 3 4 5 6 
#
# 1 133.4964 78.4383 5.7243 7.8945 -1.5352 -22.8461
# 2 78.4383 218.4340 35.0335 -25.6909 12.0349 -33.3826
# 3 5.7243 35.0335 47.6828 -0.8596 -4.2401 4.3994
# 4 7.8945 -25.6909 -0.8596 43.4122 5.5242 12.0024
# 5 -1.5352 12.0349 -4.2401 5.5242 22.8120 6.6902
# 6 -22.8461 -33.3826 4.3994 12.0024 6.6902 58.7089
#
#
#
# Elastic Compliance Matrix: (Units=1/GPa)
#
#
# Indices 1 2 3 4 5 6 
#
# 1 0.011127 -0.005094 0.002546 -0.006140 0.004825 0.001948
# 2 -0.005094 0.009433 -0.007370 0.006540 -0.009347 0.003662
# 3 0.002546 -0.007370 0.027596 -0.004198 0.011896 -0.005766
# 4 -0.006140 0.006540 -0.004198 0.030248 -0.011005 -0.003286
# 5 0.004825 -0.009347 0.011896 -0.011005 0.056465 -0.008513
# 6 0.001948 0.003662 -0.005766 -0.003286 -0.008513 0.021947
#
#
# Mechanical properties :
#
#
# Convention : Reuss Voigt Hill
#
# Bulk Modulus (GPa) = 35.31336 70.88949 53.10143
# Shear Modulus (GPa) = 26.86826 43.68108 35.27467
#
# Velocity S-wave (km/s) = 3.34271 4.26212 3.83010
# Velocity P-wave (km/s) = 5.43912 7.32814 6.45313
#
# Compressibility (1/GPa) = 0.02831789
#
# Stress axis : x y z
#
# Youngs Moduli (GPa) = 89.87280 106.00807 36.23768
#
# Poissons Ratio (x) = 0.54002 -0.09225
# Poissons Ratio (y) = 0.45783 0.26708
# Poissons Ratio (z) = -0.22879 0.78132
#
# Static dielectric constant tensor:
#      x y z
#    x 1.870300 -0.010430 0.084060 
#    y -0.010430 2.006710 -0.051040 
#    z 0.084060 -0.051040 1.740660 
# 
# From -- ./inp_files/325564.got.cif
#   From: 2010.05.17/outbox.cif.g08.bks.cpg/sg2_163_cif.got.tgz:325564.got - 2010.06.03 11:33:40.
