data_PCOD9025090
_publ_section_title
;
Structure prediction by ZEFSAII (Michael W. Deem and Ramdas Pophale) SiO2 
 PCOD9025090
Probable space group: P -1
;
_chemical_formula_sum "Si O2"
_cell_formula_units_Z 10
_cell_length_a 8.987312
_cell_length_b 10.136937
_cell_length_c 7.918731
_cell_angle_alpha 104.739105
_cell_angle_beta 59.863271
_cell_angle_gamma 63.471967
_cell_volume 438.599526
_symmetry_space_group_name_H-M "P -1"
_symmetry_group_IT_number 2
_symmetry_cell_setting 'triclinic'
loop_
_space_group_symop_operation_xyz
x,y,z
-x,-y,-z
loop_
_atom_site_type_symbol
_atom_site_label
_atom_site_fract_x
_atom_site_fract_y
_atom_site_fract_z
Si Si1 0.465902 0.383022 0.588612
Si Si2 0.251514 0.789914 0.282782
Si Si3 0.073895 0.618417 0.149675
Si Si4 0.412448 0.132619 0.357618
Si Si5 0.673145 0.750746 0.930426
O O1 0.500000 0.500000 0.500000
O O2 0.643783 0.284468 0.613737
O O3 0.500881 0.228599 0.407741
O O4 0.203737 0.524743 0.867626
O O5 0.213059 0.667112 0.173938
O O6 0.438074 0.783978 0.077422
O O7 0.000000 0.000000 0.500000
O O8 0.796727 0.801519 0.377089
O O9 0.125250 0.454926 0.176837
O O10 0.611175 0.911421 0.138804
O O11 0.293455 0.215870 0.267302
#
# Coordination Sequence:
#
# PCOD9025090 Si02
#       5
#     2   2   2   2   2
#     4  11  24  43  66  97 132 166 217 272 315 380
#     4  11  22  43  67  91 131 175 211 258 324 388
#     4  11  22  41  68  90 131 174 211 259 329 384
#     4  11  22  41  65  98 127 165 221 266 318 378
#     4  10  22  40  67  92 134 170 211 263 324 387
#
# _framework density 22.799842000000002
#
# number of rings (size 3 to 8) (size 9 to 14) (size 15 to 20)
#    0.000    1.200    2.000    6.000    0.000    3.200 
#    3.600    2.000    0.000    0.000    0.000    0.000 
#    0.000    0.000    0.000    0.000    0.000    0.000 
#
# Total GULP energy -56011.099597 kJ/mol
# GULP energy per Si atom -5601.109960 kJ/mol
# Density = 2.274795 g / cm^3
# Si number density = 22.799842 Si / 1000 Ang^3
#
#
#
# Elastic Constant Matrix: (Units=GPa)
#
#
# Indices 1 2 3 4 5 6 
#
# 1 109.8857 30.1778 30.0788 14.7904 24.2538 26.8271
# 2 30.1778 91.1858 46.9008 8.0153 22.4386 19.6303
# 3 30.0788 46.9008 109.4735 21.4154 19.0461 -8.1851
# 4 14.7904 8.0153 21.4154 43.4937 10.1023 19.2562
# 5 24.2538 22.4386 19.0461 10.1023 36.5408 15.1947
# 6 26.8271 19.6303 -8.1851 19.2562 15.1947 39.3403
#
#
#
# Elastic Compliance Matrix: (Units=1/GPa)
#
#
# Indices 1 2 3 4 5 6 
#
# 1 0.013075 0.001057 -0.004979 0.003372 -0.003122 -0.010924
# 2 0.001057 0.019970 -0.011543 0.009702 -0.002638 -0.016817
# 3 -0.004979 -0.011543 0.021403 -0.015777 -0.006280 0.023755
# 4 0.003372 0.009702 -0.015777 0.041289 0.001609 -0.031255
# 5 -0.003122 -0.002638 -0.006280 0.001609 0.039702 -0.013983
# 6 -0.010924 -0.016817 0.023755 -0.031255 -0.013983 0.066902
#
#
# Mechanical properties :
#
#
# Convention : Reuss Voigt Hill
#
# Bulk Modulus (GPa) = 42.51700 58.31775 50.41737
# Shear Modulus (GPa) = 20.73754 37.43413 29.08583
#
# Velocity S-wave (km/s) = 3.01914 4.05638 3.57557
# Velocity P-wave (km/s) = 5.55356 6.89729 6.26158
#
# Compressibility (1/GPa) = 0.02352000
#
# Stress axis : x y z
#
# Youngs Moduli (GPa) = 76.48121 50.07438 46.72334
#
# Poissons Ratio (x) = -0.05294 0.23262
# Poissons Ratio (y) = -0.08086 0.53931
# Poissons Ratio (z) = 0.38077 0.57799
#
# Static dielectric constant tensor:
#      x y z
#    x 1.838220 0.000690 0.007280 
#    y 0.000690 1.838780 -0.007170 
#    z 0.007280 -0.007170 1.842270 
# 
# From -- ./inp_files/144036.got.cif
#   From: 2010.05.17/outbox.cif.g08.bks.cpg/sg2_73_cif.got.tgz:144036.got - 2010.06.03 11:33:40.
