data_PCOD9025137
_publ_section_title
;
Structure prediction by ZEFSAII (Michael W. Deem and Ramdas Pophale) SiO2 
 PCOD9025137
Probable space group: P -1
;
_chemical_formula_sum "Si O2"
_cell_formula_units_Z 16
_cell_length_a 14.495062
_cell_length_b 9.967069
_cell_length_c 24.875517
_cell_angle_alpha 33.514883
_cell_angle_beta 23.834769
_cell_angle_gamma 42.758939
_cell_volume 795.347856
_symmetry_space_group_name_H-M "P -1"
_symmetry_group_IT_number 2
_symmetry_cell_setting 'triclinic'
loop_
_space_group_symop_operation_xyz
x,y,z
-x,-y,-z
loop_
_atom_site_type_symbol
_atom_site_label
_atom_site_fract_x
_atom_site_fract_y
_atom_site_fract_z
Si Si1 0.617344 0.256297 0.523230
Si Si2 0.622883 0.334230 0.373614
Si Si3 0.020511 0.056174 0.407626
Si Si4 0.676510 0.203803 0.866011
Si Si5 0.252327 0.089460 0.860244
Si Si6 0.460340 0.774667 0.944785
Si Si7 0.203962 0.359910 0.414312
Si Si8 0.209862 0.132373 0.597242
O O1 0.500000 0.500000 0.500000
O O2 0.639404 0.207810 0.464878
O O3 0.448302 0.086561 0.709969
O O4 0.875546 0.283195 0.399696
O O5 0.718350 0.623686 0.230677
O O6 0.357085 0.289806 0.511615
O O7 0.746967 0.152766 0.329614
O O8 0.282900 0.084084 0.241558
O O9 0.000000 0.000000 0.500000
O O10 0.893274 0.850713 0.504978
O O11 0.644661 0.447483 0.768129
O O12 0.939661 0.149595 0.738030
O O13 0.630765 0.224956 0.946333
O O14 0.500000 0.000000 0.000000
O O15 0.309851 0.909167 0.937732
O O16 0.000000 0.000000 0.000000
O O17 0.500000 0.500000 0.000000
O O18 0.304278 0.257894 0.448929
O O19 0.000000 0.500000 0.500000
#
# Coordination Sequence:
#
# PCOD9025137 Si02
#       8
#     2   2   2   2   2   2   2   2
#     4  10  23  42  69  94 127 179 225 280 332 405
#     4  10  23  43  71  96 129 181 237 280 334 412
#     4  12  23  44  69  98 132 180 237 276 334 414
#     4  11  26  42  67 101 140 177 220 289 351 401
#     4  11  27  44  67 101 143 178 222 289 352 409
#     4  12  28  42  68 103 141 182 225 287 351 405
#     4  10  22  40  67  95 131 177 222 277 330 409
#     4  10  22  44  72  96 130 181 239 280 331 420
#
# _framework density 20.116983000000001
#
# number of rings (size 3 to 8) (size 9 to 14) (size 15 to 20)
#    0.000    1.250    2.500    2.250   10.500    1.000 
#    0.000    0.625    0.000    0.000    0.000    0.000 
#    0.000    0.000    0.000    0.000    0.000    0.000 
#
# Total GULP energy -89200.101989 kJ/mol
# GULP energy per Si atom -5575.006374 kJ/mol
# Density = 2.007120 g / cm^3
# Si number density = 20.116983 Si / 1000 Ang^3
#
#
#
# Elastic Constant Matrix: (Units=GPa)
#
#
# Indices 1 2 3 4 5 6 
#
# 1 160.7407 42.5743 60.6946 -10.8105 6.1592 -17.0580
# 2 42.5743 93.7339 28.8163 -13.6736 -3.4624 -7.7177
# 3 60.6946 28.8163 101.4841 -6.5546 -0.2902 -4.6693
# 4 -10.8105 -13.6736 -6.5546 35.7361 1.3455 -5.5984
# 5 6.1592 -3.4624 -0.2902 1.3455 49.2014 2.2963
# 6 -17.0580 -7.7177 -4.6693 -5.5984 2.2963 33.7759
#
#
#
# Elastic Compliance Matrix: (Units=1/GPa)
#
#
# Indices 1 2 3 4 5 6 
#
# 1 0.009107 -0.002231 -0.004528 0.001733 -0.001551 0.003856
# 2 -0.002231 0.013150 -0.002015 0.004302 0.000970 0.002246
# 3 -0.004528 -0.002015 0.013098 0.000091 0.000545 -0.000959
# 4 0.001733 0.004302 0.000091 0.031330 -0.001104 0.007139
# 5 -0.001551 0.000970 0.000545 -0.001104 0.020717 -0.002078
# 6 0.003856 0.002246 -0.000959 0.007139 -0.002078 0.033260
#
#
# Mechanical properties :
#
#
# Convention : Reuss Voigt Hill
#
# Bulk Modulus (GPa) = 56.16483 68.90321 62.53402
# Shear Modulus (GPa) = 34.68681 38.66759 36.67720
#
# Velocity S-wave (km/s) = 4.15692 4.38897 4.27452
# Velocity P-wave (km/s) = 7.14281 7.74660 7.45082
#
# Compressibility (1/GPa) = 0.01780474
#
# Stress axis : x y z
#
# Youngs Moduli (GPa) = 109.80197 76.04569 76.35020
#
# Poissons Ratio (x) = 0.16969 0.34573
# Poissons Ratio (y) = 0.24501 0.15387
# Poissons Ratio (z) = 0.49721 0.15326
#
# Static dielectric constant tensor:
#      x y z
#    x 1.692690 0.004510 0.038210 
#    y 0.004510 1.808790 -0.001660 
#    z 0.038210 -0.001660 1.687330 
# 
# From -- ./inp_files/532638.got.cif
#   From: 2010.05.17/outbox.cif.g08.bks.cpg/sg2_267_cif.got.tgz:532638.got - 2010.06.03 11:33:40.
