data_PCOD9025821
_publ_section_title
;
Structure prediction by ZEFSAII (Michael W. Deem and Ramdas Pophale) SiO2 
 PCOD9025821
Probable space group: P -1
;
_chemical_formula_sum "Si O2"
_cell_formula_units_Z 15
_cell_length_a 19.002305
_cell_length_b 5.244578
_cell_length_c 8.205052
_cell_angle_alpha 54.550857
_cell_angle_beta 74.129657
_cell_angle_gamma 63.972514
_cell_volume 598.372497
_symmetry_space_group_name_H-M "P -1"
_symmetry_group_IT_number 2
_symmetry_cell_setting 'triclinic'
loop_
_space_group_symop_operation_xyz
x,y,z
-x,-y,-z
loop_
_atom_site_type_symbol
_atom_site_label
_atom_site_fract_x
_atom_site_fract_y
_atom_site_fract_z
Si Si1 0.052450 0.701831 0.967625
Si Si2 0.814194 0.866892 0.728191
Si Si3 0.457002 0.469428 0.873236
Si Si4 0.215731 0.127854 0.635418
Si Si5 0.500000 0.500000 0.500000
Si Si6 0.307407 0.363127 0.957082
Si Si7 0.631448 0.786791 0.385426
Si Si8 0.088690 0.759404 0.575506
O O1 0.089320 0.819337 0.745580
O O2 0.119567 0.468438 0.127112
O O3 0.000000 0.500000 0.000000
O O4 0.000000 0.000000 0.000000
O O5 0.798375 0.883999 0.541468
O O6 0.856817 0.132332 0.624282
O O7 0.736171 0.871550 0.860903
O O8 0.496917 0.274845 0.755873
O O9 0.380622 0.388629 0.998524
O O10 0.425427 0.840082 0.665494
O O11 0.500000 0.500000 0.000000
O O12 0.286215 0.278538 0.552217
O O13 0.134087 0.358978 0.684224
O O14 0.250508 0.751397 0.825181
O O15 0.579413 0.555970 0.503866
O O16 0.340806 0.216453 0.815948
O O17 0.000000 0.000000 0.500000
#
# Coordination Sequence:
#
# PCOD9025821 Si02
#       8
#     2   2   2   2   1   2   2   2
#     4  12  28  48  76 107 151 193 250 322 389 468
#     4  12  26  43  74 104 141 193 249 309 383 452
#     4  10  23  44  70 107 145 190 243 305 375 456
#     4  11  25  45  73 102 149 191 246 313 377 455
#     4  10  22  40  72 104 142 194 238 300 372 446
#     4  10  25  47  69 106 146 194 249 304 375 455
#     4  10  22  47  68 102 148 186 245 303 370 452
#     4  12  27  48  72 108 144 192 251 313 385 458
#
# _framework density 25.067999
#
# number of rings (size 3 to 8) (size 9 to 14) (size 15 to 20)
#    0.000    1.067    1.333    3.600    5.600    5.333 
#    9.600    0.000    0.000    0.000    0.000    0.000 
#    0.000    0.000    0.000    0.000    0.000    0.000 
#
# Total GULP energy -83582.270775 kJ/mol
# GULP energy per Si atom -5572.151385 kJ/mol
# Density = 2.501094 g / cm^3
# Si number density = 25.067999 Si / 1000 Ang^3
#
#
#
# Elastic Constant Matrix: (Units=GPa)
#
#
# Indices 1 2 3 4 5 6 
#
# 1 164.3636 6.9946 39.0400 -13.8768 -13.0039 -6.2240
# 2 6.9946 59.0129 7.1267 -15.5139 5.4577 -13.1136
# 3 39.0400 7.1267 87.3255 -2.6501 -19.4367 -18.7910
# 4 -13.8768 -15.5139 -2.6501 24.1453 -14.0946 2.3632
# 5 -13.0039 5.4577 -19.4367 -14.0946 67.1872 -3.6937
# 6 -6.2240 -13.1136 -18.7910 2.3632 -3.6937 32.9277
#
#
#
# Elastic Compliance Matrix: (Units=1/GPa)
#
#
# Indices 1 2 3 4 5 6 
#
# 1 0.007297 0.000682 -0.002826 0.005295 0.001642 -0.000158
# 2 0.000682 0.022544 0.000669 0.015388 0.002197 0.008631
# 3 -0.002826 0.000669 0.015822 0.002577 0.005019 0.009139
# 4 0.005295 0.015388 0.002577 0.062172 0.013876 0.005695
# 5 0.001642 0.002197 0.005019 0.013876 0.019675 0.005261
# 6 -0.000158 0.008631 0.009139 0.005695 0.005261 0.039174
#
#
# Mechanical properties :
#
#
# Convention : Reuss Voigt Hill
#
# Bulk Modulus (GPa) = 23.41267 46.33605 34.87436
# Shear Modulus (GPa) = 27.19265 42.02142 34.60704
#
# Velocity S-wave (km/s) = 3.29714 4.09870 3.71957
# Velocity P-wave (km/s) = 4.88413 6.39714 5.69114
#
# Compressibility (1/GPa) = 0.04271192
#
# Stress axis : x y z
#
# Youngs Moduli (GPa) = 137.03789 44.35799 63.20249
#
# Poissons Ratio (x) = -0.03023 0.17860
# Poissons Ratio (y) = -0.09340 -0.04225
# Poissons Ratio (z) = 0.38724 -0.02965
#
# Static dielectric constant tensor:
#      x y z
#    x 2.091510 -0.258940 -0.161120 
#    y -0.258940 0.736190 -0.443140 
#    z -0.161120 -0.443140 1.930570 
# 
# From -- ./inp_files/102822.got.cif
#   From: 2010.05.17/outbox.cif.g08.bks.cpg/sg2_52_cif.got.tgz:102822.got - 2010.06.03 11:33:40.
