data_PCOD9025951
_publ_section_title
;
Structure prediction by ZEFSAII (Michael W. Deem and Ramdas Pophale) SiO2 
 PCOD9025951
Probable space group: P -1
;
_chemical_formula_sum "Si O2"
_cell_formula_units_Z 14
_cell_length_a 8.308413
_cell_length_b 13.728498
_cell_length_c 18.718456
_cell_angle_alpha 158.922957
_cell_angle_beta 111.744793
_cell_angle_gamma 80.122847
_cell_volume 608.585778
_symmetry_space_group_name_H-M "P -1"
_symmetry_group_IT_number 2
_symmetry_cell_setting 'triclinic'
loop_
_space_group_symop_operation_xyz
x,y,z
-x,-y,-z
loop_
_atom_site_type_symbol
_atom_site_label
_atom_site_fract_x
_atom_site_fract_y
_atom_site_fract_z
Si Si1 0.292190 0.260249 0.759125
Si Si2 0.116334 0.243062 0.916010
Si Si3 0.125847 0.872972 0.338496
Si Si4 0.257719 0.866888 0.598258
Si Si5 0.111167 0.805050 0.885067
Si Si6 0.478029 0.163911 0.279056
Si Si7 0.186646 0.861593 0.779123
O O1 0.099763 0.283343 0.768902
O O2 0.272460 0.197154 0.627759
O O3 0.239357 0.918494 0.548258
O O4 0.500000 0.500000 0.000000
O O5 0.915410 0.086045 0.723681
O O6 0.262154 0.159203 0.838855
O O7 0.113121 0.085250 0.883746
O O8 0.188813 0.611574 0.178053
O O9 0.453566 0.856796 0.644576
O O10 0.061610 0.560187 0.387922
O O11 0.237857 0.916912 0.909118
O O12 0.254957 0.895451 0.038058
O O13 0.000000 0.000000 0.000000
O O14 0.500000 0.500000 0.500000
O O15 0.632915 0.127031 0.228256
O O16 0.000000 0.500000 0.500000
#
# Coordination Sequence:
#
# PCOD9025951 Si02
#       7
#     2   2   2   2   2   2   2
#     4  10  22  42  62  94 125 160 220 271 329 390
#     4   9  19  39  64  87 123 168 210 263 323 382
#     4   9  20  40  66  88 120 165 213 266 326 384
#     4  10  22  41  59  90 133 164 215 273 321 391
#     4  12  23  40  64  92 134 178 215 268 326 388
#     4  11  22  40  61  93 129 175 219 256 325 392
#     4  11  21  41  63  93 136 169 214 269 320 396
#
# _framework density 23.004152000000001
#
# number of rings (size 3 to 8) (size 9 to 14) (size 15 to 20)
#    0.000    1.714    4.286    0.429    2.000    3.429 
#    2.571    9.286    0.000    0.000    0.000    0.000 
#    0.000    0.000    0.000    0.000    0.000    0.000 
#
# Total GULP energy -78070.058695 kJ/mol
# GULP energy per Si atom -5576.432764 kJ/mol
# Density = 2.295179 g / cm^3
# Si number density = 23.004152 Si / 1000 Ang^3
#
#
#
# Elastic Constant Matrix: (Units=GPa)
#
#
# Indices 1 2 3 4 5 6 
#
# 1 52.5165 10.3072 28.5052 4.9980 -0.8024 -20.2920
# 2 10.3072 119.0347 25.4792 9.7857 0.3379 -20.3525
# 3 28.5052 25.4792 90.3147 -10.4955 3.5896 -19.7360
# 4 4.9980 9.7857 -10.4955 37.4287 -11.2571 -3.1522
# 5 -0.8024 0.3379 3.5896 -11.2571 31.1932 1.8146
# 6 -20.2920 -20.3525 -19.7360 -3.1522 1.8146 40.3062
#
#
#
# Elastic Compliance Matrix: (Units=1/GPa)
#
#
# Indices 1 2 3 4 5 6 
#
# 1 0.027305 0.001459 -0.007332 -0.005521 -0.001074 0.010510
# 2 0.001459 0.009862 -0.002693 -0.003564 -0.001289 0.004175
# 3 -0.007332 -0.002693 0.015544 0.006348 0.000166 0.003049
# 4 -0.005521 -0.003564 0.006348 0.033607 0.011256 0.000651
# 5 -0.001074 -0.001289 0.000166 0.011256 0.036196 -0.001859
# 6 0.010510 0.004175 0.003049 0.000651 -0.001859 0.033837
#
#
# Mechanical properties :
#
#
# Convention : Reuss Voigt Hill
#
# Bulk Modulus (GPa) = 28.10763 43.38325 35.74544
# Shear Modulus (GPa) = 26.97723 34.95723 30.96723
#
# Velocity S-wave (km/s) = 3.42820 3.90244 3.67298
# Velocity P-wave (km/s) = 5.28348 6.26141 5.79311
#
# Compressibility (1/GPa) = 0.03557753
#
# Stress axis : x y z
#
# Youngs Moduli (GPa) = 36.62354 101.40432 64.33450
#
# Poissons Ratio (x) = -0.14794 0.47169
# Poissons Ratio (y) = -0.05343 0.17327
# Poissons Ratio (z) = 0.26852 0.27311
#
# Static dielectric constant tensor:
#      x y z
#    x 1.856570 0.047810 0.015850 
#    y 0.047810 1.996230 -0.009560 
#    z 0.015850 -0.009560 1.967020 
# 
# From -- ./inp_files/294052.got.cif
#   From: 2010.05.17/outbox.cif.g08.bks.cpg/sg2_148_cif.got.tgz:294052.got - 2010.06.03 11:33:40.
