data_PCOD9025940
_publ_section_title
;
Structure prediction by ZEFSAII (Michael W. Deem and Ramdas Pophale) SiO2 
 PCOD9025940
Probable space group: P -1
;
_chemical_formula_sum "Si O2"
_cell_formula_units_Z 15
_cell_length_a 13.249448
_cell_length_b 6.553345
_cell_length_c 10.880812
_cell_angle_alpha 61.645922
_cell_angle_beta 113.680939
_cell_angle_gamma 125.039152
_cell_volume 669.737239
_symmetry_space_group_name_H-M "P -1"
_symmetry_group_IT_number 2
_symmetry_cell_setting 'triclinic'
loop_
_space_group_symop_operation_xyz
x,y,z
-x,-y,-z
loop_
_atom_site_type_symbol
_atom_site_label
_atom_site_fract_x
_atom_site_fract_y
_atom_site_fract_z
Si Si1 0.339902 0.766501 0.374749
Si Si2 0.360831 0.393493 0.905296
Si Si3 0.164941 0.246629 0.326276
Si Si4 0.000000 0.000000 0.500000
Si Si5 0.985777 0.496523 0.140618
Si Si6 0.186633 0.053456 0.130151
Si Si7 0.368287 0.883947 0.630622
Si Si8 0.766777 0.982200 0.270578
O O1 0.289493 0.474527 0.380432
O O2 0.307774 0.777679 0.498411
O O3 0.276668 0.919777 0.230410
O O4 0.487318 0.920014 0.383177
O O5 0.359121 0.644016 0.774297
O O6 0.325625 0.186201 0.835489
O O7 0.500000 0.500000 0.000000
O O8 0.250241 0.248203 0.992412
O O9 0.083955 0.973329 0.434705
O O10 0.070215 0.369953 0.273915
O O11 0.184431 0.207756 0.206258
O O12 0.870440 0.890765 0.380808
O O13 0.848777 0.286184 0.177171
O O14 0.049087 0.801859 0.119982
O O15 0.000000 0.500000 0.000000
O O16 0.310118 0.024303 0.645467
#
# Coordination Sequence:
#
# PCOD9025940 Si02
#       8
#     2   2   2   1   2   2   2   2
#     4  10  23  44  63  98 135 171 235 275 330 417
#     4  12  26  43  65 107 144 172 231 278 338 424
#     4  10  23  39  69  90 131 178 216 282 340 392
#     4  10  22  48  66 100 130 172 242 280 320 406
#     4  10  22  41  58  94 131 166 227 272 320 407
#     4  11  23  42  68  96 134 182 218 279 348 401
#     4  11  25  42  69  98 134 185 223 281 343 399
#     4  11  25  44  72  97 138 181 225 286 343 395
#
# _framework density 22.396844000000002
#
# number of rings (size 3 to 8) (size 9 to 14) (size 15 to 20)
#    0.000    1.333    2.667    1.600    3.733    4.267 
#    0.000    9.333    0.000    0.000    0.000    0.000 
#    0.000    0.000    0.000    0.000    0.000    0.000 
#
# Total GULP energy -83523.952911 kJ/mol
# GULP energy per Si atom -5568.263527 kJ/mol
# Density = 2.234587 g / cm^3
# Si number density = 22.396844 Si / 1000 Ang^3
#
#
#
# Elastic Constant Matrix: (Units=GPa)
#
#
# Indices 1 2 3 4 5 6 
#
# 1 103.3611 61.0692 25.7941 5.4467 -26.8177 -1.6314
# 2 61.0692 163.1692 34.4662 23.9952 -15.8809 5.5143
# 3 25.7941 34.4662 54.2835 11.6416 -6.2674 4.4826
# 4 5.4467 23.9952 11.6416 36.9928 -8.7594 -6.3225
# 5 -26.8177 -15.8809 -6.2674 -8.7594 38.9821 10.9082
# 6 -1.6314 5.5143 4.4826 -6.3225 10.9082 26.5025
#
#
#
# Elastic Compliance Matrix: (Units=1/GPa)
#
#
# Indices 1 2 3 4 5 6 
#
# 1 0.015669 -0.004682 -0.004318 0.004242 0.009156 -0.000087
# 2 -0.004682 0.009201 -0.002297 -0.005100 -0.000158 -0.002966
# 3 -0.004318 -0.002297 0.023704 -0.006241 -0.000021 -0.005277
# 4 0.004242 -0.005100 -0.006241 0.034352 0.005196 0.008434
# 5 0.009156 -0.000158 -0.000021 0.005196 0.036771 -0.013295
# 6 -0.000087 -0.002966 -0.005277 0.008434 -0.013295 0.046721
#
#
# Mechanical properties :
#
#
# Convention : Reuss Voigt Hill
#
# Bulk Modulus (GPa) = 38.49124 62.60809 50.54967
# Shear Modulus (GPa) = 25.29431 33.79441 29.54436
#
# Velocity S-wave (km/s) = 3.36425 3.88866 3.63592
# Velocity P-wave (km/s) = 5.68456 6.94096 6.34394
#
# Compressibility (1/GPa) = 0.02597994
#
# Stress axis : x y z
#
# Youngs Moduli (GPa) = 63.81847 108.68348 42.18740
#
# Poissons Ratio (x) = 0.50888 0.18218
# Poissons Ratio (y) = 0.29881 0.09689
# Poissons Ratio (z) = 0.27559 0.24961
#
# Static dielectric constant tensor:
#      x y z
#    x 1.807920 -0.001050 0.068640 
#    y -0.001050 1.785260 0.010070 
#    z 0.068640 0.010070 1.918010 
# 
# From -- ./inp_files/67993.got.cif
#   From: 2010.05.17/outbox.cif.g08.bks.cpg/sg2_34_cif.got.tgz:67993.got - 2010.06.03 11:33:40.
