data_PCOD9025747
_publ_section_title
;
Structure prediction by ZEFSAII (Michael W. Deem and Ramdas Pophale) SiO2 
 PCOD9025747
Probable space group: P -1
;
_chemical_formula_sum "Si O2"
_cell_formula_units_Z 16
_cell_length_a 9.733551
_cell_length_b 9.820181
_cell_length_c 23.791740
_cell_angle_alpha 33.947821
_cell_angle_beta 36.322273
_cell_angle_gamma 60.307068
_cell_volume 641.131198
_symmetry_space_group_name_H-M "P -1"
_symmetry_group_IT_number 2
_symmetry_cell_setting 'triclinic'
loop_
_space_group_symop_operation_xyz
x,y,z
-x,-y,-z
loop_
_atom_site_type_symbol
_atom_site_label
_atom_site_fract_x
_atom_site_fract_y
_atom_site_fract_z
Si Si1 0.606244 0.937434 0.396514
Si Si2 0.978337 0.890654 0.901820
Si Si3 0.870214 0.135994 0.567808
Si Si4 0.375590 0.416732 0.224833
Si Si5 0.915723 0.487756 0.158399
Si Si6 0.925063 0.649303 0.423998
Si Si7 0.988421 0.566650 0.238865
Si Si8 0.749547 0.793932 0.839119
O O1 0.705718 0.748826 0.463527
O O2 0.294723 0.723396 0.556427
O O3 0.796499 0.038225 0.243946
O O4 0.628607 0.207079 0.330813
O O5 0.990844 0.174576 0.821691
O O6 0.677043 0.657734 0.058796
O O7 0.011419 0.742871 0.996675
O O8 0.811155 0.390309 0.506218
O O9 0.166298 0.294658 0.387601
O O10 0.652445 0.864459 0.697089
O O11 0.873055 0.989173 0.675855
O O12 0.236092 0.528824 0.188633
O O13 0.918687 0.668680 0.852082
O O14 0.971200 0.596092 0.166963
O O15 0.000000 0.500000 0.500000
O O16 0.210040 0.955324 0.217339
O O17 0.500000 0.500000 0.000000
#
# Coordination Sequence:
#
# PCOD9025747 Si02
#       8
#     2   2   2   2   2   2   2   2
#     4  11  26  47  74 110 148 190 241 304 369 430
#     4  12  28  48  73 110 149 191 245 303 365 432
#     4  10  22  43  69 103 137 188 244 284 360 431
#     4  11  26  44  77 102 142 193 241 299 360 434
#     4  11  26  45  71 107 148 193 238 298 365 437
#     4   9  21  41  68 104 139 186 238 296 352 430
#     4  12  26  50  76 107 147 192 246 301 367 436
#     4  10  22  40  71 106 142 185 238 301 361 424
#
# _framework density 24.95589
#
# number of rings (size 3 to 8) (size 9 to 14) (size 15 to 20)
#    0.000    1.250    1.250    2.625    7.000    7.000 
#    0.000    0.000    0.000    0.000    0.000    0.000 
#    0.000    0.000    0.000    0.000    0.000    0.000 
#
# Total GULP energy -89402.832646 kJ/mol
# GULP energy per Si atom -5587.677040 kJ/mol
# Density = 2.489909 g / cm^3
# Si number density = 24.955890 Si / 1000 Ang^3
#
#
#
# Elastic Constant Matrix: (Units=GPa)
#
#
# Indices 1 2 3 4 5 6 
#
# 1 92.2332 10.4441 42.1686 11.1334 10.4248 6.3046
# 2 10.4441 66.3116 17.4620 -2.8636 8.1055 14.3424
# 3 42.1686 17.4620 126.4352 4.0270 6.9586 11.9474
# 4 11.1334 -2.8636 4.0270 45.2379 10.7876 7.6759
# 5 10.4248 8.1055 6.9586 10.7876 46.6017 -3.9876
# 6 6.3046 14.3424 11.9474 7.6759 -3.9876 28.4805
#
#
#
# Elastic Compliance Matrix: (Units=1/GPa)
#
#
# Indices 1 2 3 4 5 6 
#
# 1 0.013341 -0.000842 -0.004128 -0.002510 -0.001671 -0.000355
# 2 -0.000842 0.018577 -0.001166 0.004419 -0.004794 -0.010542
# 3 -0.004128 -0.001166 0.009737 0.000744 -0.000747 -0.002889
# 4 -0.002510 0.004419 0.000744 0.026392 -0.007293 -0.010116
# 5 -0.001671 -0.004794 -0.000747 -0.007293 0.025201 0.008591
# 6 -0.000355 -0.010542 -0.002889 -0.010116 0.008591 0.045640
#
#
# Mechanical properties :
#
#
# Convention : Reuss Voigt Hill
#
# Bulk Modulus (GPa) = 34.03139 47.23662 40.63400
# Shear Modulus (GPa) = 31.06505 38.39103 34.72804
#
# Velocity S-wave (km/s) = 3.53200 3.92644 3.73443
# Velocity P-wave (km/s) = 5.50450 6.28690 5.90866
#
# Compressibility (1/GPa) = 0.02938464
#
# Stress axis : x y z
#
# Youngs Moduli (GPa) = 74.95861 53.83116 102.69806
#
# Poissons Ratio (x) = 0.04530 0.42390
# Poissons Ratio (y) = 0.06308 0.11972
# Poissons Ratio (z) = 0.30940 0.06275
#
# Static dielectric constant tensor:
#      x y z
#    x 2.347210 0.131570 -0.225810 
#    y 0.131570 2.074690 0.032320 
#    z -0.225810 0.032320 2.134300 
# 
# From -- ./inp_files/206481.got.cif
#   From: 2010.05.17/outbox.cif.g08.bks.cpg/sg2_104_cif.got.tgz:206481.got - 2010.06.03 11:33:40.
