data_PCOD9025705
_publ_section_title
;
Structure prediction by ZEFSAII (Michael W. Deem and Ramdas Pophale) SiO2 
 PCOD9025705
Probable space group: P -1
;
_chemical_formula_sum "Si O2"
_cell_formula_units_Z 12
_cell_length_a 12.582674
_cell_length_b 11.448050
_cell_length_c 17.874030
_cell_angle_alpha 138.584262
_cell_angle_beta 20.112577
_cell_angle_gamma 126.909954
_cell_volume 521.357578
_symmetry_space_group_name_H-M "P -1"
_symmetry_group_IT_number 2
_symmetry_cell_setting 'triclinic'
loop_
_space_group_symop_operation_xyz
x,y,z
-x,-y,-z
loop_
_atom_site_type_symbol
_atom_site_label
_atom_site_fract_x
_atom_site_fract_y
_atom_site_fract_z
Si Si1 0.455125 0.028132 0.417919
Si Si2 0.298263 0.371029 0.585339
Si Si3 0.703617 0.699675 0.202024
Si Si4 0.699768 0.539286 0.659906
Si Si5 0.809177 0.029107 0.771026
Si Si6 0.915078 0.367713 0.683902
O O1 0.514265 0.146097 0.366001
O O2 0.353055 0.167909 0.624881
O O3 0.133185 0.988493 0.589493
O O4 0.734110 0.818937 0.166249
O O5 0.500000 0.500000 0.500000
O O6 0.061213 0.382147 0.675736
O O7 0.041275 0.491705 0.880188
O O8 0.392502 0.641151 0.371819
O O9 0.000000 0.500000 0.500000
O O10 0.848518 0.575751 0.501357
O O11 0.376195 0.733815 0.001083
O O12 0.966476 0.865009 0.523399
O O13 0.500000 0.000000 0.000000
O O14 0.500000 0.500000 0.000000
#
# Coordination Sequence:
#
# PCOD9025705 Si02
#       6
#     2   2   2   2   2   2
#     4  11  24  44  71  97 136 182 241 280 345 424
#     4  12  26  44  70 102 144 180 227 294 362 409
#     4  11  24  45  70  99 136 185 235 288 340 425
#     4  11  22  44  72  99 137 188 240 280 340 428
#     4  10  22  40  70  98 131 185 232 275 343 419
#     4  11  25  45  70 106 147 179 229 300 358 407
#
# _framework density 23.016831
#
# number of rings (size 3 to 8) (size 9 to 14) (size 15 to 20)
#    0.000    1.000    1.667    5.500    4.667    1.333 
#    3.000    0.000    0.000    0.000    0.000    0.000 
#    0.000    0.000    0.000    0.000    0.000    0.000 
#
# Total GULP energy -66975.554912 kJ/mol
# GULP energy per Si atom -5581.296243 kJ/mol
# Density = 2.296444 g / cm^3
# Si number density = 23.016831 Si / 1000 Ang^3
#
#
#
# Elastic Constant Matrix: (Units=GPa)
#
#
# Indices 1 2 3 4 5 6 
#
# 1 120.8473 67.9859 29.4200 5.5415 2.9524 7.3983
# 2 67.9859 156.2057 24.9463 -14.5551 5.4904 -3.2760
# 3 29.4200 24.9463 79.6832 11.9113 6.9516 1.2175
# 4 5.5415 -14.5551 11.9113 45.4092 2.2403 -2.4834
# 5 2.9524 5.4904 6.9516 2.2403 26.1674 13.1722
# 6 7.3983 -3.2760 1.2175 -2.4834 13.1722 61.2699
#
#
#
# Elastic Compliance Matrix: (Units=1/GPa)
#
#
# Indices 1 2 3 4 5 6 
#
# 1 0.012018 -0.005180 -0.002534 -0.002665 0.001717 -0.002155
# 2 -0.005180 0.009410 -0.001499 0.004253 -0.002272 0.001819
# 3 -0.002534 -0.001499 0.014808 -0.003870 -0.003239 0.000471
# 4 -0.002665 0.004253 -0.003870 0.024988 -0.002835 0.002248
# 5 0.001717 -0.002272 -0.003239 -0.002835 0.044622 -0.009972
# 6 -0.002155 0.001819 0.000471 0.002248 -0.009972 0.018904
#
#
# Mechanical properties :
#
#
# Convention : Reuss Voigt Hill
#
# Bulk Modulus (GPa) = 56.14547 66.82673 61.48610
# Shear Modulus (GPa) = 33.53161 42.19492 37.86327
#
# Velocity S-wave (km/s) = 3.82098 4.28626 4.06029
# Velocity P-wave (km/s) = 6.62667 7.32072 6.98232
#
# Compressibility (1/GPa) = 0.01781088
#
# Stress axis : x y z
#
# Youngs Moduli (GPa) = 83.20844 106.27129 67.52888
#
# Poissons Ratio (x) = 0.55046 0.17113
# Poissons Ratio (y) = 0.43100 0.10122
# Poissons Ratio (z) = 0.21086 0.15929
#
# Static dielectric constant tensor:
#      x y z
#    x 1.931560 -0.019540 -0.105530 
#    y -0.019540 1.922130 -0.072230 
#    z -0.105530 -0.072230 2.095280 
# 
# From -- ./inp_files/150992.got.cif
#   From: 2010.05.17/outbox.cif.g08.bks.cpg/sg2_76_cif.got.tgz:150992.got - 2010.06.03 11:33:40.
