data_PCOD9025831
_publ_section_title
;
Structure prediction by ZEFSAII (Michael W. Deem and Ramdas Pophale) SiO2 
 PCOD9025831
Probable space group: P -1
;
_chemical_formula_sum "Si O2"
_cell_formula_units_Z 14
_cell_length_a 12.846498
_cell_length_b 10.113012
_cell_length_c 9.532537
_cell_angle_alpha 97.767473
_cell_angle_beta 135.331040
_cell_angle_gamma 49.080600
_cell_volume 514.882317
_symmetry_space_group_name_H-M "P -1"
_symmetry_group_IT_number 2
_symmetry_cell_setting 'triclinic'
loop_
_space_group_symop_operation_xyz
x,y,z
-x,-y,-z
loop_
_atom_site_type_symbol
_atom_site_label
_atom_site_fract_x
_atom_site_fract_y
_atom_site_fract_z
Si Si1 0.055177 0.608918 0.891577
Si Si2 0.683982 0.698056 0.660522
Si Si3 0.819792 0.060512 0.725953
Si Si4 0.478472 0.352891 0.857174
Si Si5 0.083254 0.295472 0.604765
Si Si6 0.442901 0.015410 0.164365
Si Si7 0.441929 0.657912 0.760653
O O1 0.130323 0.537138 0.116032
O O2 0.323616 0.412503 0.049378
O O3 0.839294 0.655080 0.679857
O O4 0.944480 0.829582 0.779559
O O5 0.436780 0.792556 0.421901
O O6 0.386479 0.132295 0.272192
O O7 0.536280 0.436438 0.825085
O O8 0.744992 0.186806 0.526178
O O9 0.000000 0.000000 0.000000
O O10 0.526260 0.167583 0.827622
O O11 0.180154 0.588904 0.631570
O O12 0.628216 0.260656 0.134027
O O13 0.317383 0.093012 0.699519
O O14 0.000000 0.500000 0.500000
O O15 0.208505 0.203869 0.863476
#
# Coordination Sequence:
#
# PCOD9025831 Si02
#       7
#     2   2   2   2   2   2   2
#     4  10  24  45  72 100 144 186 241 302 356 425
#     4  10  24  45  72 109 139 191 241 297 366 429
#     4  11  26  47  73 103 142 193 248 297 360 428
#     4  10  23  45  69 110 146 193 240 292 372 433
#     4   9  21  36  64 105 142 180 230 295 360 425
#     4  10  22  40  72 106 145 182 243 298 363 438
#     4  10  25  45  73 103 149 197 240 297 363 437
#
# _framework density 27.190677999999998
#
# number of rings (size 3 to 8) (size 9 to 14) (size 15 to 20)
#    0.000    2.000    0.000    0.429   14.000    6.857 
#    0.000    5.714    0.000    0.000    0.000    0.000 
#    0.000    0.000    0.000    0.000    0.000    0.000 
#
# Total GULP energy -78395.320961 kJ/mol
# GULP energy per Si atom -5599.665783 kJ/mol
# Density = 2.712879 g / cm^3
# Si number density = 27.190678 Si / 1000 Ang^3
#
#
#
# Elastic Constant Matrix: (Units=GPa)
#
#
# Indices 1 2 3 4 5 6 
#
# 1 145.4357 44.2930 78.3422 -2.1838 3.1640 16.0054
# 2 44.2930 121.2685 79.6685 7.8136 -8.5710 10.9569
# 3 78.3422 79.6685 247.4043 15.6039 -10.9616 18.5286
# 4 -2.1838 7.8136 15.6039 53.4998 4.3639 5.3116
# 5 3.1640 -8.5710 -10.9616 4.3639 62.3509 -3.8582
# 6 16.0054 10.9569 18.5286 5.3116 -3.8582 45.9810
#
#
#
# Elastic Compliance Matrix: (Units=1/GPa)
#
#
# Indices 1 2 3 4 5 6 
#
# 1 0.008913 -0.001786 -0.002252 0.001595 -0.001333 -0.002066
# 2 -0.001786 0.010934 -0.002801 -0.000879 0.001122 -0.000659
# 3 -0.002252 -0.002801 0.005830 -0.001383 0.000810 -0.000670
# 4 0.001595 -0.000879 -0.001383 0.019669 -0.001959 -0.002225
# 5 -0.001333 0.001122 0.000810 -0.001959 0.016632 0.001492
# 6 -0.002066 -0.000659 -0.000670 -0.002225 0.001492 0.023277
#
#
# Mechanical properties :
#
#
# Convention : Reuss Voigt Hill
#
# Bulk Modulus (GPa) = 83.33947 102.07952 92.70949
# Shear Modulus (GPa) = 48.57466 53.15334 50.86400
#
# Velocity S-wave (km/s) = 4.23122 4.42615 4.32978
# Velocity P-wave (km/s) = 7.38834 7.98403 7.69195
#
# Compressibility (1/GPa) = 0.01199912
#
# Stress axis : x y z
#
# Youngs Moduli (GPa) = 112.18991 91.45656 171.51622
#
# Poissons Ratio (x) = 0.16338 0.38630
# Poissons Ratio (y) = 0.20041 0.48038
# Poissons Ratio (z) = 0.25268 0.25615
#
# Static dielectric constant tensor:
#      x y z
#    x 2.148390 -0.033080 -0.013710 
#    y -0.033080 2.147200 0.004400 
#    z -0.013710 0.004400 2.204130 
# 
# From -- ./inp_files/305148.got.cif
#   From: 2010.05.17/outbox.cif.g08.bks.cpg/sg2_153_cif.got.tgz:305148.got - 2010.06.03 11:33:40.
