data_PCOD9025892
_publ_section_title
;
Structure prediction by ZEFSAII (Michael W. Deem and Ramdas Pophale) SiO2 
 PCOD9025892
Probable space group: P -1
;
_chemical_formula_sum "Si O2"
_cell_formula_units_Z 16
_cell_length_a 18.617509
_cell_length_b 15.972437
_cell_length_c 10.867000
_cell_angle_alpha 141.262451
_cell_angle_beta 156.186230
_cell_angle_gamma 30.441675
_cell_volume 660.470584
_symmetry_space_group_name_H-M "P -1"
_symmetry_group_IT_number 2
_symmetry_cell_setting 'triclinic'
loop_
_space_group_symop_operation_xyz
x,y,z
-x,-y,-z
loop_
_atom_site_type_symbol
_atom_site_label
_atom_site_fract_x
_atom_site_fract_y
_atom_site_fract_z
Si Si1 0.506464 0.531042 0.190891
Si Si2 0.099384 0.545037 0.597460
Si Si3 0.972842 0.352191 0.807572
Si Si4 0.211346 0.239309 0.285872
Si Si5 0.622512 0.125415 0.642519
Si Si6 0.676431 0.885085 0.254046
Si Si7 0.091899 0.016154 0.867759
Si Si8 0.267532 0.968340 0.812464
O O1 0.747014 0.386731 0.449997
O O2 0.502216 0.690775 0.393452
O O3 0.500000 0.500000 0.000000
O O4 0.293759 0.560319 0.954604
O O5 0.222003 0.378511 0.519498
O O6 0.000000 0.500000 0.500000
O O7 0.909679 0.705198 0.404344
O O8 0.160758 0.163350 0.841343
O O9 0.000000 0.500000 0.000000
O O10 0.000965 0.329795 0.971382
O O11 0.435510 0.128437 0.431696
O O12 0.151331 0.137023 0.154478
O O13 0.712599 0.999624 0.526783
O O14 0.798009 0.113467 0.998461
O O15 0.500000 0.000000 0.000000
O O16 0.524778 0.855488 0.066138
O O17 0.210758 0.959264 0.854984
O O18 0.851045 0.077491 0.522610
#
# Coordination Sequence:
#
# PCOD9025892 Si02
#       8
#     2   2   2   2   2   2   2   2
#     4  12  25  43  78 108 139 191 249 304 354 448
#     4  12  30  49  70 109 156 191 241 312 384 433
#     4  11  20  40  72 104 136 175 253 296 358 416
#     4  11  23  43  72 100 135 192 239 299 355 445
#     4  12  23  44  76 100 141 191 255 296 359 450
#     4  12  29  47  70 104 157 194 237 310 387 436
#     4  10  22  40  74 106 134 178 258 301 362 423
#     4  10  23  42  69 106 141 188 233 315 362 449
#
# _framework density 24.225151
#
# number of rings (size 3 to 8) (size 9 to 14) (size 15 to 20)
#    0.000    0.750    5.000    1.875    8.750    2.500 
#    2.250    1.250    0.000    0.000    0.000    0.000 
#    0.000    0.000    0.000    0.000    0.000    0.000 
#
# Total GULP energy -89283.338514 kJ/mol
# GULP energy per Si atom -5580.208657 kJ/mol
# Density = 2.417001 g / cm^3
# Si number density = 24.225151 Si / 1000 Ang^3
#
#
#
# Elastic Constant Matrix: (Units=GPa)
#
#
# Indices 1 2 3 4 5 6 
#
# 1 49.3533 1.9327 17.4122 -9.9821 -2.0743 7.7073
# 2 1.9327 93.5330 15.8825 7.1644 4.1440 4.7391
# 3 17.4122 15.8825 140.0713 -10.2906 -1.9773 3.9264
# 4 -9.9821 7.1644 -10.2906 41.4569 7.6319 -0.2007
# 5 -2.0743 4.1440 -1.9773 7.6319 47.9049 -1.4271
# 6 7.7073 4.7391 3.9264 -0.2007 -1.4271 18.4758
#
#
#
# Elastic Compliance Matrix: (Units=1/GPa)
#
#
# Indices 1 2 3 4 5 6 
#
# 1 0.023544 -0.000009 -0.002294 0.005086 -0.000161 -0.009289
# 2 -0.000009 0.011259 -0.001370 -0.002160 -0.000767 -0.002676
# 3 -0.002294 -0.001370 0.007706 0.001582 0.000076 -0.000306
# 4 0.005086 -0.002160 0.001582 0.026812 -0.003856 -0.001910
# 5 -0.000161 -0.000767 0.000076 -0.003856 0.021607 0.001875
# 6 -0.009289 -0.002676 -0.000306 -0.001910 0.001875 0.058875
#
#
# Mechanical properties :
#
#
# Convention : Reuss Voigt Hill
#
# Bulk Modulus (GPa) = 28.43862 39.26803 33.85332
# Shear Modulus (GPa) = 29.60839 38.08287 33.84563
#
# Velocity S-wave (km/s) = 3.49981 3.96920 3.74187
# Velocity P-wave (km/s) = 5.30060 6.10334 5.71608
#
# Compressibility (1/GPa) = 0.03516345
#
# Stress axis : x y z
#
# Youngs Moduli (GPa) = 42.47316 88.81611 129.77586
#
# Poissons Ratio (x) = 0.00077 0.29771
# Poissons Ratio (y) = 0.00037 0.17780
# Poissons Ratio (z) = 0.09743 0.12168
#
# Static dielectric constant tensor:
#      x y z
#    x 2.096510 0.103390 -0.033070 
#    y 0.103390 2.223720 -0.031340 
#    z -0.033070 -0.031340 1.935510 
# 
# From -- ./inp_files/472450.got.cif
#   From: 2010.05.17/outbox.cif.g08.bks.cpg/sg2_237_cif.got.tgz:472450.got - 2010.06.03 11:33:40.
