data_PCOD9025279
_publ_section_title
;
Structure prediction by ZEFSAII (Michael W. Deem and Ramdas Pophale) SiO2 
 PCOD9025279
Probable space group: P -1
;
_chemical_formula_sum "Si O2"
_cell_formula_units_Z 15
_cell_length_a 14.218219
_cell_length_b 13.842461
_cell_length_c 8.938528
_cell_angle_alpha 43.983176
_cell_angle_beta 52.525678
_cell_angle_gamma 30.356021
_cell_volume 617.020087
_symmetry_space_group_name_H-M "P -1"
_symmetry_group_IT_number 2
_symmetry_cell_setting 'triclinic'
loop_
_space_group_symop_operation_xyz
x,y,z
-x,-y,-z
loop_
_atom_site_type_symbol
_atom_site_label
_atom_site_fract_x
_atom_site_fract_y
_atom_site_fract_z
Si Si1 0.918097 0.677942 0.607224
Si Si2 0.089351 0.984569 0.783078
Si Si3 0.219248 0.217150 0.705718
Si Si4 0.378973 0.799216 0.370402
Si Si5 0.500000 0.500000 0.000000
Si Si6 0.393717 0.469381 0.834149
Si Si7 0.429634 0.022903 0.207380
Si Si8 0.971999 0.846676 0.862721
O O1 0.818196 0.723689 0.497549
O O2 0.783230 0.757492 0.784680
O O3 0.115501 0.423241 0.684051
O O4 0.938022 0.826772 0.417395
O O5 0.302987 0.743853 0.858867
O O6 0.990210 0.989349 0.740030
O O7 0.000000 0.000000 0.000000
O O8 0.434259 0.033588 0.740987
O O9 0.121340 0.161729 0.908481
O O10 0.386087 0.634139 0.594996
O O11 0.495029 0.709972 0.204197
O O12 0.450749 0.835643 0.389543
O O13 0.168958 0.033277 0.272034
O O14 0.492172 0.392415 0.985241
O O15 0.182292 0.607787 0.897649
O O16 0.500000 0.000000 0.000000
#
# Coordination Sequence:
#
# PCOD9025279 Si02
#       8
#     2   2   2   2   1   2   2   2
#     4  11  27  48  71 105 139 185 243 292 357 421
#     4  11  22  42  72 104 137 177 227 297 354 415
#     4  11  26  48  71 103 141 186 239 296 351 420
#     4  11  24  45  64 102 138 186 232 283 351 422
#     4  10  22  40  68 106 134 178 226 286 354 412
#     4  10  24  41  70 101 140 175 232 296 350 415
#     4  12  26  45  71  97 142 191 234 283 350 428
#     4  11  22  42  72  99 136 179 230 289 353 415
#
# _framework density 24.310390999999999
#
# number of rings (size 3 to 8) (size 9 to 14) (size 15 to 20)
#    0.000    1.067    2.667    3.200    1.867    5.867 
#    7.200    0.000    0.000    0.000    0.000    0.000 
#    0.000    0.000    0.000    0.000    0.000    0.000 
#
# Total GULP energy -83701.414686 kJ/mol
# GULP energy per Si atom -5580.094312 kJ/mol
# Density = 2.425506 g / cm^3
# Si number density = 24.310391 Si / 1000 Ang^3
#
#
#
# Elastic Constant Matrix: (Units=GPa)
#
#
# Indices 1 2 3 4 5 6 
#
# 1 102.4795 29.9105 4.7071 6.2118 -3.6522 -3.5603
# 2 29.9105 94.5914 24.4872 21.6333 -17.3666 9.8611
# 3 4.7071 24.4872 53.7014 13.2203 -13.8633 -2.2720
# 4 6.2118 21.6333 13.2203 42.8814 10.8360 -0.9935
# 5 -3.6522 -17.3666 -13.8633 10.8360 30.0924 -3.3951
# 6 -3.5603 9.8611 -2.2720 -0.9935 -3.3951 36.6148
#
#
#
# Elastic Compliance Matrix: (Units=1/GPa)
#
#
# Indices 1 2 3 4 5 6 
#
# 1 0.010945 -0.004095 0.000724 0.000465 -0.000625 0.002167
# 2 -0.004095 0.017537 -0.002064 -0.010765 0.012050 -0.004424
# 3 0.000724 -0.002064 0.026307 -0.010975 0.015350 0.003384
# 4 0.000465 -0.010765 -0.010975 0.038388 -0.024923 0.000994
# 5 -0.000625 0.012050 0.015350 -0.024923 0.056404 0.002200
# 6 0.002167 -0.004424 0.003384 0.000994 0.002200 0.029155
#
#
# Mechanical properties :
#
#
# Convention : Reuss Voigt Hill
#
# Bulk Modulus (GPa) = 22.76986 40.99798 31.88392
# Shear Modulus (GPa) = 24.48053 34.69553 29.58803
#
# Velocity S-wave (km/s) = 3.17677 3.78191 3.49247
# Velocity P-wave (km/s) = 4.77938 5.99762 5.42282
#
# Compressibility (1/GPa) = 0.04391771
#
# Stress axis : x y z
#
# Youngs Moduli (GPa) = 91.36684 57.02379 38.01329
#
# Poissons Ratio (x) = 0.23353 -0.02752
# Poissons Ratio (y) = 0.37417 0.07845
# Poissons Ratio (z) = -0.06614 0.11768
#
# Static dielectric constant tensor:
#      x y z
#    x 1.904290 0.061140 -0.038130 
#    y 0.061140 1.983050 0.026420 
#    z -0.038130 0.026420 1.934180 
# 
# From -- ./inp_files/261459.got.cif
#   From: 2010.05.17/outbox.cif.g08.bks.cpg/sg2_131_cif.got.tgz:261459.got - 2010.06.03 11:33:40.
