data_PCOD9025410
_publ_section_title
;
Structure prediction by ZEFSAII (Michael W. Deem and Ramdas Pophale) SiO2 
 PCOD9025410
Probable space group: P -1
;
_chemical_formula_sum "Si O2"
_cell_formula_units_Z 15
_cell_length_a 17.306981
_cell_length_b 10.098259
_cell_length_c 14.292830
_cell_angle_alpha 44.984063
_cell_angle_beta 158.152890
_cell_angle_gamma 135.420236
_cell_volume 642.185957
_symmetry_space_group_name_H-M "P -1"
_symmetry_group_IT_number 2
_symmetry_cell_setting 'triclinic'
loop_
_space_group_symop_operation_xyz
x,y,z
-x,-y,-z
loop_
_atom_site_type_symbol
_atom_site_label
_atom_site_fract_x
_atom_site_fract_y
_atom_site_fract_z
Si Si1 0.084002 0.546335 0.853683
Si Si2 0.122333 0.070152 0.911357
Si Si3 0.794117 0.273112 0.535665
Si Si4 0.576441 0.794785 0.974316
Si Si5 0.479182 0.180502 0.746745
Si Si6 0.883351 0.661284 0.826804
Si Si7 0.807522 0.834849 0.402426
Si Si8 0.500000 0.000000 0.500000
O O1 0.973438 0.450826 0.684064
O O2 0.912612 0.662847 0.641852
O O3 0.307841 0.695749 0.029809
O O4 0.120248 0.378004 0.046703
O O5 0.037742 0.860962 0.878599
O O6 0.923217 0.133511 0.700496
O O7 0.232191 0.199596 0.885416
O O8 0.294466 0.052556 0.191774
O O9 0.631816 0.323981 0.250814
O O10 0.659006 0.160555 0.526439
O O11 0.534710 0.013528 0.828243
O O12 0.648822 0.755045 0.179112
O O13 0.349556 0.319202 0.478234
O O14 0.321486 0.091003 0.697452
O O15 0.000000 0.500000 0.000000
O O16 0.000000 0.000000 0.500000
#
# Coordination Sequence:
#
# PCOD9025410 Si02
#       8
#     2   2   2   2   2   2   2   1
#     4  12  27  43  70 112 141 182 233 299 351 423
#     4  11  23  42  70 100 143 186 230 286 353 418
#     4  11  25  45  70 105 145 189 234 284 357 423
#     4  11  25  44  76 102 135 197 242 280 354 430
#     4  12  25  46  75 104 138 187 236 298 359 417
#     4  12  23  43  70 106 143 175 233 291 356 422
#     4  12  26  48  75 100 142 185 247 297 348 416
#     4  10  22  40  68  98 140 190 226 270 354 432
#
# _framework density 23.357721000000002
#
# number of rings (size 3 to 8) (size 9 to 14) (size 15 to 20)
#    0.000    0.533    5.333    2.800    0.000    3.733 
#    0.000    1.333    0.000    0.000    0.000    0.000 
#    0.000    0.000    0.000    0.000    0.000    0.000 
#
# Total GULP energy -83634.765913 kJ/mol
# GULP energy per Si atom -5575.651061 kJ/mol
# Density = 2.330456 g / cm^3
# Si number density = 23.357721 Si / 1000 Ang^3
#
#
#
# Elastic Constant Matrix: (Units=GPa)
#
#
# Indices 1 2 3 4 5 6 
#
# 1 48.8616 9.0553 26.7011 9.4825 -5.5242 3.8139
# 2 9.0553 57.1426 38.0964 16.6031 -0.1467 -9.7588
# 3 26.7011 38.0964 158.2243 11.0112 -9.3229 6.4975
# 4 9.4825 16.6031 11.0112 41.6956 1.2159 1.9752
# 5 -5.5242 -0.1467 -9.3229 1.2159 37.6441 -3.5954
# 6 3.8139 -9.7588 6.4975 1.9752 -3.5954 23.4808
#
#
#
# Elastic Compliance Matrix: (Units=1/GPa)
#
#
# Indices 1 2 3 4 5 6 
#
# 1 0.023691 -0.000796 -0.003262 -0.004164 0.002558 -0.002534
# 2 -0.000796 0.026940 -0.006252 -0.009554 0.000073 0.013871
# 3 -0.003262 -0.006252 0.008543 0.001148 0.001160 -0.004352
# 4 -0.004164 -0.009554 0.001148 0.028787 -0.001898 -0.006324
# 5 0.002558 0.000073 0.001160 -0.001898 0.027641 0.003686
# 6 -0.002534 0.013871 -0.004352 -0.006324 0.003686 0.051065
#
#
# Mechanical properties :
#
#
# Convention : Reuss Voigt Hill
#
# Bulk Modulus (GPa) = 25.93799 45.77046 35.85423
# Shear Modulus (GPa) = 24.98274 33.25583 29.11929
#
# Velocity S-wave (km/s) = 3.27398 3.77737 3.53465
# Velocity P-wave (km/s) = 5.04189 6.21793 5.66054
#
# Compressibility (1/GPa) = 0.03855349
#
# Stress axis : x y z
#
# Youngs Moduli (GPa) = 42.21005 37.11989 117.05234
#
# Poissons Ratio (x) = 0.02955 0.38179
# Poissons Ratio (y) = 0.03360 0.73186
# Poissons Ratio (z) = 0.13768 0.23209
#
# Static dielectric constant tensor:
#      x y z
#    x 1.906690 -0.028480 -0.020290 
#    y -0.028480 1.908860 -0.022270 
#    z -0.020290 -0.022270 1.886720 
# 
# From -- ./inp_files/97500.got.cif
#   From: 2010.05.17/outbox.cif.g08.bks.cpg/sg2_49_cif.got.tgz:97500.got - 2010.06.03 11:33:40.
