data_PCOD9025234
_publ_section_title
;
Structure prediction by ZEFSAII (Michael W. Deem and Ramdas Pophale) SiO2 
 PCOD9025234
Probable space group: P -1
;
_chemical_formula_sum "Si O2"
_cell_formula_units_Z 16
_cell_length_a 10.682128
_cell_length_b 25.888939
_cell_length_c 8.623054
_cell_angle_alpha 50.441623
_cell_angle_beta 131.686241
_cell_angle_gamma 156.228070
_cell_volume 714.704711
_symmetry_space_group_name_H-M "P -1"
_symmetry_group_IT_number 2
_symmetry_cell_setting 'triclinic'
loop_
_space_group_symop_operation_xyz
x,y,z
-x,-y,-z
loop_
_atom_site_type_symbol
_atom_site_label
_atom_site_fract_x
_atom_site_fract_y
_atom_site_fract_z
Si Si1 0.577942 0.275837 0.297699
Si Si2 0.791992 0.465369 0.522569
Si Si3 0.341583 0.393054 0.691770
Si Si4 0.216940 0.008284 0.141769
Si Si5 0.656831 0.661400 0.871668
Si Si6 0.380945 0.928834 0.878837
Si Si7 0.424268 0.868715 0.493436
Si Si8 0.571361 0.718924 0.161302
O O1 0.408057 0.282823 0.226484
O O2 0.450357 0.156186 0.442550
O O3 0.949845 0.405318 0.411657
O O4 0.549985 0.276557 0.087793
O O5 0.538589 0.417336 0.297734
O O6 0.625300 0.351608 0.707855
O O7 0.000000 0.500000 0.500000
O O8 0.500000 0.500000 0.500000
O O9 0.471378 0.368537 0.776241
O O10 0.954024 0.257985 0.613150
O O11 0.418216 0.412180 0.902528
O O12 0.379162 0.045087 0.042162
O O13 0.503236 0.111409 0.302673
O O14 0.947342 0.859742 0.233114
O O15 0.000000 0.000000 0.000000
O O16 0.026675 0.781346 0.898957
O O17 0.400374 0.001907 0.649681
O O18 0.500000 0.000000 0.000000
#
# Coordination Sequence:
#
# PCOD9025234 Si02
#       8
#     2   2   2   2   2   2   2   2
#     4  10  22  43  68 104 142 191 241 283 351 434
#     4  10  22  40  68 100 141 186 235 298 357 408
#     4  11  24  44  71 100 135 192 240 290 356 434
#     4  12  26  47  72 105 139 187 242 290 352 437
#     4  10  23  46  70 102 147 185 235 300 364 410
#     4  12  24  47  74 102 146 185 233 303 359 415
#     4  12  24  42  71 103 142 185 247 280 359 430
#     4  11  21  45  69  95 144 189 238 290 354 423
#
# _framework density 22.386869999999998
#
# number of rings (size 3 to 8) (size 9 to 14) (size 15 to 20)
#    0.000    1.000    3.750    3.000    1.750    2.500 
#    4.500    2.500    0.000    0.000    0.000    0.000 
#    0.000    0.000    0.000    0.000    0.000    0.000 
#
# Total GULP energy -89257.809271 kJ/mol
# GULP energy per Si atom -5578.613079 kJ/mol
# Density = 2.233592 g / cm^3
# Si number density = 22.386870 Si / 1000 Ang^3
#
#
#
# Elastic Constant Matrix: (Units=GPa)
#
#
# Indices 1 2 3 4 5 6 
#
# 1 116.7100 13.0656 24.1265 -10.1870 -5.0682 12.5705
# 2 13.0656 67.4480 16.4766 7.3557 -5.8132 10.2407
# 3 24.1265 16.4766 83.6249 7.8265 -1.3890 3.3830
# 4 -10.1870 7.3557 7.8265 50.9330 -7.1420 -3.3884
# 5 -5.0682 -5.8132 -1.3890 -7.1420 17.8293 -8.5810
# 6 12.5705 10.2407 3.3830 -3.3884 -8.5810 34.2814
#
#
#
# Elastic Compliance Matrix: (Units=1/GPa)
#
#
# Indices 1 2 3 4 5 6 
#
# 1 0.009823 -0.000993 -0.002765 0.002707 0.002282 -0.002194
# 2 -0.000993 0.016689 -0.002599 -0.002179 0.002137 -0.004046
# 3 -0.002765 -0.002599 0.013482 -0.002500 -0.001685 -0.000209
# 4 0.002707 -0.002179 -0.002500 0.022808 0.011415 0.005017
# 5 0.002282 0.002137 -0.001685 0.011415 0.070250 0.017404
# 6 -0.002194 -0.004046 -0.000209 0.005017 0.017404 0.036056
#
#
# Mechanical properties :
#
#
# Convention : Reuss Voigt Hill
#
# Bulk Modulus (GPa) = 36.65527 41.68004 39.16765
# Shear Modulus (GPa) = 26.18952 34.88303 30.53627
#
# Velocity S-wave (km/s) = 3.42403 3.95168 3.69728
# Velocity P-wave (km/s) = 5.66049 6.28327 5.97999
#
# Compressibility (1/GPa) = 0.02728121
#
# Stress axis : x y z
#
# Youngs Moduli (GPa) = 101.80604 59.91800 74.17109
#
# Poissons Ratio (x) = 0.05949 0.20508
# Poissons Ratio (y) = 0.10107 0.19276
# Poissons Ratio (z) = 0.28149 0.15572
#
# Static dielectric constant tensor:
#      x y z
#    x 1.880510 -0.028880 -0.018780 
#    y -0.028880 1.716860 -0.023110 
#    z -0.018780 -0.023110 2.098780 
# 
# From -- ./inp_files/285813.got.cif
#   From: 2010.05.17/outbox.cif.g08.bks.cpg/sg2_143_cif.got.tgz:285813.got - 2010.06.03 11:33:40.
