data_PCOD9025095
_publ_section_title
;
Structure prediction by ZEFSAII (Michael W. Deem and Ramdas Pophale) SiO2 
 PCOD9025095
Probable space group: P -1
;
_chemical_formula_sum "Si O2"
_cell_formula_units_Z 14
_cell_length_a 6.073360
_cell_length_b 12.103545
_cell_length_c 12.128424
_cell_angle_alpha 44.032982
_cell_angle_beta 68.337497
_cell_angle_gamma 59.217358
_cell_volume 532.385736
_symmetry_space_group_name_H-M "P -1"
_symmetry_group_IT_number 2
_symmetry_cell_setting 'triclinic'
loop_
_space_group_symop_operation_xyz
x,y,z
-x,-y,-z
loop_
_atom_site_type_symbol
_atom_site_label
_atom_site_fract_x
_atom_site_fract_y
_atom_site_fract_z
Si Si1 0.313795 0.588464 0.339889
Si Si2 0.685090 0.698352 0.600225
Si Si3 0.814490 0.578560 0.193319
Si Si4 0.005355 0.889532 0.344472
Si Si5 0.296742 0.603704 0.865502
Si Si6 0.780941 0.874737 0.863344
Si Si7 0.785727 0.130006 0.024388
O O1 0.300838 0.407104 0.441174
O O2 0.606112 0.564260 0.328053
O O3 0.130309 0.724733 0.361093
O O4 0.265143 0.693735 0.156566
O O5 0.772703 0.858181 0.464444
O O6 0.425903 0.719257 0.695346
O O7 0.912382 0.559699 0.728617
O O8 0.739468 0.521510 0.130422
O O9 0.800699 0.772140 0.053099
O O10 0.913709 0.069075 0.163532
O O11 0.224756 0.942093 0.319620
O O12 0.007371 0.722338 0.866737
O O13 0.500000 0.500000 0.000000
O O14 0.479453 0.897901 0.889636
O O15 0.000000 0.000000 0.000000
#
# Coordination Sequence:
#
# PCOD9025095 Si02
#       7
#     2   2   2   2   2   2   2
#     4   9  21  40  64  93 124 174 222 265 308 383
#     4  11  23  40  63  94 132 175 215 264 323 383
#     4  10  22  40  67  93 120 166 230 265 319 376
#     4  11  24  39  61  97 140 170 207 265 330 385
#     4  11  24  42  70  94 123 168 227 275 312 380
#     4  11  23  38  67  96 125 168 216 268 324 375
#     4   9  21  40  63  91 130 165 214 261 316 377
#
# _framework density 26.296721000000002
#
# number of rings (size 3 to 8) (size 9 to 14) (size 15 to 20)
#    0.000    1.714    1.429    1.714    4.000   10.857 
#    0.000    1.429    0.000    0.000    0.000    0.000 
#    0.000    0.000    0.000    0.000    0.000    0.000 
#
# Total GULP energy -77987.689596 kJ/mol
# GULP energy per Si atom -5570.549257 kJ/mol
# Density = 2.623687 g / cm^3
# Si number density = 26.296721 Si / 1000 Ang^3
#
#
#
# Elastic Constant Matrix: (Units=GPa)
#
#
# Indices 1 2 3 4 5 6 
#
# 1 46.8969 45.7160 34.5624 2.1162 -29.0121 -4.7432
# 2 45.7160 102.6831 8.5676 8.8359 -19.9515 -19.1486
# 3 34.5624 8.5676 131.2581 -21.2199 -58.0641 9.6323
# 4 2.1162 8.8359 -21.2199 38.7279 -6.4562 -11.3687
# 5 -29.0121 -19.9515 -58.0641 -6.4562 76.1007 2.7136
# 6 -4.7432 -19.1486 9.6323 -11.3687 2.7136 34.5025
#
#
#
# Elastic Compliance Matrix: (Units=1/GPa)
#
#
# Indices 1 2 3 4 5 6 
#
# 1 0.055173 -0.022758 -0.010092 -0.003286 0.007226 -0.003880
# 2 -0.022758 0.020812 0.004100 0.000927 -0.000284 0.007605
# 3 -0.010092 0.004100 0.016441 0.010041 0.010668 -0.001232
# 4 -0.003286 0.000927 0.010041 0.035238 0.009351 0.008135
# 5 0.007226 -0.000284 0.010668 0.009351 0.024790 -0.001011
# 6 -0.003880 0.007605 -0.001232 0.008135 -0.001011 0.035775
#
#
# Mechanical properties :
#
#
# Convention : Reuss Voigt Hill
#
# Bulk Modulus (GPa) = 28.63220 50.94779 39.79000
# Shear Modulus (GPa) = 19.42725 42.66571 31.04648
#
# Velocity S-wave (km/s) = 2.72098 4.03236 3.43975
# Velocity P-wave (km/s) = 4.55888 6.41063 5.56236
#
# Compressibility (1/GPa) = 0.03492571
#
# Stress axis : x y z
#
# Youngs Moduli (GPa) = 18.12489 48.04892 60.82299
#
# Poissons Ratio (x) = 1.09351 0.61385
# Poissons Ratio (y) = 0.41249 -0.24940
# Poissons Ratio (z) = 0.18292 -0.19702
#
# Static dielectric constant tensor:
#      x y z
#    x 2.801950 -0.085940 -0.358060 
#    y -0.085940 2.018220 0.119220 
#    z -0.358060 0.119220 2.491560 
# 
# From -- ./inp_files/118071.got.cif
#   From: 2010.05.17/outbox.cif.g08.bks.cpg/sg2_60_cif.got.tgz:118071.got - 2010.06.03 11:33:40.
