data_PCOD9025013
_publ_section_title
;
Structure prediction by ZEFSAII (Michael W. Deem and Ramdas Pophale) SiO2 
 PCOD9025013
Probable space group: P -1
;
_chemical_formula_sum "Si O2"
_cell_formula_units_Z 13
_cell_length_a 9.824025
_cell_length_b 15.410159
_cell_length_c 10.050867
_cell_angle_alpha 42.138013
_cell_angle_beta 147.739475
_cell_angle_gamma 131.363631
_cell_volume 542.480241
_symmetry_space_group_name_H-M "P -1"
_symmetry_group_IT_number 2
_symmetry_cell_setting 'triclinic'
loop_
_space_group_symop_operation_xyz
x,y,z
-x,-y,-z
loop_
_atom_site_type_symbol
_atom_site_label
_atom_site_fract_x
_atom_site_fract_y
_atom_site_fract_z
Si Si1 0.805792 0.225547 0.287573
Si Si2 0.694425 0.479694 0.802138
Si Si3 0.537588 0.019892 0.782416
Si Si4 0.995882 0.289424 0.663595
Si Si5 0.000000 0.000000 0.000000
Si Si6 0.614489 0.458563 0.282331
Si Si7 0.210567 0.110403 0.607430
O O1 0.683141 0.077836 0.354416
O O2 0.860689 0.264745 0.438008
O O3 0.060629 0.224660 0.409737
O O4 0.640823 0.327041 0.968341
O O5 0.500000 0.500000 0.500000
O O6 0.606195 0.556355 0.771723
O O7 0.000000 0.500000 0.000000
O O8 0.752971 0.044259 0.824114
O O9 0.409198 0.132998 0.625292
O O10 0.658429 0.945623 0.090540
O O11 0.128286 0.155561 0.946323
O O12 0.787979 0.338951 0.538776
O O13 0.194787 0.415579 0.665485
O O14 0.500000 0.500000 0.000000
O O15 0.000000 0.000000 0.500000
#
# Coordination Sequence:
#
# PCOD9025013 Si02
#       7
#     2   2   2   2   1   2   2
#     4  11  22  45  74  94 142 201 238 305 396 452
#     4  12  28  46  74 111 142 187 265 326 364 445
#     4  10  22  40  67 100 145 184 238 295 377 451
#     4  11  25  45  77 104 150 198 255 306 382 462
#     4  12  24  42  68 112 140 180 254 312 356 438
#     4  11  25  51  75 102 150 211 243 306 399 460
#     4   9  20  41  64  93 131 195 224 282 377 451
#
# _framework density 23.964006999999999
#
# number of rings (size 3 to 8) (size 9 to 14) (size 15 to 20)
#    0.000    1.231    3.077    1.846    4.308    1.846 
#    5.538    0.000    0.000    0.000    0.000    0.000 
#    0.000    0.000    0.000    0.000    0.000    0.000 
#
# Total GULP energy -72389.835059 kJ/mol
# GULP energy per Si atom -5568.448851 kJ/mol
# Density = 2.390946 g / cm^3
# Si number density = 23.964007 Si / 1000 Ang^3
#
#
#
# Elastic Constant Matrix: (Units=GPa)
#
#
# Indices 1 2 3 4 5 6 
#
# 1 211.4348 31.0473 34.3696 1.1122 43.8461 -16.9528
# 2 31.0473 95.4781 20.8378 -3.3718 0.1213 -15.3964
# 3 34.3696 20.8378 51.7499 1.8512 12.6827 -20.7127
# 4 1.1122 -3.3718 1.8512 53.4256 -17.9377 10.4921
# 5 43.8461 0.1213 12.6827 -17.9377 37.2635 -2.0037
# 6 -16.9528 -15.3964 -20.7127 10.4921 -2.0037 33.2951
#
#
#
# Elastic Compliance Matrix: (Units=1/GPa)
#
#
# Indices 1 2 3 4 5 6 
#
# 1 0.007658 -0.002063 0.000241 -0.004833 -0.011200 0.003944
# 2 -0.002063 0.012420 -0.004349 0.002387 0.005099 0.001542
# 3 0.000241 -0.004349 0.033942 -0.011100 -0.015995 0.021762
# 4 -0.004833 0.002387 -0.011100 0.030368 0.023191 -0.016436
# 5 -0.011200 0.005099 -0.015995 0.023191 0.055678 -0.017253
# 6 0.003944 0.001542 0.021762 -0.016436 -0.017253 0.050435
#
#
# Mechanical properties :
#
#
# Convention : Reuss Voigt Hill
#
# Bulk Modulus (GPa) = 23.99307 59.01911 41.50609
# Shear Modulus (GPa) = 23.06975 42.95740 33.01358
#
# Velocity S-wave (km/s) = 3.10608 4.23848 3.71567
# Velocity P-wave (km/s) = 4.78513 6.97385 5.98047
#
# Compressibility (1/GPa) = 0.04167870
#
# Stress axis : x y z
#
# Youngs Moduli (GPa) = 130.58924 80.51471 29.46227
#
# Poissons Ratio (x) = 0.16612 -0.00711
# Poissons Ratio (y) = 0.26943 0.12812
# Poissons Ratio (z) = -0.03152 0.35012
#
# Static dielectric constant tensor:
#      x y z
#    x 1.914050 0.090750 0.064570 
#    y 0.090750 1.839310 -0.077790 
#    z 0.064570 -0.077790 1.905490 
# 
# From -- ./inp_files/89324.got.cif
#   From: 2010.05.17/outbox.cif.g08.bks.cpg/sg2_45_cif.got.tgz:89324.got - 2010.06.03 11:33:40.
