data_PCOD9025968
_publ_section_title
;
Structure prediction by ZEFSAII (Michael W. Deem and Ramdas Pophale) SiO2 
 PCOD9025968
Probable space group: P -1
;
_chemical_formula_sum "Si O2"
_cell_formula_units_Z 14
_cell_length_a 22.265839
_cell_length_b 6.705044
_cell_length_c 9.025492
_cell_angle_alpha 72.911496
_cell_angle_beta 45.516586
_cell_angle_gamma 43.654283
_cell_volume 598.265720
_symmetry_space_group_name_H-M "P -1"
_symmetry_group_IT_number 2
_symmetry_cell_setting 'triclinic'
loop_
_space_group_symop_operation_xyz
x,y,z
-x,-y,-z
loop_
_atom_site_type_symbol
_atom_site_label
_atom_site_fract_x
_atom_site_fract_y
_atom_site_fract_z
Si Si1 0.196100 0.418934 0.266036
Si Si2 0.116672 0.151016 0.534433
Si Si3 0.202424 0.862397 0.129853
Si Si4 0.137454 0.417304 0.964997
Si Si5 0.609132 0.981716 0.223963
Si Si6 0.747555 0.837057 0.480785
Si Si7 0.489748 0.273490 0.647549
O O1 0.087391 0.447014 0.464816
O O2 0.155501 0.715915 0.205687
O O3 0.247355 0.346056 0.360046
O O4 0.311296 0.096373 0.041391
O O5 0.218470 0.016004 0.518937
O O6 0.994903 0.270584 0.794918
O O7 0.173204 0.942896 0.336212
O O8 0.155711 0.143438 0.049367
O O9 0.354886 0.572449 0.893500
O O10 0.264154 0.302719 0.829382
O O11 0.144672 0.403601 0.778793
O O12 0.526192 0.945444 0.314683
O O13 0.521792 0.285440 0.419159
O O14 0.611377 0.089218 0.580405
#
# Coordination Sequence:
#
# PCOD9025968 Si02
#       7
#     2   2   2   2   2   2   2
#     4   9  21  40  58  91 117 156 196 230 311 337
#     4  10  22  41  60  87 124 155 192 247 296 346
#     4  11  22  37  63  92 112 161 200 240 287 358
#     4  11  20  39  63  86 121 154 199 243 298 340
#     4   9  18  36  59  85 115 157 182 250 289 333
#     4   9  21  40  61  83 121 165 180 251 300 341
#     4   9  20  38  60  88 121 150 205 233 298 354
#
# _framework density 23.400974999999999
#
# number of rings (size 3 to 8) (size 9 to 14) (size 15 to 20)
#    0.857    1.429    1.429    0.857    0.000    5.714 
#    2.571    9.286    0.000    0.000    0.000    0.000 
#    0.000    0.000    0.000    0.000    0.000    0.000 
#
# Total GULP energy -77974.270344 kJ/mol
# GULP energy per Si atom -5569.590739 kJ/mol
# Density = 2.334771 g / cm^3
# Si number density = 23.400975 Si / 1000 Ang^3
#
#
#
# Elastic Constant Matrix: (Units=GPa)
#
#
# Indices 1 2 3 4 5 6 
#
# 1 109.9715 24.5482 52.9249 8.4287 5.8378 -13.2507
# 2 24.5482 31.1965 4.1901 -2.8132 10.4450 -5.2669
# 3 52.9249 4.1901 184.5314 4.1650 32.8368 -18.5335
# 4 8.4287 -2.8132 4.1650 24.0371 -4.0749 6.7370
# 5 5.8378 10.4450 32.8368 -4.0749 59.2137 -4.1723
# 6 -13.2507 -5.2669 -18.5335 6.7370 -4.1723 18.1543
#
#
#
# Elastic Compliance Matrix: (Units=1/GPa)
#
#
# Indices 1 2 3 4 5 6 
#
# 1 0.014591 -0.011309 -0.003486 -0.007414 0.002482 0.007132
# 2 -0.011309 0.044493 0.004050 0.005738 -0.008249 0.004764
# 3 -0.003486 0.004050 0.007802 -0.002194 -0.004397 0.006399
# 4 -0.007414 0.005738 -0.002194 0.052709 0.002808 -0.024902
# 5 0.002482 -0.008249 -0.004397 0.002808 0.020633 -0.001371
# 6 0.007132 0.004764 0.006399 -0.024902 -0.001371 0.077130
#
#
# Mechanical properties :
#
#
# Convention : Reuss Voigt Hill
#
# Bulk Modulus (GPa) = 22.02833 54.33622 38.18227
# Shear Modulus (GPa) = 19.68654 36.55008 28.11831
#
# Velocity S-wave (km/s) = 2.90361 3.95638 3.47015
# Velocity P-wave (km/s) = 4.54699 6.64384 5.69279
#
# Compressibility (1/GPa) = 0.04539609
#
# Stress axis : x y z
#
# Youngs Moduli (GPa) = 68.53437 22.47538 128.17763
#
# Poissons Ratio (x) = 0.25417 0.44683
# Poissons Ratio (y) = 0.77505 -0.51911
# Poissons Ratio (z) = 0.23891 -0.09102
#
# Static dielectric constant tensor:
#      x y z
#    x 1.951070 0.080650 0.001110 
#    y 0.080650 1.977230 -0.016260 
#    z 0.001110 -0.016260 1.939120 
# 
# From -- ./inp_files/356227.got.cif
#   From: 2010.05.17/outbox.cif.g08.bks.cpg/sg2_179_cif.got.tgz:356227.got - 2010.06.03 11:33:40.
