data_PCOD9025981
_publ_section_title
;
Structure prediction by ZEFSAII (Michael W. Deem and Ramdas Pophale) SiO2 
 PCOD9025981
Probable space group: P -1
;
_chemical_formula_sum "Si O2"
_cell_formula_units_Z 12
_cell_length_a 5.257909
_cell_length_b 21.674565
_cell_length_c 5.724679
_cell_angle_alpha 90.106975
_cell_angle_beta 69.092700
_cell_angle_gamma 52.022290
_cell_volume 458.154577
_symmetry_space_group_name_H-M "P -1"
_symmetry_group_IT_number 2
_symmetry_cell_setting 'triclinic'
loop_
_space_group_symop_operation_xyz
x,y,z
-x,-y,-z
loop_
_atom_site_type_symbol
_atom_site_label
_atom_site_fract_x
_atom_site_fract_y
_atom_site_fract_z
Si Si1 0.705177 0.820294 0.310411
Si Si2 0.433147 0.438992 0.579893
Si Si3 0.995458 0.882073 0.898123
Si Si4 0.513155 0.258627 0.923500
Si Si5 0.467828 0.951825 0.699401
Si Si6 0.629016 0.590360 0.896793
O O1 0.631800 0.764966 0.226453
O O2 0.427167 0.891274 0.588555
O O3 0.111203 0.764387 0.273941
O O4 0.720244 0.869281 0.100674
O O5 0.500000 0.500000 0.500000
O O6 0.550899 0.384954 0.303880
O O7 0.996551 0.495818 0.747985
O O8 0.563721 0.405259 0.802273
O O9 0.828737 0.971680 0.040132
O O10 0.361548 0.802915 0.899477
O O11 0.868420 0.892098 0.677806
O O12 0.278507 0.351746 0.081293
O O13 0.500000 0.000000 0.500000
#
# Coordination Sequence:
#
# PCOD9025981 Si02
#       6
#     2   2   2   2   2   2
#     4   9  21  39  57  87 121 167 209 267 328 387
#     4  10  22  43  72  96 135 174 223 270 338 405
#     4   8  19  36  58  88 117 165 213 271 322 386
#     4  10  22  41  60  91 130 163 218 268 336 390
#     4   9  16  38  60  84 120 163 218 265 320 390
#     4  10  23  42  64 105 130 176 223 276 332 412
#
# _framework density 26.192032999999999
#
# number of rings (size 3 to 8) (size 9 to 14) (size 15 to 20)
#    1.000    1.667    0.000    0.500    2.333    2.000 
#    6.000    4.167    0.000    0.000    0.000    0.000 
#    0.000    0.000    0.000    0.000    0.000    0.000 
#
# Total GULP energy -66874.784551 kJ/mol
# GULP energy per Si atom -5572.898713 kJ/mol
# Density = 2.613242 g / cm^3
# Si number density = 26.192033 Si / 1000 Ang^3
#
#
#
# Elastic Constant Matrix: (Units=GPa)
#
#
# Indices 1 2 3 4 5 6 
#
# 1 83.2401 24.9741 41.0482 18.6279 27.0090 23.7129
# 2 24.9741 102.7048 43.7918 20.4946 18.7485 18.9017
# 3 41.0482 43.7918 146.8906 10.9443 36.3359 5.7012
# 4 18.6279 20.4946 10.9443 45.9729 10.5261 13.2414
# 5 27.0090 18.7485 36.3359 10.5261 37.5739 19.6754
# 6 23.7129 18.9017 5.7012 13.2414 19.6754 40.3740
#
#
#
# Elastic Compliance Matrix: (Units=1/GPa)
#
#
# Indices 1 2 3 4 5 6 
#
# 1 0.017924 -0.000222 -0.003050 -0.003376 -0.005673 -0.006121
# 2 -0.000222 0.012675 -0.003372 -0.003596 0.000370 -0.004329
# 3 -0.003050 -0.003372 0.010923 0.000585 -0.010349 0.006680
# 4 -0.003376 -0.003596 0.000585 0.026147 -0.001417 -0.004301
# 5 -0.005673 0.000370 -0.010349 -0.001417 0.051355 -0.019942
# 6 -0.006121 -0.004329 0.006680 -0.004301 -0.019942 0.040576
#
#
# Mechanical properties :
#
#
# Convention : Reuss Voigt Hill
#
# Bulk Modulus (GPa) = 35.42061 61.38488 48.40274
# Shear Modulus (GPa) = 27.42727 39.65224 33.53976
#
# Velocity S-wave (km/s) = 3.23950 3.89511 3.58234
# Velocity P-wave (km/s) = 5.24836 6.61185 5.96916
#
# Compressibility (1/GPa) = 0.02823215
#
# Stress axis : x y z
#
# Youngs Moduli (GPa) = 55.79105 78.89452 91.55164
#
# Poissons Ratio (x) = 0.01754 0.27926
# Poissons Ratio (y) = 0.01240 0.30875
# Poissons Ratio (z) = 0.17018 0.26606
#
# Static dielectric constant tensor:
#      x y z
#    x 2.200610 0.039380 -0.122810 
#    y 0.039380 2.027080 -0.054950 
#    z -0.122810 -0.054950 2.240420 
# 
# From -- ./inp_files/11532.got.cif
#   From: 2010.05.17/outbox.cif.g08.bks.cpg/sg2_6_cif.got.tgz:11532.got - 2010.06.03 11:33:40.
