data_PCOD9025783
_publ_section_title
;
Structure prediction by ZEFSAII (Michael W. Deem and Ramdas Pophale) SiO2 
 PCOD9025783
Probable space group: P -1
;
_chemical_formula_sum "Si O2"
_cell_formula_units_Z 10
_cell_length_a 9.499789
_cell_length_b 19.248576
_cell_length_c 5.073902
_cell_angle_alpha 92.443347
_cell_angle_beta 97.177902
_cell_angle_gamma 28.332380
_cell_volume 432.377939
_symmetry_space_group_name_H-M "P -1"
_symmetry_group_IT_number 2
_symmetry_cell_setting 'triclinic'
loop_
_space_group_symop_operation_xyz
x,y,z
-x,-y,-z
loop_
_atom_site_type_symbol
_atom_site_label
_atom_site_fract_x
_atom_site_fract_y
_atom_site_fract_z
Si Si1 0.681878 0.341726 0.820875
Si Si2 0.138332 0.401482 0.759845
Si Si3 0.798139 0.065681 0.720491
Si Si4 0.319287 0.046284 0.213910
Si Si5 0.371198 0.472010 0.258306
O O1 0.484722 0.240439 0.738935
O O2 0.614677 0.341047 0.512876
O O3 0.615250 0.451415 0.767646
O O4 0.983166 0.208417 0.045787
O O5 0.000000 0.500000 0.500000
O O6 0.967073 0.400918 0.723457
O O7 0.443723 0.411426 0.976764
O O8 0.000000 0.500000 0.000000
O O9 0.714838 0.020082 0.723243
O O10 0.000000 0.000000 0.500000
O O11 0.000000 0.000000 0.000000
O O12 0.500000 0.000000 0.500000
O O13 0.500000 0.000000 0.000000
#
# Coordination Sequence:
#
# PCOD9025783 Si02
#       5
#     2   2   2   2   2
#     4  10  22  40  71  98 139 183 241 310 366 436
#     4  12  27  45  73 104 149 198 251 298 370 453
#     4  12  29  50  76 113 158 201 254 317 388 461
#     4  12  26  46  76 107 150 200 260 311 387 457
#     4  10  22  41  66 104 138 181 244 304 366 432
#
# _framework density 23.127914000000001
#
# number of rings (size 3 to 8) (size 9 to 14) (size 15 to 20)
#    0.000    0.800    0.000    6.000    8.400    4.800 
#    0.000    0.000    0.000    0.000    0.000    0.000 
#    0.000    0.000    0.000    0.000    0.000    0.000 
#
# Total GULP energy -55674.855284 kJ/mol
# GULP energy per Si atom -5567.485528 kJ/mol
# Density = 2.307527 g / cm^3
# Si number density = 23.127914 Si / 1000 Ang^3
#
#
#
# Elastic Constant Matrix: (Units=GPa)
#
#
# Indices 1 2 3 4 5 6 
#
# 1 192.1445 66.6693 89.7628 11.0027 -18.6530 -21.6333
# 2 66.6693 124.0150 114.9256 -22.4294 -7.0635 -30.7135
# 3 89.7628 114.9256 208.0178 4.2728 -23.6094 -9.2201
# 4 11.0027 -22.4294 4.2728 46.0434 -13.8665 5.2653
# 5 -18.6530 -7.0635 -23.6094 -13.8665 46.3005 6.8731
# 6 -21.6333 -30.7135 -9.2201 5.2653 6.8731 52.4830
#
#
#
# Elastic Compliance Matrix: (Units=1/GPa)
#
#
# Indices 1 2 3 4 5 6 
#
# 1 0.007180 -0.002697 -0.001410 -0.002834 0.000717 0.001324
# 2 -0.002697 0.028010 -0.014271 0.013777 -0.001688 0.011611
# 3 -0.001410 -0.014271 0.013513 -0.006164 0.003244 -0.006365
# 4 -0.002834 0.013777 -0.006164 0.031598 0.007025 0.001721
# 5 0.000717 -0.001688 0.003244 0.007025 0.026016 -0.004234
# 6 0.001324 0.011611 -0.006365 0.001721 -0.004234 0.025658
#
#
# Mechanical properties :
#
#
# Convention : Reuss Voigt Hill
#
# Bulk Modulus (GPa) = 83.70677 118.54364 101.12520
# Shear Modulus (GPa) = 28.94987 45.82001 37.38494
#
# Velocity S-wave (km/s) = 3.54182 4.45585 4.02486
# Velocity P-wave (km/s) = 7.27994 8.82268 8.08818
#
# Compressibility (1/GPa) = 0.01194647
#
# Stress axis : x y z
#
# Youngs Moduli (GPa) = 139.27882 35.70180 74.00505
#
# Poissons Ratio (x) = 0.09630 0.10433
# Poissons Ratio (y) = 0.37569 1.05611
# Poissons Ratio (z) = 0.19634 0.50949
#
# Static dielectric constant tensor:
#      x y z
#    x 1.993780 0.076900 -0.003140 
#    y 0.076900 1.794880 0.100270 
#    z -0.003140 0.100270 1.806000 
# 
# From -- ./inp_files/40829.got.cif
#   From: 2010.05.17/outbox.cif.g08.bks.cpg/sg2_21_cif.got.tgz:40829.got - 2010.06.03 11:33:40.
