data_PCOD9025119
_publ_section_title
;
Structure prediction by ZEFSAII (Michael W. Deem and Ramdas Pophale) SiO2 
 PCOD9025119
Probable space group: P -1
;
_chemical_formula_sum "Si O2"
_cell_formula_units_Z 14
_cell_length_a 19.045362
_cell_length_b 11.207954
_cell_length_c 10.190949
_cell_angle_alpha 122.907162
_cell_angle_beta 27.441941
_cell_angle_gamma 138.849631
_cell_volume 601.062553
_symmetry_space_group_name_H-M "P -1"
_symmetry_group_IT_number 2
_symmetry_cell_setting 'triclinic'
loop_
_space_group_symop_operation_xyz
x,y,z
-x,-y,-z
loop_
_atom_site_type_symbol
_atom_site_label
_atom_site_fract_x
_atom_site_fract_y
_atom_site_fract_z
Si Si1 0.649251 0.401082 0.390551
Si Si2 0.255910 0.700205 0.333192
Si Si3 0.998737 0.843011 0.469820
Si Si4 0.214471 0.224859 0.943762
Si Si5 0.366961 0.557229 0.268341
Si Si6 0.949835 0.184586 0.120751
Si Si7 0.230752 0.741558 0.105858
O O1 0.469915 0.389861 0.623252
O O2 0.589059 0.337748 0.604137
O O3 0.883476 0.622881 0.130734
O O4 0.660456 0.274180 0.200504
O O5 0.392147 0.675238 0.172463
O O6 0.323317 0.771455 0.114561
O O7 0.012803 0.478702 0.607447
O O8 0.232147 0.830509 0.531414
O O9 0.874971 0.658534 0.465767
O O10 0.206834 0.891003 0.196648
O O11 0.866312 0.771588 0.781198
O O12 0.000000 0.000000 0.500000
O O13 0.095610 0.234886 0.034095
O O14 0.141046 0.014324 0.916177
O O15 0.500000 0.500000 0.000000
#
# Coordination Sequence:
#
# PCOD9025119 Si02
#       7
#     2   2   2   2   2   2   2
#     4  11  23  40  66  97 126 169 216 268 317 387
#     4   9  19  39  65  86 129 172 209 266 317 382
#     4  11  22  40  65  89 132 171 210 268 326 381
#     4  11  22  40  65  97 130 166 217 267 320 381
#     4  11  23  39  61  93 127 165 213 263 325 377
#     4  10  22  40  67  94 129 170 215 266 323 380
#     4   9  20  39  66  93 121 173 219 256 326 380
#
# _framework density 23.292085
#
# number of rings (size 3 to 8) (size 9 to 14) (size 15 to 20)
#    0.000    1.714    2.857    1.286    2.000    7.429 
#    2.571    2.143    0.000    0.000    0.000    0.000 
#    0.000    0.000    0.000    0.000    0.000    0.000 
#
# Total GULP energy -78273.781379 kJ/mol
# GULP energy per Si atom -5590.984384 kJ/mol
# Density = 2.323907 g / cm^3
# Si number density = 23.292085 Si / 1000 Ang^3
#
#
#
# Elastic Constant Matrix: (Units=GPa)
#
#
# Indices 1 2 3 4 5 6 
#
# 1 166.6736 31.3295 73.4033 35.5238 0.2287 -6.2199
# 2 31.3295 69.9849 19.3457 12.9380 5.1680 2.7292
# 3 73.4033 19.3457 122.5593 39.4541 9.8068 -4.2170
# 4 35.5238 12.9380 39.4541 38.8648 0.9120 -8.1087
# 5 0.2287 5.1680 9.8068 0.9120 28.3654 16.6717
# 6 -6.2199 2.7292 -4.2170 -8.1087 16.6717 29.1071
#
#
#
# Elastic Compliance Matrix: (Units=1/GPa)
#
#
# Indices 1 2 3 4 5 6 
#
# 1 0.008952 -0.002382 -0.004086 -0.003452 0.002326 -0.000750
# 2 -0.002382 0.016216 0.000134 -0.003766 -0.001601 -0.002142
# 3 -0.004086 0.000134 0.014481 -0.010590 -0.005481 0.001402
# 4 -0.003452 -0.003766 -0.010590 0.043687 -0.004605 0.012889
# 5 0.002326 -0.001601 -0.005481 -0.004605 0.057904 -0.034596
# 6 -0.000750 -0.002142 0.001402 0.012889 -0.034596 0.058006
#
#
# Mechanical properties :
#
#
# Convention : Reuss Voigt Hill
#
# Bulk Modulus (GPa) = 37.06357 67.48610 52.27483
# Shear Modulus (GPa) = 22.63395 34.94341 28.78868
#
# Velocity S-wave (km/s) = 3.12066 3.87748 3.51947
# Velocity P-wave (km/s) = 5.37883 7.00594 6.24560
#
# Compressibility (1/GPa) = 0.02698067
#
# Stress axis : x y z
#
# Youngs Moduli (GPa) = 111.71248 61.66657 69.05568
#
# Poissons Ratio (x) = 0.14690 0.28215
# Poissons Ratio (y) = 0.26612 -0.00924
# Poissons Ratio (z) = 0.45644 -0.00826
#
# Static dielectric constant tensor:
#      x y z
#    x 1.909420 0.026830 -0.054720 
#    y 0.026830 1.935950 -0.066660 
#    z -0.054720 -0.066660 1.862690 
# 
# From -- ./inp_files/180032.got.cif
#   From: 2010.05.17/outbox.cif.g08.bks.cpg/sg2_91_cif.got.tgz:180032.got - 2010.06.03 11:33:40.
