data_PCOD9025805
_publ_section_title
;
Structure prediction by ZEFSAII (Michael W. Deem and Ramdas Pophale) SiO2 
 PCOD9025805
Probable space group: P -1
;
_chemical_formula_sum "Si O2"
_cell_formula_units_Z 15
_cell_length_a 8.941011
_cell_length_b 9.747386
_cell_length_c 18.418400
_cell_angle_alpha 57.065693
_cell_angle_beta 68.728597
_cell_angle_gamma 31.209662
_cell_volume 678.542068
_symmetry_space_group_name_H-M "P -1"
_symmetry_group_IT_number 2
_symmetry_cell_setting 'triclinic'
loop_
_space_group_symop_operation_xyz
x,y,z
-x,-y,-z
loop_
_atom_site_type_symbol
_atom_site_label
_atom_site_fract_x
_atom_site_fract_y
_atom_site_fract_z
Si Si1 0.866783 0.601397 0.774085
Si Si2 0.384967 0.609358 0.588749
Si Si3 0.000000 0.500000 0.500000
Si Si4 0.534070 0.186292 0.594279
Si Si5 0.849531 0.711339 0.034155
Si Si6 0.085967 0.072352 0.624328
Si Si7 0.210908 0.044913 0.776625
Si Si8 0.150125 0.803753 0.959170
O O1 0.067884 0.432693 0.859617
O O2 0.027722 0.353415 0.755034
O O3 0.755543 0.869819 0.684937
O O4 0.560183 0.777468 0.803054
O O5 0.358332 0.449075 0.608774
O O6 0.300221 0.818211 0.482712
O O7 0.738652 0.331815 0.613336
O O8 0.247960 0.786370 0.637554
O O9 0.304660 0.283300 0.556447
O O10 0.133642 0.204727 0.538006
O O11 0.000000 0.500000 0.000000
O O12 0.987924 0.772589 0.986716
O O13 0.500000 0.000000 0.000000
O O14 0.171636 0.045572 0.698586
O O15 0.103121 0.973924 0.855124
O O16 0.500000 0.500000 0.000000
O O17 0.000000 0.000000 0.000000
#
# Coordination Sequence:
#
# PCOD9025805 Si02
#       8
#     2   2   1   2   2   2   2   2
#     4  12  25  44  75 107 147 190 252 311 370 443
#     4  10  25  44  68 100 154 191 235 291 381 428
#     4  10  22  40  72 102 136 188 244 290 352 420
#     4  10  24  45  72 106 144 201 240 306 361 443
#     4  12  26  47  74 112 149 190 242 311 383 451
#     4  11  24  42  68 105 141 188 244 300 353 436
#     4  12  24  44  72 112 138 189 255 310 356 446
#     4  12  23  46  76 102 143 195 241 300 379 450
#
# _framework density 22.106218999999999
#
# number of rings (size 3 to 8) (size 9 to 14) (size 15 to 20)
#    0.000    0.800    4.000    2.400    1.867    8.000 
#    0.000    2.667    0.000    0.000    0.000    0.000 
#    0.000    0.000    0.000    0.000    0.000    0.000 
#
# Total GULP energy -83605.954677 kJ/mol
# GULP energy per Si atom -5573.730312 kJ/mol
# Density = 2.205590 g / cm^3
# Si number density = 22.106219 Si / 1000 Ang^3
#
#
#
# Elastic Constant Matrix: (Units=GPa)
#
#
# Indices 1 2 3 4 5 6 
#
# 1 165.4319 80.1775 48.8234 -16.6928 12.6159 8.5929
# 2 80.1775 197.8161 53.6158 2.5605 12.6057 20.6811
# 3 48.8234 53.6158 129.5022 -12.2729 11.6331 6.3028
# 4 -16.6928 2.5605 -12.2729 30.8457 1.0755 3.7581
# 5 12.6159 12.6057 11.6331 1.0755 34.8986 1.5284
# 6 8.5929 20.6811 6.3028 3.7581 1.5284 48.2511
#
#
#
# Elastic Compliance Matrix: (Units=1/GPa)
#
#
# Indices 1 2 3 4 5 6 
#
# 1 0.008483 -0.002979 -0.001384 0.004387 -0.001649 -0.000342
# 2 -0.002979 0.007066 -0.001898 -0.002684 -0.000671 -0.002020
# 3 -0.001384 -0.001898 0.009551 0.003327 -0.002083 -0.000381
# 4 0.004387 -0.002684 0.003327 0.036782 -0.002734 -0.002843
# 5 -0.001649 -0.000671 -0.002083 -0.002734 0.030267 0.000108
# 6 -0.000342 -0.002020 -0.000381 -0.002843 0.000108 0.021919
#
#
# Mechanical properties :
#
#
# Convention : Reuss Voigt Hill
#
# Bulk Modulus (GPa) = 79.51085 95.33153 87.42119
# Shear Modulus (GPa) = 38.23115 43.47465 40.85290
#
# Velocity S-wave (km/s) = 4.16315 4.43948 4.30353
# Velocity P-wave (km/s) = 7.69122 8.33646 8.02033
#
# Compressibility (1/GPa) = 0.01257690
#
# Stress axis : x y z
#
# Youngs Moduli (GPa) = 117.87749 141.52729 104.70532
#
# Poissons Ratio (x) = 0.42162 0.14495
# Poissons Ratio (y) = 0.35117 0.19873
# Poissons Ratio (z) = 0.16319 0.26862
#
# Static dielectric constant tensor:
#      x y z
#    x 1.762570 -0.037350 -0.066390 
#    y -0.037350 1.802350 0.008110 
#    z -0.066390 0.008110 1.873840 
# 
# From -- ./inp_files/556983.got.cif
#   From: 2010.05.17/outbox.cif.g08.bks.cpg/sg2_279_cif.got.tgz:556983.got - 2010.06.03 11:33:40.
