data_PCOD9025893
_publ_section_title
;
Structure prediction by ZEFSAII (Michael W. Deem and Ramdas Pophale) SiO2 
 PCOD9025893
Probable space group: P -1
;
_chemical_formula_sum "Si O2"
_cell_formula_units_Z 14
_cell_length_a 15.241679
_cell_length_b 21.881384
_cell_length_c 12.445983
_cell_angle_alpha 153.098277
_cell_angle_beta 152.866671
_cell_angle_gamma 18.561217
_cell_volume 568.512697
_symmetry_space_group_name_H-M "P -1"
_symmetry_group_IT_number 2
_symmetry_cell_setting 'triclinic'
loop_
_space_group_symop_operation_xyz
x,y,z
-x,-y,-z
loop_
_atom_site_type_symbol
_atom_site_label
_atom_site_fract_x
_atom_site_fract_y
_atom_site_fract_z
Si Si1 0.316266 0.254780 0.304443
Si Si2 0.500000 0.000000 0.500000
Si Si3 0.683883 0.430868 0.200719
Si Si4 0.649802 0.230116 0.275096
Si Si5 0.082417 0.214485 0.807150
Si Si6 0.000000 0.500000 0.000000
Si Si7 0.725800 0.898237 0.788626
Si Si8 0.677595 0.208891 0.015976
O O1 0.335637 0.401644 0.532976
O O2 0.254566 0.244629 0.343699
O O3 0.626099 0.026782 0.258477
O O4 0.080071 0.301342 0.049561
O O5 0.562384 0.942023 0.346775
O O6 0.492414 0.169688 0.737971
O O7 0.030697 0.227100 0.236554
O O8 0.500000 0.500000 0.000000
O O9 0.593166 0.377496 0.112033
O O10 0.316739 0.404199 0.213744
O O11 0.824550 0.247187 0.558239
O O12 0.681988 0.237975 0.193596
O O13 0.765416 0.015306 0.080682
O O14 0.096680 0.319731 0.896923
O O15 0.000000 0.000000 0.000000
#
# Coordination Sequence:
#
# PCOD9025893 Si02
#       8
#     2   1   2   2   2   1   2   2
#     4  11  26  47  73 112 159 201 256 310 389 469
#     4  10  22  40  74 106 148 194 238 310 372 446
#     4  12  25  44  73 116 154 198 243 314 397 468
#     4  11  25  46  79 111 150 196 262 325 376 454
#     4  11  27  49  74 107 148 212 255 320 372 451
#     4  12  26  50  74 106 148 204 270 312 372 448
#     4  11  23  45  74 111 151 197 242 319 387 461
#     4  11  24  44  75 114 147 195 249 312 389 453
#
# _framework density 24.625658999999999
#
# number of rings (size 3 to 8) (size 9 to 14) (size 15 to 20)
#    0.000    0.857    4.286    2.571    4.000    4.000 
#    2.571    0.000    0.000    0.000    0.000    0.000 
#    0.000    0.000    0.000    0.000    0.000    0.000 
#
# Total GULP energy -77939.270254 kJ/mol
# GULP energy per Si atom -5567.090732 kJ/mol
# Density = 2.456961 g / cm^3
# Si number density = 24.625659 Si / 1000 Ang^3
#
#
#
# Elastic Constant Matrix: (Units=GPa)
#
#
# Indices 1 2 3 4 5 6 
#
# 1 74.2053 58.7710 71.6961 1.3174 50.7674 30.9629
# 2 58.7710 61.8280 46.6841 8.2520 20.3421 12.0010
# 3 71.6961 46.6841 174.8680 -14.2665 25.5730 29.6038
# 4 1.3174 8.2520 -14.2665 41.1988 9.5854 24.2379
# 5 50.7674 20.3421 25.5730 9.5854 28.4537 5.6393
# 6 30.9629 12.0010 29.6038 24.2379 5.6393 42.3351
#
#
#
# Elastic Compliance Matrix: (Units=1/GPa)
#
#
# Indices 1 2 3 4 5 6 
#
# 1 -0.013732 0.006988 -0.005428 -0.021199 0.027494 0.020332
# 2 0.006988 0.020838 -0.002747 0.005836 -0.025059 -0.009100
# 3 -0.005428 -0.002747 0.010636 0.008878 0.000656 -0.007860
# 4 -0.021199 0.005836 0.008878 0.029520 0.018038 -0.011662
# 5 0.027494 -0.025059 0.000656 0.018038 0.002109 -0.024072
# 6 0.020332 -0.009100 -0.007860 -0.011662 -0.024072 0.026710
#
#
# Mechanical properties :
#
#
# Convention : Reuss Voigt Hill
#
# Bulk Modulus (GPa) = 65.06590 73.91150 69.48870
# Shear Modulus (GPa) = 59.82440 31.31420 45.56930
#
# Velocity S-wave (km/s) = 4.93419 3.56983 4.30639
# Velocity P-wave (km/s) = 7.67731 6.86081 7.28052
#
# Compressibility (1/GPa) = 0.01536903
#
# Stress axis : x y z
#
# Youngs Moduli (GPa) = -72.82457 47.99031 94.01695
#
# Poissons Ratio (x) = -0.33535 0.51032
# Poissons Ratio (y) = 0.50889 0.25823
# Poissons Ratio (z) = -0.39529 0.13181
#
# Static dielectric constant tensor:
#      x y z
#    x 2.017440 0.192190 -0.177170 
#    y 0.192190 3.124650 -0.408140 
#    z -0.177170 -0.408140 2.096300 
# 
# From -- ./inp_files/457784.got.cif
#   From: 2010.05.17/outbox.cif.g08.bks.cpg/sg2_229_cif.got.tgz:457784.got - 2010.06.03 11:33:40.
