data_PCOD9025147
_publ_section_title
;
Structure prediction by ZEFSAII (Michael W. Deem and Ramdas Pophale) SiO2 
 PCOD9025147
Probable space group: P -1
;
_chemical_formula_sum "Si O2"
_cell_formula_units_Z 14
_cell_length_a 9.319608
_cell_length_b 16.266887
_cell_length_c 8.674661
_cell_angle_alpha 138.182292
_cell_angle_beta 42.949509
_cell_angle_gamma 122.064494
_cell_volume 597.135973
_symmetry_space_group_name_H-M "P -1"
_symmetry_group_IT_number 2
_symmetry_cell_setting 'triclinic'
loop_
_space_group_symop_operation_xyz
x,y,z
-x,-y,-z
loop_
_atom_site_type_symbol
_atom_site_label
_atom_site_fract_x
_atom_site_fract_y
_atom_site_fract_z
Si Si1 0.664448 0.344644 0.323214
Si Si2 0.656177 0.050994 0.322047
Si Si3 0.929518 0.709668 0.238655
Si Si4 0.073060 0.188257 0.285237
Si Si5 0.061064 0.632544 0.570184
Si Si6 0.585124 0.875156 0.681049
Si Si7 0.366190 0.501637 0.948260
O O1 0.807903 0.315331 0.319958
O O2 0.504337 0.234767 0.297685
O O3 0.539377 0.474352 0.639579
O O4 0.828939 0.332887 0.040650
O O5 0.518417 0.124693 0.406125
O O6 0.843949 0.129310 0.355785
O O7 0.500000 0.000000 0.500000
O O8 0.770170 0.929846 0.988520
O O9 0.907161 0.727473 0.462790
O O10 0.835032 0.840701 0.429498
O O11 0.791938 0.608819 0.117591
O O12 0.116394 0.271551 0.215960
O O13 0.000000 0.500000 0.500000
O O14 0.204685 0.611412 0.274640
O O15 0.500000 0.000000 0.000000
O O16 0.500000 0.500000 0.000000
#
# Coordination Sequence:
#
# PCOD9025147 Si02
#       7
#     2   2   2   2   2   2   2
#     4  10  22  40  67  96 128 175 224 265 334 398
#     4  11  26  45  66  97 140 177 216 276 345 390
#     4  11  23  40  68  97 133 171 223 274 334 390
#     4  11  26  44  65 103 136 168 227 283 325 402
#     4  11  21  43  69  93 129 182 219 268 333 394
#     4  11  23  42  67  98 133 174 221 276 329 408
#     4   9  21  39  64  92 131 165 220 269 318 395
#
# _framework density 23.445247999999999
#
# number of rings (size 3 to 8) (size 9 to 14) (size 15 to 20)
#    0.000    1.429    4.286    0.000    4.000    1.143 
#    2.571    0.714    0.000    0.000    0.000    0.000 
#    0.000    0.000    0.000    0.000    0.000    0.000 
#
# Total GULP energy -78034.423866 kJ/mol
# GULP energy per Si atom -5573.887419 kJ/mol
# Density = 2.339189 g / cm^3
# Si number density = 23.445248 Si / 1000 Ang^3
#
#
#
# Elastic Constant Matrix: (Units=GPa)
#
#
# Indices 1 2 3 4 5 6 
#
# 1 102.1885 13.3567 -1.4149 -3.6659 4.0133 -6.5532
# 2 13.3567 61.1106 0.2659 -1.5258 5.9808 8.0537
# 3 -1.4149 0.2659 95.0726 -8.5126 9.4165 10.7399
# 4 -3.6659 -1.5258 -8.5126 30.8457 5.6544 -2.2287
# 5 4.0133 5.9808 9.4165 5.6544 42.3888 9.1383
# 6 -6.5532 8.0537 10.7399 -2.2287 9.1383 23.0179
#
#
#
# Elastic Compliance Matrix: (Units=1/GPa)
#
#
# Indices 1 2 3 4 5 6 
#
# 1 0.010599 -0.002733 -0.000039 0.001821 -0.001915 0.004928
# 2 -0.002733 0.017994 0.000845 0.000478 -0.001019 -0.007018
# 3 -0.000039 0.000845 0.011532 0.003286 -0.002141 -0.004519
# 4 0.001821 0.000478 0.003286 0.035150 -0.006712 0.004886
# 5 -0.001915 -0.001019 -0.002141 -0.006712 0.027616 -0.010803
# 6 0.004928 -0.007018 -0.004519 0.004886 -0.010803 0.054174
#
#
# Mechanical properties :
#
#
# Convention : Reuss Voigt Hill
#
# Bulk Modulus (GPa) = 27.56894 31.42078 29.49486
# Shear Modulus (GPa) = 28.90036 35.66141 32.28088
#
# Velocity S-wave (km/s) = 3.51476 3.90430 3.71464
# Velocity P-wave (km/s) = 5.31561 5.80995 5.56827
#
# Compressibility (1/GPa) = 0.03627270
#
# Stress axis : x y z
#
# Youngs Moduli (GPa) = 94.34770 55.57429 86.71396
#
# Poissons Ratio (x) = 0.15189 0.00335
# Poissons Ratio (y) = 0.25786 -0.07332
# Poissons Ratio (z) = 0.00365 -0.04699
#
# Static dielectric constant tensor:
#      x y z
#    x 1.884240 0.033150 -0.075710 
#    y 0.033150 1.938790 -0.014510 
#    z -0.075710 -0.014510 2.004010 
# 
# From -- ./inp_files/216084.got.cif
#   From: 2010.05.17/outbox.cif.g08.bks.cpg/sg2_109_cif.got.tgz:216084.got - 2010.06.03 11:33:40.
