data_PCOD9025709
_publ_section_title
;
Structure prediction by ZEFSAII (Michael W. Deem and Ramdas Pophale) SiO2 
 PCOD9025709
Probable space group: P -1
;
_chemical_formula_sum "Si O2"
_cell_formula_units_Z 15
_cell_length_a 8.319683
_cell_length_b 15.317373
_cell_length_c 5.144891
_cell_angle_alpha 110.871632
_cell_angle_beta 65.685528
_cell_angle_gamma 92.447214
_cell_volume 554.100904
_symmetry_space_group_name_H-M "P -1"
_symmetry_group_IT_number 2
_symmetry_cell_setting 'triclinic'
loop_
_space_group_symop_operation_xyz
x,y,z
-x,-y,-z
loop_
_atom_site_type_symbol
_atom_site_label
_atom_site_fract_x
_atom_site_fract_y
_atom_site_fract_z
Si Si1 0.379922 0.378175 0.378039
Si Si2 0.931259 0.609154 0.090859
Si Si3 0.131505 0.872366 0.059091
Si Si4 0.500000 0.000000 0.500000
Si Si5 0.501353 0.176454 0.939519
Si Si6 0.366674 0.554746 0.347610
Si Si7 0.922205 0.297634 0.416330
Si Si8 0.216914 0.066059 0.319268
O O1 0.280173 0.372316 0.712571
O O2 0.411657 0.282774 0.101015
O O3 0.267474 0.465457 0.399998
O O4 0.565152 0.409191 0.385272
O O5 0.986799 0.677764 0.354589
O O6 0.000000 0.500000 0.000000
O O7 0.999477 0.647710 0.819288
O O8 0.961072 0.882862 0.377446
O O9 0.165954 0.979234 0.086226
O O10 0.312740 0.826244 0.031086
O O11 0.083465 0.808486 0.783766
O O12 0.660498 0.983078 0.585780
O O13 0.475273 0.884579 0.401504
O O14 0.350016 0.121624 0.124087
O O15 0.272678 0.646282 0.371162
O O16 0.500000 0.500000 0.000000
#
# Coordination Sequence:
#
# PCOD9025709 Si02
#       8
#     2   2   2   1   2   2   2   2
#     4  11  25  43  70 100 144 187 244 299 369 438
#     4  12  26  46  73 104 145 193 245 310 360 438
#     4  10  22  46  69 101 143 189 234 307 359 449
#     4  10  22  40  70  98 134 174 238 292 352 438
#     4  11  23  46  67 104 138 188 238 297 365 436
#     4  11  25  44  67 103 142 193 237 301 364 441
#     4  12  26  47  72 107 147 192 251 295 377 438
#     4  10  23  46  69 101 143 180 245 294 374 428
#
# _framework density 27.070879999999999
#
# number of rings (size 3 to 8) (size 9 to 14) (size 15 to 20)
#    0.000    1.067    2.667    3.600    5.600    1.067 
#   12.000    5.333    0.000    0.000    0.000    0.000 
#    0.000    0.000    0.000    0.000    0.000    0.000 
#
# Total GULP energy -83764.162916 kJ/mol
# GULP energy per Si atom -5584.277528 kJ/mol
# Density = 2.700927 g / cm^3
# Si number density = 27.070880 Si / 1000 Ang^3
#
#
#
# Elastic Constant Matrix: (Units=GPa)
#
#
# Indices 1 2 3 4 5 6 
#
# 1 83.9746 40.9303 38.1517 13.1369 15.3992 20.1497
# 2 40.9303 128.1543 54.5860 32.1516 3.2997 15.2385
# 3 38.1517 54.5860 140.3772 20.8298 0.1462 15.1059
# 4 13.1369 32.1516 20.8298 66.6854 10.7115 7.4239
# 5 15.3992 3.2997 0.1462 10.7115 51.9899 7.8826
# 6 20.1497 15.2385 15.1059 7.4239 7.8826 32.9032
#
#
#
# Elastic Compliance Matrix: (Units=1/GPa)
#
#
# Indices 1 2 3 4 5 6 
#
# 1 0.017100 -0.003584 -0.002600 0.000558 -0.003913 -0.006807
# 2 -0.003584 0.011175 -0.002660 -0.003935 0.001352 -0.001196
# 3 -0.002600 -0.002660 0.009189 -0.001132 0.001369 -0.001467
# 4 0.000558 -0.003935 -0.001132 0.017817 -0.003400 -0.001205
# 5 -0.003913 0.001352 0.001369 -0.003400 0.021496 -0.003241
# 6 -0.006807 -0.001196 -0.001467 -0.001205 -0.003241 0.036836
#
#
# Mechanical properties :
#
#
# Convention : Reuss Voigt Hill
#
# Bulk Modulus (GPa) = 50.56592 68.87136 59.71864
# Shear Modulus (GPa) = 36.25963 44.90491 40.58227
#
# Velocity S-wave (km/s) = 3.66380 4.07724 3.87604
# Velocity P-wave (km/s) = 6.05124 6.90374 6.49150
#
# Compressibility (1/GPa) = 0.01977616
#
# Stress axis : x y z
#
# Youngs Moduli (GPa) = 58.47939 89.48148 108.82299
#
# Poissons Ratio (x) = 0.32068 0.28295
# Poissons Ratio (y) = 0.20958 0.28952
# Poissons Ratio (z) = 0.15205 0.23806
#
# Static dielectric constant tensor:
#      x y z
#    x 2.238120 0.019390 -0.035360 
#    y 0.019390 2.286600 -0.140580 
#    z -0.035360 -0.140580 2.330310 
# 
# From -- ./inp_files/45667.got.cif
#   From: 2010.05.17/outbox.cif.g08.bks.cpg/sg2_23_cif.got.tgz:45667.got - 2010.06.03 11:33:40.
