data_PCOD9025748
_publ_section_title
;
Structure prediction by ZEFSAII (Michael W. Deem and Ramdas Pophale) SiO2 
 PCOD9025748
Probable space group: P -1
;
_chemical_formula_sum "Si O2"
_cell_formula_units_Z 16
_cell_length_a 11.415206
_cell_length_b 26.604062
_cell_length_c 5.514771
_cell_angle_alpha 127.351602
_cell_angle_beta 118.861061
_cell_angle_gamma 29.277777
_cell_volume 646.402940
_symmetry_space_group_name_H-M "P -1"
_symmetry_group_IT_number 2
_symmetry_cell_setting 'triclinic'
loop_
_space_group_symop_operation_xyz
x,y,z
-x,-y,-z
loop_
_atom_site_type_symbol
_atom_site_label
_atom_site_fract_x
_atom_site_fract_y
_atom_site_fract_z
Si Si1 0.713646 0.404952 0.615879
Si Si2 0.637486 0.880843 0.314924
Si Si3 0.008341 0.457099 0.637126
Si Si4 0.248409 0.991391 0.610495
Si Si5 0.236763 0.809269 0.618758
Si Si6 0.994807 0.813991 0.748558
Si Si7 0.493182 0.187441 0.295159
Si Si8 0.595718 0.559974 0.256086
O O1 0.500000 0.500000 0.500000
O O2 0.609191 0.403757 0.728303
O O3 0.878960 0.291979 0.292251
O O4 0.763738 0.453898 0.927692
O O5 0.498108 0.902115 0.457358
O O6 0.897152 0.805917 0.415439
O O7 0.500000 0.000000 0.500000
O O8 0.605913 0.842161 0.964417
O O9 0.766361 0.512134 0.511185
O O10 0.000000 0.500000 0.500000
O O11 0.253248 0.320594 0.504065
O O12 0.000000 0.500000 0.000000
O O13 0.300370 0.909157 0.583051
O O14 0.010755 0.086112 0.477848
O O15 0.205925 0.070154 0.964556
O O16 0.365754 0.826473 0.807026
O O17 0.444824 0.679064 0.346704
O O18 0.155367 0.807611 0.781810
#
# Coordination Sequence:
#
# PCOD9025748 Si02
#       8
#     2   2   2   2   2   2   2   2
#     4  10  22  40  71 106 142 196 247 315 376 451
#     4  12  25  48  69 101 148 189 248 310 374 461
#     4  12  29  52  79 111 154 201 257 316 382 458
#     4  12  25  42  74 106 142 193 252 308 385 453
#     4  11  24  46  70 104 150 189 247 312 380 454
#     4  11  24  44  71 100 147 192 246 309 374 456
#     4  12  28  46  77 107 146 196 249 312 386 456
#     4  10  23  45  71 104 148 194 256 308 386 451
#
# _framework density 24.752365000000001
#
# number of rings (size 3 to 8) (size 9 to 14) (size 15 to 20)
#    0.000    0.750    3.750    2.250    3.500    6.000 
#    0.000    0.000    0.000    0.000    0.000    0.000 
#    0.000    0.000    0.000    0.000    0.000    0.000 
#
# Total GULP energy -89253.894128 kJ/mol
# GULP energy per Si atom -5578.368383 kJ/mol
# Density = 2.469603 g / cm^3
# Si number density = 24.752365 Si / 1000 Ang^3
#
#
#
# Elastic Constant Matrix: (Units=GPa)
#
#
# Indices 1 2 3 4 5 6 
#
# 1 58.7352 11.9484 11.2778 3.3988 15.4693 -5.2717
# 2 11.9484 155.3394 51.1602 23.3846 7.7884 5.0468
# 3 11.2778 51.1602 115.3179 4.7531 7.3429 1.4603
# 4 3.3988 23.3846 4.7531 37.0555 -4.5524 9.7317
# 5 15.4693 7.7884 7.3429 -4.5524 28.5245 -2.3602
# 6 -5.2717 5.0468 1.4603 9.7317 -2.3602 43.6319
#
#
#
# Elastic Compliance Matrix: (Units=1/GPa)
#
#
# Indices 1 2 3 4 5 6 
#
# 1 0.020710 -0.000190 -0.001105 -0.003754 -0.011264 0.002789
# 2 -0.000190 0.008449 -0.003381 -0.005185 -0.002148 0.000153
# 3 -0.001105 -0.003381 0.010313 0.000876 -0.001021 -0.000338
# 4 -0.003754 -0.005185 0.000876 0.033275 0.007968 -0.006874
# 5 -0.011264 -0.002148 -0.001021 0.007968 0.043245 -0.000516
# 6 0.002789 0.000153 -0.000338 -0.006874 -0.000516 0.024755
#
#
# Mechanical properties :
#
#
# Convention : Reuss Voigt Hill
#
# Bulk Modulus (GPa) = 33.19931 53.12948 43.16439
# Shear Modulus (GPa) = 31.22304 38.84280 35.03292
#
# Velocity S-wave (km/s) = 3.55550 3.96568 3.76618
# Velocity P-wave (km/s) = 5.50428 6.51766 6.03229
#
# Compressibility (1/GPa) = 0.03012111
#
# Stress axis : x y z
#
# Youngs Moduli (GPa) = 48.28470 118.35752 96.96556
#
# Poissons Ratio (x) = 0.02248 0.10710
# Poissons Ratio (y) = 0.00917 0.32786
# Poissons Ratio (z) = 0.05333 0.40019
#
# Static dielectric constant tensor:
#      x y z
#    x 2.007740 0.043730 -0.049890 
#    y 0.043730 1.862040 -0.122520 
#    z -0.049890 -0.122520 1.816060 
# 
# From -- ./inp_files/85153.got.cif
#   From: 2010.05.17/outbox.cif.g08.bks.cpg/sg2_43_cif.got.tgz:85153.got - 2010.06.03 11:33:40.
