data_PCOD9025572
_publ_section_title
;
Structure prediction by ZEFSAII (Michael W. Deem and Ramdas Pophale) SiO2 
 PCOD9025572
Probable space group: P -1
;
_chemical_formula_sum "Si O2"
_cell_formula_units_Z 14
_cell_length_a 16.724496
_cell_length_b 13.377957
_cell_length_c 9.209400
_cell_angle_alpha 126.514233
_cell_angle_beta 135.484957
_cell_angle_gamma 26.906703
_cell_volume 648.302948
_symmetry_space_group_name_H-M "P -1"
_symmetry_group_IT_number 2
_symmetry_cell_setting 'triclinic'
loop_
_space_group_symop_operation_xyz
x,y,z
-x,-y,-z
loop_
_atom_site_type_symbol
_atom_site_label
_atom_site_fract_x
_atom_site_fract_y
_atom_site_fract_z
Si Si1 0.162269 0.684121 0.936677
Si Si2 0.496895 0.199600 0.481632
Si Si3 0.242591 0.854791 0.031512
Si Si4 0.957166 0.428038 0.771404
Si Si5 0.491602 0.361860 0.326495
Si Si6 0.896115 0.710968 0.473484
Si Si7 0.869972 0.993001 0.303132
O O1 0.041175 0.695539 0.691870
O O2 0.266550 0.691405 0.973147
O O3 0.327940 0.486217 0.095035
O O4 0.985431 0.905101 0.999048
O O5 0.598887 0.202146 0.728567
O O6 0.280943 0.346646 0.385322
O O7 0.451813 0.316713 0.377421
O O8 0.670420 0.942512 0.442862
O O9 0.246260 0.879698 0.888435
O O10 0.096116 0.314470 0.710583
O O11 0.003415 0.249583 0.743608
O O12 0.000000 0.500000 0.000000
O O13 0.500000 0.500000 0.500000
O O14 0.711995 0.128076 0.346969
O O15 0.000000 0.500000 0.500000
O O16 0.000000 0.000000 0.500000
#
# Coordination Sequence:
#
# PCOD9025572 Si02
#       7
#     2   2   2   2   2   2   2
#     4  10  22  40  69  98 142 177 237 289 352 419
#     4  11  25  47  73 100 147 185 240 291 360 427
#     4  10  22  41  70 102 134 183 232 293 350 418
#     4  12  29  49  72 106 145 188 242 301 360 431
#     4  12  23  42  70 107 142 190 232 296 365 424
#     4  11  27  48  70 102 142 191 240 292 357 429
#     4  12  26  44  71 106 147 186 246 294 356 431
#
# _framework density 21.594843000000001
#
# number of rings (size 3 to 8) (size 9 to 14) (size 15 to 20)
#    0.000    0.857    2.857    3.429   10.000    2.857 
#    0.000    0.000    0.000    0.000    0.000    0.000 
#    0.000    0.000    0.000    0.000    0.000    0.000 
#
# Total GULP energy -78371.068597 kJ/mol
# GULP energy per Si atom -5597.933471 kJ/mol
# Density = 2.154569 g / cm^3
# Si number density = 21.594843 Si / 1000 Ang^3
#
#
#
# Elastic Constant Matrix: (Units=GPa)
#
#
# Indices 1 2 3 4 5 6 
#
# 1 40.7878 14.2915 3.5250 6.9386 -11.3364 3.4801
# 2 14.2915 118.1422 35.6637 3.7981 11.0072 6.6180
# 3 3.5250 35.6637 75.0515 0.7649 -10.0926 -2.6319
# 4 6.9386 3.7981 0.7649 35.6440 -4.2941 0.7893
# 5 -11.3364 11.0072 -10.0926 -4.2941 34.5728 -9.5353
# 6 3.4801 6.6180 -2.6319 0.7893 -9.5353 39.6224
#
#
#
# Elastic Compliance Matrix: (Units=1/GPa)
#
#
# Indices 1 2 3 4 5 6 
#
# 1 0.030293 -0.005745 0.003103 -0.003865 0.012635 0.001623
# 2 -0.005745 0.012393 -0.006988 -0.001063 -0.009164 -0.004214
# 3 0.003103 -0.006988 0.017966 0.000839 0.009814 0.004433
# 4 -0.003865 -0.001063 0.000839 0.029267 0.003158 0.000750
# 5 0.012635 -0.009164 0.009814 0.003158 0.042330 0.011197
# 6 0.001623 -0.004214 0.004433 0.000750 0.011197 0.028774
#
#
# Mechanical properties :
#
#
# Convention : Reuss Voigt Hill
#
# Bulk Modulus (GPa) = 24.16036 37.88244 31.02140
# Shear Modulus (GPa) = 25.76255 34.00126 29.88191
#
# Velocity S-wave (km/s) = 3.45772 3.97231 3.72392
# Velocity P-wave (km/s) = 5.21090 6.21446 5.73467
#
# Compressibility (1/GPa) = 0.04139011
#
# Stress axis : x y z
#
# Youngs Moduli (GPa) = 33.01120 80.69150 55.66108
#
# Poissons Ratio (x) = 0.46357 -0.17269
# Poissons Ratio (y) = 0.18965 0.38898
# Poissons Ratio (z) = -0.10242 0.56390
#
# Static dielectric constant tensor:
#      x y z
#    x 1.769290 0.007710 0.002760 
#    y 0.007710 1.825410 0.026980 
#    z 0.002760 0.026980 1.742420 
# 
# From -- ./inp_files/189679.got.cif
#   From: 2010.05.17/outbox.cif.g08.bks.cpg/sg2_95_cif.got.tgz:189679.got - 2010.06.03 11:33:40.
