data_PCOD9025627
_publ_section_title
;
Structure prediction by ZEFSAII (Michael W. Deem and Ramdas Pophale) SiO2 
 PCOD9025627
Probable space group: P -1
;
_chemical_formula_sum "Si O2"
_cell_formula_units_Z 16
_cell_length_a 5.594479
_cell_length_b 11.403643
_cell_length_c 11.381499
_cell_angle_alpha 107.980962
_cell_angle_beta 65.620754
_cell_angle_gamma 106.869202
_cell_volume 617.862302
_symmetry_space_group_name_H-M "P -1"
_symmetry_group_IT_number 2
_symmetry_cell_setting 'triclinic'
loop_
_space_group_symop_operation_xyz
x,y,z
-x,-y,-z
loop_
_atom_site_type_symbol
_atom_site_label
_atom_site_fract_x
_atom_site_fract_y
_atom_site_fract_z
Si Si1 0.484685 0.601444 0.932106
Si Si2 0.645303 0.054583 0.106167
Si Si3 0.270234 0.383933 0.763493
Si Si4 0.293946 0.573016 0.499156
Si Si5 0.394069 0.192591 0.853772
Si Si6 0.096301 0.074465 0.329565
Si Si7 0.069268 0.819128 0.363943
Si Si8 0.047142 0.740213 0.774128
O O1 0.282947 0.523828 0.853983
O O2 0.771250 0.645795 0.825619
O O3 0.500000 0.500000 0.000000
O O4 0.444426 0.725910 0.047148
O O5 0.408407 0.078764 0.248235
O O6 0.831122 0.190897 0.110974
O O7 0.756824 0.936956 0.101385
O O8 0.500000 0.000000 0.000000
O O9 0.547531 0.381501 0.638282
O O10 0.241808 0.287572 0.847873
O O11 0.048999 0.321347 0.697188
O O12 0.500000 0.500000 0.500000
O O13 0.240626 0.674553 0.636241
O O14 0.000000 0.500000 0.500000
O O15 0.614870 0.160778 0.709269
O O16 0.027722 0.152612 0.479307
O O17 0.005915 0.143099 0.257128
O O18 0.978181 0.927831 0.334482
#
# Coordination Sequence:
#
# PCOD9025627 Si02
#       8
#     2   2   2   2   2   2   2   2
#     4  10  24  42  63  96 137 191 246 298 366 439
#     4  11  25  42  71 105 137 187 243 310 375 449
#     4  11  23  42  69  99 143 191 243 298 369 442
#     4  12  29  47  77 111 151 200 252 309 376 449
#     4  10  23  43  65 100 143 183 246 300 376 441
#     4  10  23  43  69 107 139 181 238 296 381 438
#     4  10  22  40  70 103 142 184 234 305 364 447
#     4  12  25  46  73  97 145 186 240 309 370 448
#
# _framework density 25.895741000000001
#
# number of rings (size 3 to 8) (size 9 to 14) (size 15 to 20)
#    0.000    1.250    1.250    3.000    5.250    7.500 
#    0.000    5.000    0.000    0.000    0.000    0.000 
#    0.000    0.000    0.000    0.000    0.000    0.000 
#
# Total GULP energy -89550.950135 kJ/mol
# GULP energy per Si atom -5596.934383 kJ/mol
# Density = 2.583680 g / cm^3
# Si number density = 25.895741 Si / 1000 Ang^3
#
#
#
# Elastic Constant Matrix: (Units=GPa)
#
#
# Indices 1 2 3 4 5 6 
#
# 1 60.2445 38.2108 10.1644 5.0358 4.6480 1.9889
# 2 38.2108 141.5882 44.1816 10.5164 23.4242 9.9560
# 3 10.1644 44.1816 125.0769 10.0821 -10.9353 7.9121
# 4 5.0358 10.5164 10.0821 56.2198 2.9668 8.3563
# 5 4.6480 23.4242 -10.9353 2.9668 45.6078 4.7831
# 6 1.9889 9.9560 7.9121 8.3563 4.7831 45.4656
#
#
#
# Elastic Compliance Matrix: (Units=1/GPa)
#
#
# Indices 1 2 3 4 5 6 
#
# 1 0.020127 -0.005724 0.000531 -0.000933 0.001041 0.000343
# 2 -0.005724 0.010829 -0.003782 -0.000414 -0.005777 -0.000779
# 3 0.000531 -0.003782 0.009844 -0.001167 0.004447 -0.001161
# 4 -0.000933 -0.000414 -0.001167 0.018650 -0.000871 -0.003001
# 5 0.001041 -0.005777 0.004447 -0.000871 0.026135 -0.002144
# 6 0.000343 -0.000779 -0.001161 -0.003001 -0.002144 0.023129
#
#
# Mechanical properties :
#
#
# Convention : Reuss Voigt Hill
#
# Bulk Modulus (GPa) = 43.76663 56.89147 50.32905
# Shear Modulus (GPa) = 37.23523 45.08215 41.15869
#
# Velocity S-wave (km/s) = 3.79607 4.17695 3.99105
# Velocity P-wave (km/s) = 6.01259 6.72902 6.38087
#
# Compressibility (1/GPa) = 0.02284846
#
# Stress axis : x y z
#
# Youngs Moduli (GPa) = 49.68566 92.34412 101.58109
#
# Poissons Ratio (x) = 0.52860 -0.05394
# Poissons Ratio (y) = 0.28442 0.38422
# Poissons Ratio (z) = -0.02638 0.34929
#
# Static dielectric constant tensor:
#      x y z
#    x 2.133060 0.001230 0.064020 
#    y 0.001230 2.034810 -0.013330 
#    z 0.064020 -0.013330 2.032330 
# 
# From -- ./inp_files/364989.got.cif
#   From: 2010.05.17/outbox.cif.g08.bks.cpg/sg2_183_cif.got.tgz:364989.got - 2010.06.03 11:33:40.
