data_PCOD9025436
_publ_section_title
;
Structure prediction by ZEFSAII (Michael W. Deem and Ramdas Pophale) SiO2 
 PCOD9025436
Probable space group: P -1
;
_chemical_formula_sum "Si O2"
_cell_formula_units_Z 16
_cell_length_a 9.671559
_cell_length_b 12.617267
_cell_length_c 18.362682
_cell_angle_alpha 39.997760
_cell_angle_beta 99.509190
_cell_angle_gamma 132.762992
_cell_volume 696.829862
_symmetry_space_group_name_H-M "P -1"
_symmetry_group_IT_number 2
_symmetry_cell_setting 'triclinic'
loop_
_space_group_symop_operation_xyz
x,y,z
-x,-y,-z
loop_
_atom_site_type_symbol
_atom_site_label
_atom_site_fract_x
_atom_site_fract_y
_atom_site_fract_z
Si Si1 0.962197 0.158550 0.417834
Si Si2 0.197252 0.200147 0.983368
Si Si3 0.640091 0.048955 0.334744
Si Si4 0.163975 0.127164 0.177954
Si Si5 0.768346 0.161436 0.029240
Si Si6 0.315647 0.150349 0.683332
Si Si7 0.540564 0.848912 0.026772
Si Si8 0.307441 0.024027 0.359354
O O1 0.724265 0.998837 0.429198
O O2 0.258576 0.530454 0.217666
O O3 0.888338 0.143827 0.499574
O O4 0.000000 0.000000 0.500000
O O5 0.394936 0.243188 0.966054
O O6 0.402697 0.569879 0.814288
O O7 0.040706 0.006853 0.148488
O O8 0.000000 0.000000 0.000000
O O9 0.401894 0.933452 0.401368
O O10 0.585069 0.888814 0.342064
O O11 0.922417 0.447882 0.131238
O O12 0.151073 0.945878 0.317516
O O13 0.500000 0.500000 0.000000
O O14 0.009227 0.115218 0.214952
O O15 0.678707 0.919340 0.199191
O O16 0.776773 0.122389 0.965224
O O17 0.534520 0.065590 0.069283
O O18 0.500000 0.500000 0.500000
#
# Coordination Sequence:
#
# PCOD9025436 Si02
#       8
#     2   2   2   2   2   2   2   2
#     4  11  22  40  69 100 141 181 229 287 355 416
#     4  11  22  39  69 100 140 180 238 288 351 419
#     4  11  25  43  70 100 137 190 234 286 355 424
#     4  10  24  42  69 103 137 186 237 282 354 430
#     4  10  23  42  67 100 136 180 239 284 341 423
#     4  12  27  45  72 103 145 184 237 295 363 421
#     4  10  22  40  69 100 132 185 234 287 342 421
#     4  11  23  42  68 101 142 181 236 291 352 425
#
# _framework density 22.961127000000001
#
# number of rings (size 3 to 8) (size 9 to 14) (size 15 to 20)
#    0.000    1.250    1.250    4.500   10.500    1.000 
#    0.000    4.375    0.000    0.000    0.000    0.000 
#    0.000    0.000    0.000    0.000    0.000    0.000 
#
# Total GULP energy -89475.515123 kJ/mol
# GULP energy per Si atom -5592.219695 kJ/mol
# Density = 2.290887 g / cm^3
# Si number density = 22.961127 Si / 1000 Ang^3
#
#
#
# Elastic Constant Matrix: (Units=GPa)
#
#
# Indices 1 2 3 4 5 6 
#
# 1 221.2027 44.1003 42.0295 20.4565 7.7324 -15.6407
# 2 44.1003 83.8648 22.4684 19.6328 2.9933 0.1004
# 3 42.0295 22.4684 71.3999 21.0387 11.2289 6.7554
# 4 20.4565 19.6328 21.0387 38.6391 -1.3441 7.0323
# 5 7.7324 2.9933 11.2289 -1.3441 31.2334 8.8581
# 6 -15.6407 0.1004 6.7554 7.0323 8.8581 38.4038
#
#
#
# Elastic Compliance Matrix: (Units=1/GPa)
#
#
# Indices 1 2 3 4 5 6 
#
# 1 0.005808 -0.002027 -0.002487 -0.001352 -0.001364 0.003370
# 2 -0.002027 0.014803 -0.001754 -0.005635 -0.000710 0.000640
# 3 -0.002487 -0.001754 0.019620 -0.008421 -0.006211 -0.001485
# 4 -0.001352 -0.005635 -0.008421 0.035636 0.007510 -0.007312
# 5 -0.001364 -0.000710 -0.006211 0.007510 0.037681 -0.009527
# 6 0.003370 0.000640 -0.001485 -0.007312 -0.009527 0.031208
#
#
# Mechanical properties :
#
#
# Convention : Reuss Voigt Hill
#
# Bulk Modulus (GPa) = 36.10626 65.96264 51.03445
# Shear Modulus (GPa) = 30.02546 39.51323 34.76935
#
# Velocity S-wave (km/s) = 3.62009 4.15284 3.89558
# Velocity P-wave (km/s) = 5.76476 7.19619 6.51988
#
# Compressibility (1/GPa) = 0.02769603
#
# Stress axis : x y z
#
# Youngs Moduli (GPa) = 172.16302 67.55233 50.96749
#
# Poissons Ratio (x) = 0.13692 0.12678
# Poissons Ratio (y) = 0.34895 0.08938
# Poissons Ratio (z) = 0.42825 0.11847
#
# Static dielectric constant tensor:
#      x y z
#    x 1.898060 0.026030 0.007570 
#    y 0.026030 1.935240 -0.009220 
#    z 0.007570 -0.009220 1.867110 
# 
# From -- ./inp_files/274704.got.cif
#   From: 2010.05.17/outbox.cif.g08.bks.cpg/sg2_138_cif.got.tgz:274704.got - 2010.06.03 11:33:40.
