data_PCOD9025126
_publ_section_title
;
Structure prediction by ZEFSAII (Michael W. Deem and Ramdas Pophale) SiO2 
 PCOD9025126
Probable space group: P -1
;
_chemical_formula_sum "Si O2"
_cell_formula_units_Z 14
_cell_length_a 10.366115
_cell_length_b 12.970650
_cell_length_c 9.275599
_cell_angle_alpha 135.426731
_cell_angle_beta 46.406419
_cell_angle_gamma 125.416051
_cell_volume 624.277533
_symmetry_space_group_name_H-M "P -1"
_symmetry_group_IT_number 2
_symmetry_cell_setting 'triclinic'
loop_
_space_group_symop_operation_xyz
x,y,z
-x,-y,-z
loop_
_atom_site_type_symbol
_atom_site_label
_atom_site_fract_x
_atom_site_fract_y
_atom_site_fract_z
Si Si1 0.617398 0.347721 0.402289
Si Si2 0.617872 0.132378 0.440553
Si Si3 0.694589 0.169898 0.724846
Si Si4 0.114863 0.027791 0.082940
Si Si5 0.045532 0.664745 0.071503
Si Si6 0.384859 0.299459 0.248524
Si Si7 0.142966 0.093300 0.591387
O O1 0.571283 0.268246 0.514019
O O2 0.812962 0.326360 0.162537
O O3 0.473139 0.282702 0.322313
O O4 0.622769 0.525939 0.587423
O O5 0.739967 0.199977 0.551496
O O6 0.500000 0.000000 0.500000
O O7 0.714143 0.046806 0.162031
O O8 0.690588 0.994510 0.599247
O O9 0.847242 0.248255 0.792226
O O10 0.522655 0.243759 0.973315
O O11 0.196804 0.188165 0.249343
O O12 0.973487 0.935115 0.204435
O O13 0.000000 0.000000 0.000000
O O14 0.000000 0.500000 0.000000
O O15 0.862823 0.733719 0.258939
O O16 0.000000 0.000000 0.500000
#
# Coordination Sequence:
#
# PCOD9025126 Si02
#       7
#     2   2   2   2   2   2   2
#     4  10  24  45  71  97 139 184 232 279 346 411
#     4  12  24  44  67 100 139 180 229 284 343 408
#     4  10  22  43  64 100 134 174 232 277 342 407
#     4  12  24  43  67 101 135 173 229 282 344 405
#     4  10  22  42  66 100 137 181 231 282 339 405
#     4  10  24  47  67  99 136 182 230 286 339 410
#     4  10  22  40  67  94 135 174 228 282 331 403
#
# _framework density 22.425923999999998
#
# number of rings (size 3 to 8) (size 9 to 14) (size 15 to 20)
#    0.000    1.429    4.286    0.000    4.000    3.429 
#    7.714    1.429    0.000    0.000    0.000    0.000 
#    0.000    0.000    0.000    0.000    0.000    0.000 
#
# Total GULP energy -77935.382327 kJ/mol
# GULP energy per Si atom -5566.813023 kJ/mol
# Density = 2.237488 g / cm^3
# Si number density = 22.425924 Si / 1000 Ang^3
#
#
#
# Elastic Constant Matrix: (Units=GPa)
#
#
# Indices 1 2 3 4 5 6 
#
# 1 70.6749 32.1106 25.8846 19.3527 -11.6389 -19.2979
# 2 32.1106 107.1694 36.8226 20.6959 -1.3682 -21.4183
# 3 25.8846 36.8226 119.8812 10.1172 -7.5670 -12.5554
# 4 19.3527 20.6959 10.1172 47.7289 -1.7906 -2.2156
# 5 -11.6389 -1.3682 -7.5670 -1.7906 27.4026 -4.9235
# 6 -19.2979 -21.4183 -12.5554 -2.2156 -4.9235 41.3012
#
#
#
# Elastic Compliance Matrix: (Units=1/GPa)
#
#
# Indices 1 2 3 4 5 6 
#
# 1 0.021965 -0.002763 -0.001760 -0.006539 0.009918 0.009127
# 2 -0.002763 0.012562 -0.002568 -0.003617 -0.000744 0.004160
# 3 -0.001760 -0.002568 0.009756 -0.000117 0.001998 0.001043
# 4 -0.006539 -0.003617 -0.000117 0.024939 -0.002057 -0.003874
# 5 0.009918 -0.000744 0.001998 -0.002057 0.042856 0.009854
# 6 0.009127 0.004160 0.001043 -0.003874 0.009854 0.031918
#
#
# Mechanical properties :
#
#
# Convention : Reuss Voigt Hill
#
# Bulk Modulus (GPa) = 33.22224 54.15124 43.68674
# Shear Modulus (GPa) = 29.72434 36.81372 33.26903
#
# Velocity S-wave (km/s) = 3.64462 4.05602 3.85581
# Velocity P-wave (km/s) = 5.70590 6.79222 6.27262
#
# Compressibility (1/GPa) = 0.03010032
#
# Stress axis : x y z
#
# Youngs Moduli (GPa) = 45.52594 79.60795 102.50418
#
# Poissons Ratio (x) = 0.21996 0.18043
# Poissons Ratio (y) = 0.12579 0.26322
# Poissons Ratio (z) = 0.08014 0.20442
#
# Static dielectric constant tensor:
#      x y z
#    x 2.008070 0.064590 -0.067960 
#    y 0.064590 1.906770 0.034370 
#    z -0.067960 0.034370 1.905060 
# 
# From -- ./inp_files/199551.got.cif
#   From: 2010.05.17/outbox.cif.g08.bks.cpg/sg2_100_cif.got.tgz:199551.got - 2010.06.03 11:33:40.
