data_PCOD9025455
_publ_section_title
;
Structure prediction by ZEFSAII (Michael W. Deem and Ramdas Pophale) SiO2 
 PCOD9025455
Probable space group: P -1
;
_chemical_formula_sum "Si O2"
_cell_formula_units_Z 14
_cell_length_a 8.665442
_cell_length_b 13.822769
_cell_length_c 11.992133
_cell_angle_alpha 51.844741
_cell_angle_beta 30.658040
_cell_angle_gamma 58.302922
_cell_volume 575.890099
_symmetry_space_group_name_H-M "P -1"
_symmetry_group_IT_number 2
_symmetry_cell_setting 'triclinic'
loop_
_space_group_symop_operation_xyz
x,y,z
-x,-y,-z
loop_
_atom_site_type_symbol
_atom_site_label
_atom_site_fract_x
_atom_site_fract_y
_atom_site_fract_z
Si Si1 0.627401 0.524912 0.098759
Si Si2 0.751264 0.624965 0.192585
Si Si3 0.157165 0.871420 0.021425
Si Si4 0.232088 0.228775 0.275913
Si Si5 0.628063 0.680086 0.469979
Si Si6 0.034550 0.840042 0.749096
Si Si7 0.199767 0.917122 0.220145
O O1 0.617472 0.590878 0.179097
O O2 0.384802 0.415288 0.350384
O O3 0.641669 0.632315 0.922097
O O4 0.944893 0.455571 0.935058
O O5 0.583737 0.616514 0.421013
O O6 0.850522 0.767362 0.010907
O O7 0.209025 0.878683 0.115600
O O8 0.934193 0.757486 0.218578
O O9 0.487839 0.840354 0.791597
O O10 0.000000 0.000000 0.000000
O O11 0.138394 0.177250 0.248462
O O12 0.917044 0.203088 0.554789
O O13 0.352980 0.773498 0.588374
O O14 0.052443 0.981403 0.668202
O O15 0.500000 0.000000 0.000000
#
# Coordination Sequence:
#
# PCOD9025455 Si02
#       7
#     2   2   2   2   2   2   2
#     4   9  21  41  66 106 134 179 235 272 332 416
#     4   9  19  39  67 102 137 178 225 282 334 398
#     4  12  28  45  66 105 140 181 227 283 352 402
#     4  11  25  43  68 100 138 172 235 285 332 413
#     4  11  23  40  71  99 147 181 220 283 344 404
#     4  10  22  40  69 102 132 177 236 278 332 408
#     4  12  26  45  73  97 131 187 232 285 340 402
#
# _framework density 24.310196000000001
#
# number of rings (size 3 to 8) (size 9 to 14) (size 15 to 20)
#    0.000    1.429    1.429    3.429    4.000    6.286 
#    0.000    1.429    0.000    0.000    0.000    0.000 
#    0.000    0.000    0.000    0.000    0.000    0.000 
#
# Total GULP energy -78195.279270 kJ/mol
# GULP energy per Si atom -5585.377091 kJ/mol
# Density = 2.425486 g / cm^3
# Si number density = 24.310196 Si / 1000 Ang^3
#
#
#
# Elastic Constant Matrix: (Units=GPa)
#
#
# Indices 1 2 3 4 5 6 
#
# 1 48.7353 2.0099 31.1112 -3.1618 -3.2453 -7.0971
# 2 2.0099 77.5050 29.1183 -11.4952 -11.0991 -11.8979
# 3 31.1112 29.1183 157.9298 -21.7097 -3.5845 -20.2970
# 4 -3.1618 -11.4952 -21.7097 34.4029 3.7084 5.2343
# 5 -3.2453 -11.0991 -3.5845 3.7084 36.8327 0.7518
# 6 -7.0971 -11.8979 -20.2970 5.2343 0.7518 31.9307
#
#
#
# Elastic Compliance Matrix: (Units=1/GPa)
#
#
# Indices 1 2 3 4 5 6 
#
# 1 0.024011 0.001821 -0.004739 -0.000887 0.002229 0.003096
# 2 0.001821 0.015331 -0.002163 0.002837 0.004199 0.004179
# 3 -0.004739 -0.002163 0.008561 0.003867 -0.000686 0.002965
# 4 -0.000887 0.002837 0.003867 0.032911 -0.002119 -0.002027
# 5 0.002229 0.004199 -0.000686 -0.002119 0.028732 0.001295
# 6 0.003096 0.004179 0.002965 -0.002027 0.001295 0.035749
#
#
# Mechanical properties :
#
#
# Convention : Reuss Voigt Hill
#
# Bulk Modulus (GPa) = 26.49668 45.40546 35.95107
# Shear Modulus (GPa) = 29.75503 35.42865 32.59184
#
# Velocity S-wave (km/s) = 3.50233 3.82168 3.66548
# Velocity P-wave (km/s) = 5.22285 6.17994 5.72144
#
# Compressibility (1/GPa) = 0.03774058
#
# Stress axis : x y z
#
# Youngs Moduli (GPa) = 41.64761 65.22591 116.80308
#
# Poissons Ratio (x) = -0.11876 0.55355
# Poissons Ratio (y) = -0.07583 0.25266
# Poissons Ratio (z) = 0.19738 0.14109
#
# Static dielectric constant tensor:
#      x y z
#    x 1.928290 -0.039830 -0.014630 
#    y -0.039830 1.949860 -0.032050 
#    z -0.014630 -0.032050 2.042640 
# 
# From -- ./inp_files/109537.got.cif
#   From: 2010.05.17/outbox.cif.g08.bks.cpg/sg2_55_cif.got.tgz:109537.got - 2010.06.03 11:33:40.
