data_PCOD9025298
_publ_section_title
;
Structure prediction by ZEFSAII (Michael W. Deem and Ramdas Pophale) SiO2 
 PCOD9025298
Probable space group: P -1
;
_chemical_formula_sum "Si O2"
_cell_formula_units_Z 12
_cell_length_a 12.676562
_cell_length_b 9.789328
_cell_length_c 8.650908
_cell_angle_alpha 56.959483
_cell_angle_beta 130.677596
_cell_angle_gamma 125.210693
_cell_volume 639.851393
_symmetry_space_group_name_H-M "P -1"
_symmetry_group_IT_number 2
_symmetry_cell_setting 'triclinic'
loop_
_space_group_symop_operation_xyz
x,y,z
-x,-y,-z
loop_
_atom_site_type_symbol
_atom_site_label
_atom_site_fract_x
_atom_site_fract_y
_atom_site_fract_z
Si Si1 0.085045 0.589521 0.265833
Si Si2 0.001122 0.137951 0.786435
Si Si3 0.494001 0.341235 0.703453
Si Si4 0.763950 0.674040 0.338754
Si Si5 0.194548 0.709519 0.957631
Si Si6 0.789065 0.952964 0.419184
O O1 0.052721 0.715445 0.280666
O O2 0.196163 0.497171 0.492198
O O3 0.933684 0.434733 0.171203
O O4 0.147384 0.689621 0.104307
O O5 0.889552 0.037479 0.607084
O O6 0.162098 0.232648 0.804471
O O7 0.000000 0.000000 0.000000
O O8 0.500000 0.500000 0.500000
O O9 0.380456 0.163651 0.629765
O O10 0.407366 0.357141 0.768478
O O11 0.653403 0.329153 0.888152
O O12 0.842022 0.811394 0.467137
O O13 0.213023 0.897530 0.792738
#
# Coordination Sequence:
#
# PCOD9025298 Si02
#       6
#     2   2   2   2   2   2
#     4  11  24  37  70  91 127 161 208 263 310 365
#     4  12  25  40  62  98 128 158 213 260 313 362
#     4  10  22  40  68  90 124 164 216 249 307 376
#     4  10  22  42  66  92 121 168 207 256 311 368
#     4  11  21  41  66  95 121 168 210 252 311 374
#     4  10  23  39  67  90 124 166 208 257 306 371
#
# _framework density 18.754352999999998
#
# number of rings (size 3 to 8) (size 9 to 14) (size 15 to 20)
#    1.000    0.333    3.333    2.500    7.000    0.000 
#    0.000    1.667    0.000    0.000    0.000    0.000 
#    0.000    0.000    0.000    0.000    0.000    0.000 
#
# Total GULP energy -66968.520088 kJ/mol
# GULP energy per Si atom -5580.710007 kJ/mol
# Density = 1.871167 g / cm^3
# Si number density = 18.754353 Si / 1000 Ang^3
#
#
#
# Elastic Constant Matrix: (Units=GPa)
#
#
# Indices 1 2 3 4 5 6 
#
# 1 109.8307 29.9922 11.4011 -0.8752 4.7357 -0.4451
# 2 29.9922 63.0595 10.1541 -23.9971 -8.3548 -1.8938
# 3 11.4011 10.1541 49.7911 -22.5786 -6.9744 9.8368
# 4 -0.8752 -23.9971 -22.5786 25.4294 6.7499 -2.6462
# 5 4.7357 -8.3548 -6.9744 6.7499 32.6487 -2.9069
# 6 -0.4451 -1.8938 9.8368 -2.6462 -2.9069 43.7541
#
#
#
# Elastic Compliance Matrix: (Units=1/GPa)
#
#
# Indices 1 2 3 4 5 6 
#
# 1 0.013547 -0.012589 -0.009771 -0.019178 -0.003272 0.000412
# 2 -0.012589 0.039492 0.019282 0.052646 0.005236 0.000778
# 3 -0.009771 0.019282 0.045951 0.057023 0.003854 -0.005891
# 4 -0.019178 0.052646 0.057023 0.138857 -0.000484 -0.002371
# 5 -0.003272 0.005236 0.003854 -0.000484 0.033503 0.001523
# 6 0.000412 0.000778 -0.005891 -0.002371 0.001523 0.024175
#
#
# Mechanical properties :
#
#
# Convention : Reuss Voigt Hill
#
# Bulk Modulus (GPa) = 10.77203 36.19734 23.48468
# Shear Modulus (GPa) = 15.03192 31.77536 23.40364
#
# Velocity S-wave (km/s) = 2.83418 4.12064 3.53640
# Velocity P-wave (km/s) = 4.05787 6.47937 5.40595
#
# Compressibility (1/GPa) = 0.09283303
#
# Stress axis : x y z
#
# Youngs Moduli (GPa) = 73.81753 25.32151 21.76247
#
# Poissons Ratio (x) = 0.31877 0.21264
# Poissons Ratio (y) = 0.92929 -0.41962
# Poissons Ratio (z) = 0.72127 -0.48824
#
# Static dielectric constant tensor:
#      x y z
#    x 1.669850 0.019340 -0.001580 
#    y 0.019340 1.648230 0.000670 
#    z -0.001580 0.000670 1.627010 
# 
# From -- ./inp_files/165666.got.cif
#   From: 2010.05.17/outbox.cif.g08.bks.cpg/sg2_83_cif.got.tgz:165666.got - 2010.06.03 11:33:40.
