data_PCOD9025846
_publ_section_title
;
Structure prediction by ZEFSAII (Michael W. Deem and Ramdas Pophale) SiO2 
 PCOD9025846
Probable space group: P -1
;
_chemical_formula_sum "Si O2"
_cell_formula_units_Z 16
_cell_length_a 11.511546
_cell_length_b 25.615877
_cell_length_c 8.091016
_cell_angle_alpha 27.862106
_cell_angle_beta 44.909118
_cell_angle_gamma 33.773996
_cell_volume 616.592440
_symmetry_space_group_name_H-M "P -1"
_symmetry_group_IT_number 2
_symmetry_cell_setting 'triclinic'
loop_
_space_group_symop_operation_xyz
x,y,z
-x,-y,-z
loop_
_atom_site_type_symbol
_atom_site_label
_atom_site_fract_x
_atom_site_fract_y
_atom_site_fract_z
Si Si1 0.628822 0.013753 0.577600
Si Si2 0.113267 0.881999 0.859722
Si Si3 0.272641 0.568380 0.632226
Si Si4 0.184501 0.293309 0.244037
Si Si5 0.367066 0.325687 0.641139
Si Si6 0.805274 0.010655 0.092121
Si Si7 0.331646 0.533232 0.314525
Si Si8 0.851896 0.712236 0.320851
O O1 0.718984 0.098243 0.296311
O O2 0.380185 0.125192 0.514516
O O3 0.734083 0.950233 0.468840
O O4 0.705523 0.882707 0.982001
O O5 0.232456 0.713420 0.198674
O O6 0.000000 0.000000 0.500000
O O7 0.915590 0.931988 0.032629
O O8 0.315309 0.484241 0.654287
O O9 0.468756 0.473664 0.821888
O O10 0.055967 0.634417 0.753978
O O11 0.162771 0.329426 0.362255
O O12 0.252512 0.337883 0.893541
O O13 0.398045 0.439255 0.347354
O O14 0.230349 0.341213 0.581716
O O15 0.595664 0.171852 0.825301
O O16 0.000000 0.000000 0.000000
O O17 0.083846 0.662207 0.181724
#
# Coordination Sequence:
#
# PCOD9025846 Si02
#       8
#     2   2   2   2   2   2   2   2
#     4  10  22  41  63  99 136 167 214 277 341 396
#     4  11  22  38  68 101 131 169 219 275 340 401
#     4  10  22  40  72  94 133 181 221 278 330 393
#     4  10  23  41  68  99 133 174 221 282 340 389
#     4  11  24  43  69  97 135 178 224 278 332 396
#     4   9  21  39  63  94 132 168 210 275 337 390
#     4  10  22  46  64  93 137 181 231 267 323 399
#     4  11  24  40  69  99 136 177 227 271 327 405
#
# _framework density 25.949069999999999
#
# number of rings (size 3 to 8) (size 9 to 14) (size 15 to 20)
#    0.000    1.750    0.000    4.500    5.250    3.000 
#    0.000    0.625    8.250    0.000    0.000    0.000 
#    0.000    0.000    0.000    0.000    0.000    0.000 
#
# Total GULP energy -89282.280033 kJ/mol
# GULP energy per Si atom -5580.142502 kJ/mol
# Density = 2.589001 g / cm^3
# Si number density = 25.949070 Si / 1000 Ang^3
#
#
#
# Elastic Constant Matrix: (Units=GPa)
#
#
# Indices 1 2 3 4 5 6 
#
# 1 163.7422 74.9406 22.6953 9.5703 -6.8222 -17.0031
# 2 74.9406 178.6400 39.3781 17.0220 1.1014 -24.2041
# 3 22.6953 39.3781 85.2305 8.8961 3.9856 2.6045
# 4 9.5703 17.0220 8.8961 32.2723 0.8393 2.6523
# 5 -6.8222 1.1014 3.9856 0.8393 30.0542 3.0770
# 6 -17.0031 -24.2041 2.6045 2.6523 3.0770 56.5397
#
#
#
# Elastic Compliance Matrix: (Units=1/GPa)
#
#
# Indices 1 2 3 4 5 6 
#
# 1 0.007767 -0.002886 -0.000782 -0.000702 0.001883 0.001067
# 2 -0.002886 0.008078 -0.002714 -0.002873 -0.000807 0.002894
# 3 -0.000782 -0.002714 0.013523 -0.001870 -0.001630 -0.001844
# 4 -0.000702 -0.002873 -0.001870 0.033476 -0.000444 -0.002901
# 5 0.001883 -0.000807 -0.001630 -0.000444 0.034117 -0.001540
# 6 0.001067 0.002894 -0.001844 -0.002901 -0.001540 0.019551
#
#
# Mechanical properties :
#
#
# Convention : Reuss Voigt Hill
#
# Bulk Modulus (GPa) = 60.23176 77.96009 69.09592
# Shear Modulus (GPa) = 37.08934 43.14647 40.11791
#
# Velocity S-wave (km/s) = 3.78473 4.08209 3.93622
# Velocity P-wave (km/s) = 6.50852 7.23372 6.88068
#
# Compressibility (1/GPa) = 0.01660254
#
# Stress axis : x y z
#
# Youngs Moduli (GPa) = 128.75593 123.79738 73.94798
#
# Poissons Ratio (x) = 0.35727 0.05784
# Poissons Ratio (y) = 0.37158 0.20072
# Poissons Ratio (z) = 0.10070 0.33603
#
# Static dielectric constant tensor:
#      x y z
#    x 2.188350 0.067890 -0.121730 
#    y 0.067890 2.000300 -0.040850 
#    z -0.121730 -0.040850 2.184840 
# 
# From -- ./inp_files/285762.got.cif
#   From: 2010.05.17/outbox.cif.g08.bks.cpg/sg2_143_cif.got.tgz:285762.got - 2010.06.03 11:33:40.
