data_PCOD9025057
_publ_section_title
;
Structure prediction by ZEFSAII (Michael W. Deem and Ramdas Pophale) SiO2 
 PCOD9025057
Probable space group: P -1
;
_chemical_formula_sum "Si O2"
_cell_formula_units_Z 10
_cell_length_a 9.957279
_cell_length_b 5.307648
_cell_length_c 8.059159
_cell_angle_alpha 120.539436
_cell_angle_beta 110.766976
_cell_angle_gamma 85.096432
_cell_volume 340.627267
_symmetry_space_group_name_H-M "P -1"
_symmetry_group_IT_number 2
_symmetry_cell_setting 'triclinic'
loop_
_space_group_symop_operation_xyz
x,y,z
-x,-y,-z
loop_
_atom_site_type_symbol
_atom_site_label
_atom_site_fract_x
_atom_site_fract_y
_atom_site_fract_z
Si Si1 0.432165 0.352150 0.156118
Si Si2 0.920185 0.475047 0.276777
Si Si3 0.371730 0.191056 0.455479
Si Si4 0.245564 0.983085 0.738709
Si Si5 0.186650 0.679347 0.273173
O O1 0.403313 0.253251 0.299357
O O2 0.586790 0.546129 0.305664
O O3 0.292746 0.538027 0.147583
O O4 0.401948 0.136425 0.916409
O O5 0.849738 0.771324 0.294057
O O6 0.000000 0.500000 0.500000
O O7 0.039373 0.479431 0.184222
O O8 0.818064 0.175491 0.173131
O O9 0.500000 0.000000 0.500000
O O10 0.210705 0.018573 0.335480
O O11 0.249601 0.752155 0.512230
#
# Coordination Sequence:
#
# PCOD9025057 Si02
#       5
#     2   2   2   2   2
#     4  10  23  41  64  93 126 164 217 261 313 375
#     4  10  23  42  64  97 132 164 208 261 312 375
#     4   9  21  42  62  90 127 164 209 270 313 367
#     4  11  25  41  67  97 128 166 213 258 309 385
#     4  10  22  40  67  87 130 170 202 260 323 364
#
# _framework density 29.357605
#
# number of rings (size 3 to 8) (size 9 to 14) (size 15 to 20)
#    0.000    2.000    0.000    2.400   14.000    2.400 
#    0.000    9.000    0.000    0.000    0.000    0.000 
#    0.000    0.000    0.000    0.000    0.000    0.000 
#
# Total GULP energy -55825.448110 kJ/mol
# GULP energy per Si atom -5582.544811 kJ/mol
# Density = 2.929079 g / cm^3
# Si number density = 29.357605 Si / 1000 Ang^3
#
#
#
# Elastic Constant Matrix: (Units=GPa)
#
#
# Indices 1 2 3 4 5 6 
#
# 1 92.9111 56.7779 -9.0048 -4.7017 -13.0969 25.4296
# 2 56.7779 129.8401 22.3145 -16.9530 11.2484 23.1448
# 3 -9.0048 22.3145 142.2210 -10.8696 -15.9430 5.6293
# 4 -4.7017 -16.9530 -10.8696 27.8585 1.6955 4.4439
# 5 -13.0969 11.2484 -15.9430 1.6955 23.8277 -9.1562
# 6 25.4296 23.1448 5.6293 4.4439 -9.1562 68.3387
#
#
#
# Elastic Compliance Matrix: (Units=1/GPa)
#
#
# Indices 1 2 3 4 5 6 
#
# 1 0.022504 -0.012869 0.005738 -0.002916 0.021971 -0.001355
# 2 -0.012869 0.017969 -0.005185 0.008720 -0.021294 -0.004290
# 3 0.005738 -0.005185 0.009610 0.000760 0.012133 0.000406
# 4 -0.002916 0.008720 0.000760 0.042628 -0.010597 -0.006122
# 5 0.021971 -0.021294 0.012133 -0.010597 0.076414 0.008964
# 6 -0.001355 -0.004290 0.000406 -0.006122 0.008964 0.018156
#
#
# Mechanical properties :
#
#
# Convention : Reuss Voigt Hill
#
# Bulk Modulus (GPa) = 39.29383 56.12747 47.71065
# Shear Modulus (GPa) = 22.68643 43.66396 33.17520
#
# Velocity S-wave (km/s) = 2.78288 3.86075 3.36525
# Velocity P-wave (km/s) = 4.87232 6.24772 5.60238
#
# Compressibility (1/GPa) = 0.02544929
#
# Stress axis : x y z
#
# Youngs Moduli (GPa) = 44.43695 55.65293 104.05535
#
# Poissons Ratio (x) = 0.71622 -0.59704
# Poissons Ratio (y) = 0.57188 0.53952
# Poissons Ratio (z) = -0.25497 0.28856
#
# Static dielectric constant tensor:
#      x y z
#    x 2.357820 0.025720 0.071490 
#    y 0.025720 2.606150 0.209540 
#    z 0.071490 0.209540 2.313890 
# 
# From -- ./inp_files/17387.got.cif
#   From: 2010.05.17/outbox.cif.g08.bks.cpg/sg2_9_cif.got.tgz:17387.got - 2010.06.03 11:33:40.
