data_PCOD9025330
_publ_section_title
;
Structure prediction by ZEFSAII (Michael W. Deem and Ramdas Pophale) SiO2 
 PCOD9025330
Probable space group: P -1
;
_chemical_formula_sum "Si O2"
_cell_formula_units_Z 14
_cell_length_a 22.318920
_cell_length_b 8.179236
_cell_length_c 17.997084
_cell_angle_alpha 136.479472
_cell_angle_beta 18.795912
_cell_angle_gamma 126.726963
_cell_volume 668.495727
_symmetry_space_group_name_H-M "P -1"
_symmetry_group_IT_number 2
_symmetry_cell_setting 'triclinic'
loop_
_space_group_symop_operation_xyz
x,y,z
-x,-y,-z
loop_
_atom_site_type_symbol
_atom_site_label
_atom_site_fract_x
_atom_site_fract_y
_atom_site_fract_z
Si Si1 0.014156 0.724173 0.861814
Si Si2 0.672056 0.816640 0.184579
Si Si3 0.596007 0.695888 0.811262
Si Si4 0.171515 0.489667 0.857905
Si Si5 0.805464 0.831598 0.733025
Si Si6 0.751354 0.328181 0.862310
Si Si7 0.360073 0.878371 0.824729
O O1 0.230462 0.494850 0.511006
O O2 0.885305 0.784237 0.957450
O O3 0.899873 0.620451 0.022323
O O4 0.000000 0.000000 0.000000
O O5 0.500000 0.000000 0.500000
O O6 0.638422 0.934167 0.181521
O O7 0.662305 0.538922 0.100545
O O8 0.686223 0.683656 0.782987
O O9 0.407595 0.617144 0.998762
O O10 0.500000 0.000000 0.000000
O O11 0.214037 0.738035 0.919809
O O12 0.402732 0.310586 0.502845
O O13 0.000000 0.500000 0.000000
O O14 0.042721 0.659531 0.403041
O O15 0.791979 0.055352 0.763067
O O16 0.722130 0.966956 0.952538
#
# Coordination Sequence:
#
# PCOD9025330 Si02
#       7
#     2   2   2   2   2   2   2
#     4  12  24  44  74 102 138 180 232 283 344 409
#     4  12  23  43  66  97 137 175 224 282 342 405
#     4  10  23  40  67 101 130 179 227 276 334 409
#     4  11  26  44  67 101 137 175 229 285 344 407
#     4  10  22  42  66  94 131 177 228 269 337 410
#     4  10  22  40  68  94 131 175 222 275 331 407
#     4  11  26  42  68 100 136 181 222 284 347 404
#
# _framework density 20.942543000000001
#
# number of rings (size 3 to 8) (size 9 to 14) (size 15 to 20)
#    0.000    1.143    2.857    2.571   10.000    0.571 
#    0.000    0.714    0.000    0.000    0.000    0.000 
#    0.000    0.000    0.000    0.000    0.000    0.000 
#
# Total GULP energy -78078.379187 kJ/mol
# GULP energy per Si atom -5577.027085 kJ/mol
# Density = 2.089488 g / cm^3
# Si number density = 20.942543 Si / 1000 Ang^3
#
#
#
# Elastic Constant Matrix: (Units=GPa)
#
#
# Indices 1 2 3 4 5 6 
#
# 1 127.0657 23.6798 65.8773 -21.8664 -3.0784 40.1043
# 2 23.6798 60.2135 32.0741 -0.7422 -12.6596 30.1558
# 3 65.8773 32.0741 142.4814 1.3894 -2.5723 29.5909
# 4 -21.8664 -0.7422 1.3894 26.1626 9.9651 1.0393
# 5 -3.0784 -12.6596 -2.5723 9.9651 34.5351 -9.6348
# 6 40.1043 30.1558 29.5909 1.0393 -9.6348 44.5654
#
#
#
# Elastic Compliance Matrix: (Units=1/GPa)
#
#
# Indices 1 2 3 4 5 6 
#
# 1 0.019620 0.003081 -0.006423 0.020799 -0.008571 -0.017814
# 2 0.003081 0.027293 -0.003810 0.002641 0.004253 -0.017854
# 3 -0.006423 -0.003810 0.010567 -0.006565 0.001202 0.001754
# 4 0.020799 0.002641 -0.006565 0.065661 -0.022928 -0.022633
# 5 -0.008571 0.004253 0.001202 -0.022928 0.040154 0.013253
# 6 -0.017814 -0.017854 0.001754 -0.022633 0.013253 0.052779
#
#
# Mechanical properties :
#
#
# Convention : Reuss Voigt Hill
#
# Bulk Modulus (GPa) = 23.16011 63.66920 43.41466
# Shear Modulus (GPa) = 20.42741 34.92793 27.67767
#
# Velocity S-wave (km/s) = 3.12653 4.08830 3.63933
# Velocity P-wave (km/s) = 4.91085 7.26316 6.19959
#
# Compressibility (1/GPa) = 0.04317768
#
# Stress axis : x y z
#
# Youngs Moduli (GPa) = 50.96934 36.63912 94.63342
#
# Poissons Ratio (x) = -0.11290 0.60781
# Poissons Ratio (y) = -0.15706 0.36053
# Poissons Ratio (z) = 0.32737 0.13959
#
# Static dielectric constant tensor:
#      x y z
#    x 1.742950 0.026470 -0.049420 
#    y 0.026470 1.766730 0.011640 
#    z -0.049420 0.011640 1.778780 
# 
# From -- ./inp_files/257249.got.cif
#   From: 2010.05.17/outbox.cif.g08.bks.cpg/sg2_129_cif.got.tgz:257249.got - 2010.06.03 11:33:40.
