data_PCOD9025511
_publ_section_title
;
Structure prediction by ZEFSAII (Michael W. Deem and Ramdas Pophale) SiO2 
 PCOD9025511
Probable space group: P -1
;
_chemical_formula_sum "Si O2"
_cell_formula_units_Z 14
_cell_length_a 10.021262
_cell_length_b 12.877966
_cell_length_c 5.348945
_cell_angle_alpha 84.223039
_cell_angle_beta 109.877263
_cell_angle_gamma 88.988200
_cell_volume 644.883304
_symmetry_space_group_name_H-M "P -1"
_symmetry_group_IT_number 2
_symmetry_cell_setting 'triclinic'
loop_
_space_group_symop_operation_xyz
x,y,z
-x,-y,-z
loop_
_atom_site_type_symbol
_atom_site_label
_atom_site_fract_x
_atom_site_fract_y
_atom_site_fract_z
Si Si1 0.643286 0.365963 0.049117
Si Si2 0.140983 0.985727 0.754194
Si Si3 0.571505 0.576700 0.717831
Si Si4 0.584703 0.970009 0.314807
Si Si5 0.932994 0.236151 0.158648
Si Si6 0.628478 0.726594 0.338866
Si Si7 0.115515 0.219576 0.796605
O O1 0.643475 0.491587 0.973891
O O2 0.527674 0.307990 0.823604
O O3 0.562322 0.357402 0.263348
O O4 0.797742 0.313910 0.112759
O O5 0.127738 0.877586 0.914636
O O6 0.269782 0.974028 0.643814
O O7 0.155303 0.094183 0.887229
O O8 0.000000 0.000000 0.500000
O O9 0.500000 0.500000 0.500000
O O10 0.671997 0.649581 0.611343
O O11 0.620681 0.846602 0.381954
O O12 0.500000 0.000000 0.500000
O O13 0.500000 0.000000 0.000000
O O14 0.026630 0.228800 0.475811
O O15 0.026580 0.260323 0.969304
O O16 0.740541 0.722368 0.184413
#
# Coordination Sequence:
#
# PCOD9025511 Si02
#       7
#     2   2   2   2   2   2   2
#     4  10  22  40  69  93 120 163 220 266 315 380
#     4   9  21  40  60  86 129 175 205 247 309 378
#     4   9  21  41  66  92 122 160 213 264 331 377
#     4  11  25  39  60  98 131 163 215 265 305 367
#     4  11  23  39  64  91 126 165 216 257 304 368
#     4  10  23  39  67  87 131 170 206 258 329 372
#     4  10  24  40  59  93 130 169 204 253 315 376
#
# _framework density 21.709354999999999
#
# number of rings (size 3 to 8) (size 9 to 14) (size 15 to 20)
#    0.000    2.000    0.000    1.286   10.000    9.143 
#    0.000    1.429    0.000    0.000    0.000    0.000 
#    0.000    0.000    0.000    0.000    0.000    0.000 
#
# Total GULP energy -78122.249848 kJ/mol
# GULP energy per Si atom -5580.160703 kJ/mol
# Density = 2.165994 g / cm^3
# Si number density = 21.709355 Si / 1000 Ang^3
#
#
#
# Elastic Constant Matrix: (Units=GPa)
#
#
# Indices 1 2 3 4 5 6 
#
# 1 153.0955 34.5827 47.4812 -14.2662 -27.1631 -17.2196
# 2 34.5827 60.4839 16.8888 -23.8825 -14.1562 1.0656
# 3 47.4812 16.8888 81.8417 0.6504 -25.0844 -4.5440
# 4 -14.2662 -23.8825 0.6504 27.7290 1.4382 -9.4909
# 5 -27.1631 -14.1562 -25.0844 1.4382 39.8936 3.8586
# 6 -17.2196 1.0656 -4.5440 -9.4909 3.8586 38.5299
#
#
#
# Elastic Compliance Matrix: (Units=1/GPa)
#
#
# Indices 1 2 3 4 5 6 
#
# 1 0.009759 -0.001869 -0.004226 0.005046 0.002669 0.004890
# 2 -0.001869 0.030164 -0.003280 0.026066 0.006066 0.003757
# 3 -0.004226 -0.003280 0.017564 -0.006507 0.007437 -0.002074
# 4 0.005046 0.026066 -0.006507 0.066760 0.004566 0.016754
# 5 0.002669 0.006066 0.007437 0.004566 0.033581 -0.000336
# 6 0.004890 0.003757 -0.002074 0.016754 -0.000336 0.031951
#
#
# Mechanical properties :
#
#
# Convention : Reuss Voigt Hill
#
# Bulk Modulus (GPa) = 25.81585 54.81406 40.31495
# Shear Modulus (GPa) = 22.57951 34.32839 28.45395
#
# Velocity S-wave (km/s) = 3.22853 3.98083 3.62425
# Velocity P-wave (km/s) = 5.08087 6.81420 6.01035
#
# Compressibility (1/GPa) = 0.03873590
#
# Stress axis : x y z
#
# Youngs Moduli (GPa) = 102.47467 33.15263 56.93589
#
# Poissons Ratio (x) = 0.06195 0.24064
# Poissons Ratio (y) = 0.19149 0.18674
# Poissons Ratio (z) = 0.43310 0.10873
#
# Static dielectric constant tensor:
#      x y z
#    x 1.788610 0.012880 -0.003810 
#    y 0.012880 1.807240 -0.016780 
#    z -0.003810 -0.016780 1.957910 
# 
# From -- ./inp_files/27234.got.cif
#   From: 2010.05.17/outbox.cif.g08.bks.cpg/sg2_14_cif.got.tgz:27234.got - 2010.06.03 11:33:40.
