data_PCOD9025776
_publ_section_title
;
Structure prediction by ZEFSAII (Michael W. Deem and Ramdas Pophale) SiO2 
 PCOD9025776
Probable space group: P -1
;
_chemical_formula_sum "Si O2"
_cell_formula_units_Z 16
_cell_length_a 14.423987
_cell_length_b 16.251972
_cell_length_c 9.081455
_cell_angle_alpha 62.358898
_cell_angle_beta 89.481608
_cell_angle_gamma 35.506190
_cell_volume 764.131287
_symmetry_space_group_name_H-M "P -1"
_symmetry_group_IT_number 2
_symmetry_cell_setting 'triclinic'
loop_
_space_group_symop_operation_xyz
x,y,z
-x,-y,-z
loop_
_atom_site_type_symbol
_atom_site_label
_atom_site_fract_x
_atom_site_fract_y
_atom_site_fract_z
Si Si1 0.690879 0.800791 0.777489
Si Si2 0.804246 0.248115 0.354856
Si Si3 0.934178 0.414771 0.135231
Si Si4 0.712788 0.941050 0.118101
Si Si5 0.863341 0.434217 0.789293
Si Si6 0.460658 0.406531 0.190614
Si Si7 0.611146 0.830384 0.302428
Si Si8 0.156206 0.054215 0.622716
O O1 0.900142 0.649094 0.805800
O O2 0.500000 0.000000 0.500000
O O3 0.623231 0.919662 0.824433
O O4 0.695845 0.688060 0.914471
O O5 0.588836 0.378622 0.280776
O O6 0.943597 0.176186 0.538184
O O7 0.711156 0.399912 0.097540
O O8 0.000000 0.000000 0.500000
O O9 0.022698 0.260866 0.375426
O O10 0.953282 0.360044 0.015939
O O11 0.744325 0.805084 0.289252
O O12 0.724793 0.009781 0.184271
O O13 0.924221 0.774436 0.147878
O O14 0.476308 0.145569 0.859862
O O15 0.672420 0.529318 0.736067
O O16 0.742253 0.639541 0.564855
O O17 0.652369 0.167412 0.303270
#
# Coordination Sequence:
#
# PCOD9025776 Si02
#       8
#     2   2   2   2   2   2   2   2
#     4  11  21  36  57  86 120 162 218 269 300 355
#     4   9  20  41  69 101 126 151 202 265 321 373
#     4  11  23  34  62  94 119 158 221 269 306 355
#     4  11  27  40  58  89 136 175 206 256 312 375
#     4  12  23  41  63  91 125 168 214 263 308 364
#     4  10  22  40  71  98 122 159 207 262 319 374
#     4  11  24  42  58  83 132 179 216 251 315 365
#     4  11  23  41  65  95 126 163 209 258 316 382
#
# _framework density 20.938811999999999
#
# number of rings (size 3 to 8) (size 9 to 14) (size 15 to 20)
#    0.000    1.250    3.750    1.875    3.500    3.000 
#    0.000    0.625    0.000    7.500    0.000    0.000 
#    0.000    0.000    0.000    0.000    0.000    0.000 
#
# Total GULP energy -89116.145192 kJ/mol
# GULP energy per Si atom -5569.759074 kJ/mol
# Density = 2.089115 g / cm^3
# Si number density = 20.938812 Si / 1000 Ang^3
#
#
#
# Elastic Constant Matrix: (Units=GPa)
#
#
# Indices 1 2 3 4 5 6 
#
# 1 133.4595 27.5123 16.7221 12.1619 20.9011 -5.1530
# 2 27.5123 47.6112 5.4635 7.5792 7.5073 8.5005
# 3 16.7221 5.4635 33.3466 0.6861 -5.2875 9.9720
# 4 12.1619 7.5792 0.6861 28.6021 10.2530 3.6108
# 5 20.9011 7.5073 -5.2875 10.2530 31.3948 -0.5426
# 6 -5.1530 8.5005 9.9720 3.6108 -0.5426 29.0938
#
#
#
# Elastic Compliance Matrix: (Units=1/GPa)
#
#
# Indices 1 2 3 4 5 6 
#
# 1 0.010929 -0.005259 -0.007472 -0.001441 -0.006701 0.006087
# 2 -0.005259 0.026250 0.000644 -0.003008 -0.001832 -0.008483
# 3 -0.007472 0.000644 0.039901 -0.000120 0.011321 -0.014962
# 4 -0.001441 -0.003008 -0.000120 0.041226 -0.011886 -0.004673
# 5 -0.006701 -0.001832 0.011321 -0.011886 0.042501 -0.002264
# 6 0.006087 -0.008483 -0.014962 -0.004673 -0.002264 0.043594
#
#
# Mechanical properties :
#
#
# Convention : Reuss Voigt Hill
#
# Bulk Modulus (GPa) = 18.90080 34.86811 26.88446
# Shear Modulus (GPa) = 20.30778 28.79943 24.55361
#
# Velocity S-wave (km/s) = 3.11764 3.71267 3.42809
# Velocity P-wave (km/s) = 4.69104 5.92175 5.34196
#
# Compressibility (1/GPa) = 0.05290781
#
# Stress axis : x y z
#
# Youngs Moduli (GPa) = 91.49957 38.09453 25.06183
#
# Poissons Ratio (x) = 0.20033 0.18727
# Poissons Ratio (y) = 0.48117 -0.01615
# Poissons Ratio (z) = 0.68370 -0.02455
#
# Static dielectric constant tensor:
#      x y z
#    x 1.831720 -0.050590 0.092890 
#    y -0.050590 1.598220 0.272020 
#    z 0.092890 0.272020 1.475950 
# 
# From -- ./inp_files/314973.got.cif
#   From: 2010.05.17/outbox.cif.g08.bks.cpg/sg2_158_cif.got.tgz:314973.got - 2010.06.03 11:33:40.
