data_PCOD9025335
_publ_section_title
;
Structure prediction by ZEFSAII (Michael W. Deem and Ramdas Pophale) SiO2 
 PCOD9025335
Probable space group: P -1
;
_chemical_formula_sum "Si O2"
_cell_formula_units_Z 14
_cell_length_a 9.496756
_cell_length_b 7.850429
_cell_length_c 15.605115
_cell_angle_alpha 109.350334
_cell_angle_beta 32.520021
_cell_angle_gamma 112.802255
_cell_volume 576.542311
_symmetry_space_group_name_H-M "P -1"
_symmetry_group_IT_number 2
_symmetry_cell_setting 'triclinic'
loop_
_space_group_symop_operation_xyz
x,y,z
-x,-y,-z
loop_
_atom_site_type_symbol
_atom_site_label
_atom_site_fract_x
_atom_site_fract_y
_atom_site_fract_z
Si Si1 0.793673 0.440876 0.176221
Si Si2 0.030648 0.940523 0.572579
Si Si3 0.504102 0.693135 0.117799
Si Si4 0.052495 0.465729 0.225985
Si Si5 0.647539 0.006846 0.225045
Si Si6 0.189414 0.933778 0.667213
Si Si7 0.706362 0.549535 0.659311
O O1 0.722154 0.219278 0.192362
O O2 0.505030 0.491876 0.316328
O O3 0.920840 0.514529 0.214175
O O4 0.000000 0.500000 0.000000
O O5 0.033191 0.008541 0.682011
O O6 0.787305 0.765234 0.670578
O O7 0.343617 0.930111 0.402010
O O8 0.000000 0.000000 0.500000
O O9 0.199772 0.652492 0.230284
O O10 0.463529 0.547937 0.191220
O O11 0.639652 0.882443 0.124600
O O12 0.707559 0.637862 0.937687
O O13 0.868794 0.293130 0.341094
O O14 0.832163 0.996928 0.212233
O O15 0.500000 0.000000 0.500000
O O16 0.000000 0.500000 0.500000
#
# Coordination Sequence:
#
# PCOD9025335 Si02
#       7
#     2   2   2   2   2   2   2
#     4  11  23  43  66  98 136 176 219 283 341 395
#     4  11  20  38  67  95 127 172 219 275 334 398
#     4  11  22  41  69  99 126 185 225 273 340 404
#     4  10  22  41  69  93 138 177 225 275 344 401
#     4  10  22  40  68  94 134 172 227 274 331 407
#     4   9  20  37  61  95 126 174 218 268 336 396
#     4  12  23  40  70  94 133 181 225 273 343 402
#
# _framework density 24.282692999999998
#
# number of rings (size 3 to 8) (size 9 to 14) (size 15 to 20)
#    0.000    1.429    5.714    0.000    0.000    2.286 
#    0.000    2.857    0.000    0.000    0.000    0.000 
#    0.000    0.000    0.000    0.000    0.000    0.000 
#
# Total GULP energy -77941.447987 kJ/mol
# GULP energy per Si atom -5567.246285 kJ/mol
# Density = 2.422742 g / cm^3
# Si number density = 24.282693 Si / 1000 Ang^3
#
#
#
# Elastic Constant Matrix: (Units=GPa)
#
#
# Indices 1 2 3 4 5 6 
#
# 1 253.2105 54.9738 20.0595 -1.0414 6.3262 26.7468
# 2 54.9738 69.4991 31.6670 -19.6153 14.5386 18.0407
# 3 20.0595 31.6670 82.8615 -24.2010 -7.4919 4.7813
# 4 -1.0414 -19.6153 -24.2010 27.6490 2.2789 7.2336
# 5 6.3262 14.5386 -7.4919 2.2789 30.3873 -5.1596
# 6 26.7468 18.0407 4.7813 7.2336 -5.1596 37.1843
#
#
#
# Elastic Compliance Matrix: (Units=1/GPa)
#
#
# Indices 1 2 3 4 5 6 
#
# 1 0.005082 -0.005476 -0.000135 -0.003975 0.001835 0.000047
# 2 -0.005476 0.045657 -0.006544 0.036405 -0.029904 -0.028602
# 3 -0.000135 -0.006544 0.018456 0.011021 0.006832 -0.000297
# 4 -0.003975 0.036405 0.011021 0.083076 -0.026219 -0.036019
# 5 0.001835 -0.029904 0.006832 -0.026219 0.054731 0.025005
# 6 0.000047 -0.028602 -0.000297 -0.036019 0.025005 0.051251
#
#
# Mechanical properties :
#
#
# Convention : Reuss Voigt Hill
#
# Bulk Modulus (GPa) = 22.27960 68.77464 45.52712
# Shear Modulus (GPa) = 16.80540 38.96886 27.88713
#
# Velocity S-wave (km/s) = 2.63358 4.01034 3.39254
# Velocity P-wave (km/s) = 4.29450 7.05888 5.84254
#
# Compressibility (1/GPa) = 0.04488411
#
# Stress axis : x y z
#
# Youngs Moduli (GPa) = 196.78315 21.90248 54.18394
#
# Poissons Ratio (x) = 0.11994 0.00734
# Poissons Ratio (y) = 1.07756 0.35457
# Poissons Ratio (z) = 0.02664 0.14333
#
# Static dielectric constant tensor:
#      x y z
#    x 2.074440 0.019740 0.070730 
#    y 0.019740 1.940460 0.027240 
#    z 0.070730 0.027240 1.993920 
# 
# From -- ./inp_files/493113.got.cif
#   From: 2010.05.17/outbox.cif.g08.bks.cpg/sg2_247_cif.got.tgz:493113.got - 2010.06.03 11:33:40.
