data_PCOD9025346
_publ_section_title
;
Structure prediction by ZEFSAII (Michael W. Deem and Ramdas Pophale) SiO2 
 PCOD9025346
Probable space group: P -1
;
_chemical_formula_sum "Si O2"
_cell_formula_units_Z 16
_cell_length_a 10.361216
_cell_length_b 12.089582
_cell_length_c 7.007352
_cell_angle_alpha 62.464986
_cell_angle_beta 108.368664
_cell_angle_gamma 90.844318
_cell_volume 729.680605
_symmetry_space_group_name_H-M "P -1"
_symmetry_group_IT_number 2
_symmetry_cell_setting 'triclinic'
loop_
_space_group_symop_operation_xyz
x,y,z
-x,-y,-z
loop_
_atom_site_type_symbol
_atom_site_label
_atom_site_fract_x
_atom_site_fract_y
_atom_site_fract_z
Si Si1 0.995723 0.013197 0.263782
Si Si2 0.957779 0.591912 0.227233
Si Si3 0.731933 0.441294 0.121886
Si Si4 0.817356 0.280797 0.960548
Si Si5 0.537368 0.526077 0.281345
Si Si6 0.510338 0.994906 0.736516
Si Si7 0.175962 0.120924 0.985687
Si Si8 0.537105 0.205560 0.863892
O O1 0.916982 0.911625 0.208036
O O2 0.907316 0.148034 0.072120
O O3 0.000000 0.000000 0.500000
O O4 0.136915 0.030736 0.211854
O O5 0.853392 0.523834 0.109305
O O6 0.871476 0.730600 0.119900
O O7 0.000000 0.500000 0.500000
O O8 0.098061 0.616557 0.169899
O O9 0.667424 0.446195 0.299517
O O10 0.791624 0.310926 0.149339
O O11 0.598551 0.491212 0.889842
O O12 0.670750 0.265352 0.818071
O O13 0.500000 0.500000 0.500000
O O14 0.556487 0.674241 0.178291
O O15 0.500000 0.000000 0.500000
O O16 0.485003 0.131338 0.719884
O O17 0.662322 0.924992 0.926388
O O18 0.418212 0.902108 0.869269
#
# Coordination Sequence:
#
# PCOD9025346 Si02
#       8
#     2   2   2   2   2   2   2   2
#     4  10  22  40  68  95 127 178 215 277 343 385
#     4  11  25  42  69 101 139 184 220 281 344 394
#     4  10  23  42  65  98 136 171 234 270 329 410
#     4  10  22  44  65  98 140 169 230 280 324 421
#     4  10  23  44  69  98 133 183 220 286 339 393
#     4  11  24  42  70  99 133 177 219 285 344 393
#     4  10  23  44  62  98 137 164 233 276 321 422
#     4  10  23  42  64  98 134 165 232 277 327 415
#
# _framework density 21.927401
#
# number of rings (size 3 to 8) (size 9 to 14) (size 15 to 20)
#    0.000    1.750    1.250    1.125    7.000    4.000 
#    0.000    0.000    0.000    0.000    0.000    0.000 
#    0.000    0.000    0.000    0.000    0.000    0.000 
#
# Total GULP energy -89250.013730 kJ/mol
# GULP energy per Si atom -5578.125858 kJ/mol
# Density = 2.187749 g / cm^3
# Si number density = 21.927401 Si / 1000 Ang^3
#
#
#
# Elastic Constant Matrix: (Units=GPa)
#
#
# Indices 1 2 3 4 5 6 
#
# 1 88.6047 17.2217 8.8528 2.4714 -14.0690 11.5639
# 2 17.2217 124.8101 22.4159 22.6360 -3.5851 12.3441
# 3 8.8528 22.4159 95.8627 18.2203 -24.8182 12.9352
# 4 2.4714 22.6360 18.2203 27.0411 -8.1099 -2.1150
# 5 -14.0690 -3.5851 -24.8182 -8.1099 26.7604 2.2703
# 6 11.5639 12.3441 12.9352 -2.1150 2.2703 33.2103
#
#
#
# Elastic Compliance Matrix: (Units=1/GPa)
#
#
# Indices 1 2 3 4 5 6 
#
# 1 0.013644 -0.001654 0.002203 0.001161 0.009821 -0.005592
# 2 -0.001654 0.010259 -0.000781 -0.008967 -0.002655 -0.003323
# 3 0.002203 -0.000781 0.016845 -0.006981 0.015284 -0.008527
# 4 0.001161 -0.008967 -0.006981 0.052150 0.008025 0.008420
# 5 0.009821 -0.002655 0.015284 0.008025 0.059798 -0.011963
# 6 -0.005592 -0.003323 -0.008527 0.008420 -0.011963 0.037969
#
#
# Mechanical properties :
#
#
# Convention : Reuss Voigt Hill
#
# Bulk Modulus (GPa) = 24.82259 45.13980 34.98120
# Shear Modulus (GPa) = 24.44309 34.78817 29.61563
#
# Velocity S-wave (km/s) = 3.34238 3.98743 3.67907
# Velocity P-wave (km/s) = 5.12252 6.46763 5.83397
#
# Compressibility (1/GPa) = 0.04028588
#
# Stress axis : x y z
#
# Youngs Moduli (GPa) = 73.29070 97.47319 59.36416
#
# Poissons Ratio (x) = 0.16120 -0.13079
# Poissons Ratio (y) = 0.12121 0.04636
# Poissons Ratio (z) = -0.16148 0.07611
#
# Static dielectric constant tensor:
#      x y z
#    x 1.920500 -0.021620 0.017240 
#    y -0.021620 1.819970 -0.022960 
#    z 0.017240 -0.022960 1.824800 
# 
# From -- ./inp_files/69364.got.cif
#   From: 2010.05.17/outbox.cif.g08.bks.cpg/sg2_35_cif.got.tgz:69364.got - 2010.06.03 11:33:40.
