data_PCOD9025405
_publ_section_title
;
Structure prediction by ZEFSAII (Michael W. Deem and Ramdas Pophale) SiO2 
 PCOD9025405
Probable space group: P -1
;
_chemical_formula_sum "Si O2"
_cell_formula_units_Z 14
_cell_length_a 9.335941
_cell_length_b 7.948782
_cell_length_c 12.014948
_cell_angle_alpha 42.382167
_cell_angle_beta 103.509895
_cell_angle_gamma 113.209189
_cell_volume 549.995308
_symmetry_space_group_name_H-M "P -1"
_symmetry_group_IT_number 2
_symmetry_cell_setting 'triclinic'
loop_
_space_group_symop_operation_xyz
x,y,z
-x,-y,-z
loop_
_atom_site_type_symbol
_atom_site_label
_atom_site_fract_x
_atom_site_fract_y
_atom_site_fract_z
Si Si1 0.922781 0.217651 0.839710
Si Si2 0.391556 0.700824 0.733818
Si Si3 0.969164 0.103984 0.682455
Si Si4 0.366586 0.674600 0.290613
Si Si5 0.315565 0.366598 0.658055
Si Si6 0.296065 0.151238 0.393117
Si Si7 0.883690 0.548423 0.046223
O O1 0.954212 0.309675 0.672669
O O2 0.736368 0.146517 0.850473
O O3 0.017474 0.450404 0.824829
O O4 0.000000 0.000000 0.000000
O O5 0.316393 0.497242 0.715988
O O6 0.575939 0.747481 0.732938
O O7 0.294292 0.608104 0.874412
O O8 0.369890 0.978677 0.566402
O O9 0.152599 0.156791 0.690673
O O10 0.870431 0.045644 0.582250
O O11 0.883905 0.833100 0.866561
O O12 0.354192 0.593521 0.458553
O O13 0.549258 0.764042 0.252664
O O14 0.292644 0.402876 0.339118
O O15 0.000000 0.500000 0.000000
#
# Coordination Sequence:
#
# PCOD9025405 Si02
#       7
#     2   2   2   2   2   2   2
#     4  10  22  42  65  92 131 177 223 272 330 402
#     4  10  22  43  65  95 140 177 218 278 339 402
#     4  11  23  41  66  98 129 176 224 270 342 399
#     4  10  22  41  66 102 136 171 226 277 334 394
#     4  10  22  40  68  98 138 174 220 280 334 399
#     4  10  23  40  68 102 130 174 227 277 337 392
#     4  11  24  41  64  93 135 177 222 277 332 401
#
# _framework density 25.454764000000001
#
# number of rings (size 3 to 8) (size 9 to 14) (size 15 to 20)
#    0.000    1.714    1.429    1.714    4.000    3.429 
#    0.000    2.857    0.000    0.000    0.000    0.000 
#    0.000    0.000    0.000    0.000    0.000    0.000 
#
# Total GULP energy -78130.883940 kJ/mol
# GULP energy per Si atom -5580.777424 kJ/mol
# Density = 2.539683 g / cm^3
# Si number density = 25.454764 Si / 1000 Ang^3
#
#
#
# Elastic Constant Matrix: (Units=GPa)
#
#
# Indices 1 2 3 4 5 6 
#
# 1 174.8714 50.9781 50.1236 5.1130 11.7465 17.0964
# 2 50.9781 104.6042 18.8255 22.1842 2.5424 16.0172
# 3 50.1236 18.8255 66.1654 2.9576 -12.5786 -5.1060
# 4 5.1130 22.1842 2.9576 22.2682 6.6951 -6.1260
# 5 11.7465 2.5424 -12.5786 6.6951 50.7642 6.9929
# 6 17.0964 16.0172 -5.1060 -6.1260 6.9929 46.8590
#
#
#
# Elastic Compliance Matrix: (Units=1/GPa)
#
#
# Indices 1 2 3 4 5 6 
#
# 1 0.009026 -0.003353 -0.006865 0.002750 -0.003712 -0.001982
# 2 -0.003353 0.016358 -0.001281 -0.018303 0.003067 -0.007358
# 3 -0.006865 -0.001281 0.022329 -0.000968 0.006729 0.004245
# 4 0.002750 -0.018303 -0.000968 0.070511 -0.011474 0.016078
# 5 -0.003712 0.003067 0.006729 -0.011474 0.024144 -0.004064
# 6 -0.001982 -0.007358 0.004245 0.016078 -0.004064 0.027750
#
#
# Mechanical properties :
#
#
# Convention : Reuss Voigt Hill
#
# Bulk Modulus (GPa) = 40.46133 65.05504 52.75818
# Shear Modulus (GPa) = 24.83167 39.02585 31.92876
#
# Velocity S-wave (km/s) = 3.12672 3.91979 3.54550
# Velocity P-wave (km/s) = 5.38192 6.78962 6.12634
#
# Compressibility (1/GPa) = 0.02471496
#
# Stress axis : x y z
#
# Youngs Moduli (GPa) = 110.78518 61.13132 44.78472
#
# Poissons Ratio (x) = 0.20498 0.30747
# Poissons Ratio (y) = 0.37147 0.05736
# Poissons Ratio (z) = 0.76059 0.07830
#
# Static dielectric constant tensor:
#      x y z
#    x 2.161160 -0.285770 -0.030040 
#    y -0.285770 2.815400 -0.032640 
#    z -0.030040 -0.032640 2.026780 
# 
# From -- ./inp_files/377744.got.cif
#   From: 2010.05.17/outbox.cif.g08.bks.cpg/sg2_189_cif.got.tgz:377744.got - 2010.06.03 11:33:40.
