data_PCOD9025036
_publ_section_title
;
Structure prediction by ZEFSAII (Michael W. Deem and Ramdas Pophale) SiO2 
 PCOD9025036
Probable space group: P -1
;
_chemical_formula_sum "Si O2"
_cell_formula_units_Z 16
_cell_length_a 5.173612
_cell_length_b 14.454814
_cell_length_c 12.066520
_cell_angle_alpha 121.370539
_cell_angle_beta 93.506147
_cell_angle_gamma 62.306481
_cell_volume 662.416615
_symmetry_space_group_name_H-M "P -1"
_symmetry_group_IT_number 2
_symmetry_cell_setting 'triclinic'
loop_
_space_group_symop_operation_xyz
x,y,z
-x,-y,-z
loop_
_atom_site_type_symbol
_atom_site_label
_atom_site_fract_x
_atom_site_fract_y
_atom_site_fract_z
Si Si1 0.631601 0.852173 0.414686
Si Si2 0.726606 0.865077 0.176385
Si Si3 0.841187 0.126453 0.142068
Si Si4 0.198454 0.146121 0.347196
Si Si5 0.648406 0.250822 0.003202
Si Si6 0.188859 0.500100 0.254310
Si Si7 0.499812 0.337174 0.616930
Si Si8 0.299628 0.325936 0.357604
O O1 0.734746 0.813391 0.267973
O O2 0.853947 0.820210 0.504762
O O3 0.417238 0.798938 0.415470
O O4 0.500000 0.000000 0.500000
O O5 0.536050 0.019638 0.270278
O O6 0.529746 0.824001 0.070469
O O7 0.071518 0.801407 0.105953
O O8 0.822635 0.223737 0.109592
O O9 0.498428 0.196136 0.213179
O O10 0.009030 0.102113 0.246188
O O11 0.000000 0.000000 0.000000
O O12 0.075699 0.285118 0.376042
O O13 0.377912 0.393521 0.100831
O O14 0.324743 0.590685 0.311044
O O15 0.226906 0.433687 0.335424
O O16 0.830760 0.577836 0.281990
O O17 0.452513 0.334742 0.480710
#
# Coordination Sequence:
#
# PCOD9025036 Si02
#       8
#     2   2   2   2   2   2   2   2
#     4   9  23  48  72 102 131 181 228 289 332 403
#     4  11  23  46  66 100 137 188 228 286 332 401
#     4  11  22  37  64 103 144 181 216 282 345 419
#     4  10  22  40  67 102 142 176 230 277 348 405
#     4  11  25  41  68  97 143 180 232 274 346 405
#     4  11  25  43  66 100 136 179 225 283 335 409
#     4  11  24  45  69  97 135 175 233 279 337 396
#     4  10  24  37  65  99 137 186 218 279 339 415
#
# _framework density 24.153981000000002
#
# number of rings (size 3 to 8) (size 9 to 14) (size 15 to 20)
#    0.000    1.500    1.250    2.250   10.500    2.000 
#    2.250    6.250    0.000    0.000    0.000    0.000 
#    0.000    0.000    0.000    0.000    0.000    0.000 
#
# Total GULP energy -89101.681924 kJ/mol
# GULP energy per Si atom -5568.855120 kJ/mol
# Density = 2.409901 g / cm^3
# Si number density = 24.153981 Si / 1000 Ang^3
#
#
#
# Elastic Constant Matrix: (Units=GPa)
#
#
# Indices 1 2 3 4 5 6 
#
# 1 115.3012 38.8526 40.0887 15.5753 -16.1544 17.3115
# 2 38.8526 96.2581 28.5857 11.7722 -2.1954 32.4560
# 3 40.0887 28.5857 101.1348 17.6132 -7.2682 -2.4964
# 4 15.5753 11.7722 17.6132 56.7131 -3.7745 -0.9527
# 5 -16.1544 -2.1954 -7.2682 -3.7745 36.3114 0.3655
# 6 17.3115 32.4560 -2.4964 -0.9527 0.3655 33.3985
#
#
#
# Elastic Compliance Matrix: (Units=1/GPa)
#
#
# Indices 1 2 3 4 5 6 
#
# 1 0.012199 -0.001826 -0.003850 -0.001563 0.004433 -0.004930
# 2 -0.001826 0.018725 -0.004656 -0.002281 -0.000672 -0.017656
# 3 -0.003850 -0.004656 0.013281 -0.001950 0.000386 0.007453
# 4 -0.001563 -0.002281 -0.001950 0.019248 0.000743 0.003422
# 5 0.004433 -0.000672 0.000386 0.000743 0.029645 -0.001920
# 6 -0.004930 -0.017656 0.007453 0.003422 -0.001920 0.050330
#
#
# Mechanical properties :
#
#
# Convention : Reuss Voigt Hill
#
# Bulk Modulus (GPa) = 42.47810 58.63868 50.55839
# Shear Modulus (GPa) = 29.07978 38.96240 34.02109
#
# Velocity S-wave (km/s) = 3.47354 4.02068 3.75708
# Velocity P-wave (km/s) = 5.80619 6.77379 6.30857
#
# Compressibility (1/GPa) = 0.02354154
#
# Stress axis : x y z
#
# Youngs Moduli (GPa) = 81.97069 53.40395 75.29387
#
# Poissons Ratio (x) = 0.09752 0.28991
# Poissons Ratio (y) = 0.14969 0.35054
# Poissons Ratio (z) = 0.31562 0.24863
#
# Static dielectric constant tensor:
#      x y z
#    x 2.012220 0.070410 -0.063200 
#    y 0.070410 1.748780 0.065480 
#    z -0.063200 0.065480 2.004500 
# 
# From -- ./inp_files/367942.got.cif
#   From: 2010.05.17/outbox.cif.g08.bks.cpg/sg2_184_cif.got.tgz:367942.got - 2010.06.03 11:33:40.
