data_PCOD9025873
_publ_section_title
;
Structure prediction by ZEFSAII (Michael W. Deem and Ramdas Pophale) SiO2 
 PCOD9025873
Probable space group: P -1
;
_chemical_formula_sum "Si O2"
_cell_formula_units_Z 12
_cell_length_a 8.784844
_cell_length_b 12.499990
_cell_length_c 14.803054
_cell_angle_alpha 29.739654
_cell_angle_beta 135.538889
_cell_angle_gamma 145.844157
_cell_volume 452.660380
_symmetry_space_group_name_H-M "P -1"
_symmetry_group_IT_number 2
_symmetry_cell_setting 'triclinic'
loop_
_space_group_symop_operation_xyz
x,y,z
-x,-y,-z
loop_
_atom_site_type_symbol
_atom_site_label
_atom_site_fract_x
_atom_site_fract_y
_atom_site_fract_z
Si Si1 0.761164 0.504608 0.441636
Si Si2 0.447681 0.005226 0.189021
Si Si3 0.094600 0.654812 0.127756
Si Si4 0.308622 0.490237 0.187343
Si Si5 0.500487 0.750472 0.795401
Si Si6 0.039394 0.019160 0.298618
O O1 0.520222 0.211577 0.595137
O O2 0.608770 0.564616 0.261098
O O3 0.000000 0.500000 0.500000
O O4 0.859443 0.712360 0.414637
O O5 0.249867 0.838874 0.144732
O O6 0.334650 0.058076 0.190622
O O7 0.677231 0.304241 0.030230
O O8 0.258167 0.575601 0.198296
O O9 0.812519 0.375137 0.241506
O O10 0.046653 0.833578 0.911998
O O11 0.091704 0.178653 0.296463
O O12 0.659762 0.879260 0.677385
O O13 0.500000 0.500000 0.000000
#
# Coordination Sequence:
#
# PCOD9025873 Si02
#       6
#     2   2   2   2   2   2
#     4  12  29  45  71 114 142 186 242 294 359 422
#     4  12  25  45  76 101 148 186 241 292 357 421
#     4  11  25  45  77 106 139 194 239 288 360 424
#     4  12  27  49  75 103 147 191 236 295 358 424
#     4  10  22  40  73 108 132 192 241 284 355 418
#     4  11  24  46  76 104 145 186 240 294 355 424
#
# _framework density 26.50994
#
# number of rings (size 3 to 8) (size 9 to 14) (size 15 to 20)
#    0.000    0.667    6.667    1.000    2.333    6.000 
#    0.000    1.667    0.000    0.000    0.000    0.000 
#    0.000    0.000    0.000    0.000    0.000    0.000 
#
# Total GULP energy -67074.101565 kJ/mol
# GULP energy per Si atom -5589.508464 kJ/mol
# Density = 2.644960 g / cm^3
# Si number density = 26.509940 Si / 1000 Ang^3
#
#
#
# Elastic Constant Matrix: (Units=GPa)
#
#
# Indices 1 2 3 4 5 6 
#
# 1 116.9881 59.7855 28.4814 -13.1074 30.3417 -4.9488
# 2 59.7855 134.8881 39.1722 -33.2256 16.8303 -57.8763
# 3 28.4814 39.1722 101.9156 -30.0508 9.9097 -4.8620
# 4 -13.1074 -33.2256 -30.0508 51.6082 0.1444 7.2824
# 5 30.3417 16.8303 9.9097 0.1444 33.5639 -11.3739
# 6 -4.9488 -57.8763 -4.8620 7.2824 -11.3739 42.5913
#
#
#
# Elastic Compliance Matrix: (Units=1/GPa)
#
#
# Indices 1 2 3 4 5 6 
#
# 1 0.025532 -0.026419 0.002400 -0.003655 -0.023509 -0.038313
# 2 -0.026419 0.051642 -0.007950 0.011873 0.024220 0.070635
# 3 0.002400 -0.007950 0.013765 0.005143 -0.006158 -0.011477
# 4 -0.003655 0.011873 0.005143 0.027466 -0.000391 0.011496
# 5 -0.023509 0.024220 -0.006158 -0.000391 0.055781 0.044440
# 6 -0.038313 0.070635 -0.011477 0.011496 0.044440 0.123604
#
#
# Mechanical properties :
#
#
# Convention : Reuss Voigt Hill
#
# Bulk Modulus (GPa) = 37.03765 67.62999 52.33382
# Shear Modulus (GPa) = 13.48697 40.64287 27.06492
#
# Velocity S-wave (km/s) = 2.25800 3.91975 3.19867
# Velocity P-wave (km/s) = 4.56066 6.78620 5.78153
#
# Compressibility (1/GPa) = 0.02699955
#
# Stress axis : x y z
#
# Youngs Moduli (GPa) = 39.16683 19.36416 72.64852
#
# Poissons Ratio (x) = 0.51158 -0.17434
# Poissons Ratio (y) = 1.03474 0.57758
# Poissons Ratio (z) = -0.09399 0.15395
#
# Static dielectric constant tensor:
#      x y z
#    x 2.124070 0.080160 -0.039360 
#    y 0.080160 2.097420 -0.025940 
#    z -0.039360 -0.025940 2.092980 
# 
# From -- ./inp_files/308702.got.cif
#   From: 2010.05.17/outbox.cif.g08.bks.cpg/sg2_155_cif.got.tgz:308702.got - 2010.06.03 11:33:40.
