data_PCOD9025236
_publ_section_title
;
Structure prediction by ZEFSAII (Michael W. Deem and Ramdas Pophale) SiO2 
 PCOD9025236
Probable space group: P -1
;
_chemical_formula_sum "Si O2"
_cell_formula_units_Z 15
_cell_length_a 8.436332
_cell_length_b 14.858132
_cell_length_c 8.914762
_cell_angle_alpha 55.140870
_cell_angle_beta 68.293390
_cell_angle_gamma 105.860190
_cell_volume 657.582663
_symmetry_space_group_name_H-M "P -1"
_symmetry_group_IT_number 2
_symmetry_cell_setting 'triclinic'
loop_
_space_group_symop_operation_xyz
x,y,z
-x,-y,-z
loop_
_atom_site_type_symbol
_atom_site_label
_atom_site_fract_x
_atom_site_fract_y
_atom_site_fract_z
Si Si1 0.640105 0.781485 0.478474
Si Si2 0.373610 0.832758 0.700131
Si Si3 0.467021 0.615200 0.414178
Si Si4 0.255129 0.948038 0.167480
Si Si5 0.000000 0.000000 0.000000
Si Si6 0.165481 0.282319 0.294455
Si Si7 0.089700 0.429912 0.954170
Si Si8 0.615554 0.801675 0.904121
O O1 0.449450 0.787841 0.576159
O O2 0.650726 0.750298 0.328769
O O3 0.665402 0.685304 0.664020
O O4 0.866957 0.940204 0.263856
O O5 0.457124 0.793132 0.846460
O O6 0.500000 0.000000 0.500000
O O7 0.109795 0.727348 0.886846
O O8 0.500000 0.500000 0.500000
O O9 0.246453 0.534094 0.666452
O O10 0.480209 0.671654 0.192569
O O11 0.072124 0.800940 0.460929
O O12 0.290293 0.063001 0.158317
O O13 0.147191 0.950606 0.050798
O O14 0.500000 0.000000 0.000000
O O15 0.201690 0.196459 0.246944
O O16 0.210691 0.406956 0.059970
O O17 0.000000 0.500000 0.000000
#
# Coordination Sequence:
#
# PCOD9025236 Si02
#       8
#     2   2   2   2   1   2   2   2
#     4  10  23  45  68  99 139 188 237 290 365 440
#     4  11  26  45  73 105 142 187 242 301 364 431
#     4  12  25  45  71 101 142 189 242 299 365 441
#     4  11  24  41  71 107 144 185 247 307 366 432
#     4  10  22  40  68 100 142 182 228 296 372 416
#     4  10  24  45  69 100 136 198 234 294 373 443
#     4  12  26  45  73 103 143 189 243 299 365 439
#     4  11  24  45  69 100 146 187 239 306 362 440
#
# _framework density 22.81082
#
# number of rings (size 3 to 8) (size 9 to 14) (size 15 to 20)
#    0.000    1.067    4.000    1.200    5.600    5.333 
#    2.400    0.000    0.000    0.000    0.000    0.000 
#    0.000    0.000    0.000    0.000    0.000    0.000 
#
# Total GULP energy -83514.578005 kJ/mol
# GULP energy per Si atom -5567.638534 kJ/mol
# Density = 2.275890 g / cm^3
# Si number density = 22.810820 Si / 1000 Ang^3
#
#
#
# Elastic Constant Matrix: (Units=GPa)
#
#
# Indices 1 2 3 4 5 6 
#
# 1 101.9984 16.7025 50.8526 13.6794 3.1780 -13.1008
# 2 16.7025 76.9960 24.8031 11.7994 6.3838 -13.4234
# 3 50.8526 24.8031 128.6975 16.2096 1.4283 -1.8436
# 4 13.6794 11.7994 16.2096 26.4890 -2.2131 -3.2901
# 5 3.1780 6.3838 1.4283 -2.2131 50.0979 3.6850
# 6 -13.1008 -13.4234 -1.8436 -3.2901 3.6850 21.8215
#
#
#
# Elastic Compliance Matrix: (Units=1/GPa)
#
#
# Indices 1 2 3 4 5 6 
#
# 1 0.013714 0.000681 -0.004981 -0.003478 -0.001555 0.007970
# 2 0.000681 0.016471 -0.002625 -0.005085 -0.003032 0.010064
# 3 -0.004981 -0.002625 0.010583 -0.003223 0.000522 -0.004285
# 4 -0.003478 -0.005085 -0.003223 0.044108 0.002859 0.000679
# 5 -0.001555 -0.003032 0.000522 0.002859 0.020989 -0.005868
# 6 0.007970 0.010064 -0.004285 0.000679 -0.005868 0.057533
#
#
# Mechanical properties :
#
#
# Convention : Reuss Voigt Hill
#
# Bulk Modulus (GPa) = 37.14966 54.71203 45.93084
# Shear Modulus (GPa) = 26.84979 34.03727 30.44353
#
# Velocity S-wave (km/s) = 3.43456 3.86703 3.65719
# Velocity P-wave (km/s) = 5.66124 6.63142 6.16544
#
# Compressibility (1/GPa) = 0.02691815
#
# Stress axis : x y z
#
# Youngs Moduli (GPa) = 72.91678 60.71301 94.49194
#
# Poissons Ratio (x) = -0.04133 0.47064
# Poissons Ratio (y) = -0.04964 0.24804
# Poissons Ratio (z) = 0.36318 0.15937
#
# Static dielectric constant tensor:
#      x y z
#    x 1.898880 -0.021190 0.064580 
#    y -0.021190 1.763120 0.125490 
#    z 0.064580 0.125490 1.743980 
# 
# From -- ./inp_files/205528.got.cif
#   From: 2010.05.17/outbox.cif.g08.bks.cpg/sg2_103_cif.got.tgz:205528.got - 2010.06.03 11:33:40.
