data_PCOD9025497
_publ_section_title
;
Structure prediction by ZEFSAII (Michael W. Deem and Ramdas Pophale) SiO2 
 PCOD9025497
Probable space group: P -1
;
_chemical_formula_sum "Si O2"
_cell_formula_units_Z 13
_cell_length_a 8.072993
_cell_length_b 13.292502
_cell_length_c 10.076889
_cell_angle_alpha 93.564255
_cell_angle_beta 98.373034
_cell_angle_gamma 145.584551
_cell_volume 571.619542
_symmetry_space_group_name_H-M "P -1"
_symmetry_group_IT_number 2
_symmetry_cell_setting 'triclinic'
loop_
_space_group_symop_operation_xyz
x,y,z
-x,-y,-z
loop_
_atom_site_type_symbol
_atom_site_label
_atom_site_fract_x
_atom_site_fract_y
_atom_site_fract_z
Si Si1 0.500000 0.500000 0.000000
Si Si2 0.349341 0.305995 0.699365
Si Si3 0.729481 0.356770 0.065103
Si Si4 0.172892 0.196125 0.058809
Si Si5 0.789140 0.118283 0.454006
Si Si6 0.049914 0.449465 0.377996
Si Si7 0.231603 0.034652 0.792414
O O1 0.505448 0.546287 0.161179
O O2 0.126432 0.266781 0.964576
O O3 0.605574 0.394552 0.630850
O O4 0.222161 0.144745 0.752816
O O5 0.069209 0.214732 0.580497
O O6 0.540242 0.367064 0.068858
O O7 0.850932 0.385977 0.223298
O O8 0.481003 0.155905 0.951123
O O9 0.000000 0.500000 0.000000
O O10 0.093490 0.169737 0.200617
O O11 0.000000 0.000000 0.000000
O O12 0.919571 0.278550 0.401599
O O13 0.500000 0.000000 0.500000
O O14 0.670117 0.977578 0.322389
O O15 0.000000 0.500000 0.500000
#
# Coordination Sequence:
#
# PCOD9025497 Si02
#       7
#     1   2   2   2   2   2   2
#     4  12  22  42  80 108 146 196 256 304 382 440
#     4  12  26  47  74 106 149 201 247 310 381 449
#     4  11  23  44  76 106 143 190 249 304 373 440
#     4  10  22  40  69 108 139 188 239 307 363 431
#     4  12  30  45  70 108 150 199 248 309 382 452
#     4  12  28  47  73 108 150 198 246 310 378 454
#     4  11  24  48  73 105 148 193 251 312 373 444
#
# _framework density 22.742398999999999
#
# number of rings (size 3 to 8) (size 9 to 14) (size 15 to 20)
#    0.000    0.615    4.615    2.769    6.462    1.846 
#    0.000    0.000    0.000    0.000    0.000    0.000 
#    0.000    0.000    0.000    0.000    0.000    0.000 
#
# Total GULP energy -72399.739818 kJ/mol
# GULP energy per Si atom -5569.210755 kJ/mol
# Density = 2.269064 g / cm^3
# Si number density = 22.742399 Si / 1000 Ang^3
#
#
#
# Elastic Constant Matrix: (Units=GPa)
#
#
# Indices 1 2 3 4 5 6 
#
# 1 90.6247 16.3987 81.9909 -0.0466 -25.9224 26.6046
# 2 16.3987 105.3685 42.1177 -38.8450 -11.5453 10.4397
# 3 81.9909 42.1177 190.7703 -11.5033 -13.0340 17.7719
# 4 -0.0466 -38.8450 -11.5033 41.7972 0.3540 -6.8021
# 5 -25.9224 -11.5453 -13.0340 0.3540 54.2061 0.0593
# 6 26.6046 10.4397 17.7719 -6.8021 0.0593 49.8174
#
#
#
# Elastic Compliance Matrix: (Units=1/GPa)
#
#
# Indices 1 2 3 4 5 6 
#
# 1 0.025964 0.000634 -0.009809 -0.003967 0.010231 -0.011053
# 2 0.000634 0.016039 -0.002688 0.014007 0.002982 -0.000832
# 3 -0.009809 -0.002688 0.009657 0.000571 -0.002948 0.002438
# 4 -0.003967 0.014007 0.000571 0.037760 0.000972 0.004134
# 5 0.010231 0.002982 -0.002948 0.000972 0.023266 -0.004932
# 6 -0.011053 -0.000832 0.002438 0.004134 -0.004932 0.025851
#
#
# Mechanical properties :
#
#
# Convention : Reuss Voigt Hill
#
# Bulk Modulus (GPa) = 35.79929 74.19757 54.99843
# Shear Modulus (GPa) = 29.14186 45.58122 37.36154
#
# Velocity S-wave (km/s) = 3.58353 4.48173 4.05756
# Velocity P-wave (km/s) = 5.73565 7.71215 6.79614
#
# Compressibility (1/GPa) = 0.02793351
#
# Stress axis : x y z
#
# Youngs Moduli (GPa) = 38.51491 62.34819 103.55038
#
# Poissons Ratio (x) = -0.03951 1.01577
# Poissons Ratio (y) = -0.02441 0.27830
# Poissons Ratio (z) = 0.37781 0.16756
#
# Static dielectric constant tensor:
#      x y z
#    x 1.441120 -1.213840 -1.340220 
#    y -1.213840 -2.253030 -3.556140 
#    z -1.340220 -3.556140 -1.492510 
# 
# From -- ./inp_files/181718.got.cif
#   From: 2010.05.17/outbox.cif.g08.bks.cpg/sg2_91_cif.got.tgz:181718.got - 2010.06.03 11:33:40.
