data_PCOD9025193
_publ_section_title
;
Structure prediction by ZEFSAII (Michael W. Deem and Ramdas Pophale) SiO2 
 PCOD9025193
Probable space group: P -1
;
_chemical_formula_sum "Si O2"
_cell_formula_units_Z 16
_cell_length_a 8.902540
_cell_length_b 12.742474
_cell_length_c 14.301094
_cell_angle_alpha 73.480530
_cell_angle_beta 133.595998
_cell_angle_gamma 68.373422
_cell_volume 655.554064
_symmetry_space_group_name_H-M "P -1"
_symmetry_group_IT_number 2
_symmetry_cell_setting 'triclinic'
loop_
_space_group_symop_operation_xyz
x,y,z
-x,-y,-z
loop_
_atom_site_type_symbol
_atom_site_label
_atom_site_fract_x
_atom_site_fract_y
_atom_site_fract_z
Si Si1 0.494774 0.687762 0.619524
Si Si2 0.553660 0.978310 0.915201
Si Si3 0.631293 0.325103 0.632949
Si Si4 0.585496 0.191478 0.804714
Si Si5 0.238579 0.696509 0.679337
Si Si6 0.474537 0.664697 0.060004
Si Si7 0.295774 0.317560 0.016180
Si Si8 0.746822 0.970857 0.552433
O O1 0.361373 0.746625 0.440991
O O2 0.257694 0.707716 0.574241
O O3 0.903738 0.472900 0.851654
O O4 0.446550 0.831632 0.597824
O O5 0.406010 0.149829 0.755579
O O6 0.500929 0.882325 0.869907
O O7 0.975877 0.816678 0.127219
O O8 0.500000 0.000000 0.000000
O O9 0.500000 0.500000 0.500000
O O10 0.432542 0.339651 0.623168
O O11 0.566451 0.257750 0.879500
O O12 0.000000 0.000000 0.000000
O O13 0.419651 0.505717 0.834612
O O14 0.871346 0.865489 0.534928
O O15 0.478533 0.694518 0.822355
O O16 0.753556 0.603171 0.126104
O O17 0.105181 0.831904 0.802285
O O18 0.500000 0.000000 0.500000
#
# Coordination Sequence:
#
# PCOD9025193 Si02
#       8
#     2   2   2   2   2   2   2   2
#     4  12  24  44  64  96 136 170 222 277 332 385
#     4  11  22  43  67  98 131 173 227 271 334 402
#     4  11  23  43  64  95 134 174 221 280 332 381
#     4  10  22  40  67  98 127 178 226 266 331 400
#     4  11  25  43  68 100 129 179 224 266 336 403
#     4  11  22  44  70  94 133 174 226 273 327 410
#     4  11  23  42  70  95 136 175 220 273 332 407
#     4  11  23  43  66  97 133 167 215 277 339 392
#
# _framework density 24.406835999999998
#
# number of rings (size 3 to 8) (size 9 to 14) (size 15 to 20)
#    0.000    1.000    2.500    6.000    3.500    0.000 
#    2.250    3.750    0.000    0.000    0.000    0.000 
#    0.000    0.000    0.000    0.000    0.000    0.000 
#
# Total GULP energy -89578.449414 kJ/mol
# GULP energy per Si atom -5598.653088 kJ/mol
# Density = 2.435129 g / cm^3
# Si number density = 24.406836 Si / 1000 Ang^3
#
#
#
# Elastic Constant Matrix: (Units=GPa)
#
#
# Indices 1 2 3 4 5 6 
#
# 1 199.7189 54.3739 33.7984 -22.0691 -30.4936 2.4899
# 2 54.3739 139.2291 16.4901 -23.2174 -14.1502 6.7032
# 3 33.7984 16.4901 49.7128 -12.9442 -11.0606 2.0819
# 4 -22.0691 -23.2174 -12.9442 38.4306 1.3068 -10.8626
# 5 -30.4936 -14.1502 -11.0606 1.3068 50.4309 -5.4054
# 6 2.4899 6.7032 2.0819 -10.8626 -5.4054 48.0869
#
#
#
# Elastic Compliance Matrix: (Units=1/GPa)
#
#
# Indices 1 2 3 4 5 6 
#
# 1 0.006586 -0.001653 -0.002797 0.001963 0.002938 0.000784
# 2 -0.001653 0.008689 -0.000412 0.004108 0.001238 -0.000041
# 3 -0.002797 -0.000412 0.024617 0.006606 0.003531 0.001026
# 4 0.001963 0.004108 0.006606 0.033729 0.003673 0.007072
# 5 0.002938 0.001238 0.003531 0.003673 0.022947 0.002932
# 6 0.000784 -0.000041 0.001026 0.007072 0.002932 0.022643
#
#
# Mechanical properties :
#
#
# Convention : Reuss Voigt Hill
#
# Bulk Modulus (GPa) = 33.14750 66.44287 49.79518
# Shear Modulus (GPa) = 35.97337 46.32289 41.14813
#
# Velocity S-wave (km/s) = 3.84331 4.36127 4.11046
# Velocity P-wave (km/s) = 5.77109 7.25555 6.55548
#
# Compressibility (1/GPa) = 0.03016819
#
# Stress axis : x y z
#
# Youngs Moduli (GPa) = 151.83333 115.08257 40.62278
#
# Poissons Ratio (x) = 0.19018 0.11364
# Poissons Ratio (y) = 0.25091 0.01674
# Poissons Ratio (z) = 0.42475 0.04742
#
# Static dielectric constant tensor:
#      x y z
#    x 1.858370 -0.037790 -0.004560 
#    y -0.037790 1.965690 0.032580 
#    z -0.004560 0.032580 2.025680 
# 
# From -- ./inp_files/217522.got.cif
#   From: 2010.05.17/outbox.cif.g08.bks.cpg/sg2_109_cif.got.tgz:217522.got - 2010.06.03 11:33:40.
