data_PCOD9025096
_publ_section_title
;
Structure prediction by ZEFSAII (Michael W. Deem and Ramdas Pophale) SiO2 
 PCOD9025096
Probable space group: P -1
;
_chemical_formula_sum "Si O2"
_cell_formula_units_Z 15
_cell_length_a 11.643480
_cell_length_b 11.650754
_cell_length_c 14.112474
_cell_angle_alpha 29.455649
_cell_angle_beta 106.614301
_cell_angle_gamma 86.887838
_cell_volume 690.477135
_symmetry_space_group_name_H-M "P -1"
_symmetry_group_IT_number 2
_symmetry_cell_setting 'triclinic'
loop_
_space_group_symop_operation_xyz
x,y,z
-x,-y,-z
loop_
_atom_site_type_symbol
_atom_site_label
_atom_site_fract_x
_atom_site_fract_y
_atom_site_fract_z
Si Si1 0.627562 0.444171 0.776728
Si Si2 0.095145 0.235790 0.001205
Si Si3 0.761221 0.768128 0.590261
Si Si4 0.295953 0.871760 0.493477
Si Si5 0.200555 0.634096 0.414470
Si Si6 0.652174 0.930976 0.248456
Si Si7 0.500000 0.500000 0.500000
Si Si8 0.293238 0.341861 0.847653
O O1 0.737538 0.521033 0.774513
O O2 0.463576 0.700645 0.606783
O O3 0.604207 0.449862 0.654683
O O4 0.682131 0.128702 0.056668
O O5 0.170192 0.098916 0.220797
O O6 0.074969 0.998589 0.124989
O O7 0.212037 0.239647 0.960511
O O8 0.937867 0.577516 0.733558
O O9 0.725087 0.953156 0.543181
O O10 0.648956 0.977878 0.325816
O O11 0.284009 0.609369 0.700025
O O12 0.362666 0.574789 0.485348
O O13 0.214145 0.478643 0.628736
O O14 0.210844 0.421703 0.491155
O O15 0.479314 0.051482 0.090592
#
# Coordination Sequence:
#
# PCOD9025096 Si02
#       8
#     2   2   2   2   2   2   1   2
#     4  11  24  41  68  99 125 160 211 269 317 366
#     4  11  24  42  64  92 127 174 209 257 312 381
#     4  12  26  41  62  93 136 166 209 260 318 371
#     4  10  23  45  66  92 120 173 219 259 305 373
#     4  11  22  38  67  95 123 160 215 258 309 378
#     4  11  23  38  63  97 123 164 207 269 316 368
#     4  12  18  42  72  94 124 162 210 268 312 370
#     4  10  22  40  67  93 121 162 219 258 314 375
#
# _framework density 21.72411
#
# number of rings (size 3 to 8) (size 9 to 14) (size 15 to 20)
#    0.000    1.067    5.333    2.800    1.867    6.400 
#    0.000    1.333    0.000    0.000    0.000    0.000 
#    0.000    0.000    0.000    0.000    0.000    0.000 
#
# Total GULP energy -83624.595640 kJ/mol
# GULP energy per Si atom -5574.973043 kJ/mol
# Density = 2.167466 g / cm^3
# Si number density = 21.724110 Si / 1000 Ang^3
#
#
#
# Elastic Constant Matrix: (Units=GPa)
#
#
# Indices 1 2 3 4 5 6 
#
# 1 47.9397 44.5525 41.2358 -8.0583 -46.7556 8.0074
# 2 44.5525 141.7435 15.9610 -5.2377 5.6912 -29.2035
# 3 41.2358 15.9610 58.0903 -1.2666 4.7324 -26.5107
# 4 -8.0583 -5.2377 -1.2666 20.7285 -8.0528 -0.6229
# 5 -46.7556 5.6912 4.7324 -8.0528 -12.4655 33.0706
# 6 8.0074 -29.2035 -26.5107 -0.6229 33.0706 -2.2239
#
#
#
# Elastic Compliance Matrix: (Units=1/GPa)
#
#
# Indices 1 2 3 4 5 6 
#
# 1 0.015900 0.000120 -0.000476 0.005918 -0.002464 0.023039
# 2 0.000120 0.007573 -0.001521 0.004136 0.005666 0.002227
# 3 -0.000476 -0.001521 0.018660 0.006160 0.014097 0.003733
# 4 0.005918 0.004136 0.006160 0.056521 0.009852 0.024250
# 5 -0.002464 0.005666 0.014097 0.009852 0.019336 0.033450
# 6 0.023039 0.002227 0.003733 0.024250 0.033450 0.050169
#
#
# Mechanical properties :
#
#
# Convention : Reuss Voigt Hill
#
# Bulk Modulus (GPa) = 26.05552 50.14132 38.09842
# Shear Modulus (GPa) = 27.07027 10.94278 19.00652
#
# Velocity S-wave (km/s) = 3.53383 2.24680 2.96109
# Velocity P-wave (km/s) = 5.35449 5.46460 5.40982
#
# Compressibility (1/GPa) = 0.03837958
#
# Stress axis : x y z
#
# Youngs Moduli (GPa) = 62.89289 132.05353 53.59199
#
# Poissons Ratio (x) = -0.01588 0.02549
# Poissons Ratio (y) = -0.00756 0.08151
# Poissons Ratio (z) = 0.02991 0.20085
#
# Static dielectric constant tensor:
#      x y z
#    x 1.743960 0.066820 -0.093760 
#    y 0.066820 1.726340 0.065550 
#    z -0.093760 0.065550 1.671670 
# 
# From -- ./inp_files/517495.got.cif
#   From: 2010.05.17/outbox.cif.g08.bks.cpg/sg2_259_cif.got.tgz:517495.got - 2010.06.03 11:33:40.
