data_PCOD9025068
_publ_section_title
;
Structure prediction by ZEFSAII (Michael W. Deem and Ramdas Pophale) SiO2 
 PCOD9025068
Probable space group: P -1
;
_chemical_formula_sum "Si O2"
_cell_formula_units_Z 16
_cell_length_a 24.878918
_cell_length_b 17.798672
_cell_length_c 9.490774
_cell_angle_alpha 137.266341
_cell_angle_beta 40.124389
_cell_angle_gamma 163.465174
_cell_volume 770.773992
_symmetry_space_group_name_H-M "P -1"
_symmetry_group_IT_number 2
_symmetry_cell_setting 'triclinic'
loop_
_space_group_symop_operation_xyz
x,y,z
-x,-y,-z
loop_
_atom_site_type_symbol
_atom_site_label
_atom_site_fract_x
_atom_site_fract_y
_atom_site_fract_z
Si Si1 0.481493 0.986090 0.185269
Si Si2 0.558544 0.545752 0.785739
Si Si3 0.080184 0.475403 0.834016
Si Si4 0.903513 0.116350 0.941020
Si Si5 0.213795 0.450340 0.013389
Si Si6 0.918303 0.161248 0.459166
Si Si7 0.651159 0.926186 0.438045
Si Si8 0.776305 0.763942 0.179051
O O1 0.691632 0.241380 0.191403
O O2 0.387198 0.993143 0.411272
O O3 0.362038 0.731838 0.113710
O O4 0.500000 0.000000 0.000000
O O5 0.531541 0.380562 0.595405
O O6 0.388308 0.402563 0.837482
O O7 0.500000 0.500000 0.000000
O O8 0.774128 0.862258 0.779698
O O9 0.042908 0.364262 0.612366
O O10 0.000000 0.500000 0.000000
O O11 0.967019 0.278625 0.917558
O O12 0.096512 0.308250 0.904921
O O13 0.775083 0.022434 0.192195
O O14 0.057280 0.287599 0.227384
O O15 0.296770 0.428391 0.849479
O O16 0.768289 0.060972 0.538072
O O17 0.807840 0.919137 0.406267
O O18 0.000000 0.000000 0.000000
#
# Coordination Sequence:
#
# PCOD9025068 Si02
#       8
#     2   2   2   2   2   2   2   2
#     4  12  25  43  62  92 125 166 212 255 310 368
#     4   9  18  37  66  94 121 162 208 253 304 365
#     4  12  27  42  60  92 133 159 205 268 312 361
#     4  10  22  42  65  93 123 169 205 253 315 365
#     4  10  22  40  67  90 125 170 208 249 310 376
#     4   9  21  41  64  93 123 163 204 258 311 363
#     4   9  21  42  69  88 122 167 209 246 306 384
#     4   9  18  37  63  94 125 157 208 257 300 364
#
# _framework density 20.758355000000002
#
# number of rings (size 3 to 8) (size 9 to 14) (size 15 to 20)
#    0.000    2.000    1.250    3.000    3.500    6.500 
#    2.250    2.500    0.000    0.000    0.000    0.000 
#    0.000    0.000    0.000    0.000    0.000    0.000 
#
# Total GULP energy -89267.710813 kJ/mol
# GULP energy per Si atom -5579.231926 kJ/mol
# Density = 2.071111 g / cm^3
# Si number density = 20.758355 Si / 1000 Ang^3
#
#
#
# Elastic Constant Matrix: (Units=GPa)
#
#
# Indices 1 2 3 4 5 6 
#
# 1 59.2571 45.6525 -79.4364 -8.5796 27.9195 -4.3354
# 2 45.6525 131.8827 -12.7043 32.5333 2.2099 -2.3439
# 3 -79.4364 -12.7043 -145.9087 -44.3525 54.9182 16.5628
# 4 -8.5796 32.5333 -44.3525 10.1037 17.3367 8.9654
# 5 27.9195 2.2099 54.9182 17.3367 20.4651 11.6572
# 6 -4.3354 -2.3439 16.5628 8.9654 11.6572 43.7747
#
#
#
# Elastic Compliance Matrix: (Units=1/GPa)
#
#
# Indices 1 2 3 4 5 6 
#
# 1 0.012862 -0.004310 -0.005932 -0.002496 -0.001429 0.004179
# 2 -0.004310 0.014837 0.007543 -0.020323 0.000350 0.001583
# 3 -0.005932 0.007543 0.005703 -0.020761 0.009986 -0.000749
# 4 -0.002496 -0.020323 -0.020761 0.076976 0.001614 -0.009675
# 5 -0.001429 0.000350 0.009986 0.001614 0.029494 -0.012086
# 6 0.004179 0.001583 -0.000749 -0.009675 -0.012086 0.028826
#
#
# Mechanical properties :
#
#
# Convention : Reuss Voigt Hill
#
# Bulk Modulus (GPa) = 35.70646 -5.30503 15.20072
# Shear Modulus (GPa) = 27.25839 20.98333 24.12086
#
# Velocity S-wave (km/s) = 3.62764 3.18282 3.41249
# Velocity P-wave (km/s) = 5.89786 3.30846 4.78177
#
# Compressibility (1/GPa) = 0.02800614
#
# Stress axis : x y z
#
# Youngs Moduli (GPa) = 77.74961 67.40054 175.33314
#
# Poissons Ratio (x) = 0.29047 1.04003
# Poissons Ratio (y) = 0.33507 -1.32261
# Poissons Ratio (z) = 0.46119 -0.50843
#
# Static dielectric constant tensor:
#      x y z
#    x 1.747950 -0.034800 -0.027580 
#    y -0.034800 1.532440 -0.007700 
#    z -0.027580 -0.007700 1.744130 
# 
# From -- ./inp_files/176684.got.cif
#   From: 2010.05.17/outbox.cif.g08.bks.cpg/sg2_89_cif.got.tgz:176684.got - 2010.06.03 11:33:40.
