data_PCOD9025392
_publ_section_title
;
Structure prediction by ZEFSAII (Michael W. Deem and Ramdas Pophale) SiO2 
 PCOD9025392
Probable space group: P -1
;
_chemical_formula_sum "Si O2"
_cell_formula_units_Z 16
_cell_length_a 7.310066
_cell_length_b 16.718110
_cell_length_c 9.017788
_cell_angle_alpha 38.953477
_cell_angle_beta 93.284470
_cell_angle_gamma 104.160264
_cell_volume 655.633812
_symmetry_space_group_name_H-M "P -1"
_symmetry_group_IT_number 2
_symmetry_cell_setting 'triclinic'
loop_
_space_group_symop_operation_xyz
x,y,z
-x,-y,-z
loop_
_atom_site_type_symbol
_atom_site_label
_atom_site_fract_x
_atom_site_fract_y
_atom_site_fract_z
Si Si1 0.522865 0.867062 0.613233
Si Si2 0.779939 0.789246 0.971612
Si Si3 0.331875 0.734137 0.315469
Si Si4 0.213790 0.486935 0.499551
Si Si5 0.694450 0.381709 0.228394
Si Si6 0.720996 0.601422 0.695617
Si Si7 0.827728 0.068347 0.143109
Si Si8 0.758101 0.875600 0.177921
O O1 0.623858 0.797078 0.836355
O O2 0.356005 0.745646 0.703079
O O3 0.500000 0.000000 0.500000
O O4 0.673986 0.939293 0.390163
O O5 0.997931 0.877029 0.813192
O O6 0.778784 0.641747 0.223705
O O7 0.761532 0.859170 0.025486
O O8 0.369522 0.616316 0.391609
O O9 0.211126 0.659674 0.560576
O O10 0.524627 0.839444 0.236784
O O11 0.240872 0.807991 0.085562
O O12 0.263498 0.471410 0.353420
O O13 0.000000 0.500000 0.500000
O O14 0.494051 0.399892 0.259158
O O15 0.790246 0.520487 0.944581
O O16 0.818227 0.758098 0.432978
O O17 0.861911 0.015411 0.059008
#
# Coordination Sequence:
#
# PCOD9025392 Si02
#       8
#     2   2   2   2   2   2   2   2
#     4  12  27  43  67 101 136 176 231 281 337 401
#     4  11  26  42  70  96 138 180 219 281 343 402
#     4  11  23  40  70  95 135 177 229 282 328 402
#     4  11  24  44  69 103 138 178 226 279 344 407
#     4  10  23  42  66 100 131 175 228 286 331 394
#     4   9  21  41  66  95 132 172 226 278 336 391
#     4  12  23  45  64  95 140 176 225 277 342 406
#     4  10  22  40  68  98 124 179 228 277 333 402
#
# _framework density 24.403867000000002
#
# number of rings (size 3 to 8) (size 9 to 14) (size 15 to 20)
#    0.000    1.250    3.750    1.875   10.500    2.500 
#    0.000    0.625    0.000    0.000    0.000    0.000 
#    0.000    0.000    0.000    0.000    0.000    0.000 
#
# Total GULP energy -89367.246667 kJ/mol
# GULP energy per Si atom -5585.452917 kJ/mol
# Density = 2.434832 g / cm^3
# Si number density = 24.403867 Si / 1000 Ang^3
#
#
#
# Elastic Constant Matrix: (Units=GPa)
#
#
# Indices 1 2 3 4 5 6 
#
# 1 45.0152 10.2451 -2.2435 8.0070 11.7383 -5.4734
# 2 10.2451 106.3204 -7.3236 -1.7671 5.4098 -7.2923
# 3 -2.2435 -7.3236 108.6305 18.4087 14.0722 4.0359
# 4 8.0070 -1.7671 18.4087 22.1689 6.8637 -0.0390
# 5 11.7383 5.4098 14.0722 6.8637 22.4109 -1.1662
# 6 -5.4734 -7.2923 4.0359 -0.0390 -1.1662 32.0924
#
#
#
# Elastic Compliance Matrix: (Units=1/GPa)
#
#
# Indices 1 2 3 4 5 6 
#
# 1 0.028445 -0.001698 0.003690 -0.009192 -0.013809 0.003489
# 2 -0.001698 0.009875 0.000582 0.001621 -0.002263 0.001801
# 3 0.003690 0.000582 0.011750 -0.008952 -0.006760 -0.000973
# 4 -0.009192 0.001621 -0.008952 0.058425 -0.007865 -0.000288
# 5 -0.013809 -0.002263 -0.006760 -0.007865 0.059060 0.000117
# 6 0.003489 0.001801 -0.000973 -0.000288 0.000117 0.032290
#
#
# Mechanical properties :
#
#
# Convention : Reuss Voigt Hill
#
# Bulk Modulus (GPa) = 18.10980 29.03580 23.57280
# Shear Modulus (GPa) = 23.46288 32.62029 28.04159
#
# Velocity S-wave (km/s) = 3.10408 3.66004 3.39346
# Velocity P-wave (km/s) = 4.50378 5.45757 5.00345
#
# Compressibility (1/GPa) = 0.05521873
#
# Stress axis : x y z
#
# Youngs Moduli (GPa) = 35.15552 101.26779 85.10749
#
# Poissons Ratio (x) = 0.17192 -0.31404
# Poissons Ratio (y) = 0.05968 -0.04956
# Poissons Ratio (z) = -0.12972 -0.05897
#
# Static dielectric constant tensor:
#      x y z
#    x 2.200320 -0.037560 -0.091430 
#    y -0.037560 2.028810 0.052350 
#    z -0.091430 0.052350 1.937000 
# 
# From -- ./inp_files/216491.got.cif
#   From: 2010.05.17/outbox.cif.g08.bks.cpg/sg2_109_cif.got.tgz:216491.got - 2010.06.03 11:33:40.
