data_PCOD9025538
_publ_section_title
;
Structure prediction by ZEFSAII (Michael W. Deem and Ramdas Pophale) SiO2 
 PCOD9025538
Probable space group: P -1
;
_chemical_formula_sum "Si O2"
_cell_formula_units_Z 14
_cell_length_a 19.266781
_cell_length_b 11.512642
_cell_length_c 5.347323
_cell_angle_alpha 127.546128
_cell_angle_beta 57.665182
_cell_angle_gamma 137.268778
_cell_volume 629.682570
_symmetry_space_group_name_H-M "P -1"
_symmetry_group_IT_number 2
_symmetry_cell_setting 'triclinic'
loop_
_space_group_symop_operation_xyz
x,y,z
-x,-y,-z
loop_
_atom_site_type_symbol
_atom_site_label
_atom_site_fract_x
_atom_site_fract_y
_atom_site_fract_z
Si Si1 0.366128 0.319757 0.240299
Si Si2 0.431184 0.898108 0.251915
Si Si3 0.046323 0.160532 0.827060
Si Si4 0.251807 0.942213 0.706758
Si Si5 0.041146 0.680003 0.007512
Si Si6 0.859429 0.990462 0.359035
Si Si7 0.398881 0.528739 0.962100
O O1 0.368607 0.399573 0.609346
O O2 0.480129 0.370558 0.074404
O O3 0.347456 0.415370 0.172899
O O4 0.289312 0.099611 0.051616
O O5 0.337376 0.912777 0.455701
O O6 0.500000 0.000000 0.500000
O O7 0.390107 0.687486 0.097358
O O8 0.500000 0.000000 0.000000
O O9 0.054972 0.335195 0.945623
O O10 0.146523 0.183245 0.760129
O O11 0.000000 0.000000 0.500000
O O12 0.952127 0.073776 0.088469
O O13 0.233535 0.027825 0.618030
O O14 0.138336 0.751139 0.733665
O O15 0.091902 0.849691 0.322440
O O16 0.000000 0.500000 0.000000
#
# Coordination Sequence:
#
# PCOD9025538 Si02
#       7
#     2   2   2   2   2   2   2
#     4  10  22  40  69  95 133 180 238 293 334 414
#     4  12  26  44  71 102 147 193 231 290 358 423
#     4   8  16  36  62  92 119 170 215 272 342 406
#     4  11  25  40  69 102 133 186 238 288 354 421
#     4  10  22  41  67  98 138 176 226 285 357 424
#     4   9  19  37  66  89 128 167 229 275 344 409
#     4  10  22  42  65  99 134 183 233 285 350 402
#
# _framework density 22.233426000000001
#
# number of rings (size 3 to 8) (size 9 to 14) (size 15 to 20)
#    0.000    2.000    1.429    0.857    8.000    2.286 
#    0.000   10.000    0.000    0.000    0.000    0.000 
#    0.000    0.000    0.000    0.000    0.000    0.000 
#
# Total GULP energy -78063.048793 kJ/mol
# GULP energy per Si atom -5575.932057 kJ/mol
# Density = 2.218282 g / cm^3
# Si number density = 22.233426 Si / 1000 Ang^3
#
#
#
# Elastic Constant Matrix: (Units=GPa)
#
#
# Indices 1 2 3 4 5 6 
#
# 1 213.3432 61.1989 45.9125 1.0223 -42.7160 -28.0270
# 2 61.1989 112.8360 25.7576 -0.6548 -25.4692 -31.9507
# 3 45.9125 25.7576 76.6667 -9.0245 -12.9135 -13.9300
# 4 1.0223 -0.6548 -9.0245 22.1603 -10.9506 -1.1711
# 5 -42.7160 -25.4692 -12.9135 -10.9506 43.0380 3.1838
# 6 -28.0270 -31.9507 -13.9300 -1.1711 3.1838 37.5263
#
#
#
# Elastic Compliance Matrix: (Units=1/GPa)
#
#
# Indices 1 2 3 4 5 6 
#
# 1 0.007042 -0.001113 -0.002045 0.001928 0.005978 0.003106
# 2 -0.001113 0.014353 -0.000356 0.004695 0.007682 0.010752
# 3 -0.002045 -0.000356 0.017212 0.009849 0.005102 0.004433
# 4 0.001928 0.004695 0.009849 0.060751 0.022432 0.009086
# 5 0.005978 0.007682 0.005102 0.022432 0.040200 0.010189
# 6 0.003106 0.010752 0.004433 0.009086 0.010189 0.039187
#
#
# Mechanical properties :
#
#
# Convention : Reuss Voigt Hill
#
# Bulk Modulus (GPa) = 31.66563 74.28711 52.97637
# Shear Modulus (GPa) = 25.47133 38.54337 32.00735
#
# Velocity S-wave (km/s) = 3.38839 4.16814 3.79833
# Velocity P-wave (km/s) = 5.43889 7.52658 6.56624
#
# Compressibility (1/GPa) = 0.03157998
#
# Stress axis : x y z
#
# Youngs Moduli (GPa) = 141.99693 69.67282 58.09912
#
# Poissons Ratio (x) = 0.07751 0.11883
# Poissons Ratio (y) = 0.15798 0.02066
# Poissons Ratio (z) = 0.29044 0.02478
#
# Static dielectric constant tensor:
#      x y z
#    x 1.838960 0.008770 0.004140 
#    y 0.008770 1.969800 -0.059090 
#    z 0.004140 -0.059090 1.812620 
# 
# From -- ./inp_files/109907.got.cif
#   From: 2010.05.17/outbox.cif.g08.bks.cpg/sg2_55_cif.got.tgz:109907.got - 2010.06.03 11:33:40.
