data_PCOD9025608
_publ_section_title
;
Structure prediction by ZEFSAII (Michael W. Deem and Ramdas Pophale) SiO2 
 PCOD9025608
Probable space group: P -1
;
_chemical_formula_sum "Si O2"
_cell_formula_units_Z 14
_cell_length_a 8.595329
_cell_length_b 10.791766
_cell_length_c 9.472255
_cell_angle_alpha 74.170675
_cell_angle_beta 71.445396
_cell_angle_gamma 120.816557
_cell_volume 604.258179
_symmetry_space_group_name_H-M "P -1"
_symmetry_group_IT_number 2
_symmetry_cell_setting 'triclinic'
loop_
_space_group_symop_operation_xyz
x,y,z
-x,-y,-z
loop_
_atom_site_type_symbol
_atom_site_label
_atom_site_fract_x
_atom_site_fract_y
_atom_site_fract_z
Si Si1 0.453688 0.231002 0.370309
Si Si2 0.104402 0.333047 0.019509
Si Si3 0.962222 0.092306 0.367860
Si Si4 0.244640 0.651419 0.318154
Si Si5 0.716283 0.296804 0.038381
Si Si6 0.327833 0.833523 0.502737
Si Si7 0.517060 0.535929 0.319029
O O1 0.672744 0.303831 0.370072
O O2 0.413305 0.359884 0.323569
O O3 0.262859 0.083114 0.573535
O O4 0.484093 0.178457 0.225568
O O5 0.204363 0.516933 0.999026
O O6 0.115104 0.219461 0.160750
O O7 0.236437 0.350018 0.841538
O O8 0.863465 0.258772 0.073820
O O9 0.887315 0.190455 0.424265
O O10 0.000000 0.000000 0.500000
O O11 0.257080 0.700424 0.137036
O O12 0.360000 0.812996 0.338750
O O13 0.386718 0.595400 0.302503
O O14 0.000000 0.500000 0.500000
O O15 0.500000 0.000000 0.500000
O O16 0.500000 0.500000 0.500000
#
# Coordination Sequence:
#
# PCOD9025608 Si02
#       7
#     2   2   2   2   2   2   2
#     4  10  22  42  70  93 138 189 215 279 355 423
#     4  10  22  42  67  99 142 184 221 287 356 415
#     4  11  24  40  70  96 132 184 236 271 343 428
#     4  12  25  39  71 106 134 172 242 299 331 410
#     4  10  22  40  70 101 135 177 238 283 346 407
#     4  10  22  46  67  92 138 190 218 274 362 415
#     4  11  23  41  68 100 137 175 231 291 351 399
#
# _framework density 23.168904999999999
#
# number of rings (size 3 to 8) (size 9 to 14) (size 15 to 20)
#    0.000    1.429    2.857    1.714    8.000    1.143 
#    0.000    3.571    0.000    0.000    0.000    0.000 
#    0.000    0.000    0.000    0.000    0.000    0.000 
#
# Total GULP energy -77971.370092 kJ/mol
# GULP energy per Si atom -5569.383578 kJ/mol
# Density = 2.311617 g / cm^3
# Si number density = 23.168905 Si / 1000 Ang^3
#
#
#
# Elastic Constant Matrix: (Units=GPa)
#
#
# Indices 1 2 3 4 5 6 
#
# 1 108.3442 17.9557 30.2270 8.9738 12.4725 -24.6131
# 2 17.9557 64.5584 30.8494 18.5425 -1.1457 -7.1107
# 3 30.2270 30.8494 159.1227 22.6044 9.9556 -1.0085
# 4 8.9738 18.5425 22.6044 41.8583 -3.5026 2.7270
# 5 12.4725 -1.1457 9.9556 -3.5026 47.2034 4.4605
# 6 -24.6131 -7.1107 -1.0085 2.7270 4.4605 30.0020
#
#
#
# Elastic Compliance Matrix: (Units=1/GPa)
#
#
# Indices 1 2 3 4 5 6 
#
# 1 0.013155 -0.000961 -0.001586 -0.002653 -0.004440 0.011412
# 2 -0.000961 0.019579 -0.002562 -0.007344 0.000310 0.004388
# 3 -0.001586 -0.002562 0.007529 -0.002621 -0.001310 -0.001222
# 4 -0.002653 -0.007344 -0.002621 0.029938 0.003989 -0.007320
# 5 -0.004440 0.000310 -0.001310 0.003989 0.023646 -0.007491
# 6 0.011412 0.004388 -0.001222 -0.007320 -0.007491 0.045472
#
#
# Mechanical properties :
#
#
# Convention : Reuss Voigt Hill
#
# Bulk Modulus (GPa) = 33.28128 54.45438 43.86783
# Shear Modulus (GPa) = 31.33803 40.67895 36.00849
#
# Velocity S-wave (km/s) = 3.68175 4.19472 3.94658
# Velocity P-wave (km/s) = 5.69820 6.85676 6.30415
#
# Compressibility (1/GPa) = 0.03004692
#
# Stress axis : x y z
#
# Youngs Moduli (GPa) = 76.01697 51.07445 132.82227
#
# Poissons Ratio (x) = 0.04907 0.21060
# Poissons Ratio (y) = 0.07304 0.34025
# Poissons Ratio (z) = 0.12053 0.13084
#
# Static dielectric constant tensor:
#      x y z
#    x 2.005070 0.066200 -0.022560 
#    y 0.066200 2.046380 -0.113960 
#    z -0.022560 -0.113960 1.936440 
# 
# From -- ./inp_files/177581.got.cif
#   From: 2010.05.17/outbox.cif.g08.bks.cpg/sg2_89_cif.got.tgz:177581.got - 2010.06.03 11:33:40.
