data_PCOD9025006
_publ_section_title
;
Structure prediction by ZEFSAII (Michael W. Deem and Ramdas Pophale) SiO2 
 PCOD9025006
Probable space group: P -1
;
_chemical_formula_sum "Si O2"
_cell_formula_units_Z 15
_cell_length_a 8.080241
_cell_length_b 8.467358
_cell_length_c 15.074172
_cell_angle_alpha 102.791519
_cell_angle_beta 68.859294
_cell_angle_gamma 52.532334
_cell_volume 613.379586
_symmetry_space_group_name_H-M "P -1"
_symmetry_group_IT_number 2
_symmetry_cell_setting 'triclinic'
loop_
_space_group_symop_operation_xyz
x,y,z
-x,-y,-z
loop_
_atom_site_type_symbol
_atom_site_label
_atom_site_fract_x
_atom_site_fract_y
_atom_site_fract_z
Si Si1 0.886797 0.738469 0.828746
Si Si2 0.394426 0.852594 0.921358
Si Si3 0.849221 0.723897 0.452447
Si Si4 0.500000 0.500000 0.000000
Si Si5 0.047104 0.170147 0.866705
Si Si6 0.721137 0.468009 0.537013
Si Si7 0.913669 0.126191 0.312169
Si Si8 0.348189 0.192602 0.689935
O O1 0.690811 0.728271 0.835462
O O2 0.910202 0.853002 0.761273
O O3 0.191710 0.468111 0.754909
O O4 0.767076 0.902584 0.959175
O O5 0.209294 0.959363 0.883267
O O6 0.422322 0.677803 0.955852
O O7 0.779689 0.585442 0.476409
O O8 0.768353 0.810989 0.378238
O O9 0.149476 0.566955 0.400445
O O10 0.663743 0.962224 0.582344
O O11 0.245244 0.554622 0.021520
O O12 0.255748 0.156164 0.787474
O O13 0.957109 0.118828 0.792623
O O14 0.861821 0.212110 0.434799
O O15 0.401439 0.662800 0.630950
#
# Coordination Sequence:
#
# PCOD9025006 Si02
#       8
#     2   2   2   1   2   2   2   2
#     4  11  24  46  67 101 141 177 230 293 331 411
#     4  11  27  47  73 101 137 182 235 281 348 410
#     4  10  22  41  68 101 133 183 232 278 342 421
#     4  12  24  48  70 104 136 172 236 284 336 418
#     4  12  26  46  71 101 139 190 222 284 351 410
#     4  10  22  40  67 100 135 181 231 286 339 410
#     4  11  23  40  67 101 139 176 226 288 342 398
#     4  11  23  42  69  99 139 181 233 275 342 415
#
# _framework density 24.454678000000001
#
# number of rings (size 3 to 8) (size 9 to 14) (size 15 to 20)
#    0.000    1.067    5.333    0.400    3.733    0.533 
#    2.400    1.333    0.000    0.000    0.000    0.000 
#    0.000    0.000    0.000    0.000    0.000    0.000 
#
# Total GULP energy -83552.193194 kJ/mol
# GULP energy per Si atom -5570.146213 kJ/mol
# Density = 2.439902 g / cm^3
# Si number density = 24.454678 Si / 1000 Ang^3
#
#
#
# Elastic Constant Matrix: (Units=GPa)
#
#
# Indices 1 2 3 4 5 6 
#
# 1 82.2955 14.3607 19.2933 -9.2662 -11.4486 -22.1303
# 2 14.3607 75.0935 -14.3547 -13.3702 8.5258 -15.5176
# 3 19.2933 -14.3547 30.3611 4.4296 13.1199 -0.4976
# 4 -9.2662 -13.3702 4.4296 32.7299 8.6586 3.4025
# 5 -11.4486 8.5258 13.1199 8.6586 30.9336 1.8431
# 6 -22.1303 -15.5176 -0.4976 3.4025 1.8431 30.6334
#
#
#
# Elastic Compliance Matrix: (Units=1/GPa)
#
#
# Indices 1 2 3 4 5 6 
#
# 1 0.033548 -0.016398 -0.043808 -0.001989 0.035280 0.013316
# 2 -0.016398 0.030672 0.038119 0.011227 -0.034138 0.005117
# 3 -0.043808 0.038119 0.109983 0.008977 -0.075462 -0.007008
# 4 -0.001989 0.011227 0.008977 0.038090 -0.018376 0.001271
# 5 0.035280 -0.034138 -0.075462 -0.018376 0.091735 0.003490
# 6 0.013316 0.005117 -0.007008 0.001271 0.003490 0.044391
#
#
# Mechanical properties :
#
#
# Convention : Reuss Voigt Hill
#
# Bulk Modulus (GPa) = 7.69057 25.14985 16.42021
# Shear Modulus (GPa) = 11.46962 30.08944 20.77953
#
# Velocity S-wave (km/s) = 2.16803 3.51153 2.91815
# Velocity P-wave (km/s) = 3.06900 5.17182 4.25244
#
# Compressibility (1/GPa) = 0.13002929
#
# Stress axis : x y z
#
# Youngs Moduli (GPa) = 29.80816 32.60343 9.09233
#
# Poissons Ratio (x) = 0.53463 0.39832
# Poissons Ratio (y) = 0.48879 -0.34659
# Poissons Ratio (z) = 1.30584 -1.24282
#
# Static dielectric constant tensor:
#      x y z
#    x 1.941100 -0.015680 -0.038640 
#    y -0.015680 1.945720 0.121310 
#    z -0.038640 0.121310 2.189070 
# 
# From -- ./inp_files/196771.got.cif
#   From: 2010.05.17/outbox.cif.g08.bks.cpg/sg2_99_cif.got.tgz:196771.got - 2010.06.03 11:33:40.
