data_PCOD9025728
_publ_section_title
;
Structure prediction by ZEFSAII (Michael W. Deem and Ramdas Pophale) SiO2 
 PCOD9025728
Probable space group: P -1
;
_chemical_formula_sum "Si O2"
_cell_formula_units_Z 16
_cell_length_a 10.002773
_cell_length_b 24.635236
_cell_length_c 5.078707
_cell_angle_alpha 96.130110
_cell_angle_beta 82.102193
_cell_angle_gamma 143.926043
_cell_volume 729.909126
_symmetry_space_group_name_H-M "P -1"
_symmetry_group_IT_number 2
_symmetry_cell_setting 'triclinic'
loop_
_space_group_symop_operation_xyz
x,y,z
-x,-y,-z
loop_
_atom_site_type_symbol
_atom_site_label
_atom_site_fract_x
_atom_site_fract_y
_atom_site_fract_z
Si Si1 0.386158 0.228274 0.835420
Si Si2 0.671045 0.010090 0.075007
Si Si3 0.648164 0.564253 0.743954
Si Si4 0.599112 0.186109 0.797455
Si Si5 0.315657 0.300017 0.297797
Si Si6 0.753910 0.393869 0.473154
Si Si7 0.993396 0.128522 0.557473
Si Si8 0.847418 0.304182 0.269515
O O1 0.427717 0.180918 0.898787
O O2 0.628979 0.333092 0.741251
O O3 0.228437 0.172308 0.586079
O O4 0.283199 0.239260 0.069292
O O5 0.524718 0.910065 0.148245
O O6 0.825683 0.071139 0.323234
O O7 0.500000 0.000000 0.000000
O O8 0.843278 0.061435 0.810818
O O9 0.500000 0.500000 0.500000
O O10 0.698923 0.645219 0.786982
O O11 0.889136 0.612681 0.686936
O O12 0.500000 0.500000 0.000000
O O13 0.693127 0.225418 0.497029
O O14 0.805471 0.261140 0.982947
O O15 0.568440 0.373464 0.384183
O O16 0.117668 0.227740 0.533760
O O17 0.778272 0.344968 0.286172
O O18 0.000000 0.500000 0.500000
#
# Coordination Sequence:
#
# PCOD9025728 Si02
#       8
#     2   2   2   2   2   2   2   2
#     4  10  23  45  70 102 138 184 230 284 366 400
#     4  12  27  44  71 102 138 180 242 278 345 431
#     4  12  29  45  68 102 139 185 236 280 345 417
#     4  11  25  45  70 103 138 180 232 291 346 417
#     4  11  24  45  72  97 147 179 231 283 353 413
#     4  10  22  40  71 100 138 179 237 286 335 416
#     4  11  25  45  70 103 133 184 225 291 351 405
#     4  11  24  45  68 100 141 184 225 291 356 400
#
# _framework density 21.920535999999998
#
# number of rings (size 3 to 8) (size 9 to 14) (size 15 to 20)
#    0.000    1.000    2.500    2.625    8.750    2.500 
#    0.000    0.000    0.000    0.000    0.000    0.000 
#    0.000    0.000    0.000    0.000    0.000    0.000 
#
# Total GULP energy -89292.396337 kJ/mol
# GULP energy per Si atom -5580.774771 kJ/mol
# Density = 2.187064 g / cm^3
# Si number density = 21.920536 Si / 1000 Ang^3
#
#
#
# Elastic Constant Matrix: (Units=GPa)
#
#
# Indices 1 2 3 4 5 6 
#
# 1 43.2876 16.2359 12.5331 -1.4748 10.5753 -5.2931
# 2 16.2359 101.7087 16.0695 -9.3411 15.3158 11.3404
# 3 12.5331 16.0695 95.1232 0.8749 25.9443 6.0609
# 4 -1.4748 -9.3411 0.8749 40.2753 8.8938 12.3983
# 5 10.5753 15.3158 25.9443 8.8938 30.6973 0.3678
# 6 -5.2931 11.3404 6.0609 12.3983 0.3678 36.8064
#
#
#
# Elastic Compliance Matrix: (Units=1/GPa)
#
#
# Indices 1 2 3 4 5 6 
#
# 1 0.027142 -0.003782 -0.001616 -0.000178 -0.006111 0.005456
# 2 -0.003782 0.012808 0.000765 0.006562 -0.007554 -0.006751
# 3 -0.001616 0.000765 0.014382 0.003933 -0.013071 -0.004031
# 4 -0.000178 0.006562 0.003933 0.034175 -0.016270 -0.014044
# 5 -0.006111 -0.007554 -0.013071 -0.016270 0.054109 0.008541
# 6 0.005456 -0.006751 -0.004031 -0.014044 0.008541 0.035343
#
#
# Mechanical properties :
#
#
# Convention : Reuss Voigt Hill
#
# Bulk Modulus (GPa) = 22.19032 36.64406 29.41719
# Shear Modulus (GPa) = 24.72222 34.57452 29.64837
#
# Velocity S-wave (km/s) = 3.36193 3.97579 3.68168
# Velocity P-wave (km/s) = 5.02147 6.15052 5.61445
#
# Compressibility (1/GPa) = 0.04506469
#
# Stress axis : x y z
#
# Youngs Moduli (GPa) = 36.84362 78.07822 69.53026
#
# Poissons Ratio (x) = 0.29527 0.11239
# Poissons Ratio (y) = 0.13933 -0.05317
# Poissons Ratio (z) = 0.05956 -0.05970
#
# Static dielectric constant tensor:
#      x y z
#    x 1.811780 0.006010 -0.013020 
#    y 0.006010 1.742750 0.039190 
#    z -0.013020 0.039190 1.858930 
# 
# From -- ./inp_files/53111.got.cif
#   From: 2010.05.17/outbox.cif.g08.bks.cpg/sg2_27_cif.got.tgz:53111.got - 2010.06.03 11:33:40.
