data_PCOD9025441
_publ_section_title
;
Structure prediction by ZEFSAII (Michael W. Deem and Ramdas Pophale) SiO2 
 PCOD9025441
Probable space group: P -1
;
_chemical_formula_sum "Si O2"
_cell_formula_units_Z 16
_cell_length_a 9.666497
_cell_length_b 12.245480
_cell_length_c 11.453462
_cell_angle_alpha 50.802459
_cell_angle_beta 95.048800
_cell_angle_gamma 61.837470
_cell_volume 764.021078
_symmetry_space_group_name_H-M "P -1"
_symmetry_group_IT_number 2
_symmetry_cell_setting 'triclinic'
loop_
_space_group_symop_operation_xyz
x,y,z
-x,-y,-z
loop_
_atom_site_type_symbol
_atom_site_label
_atom_site_fract_x
_atom_site_fract_y
_atom_site_fract_z
Si Si1 0.581353 0.097743 0.461883
Si Si2 0.730666 0.478509 0.776661
Si Si3 0.591645 0.593865 0.429784
Si Si4 0.935428 0.588054 0.068412
Si Si5 0.264148 0.015927 0.688732
Si Si6 0.576763 0.022985 0.758616
Si Si7 0.863864 0.386252 0.370836
Si Si8 0.504262 0.416810 0.932062
O O1 0.403576 0.323625 0.292576
O O2 0.653636 0.048841 0.630919
O O3 0.500000 0.000000 0.500000
O O4 0.727900 0.022663 0.422923
O O5 0.703355 0.531219 0.603428
O O6 0.642818 0.392031 0.864292
O O7 0.937947 0.368235 0.911320
O O8 0.500000 0.500000 0.500000
O O9 0.450538 0.827906 0.256191
O O10 0.729527 0.515398 0.383146
O O11 0.959020 0.444818 0.260115
O O12 0.000000 0.500000 0.000000
O O13 0.722096 0.792561 0.933618
O O14 0.372335 0.088132 0.677727
O O15 0.039365 0.179753 0.581465
O O16 0.399122 0.802327 0.896306
O O17 0.709527 0.428973 0.239746
O O18 0.500000 0.500000 0.000000
#
# Coordination Sequence:
#
# PCOD9025441 Si02
#       8
#     2   2   2   2   2   2   2   2
#     4   9  17  36  62  93 134 173 217 285 342 409
#     4  11  23  42  67  97 142 183 227 293 350 408
#     4  11  25  48  68  93 145 190 241 290 343 417
#     4  12  23  43  72 112 142 176 237 296 356 424
#     4  11  22  42  68 103 136 181 237 282 357 424
#     4  10  22  40  69 100 137 189 232 286 353 408
#     4  12  26  45  72  98 141 192 233 287 352 419
#     4  12  24  44  68 104 144 175 229 303 357 413
#
# _framework density 20.94183
#
# number of rings (size 3 to 8) (size 9 to 14) (size 15 to 20)
#    0.000    1.000    3.750    5.250    0.000    4.000 
#    2.250    1.250    0.000    0.000    0.000    0.000 
#    0.000    0.000    0.000    0.000    0.000    0.000 
#
# Total GULP energy -89121.569018 kJ/mol
# GULP energy per Si atom -5570.098064 kJ/mol
# Density = 2.089417 g / cm^3
# Si number density = 20.941830 Si / 1000 Ang^3
#
#
#
# Elastic Constant Matrix: (Units=GPa)
#
#
# Indices 1 2 3 4 5 6 
#
# 1 80.7642 14.8730 31.2918 -7.6275 6.2251 5.4901
# 2 14.8730 112.1088 20.0854 -13.2172 -1.6356 -3.7946
# 3 31.2918 20.0854 68.2500 -17.3498 3.4305 4.3034
# 4 -7.6275 -13.2172 -17.3498 28.1328 -5.2908 -6.5597
# 5 6.2251 -1.6356 3.4305 -5.2908 42.5226 4.1360
# 6 5.4901 -3.7946 4.3034 -6.5597 4.1360 22.5526
#
#
#
# Elastic Compliance Matrix: (Units=1/GPa)
#
#
# Indices 1 2 3 4 5 6 
#
# 1 0.015423 -0.001114 -0.006877 -0.001543 -0.001668 -0.002773
# 2 -0.001114 0.009992 -0.001575 0.004372 0.000892 0.003361
# 3 -0.006877 -0.001575 0.020877 0.010456 0.000527 0.000370
# 4 -0.001543 0.004372 0.010456 0.047246 0.004254 0.012078
# 5 -0.001668 0.000892 0.000527 0.004254 0.024556 -0.002810
# 6 -0.002773 0.003361 0.000370 0.012078 -0.002810 0.049539
#
#
# Mechanical properties :
#
#
# Convention : Reuss Voigt Hill
#
# Bulk Modulus (GPa) = 36.81960 43.73593 40.27777
# Shear Modulus (GPa) = 25.53399 31.63311 28.58355
#
# Velocity S-wave (km/s) = 3.49561 3.89076 3.69847
# Velocity P-wave (km/s) = 5.82343 6.41201 6.12480
#
# Compressibility (1/GPa) = 0.02715944
#
# Stress axis : x y z
#
# Youngs Moduli (GPa) = 64.83984 100.07828 47.90047
#
# Poissons Ratio (x) = 0.11150 0.32940
# Poissons Ratio (y) = 0.07224 0.07544
# Poissons Ratio (z) = 0.44589 0.15763
#
# Static dielectric constant tensor:
#      x y z
#    x 1.692440 0.039390 0.009370 
#    y 0.039390 1.799320 -0.030110 
#    z 0.009370 -0.030110 1.845180 
# 
# From -- ./inp_files/392092.got.cif
#   From: 2010.05.17/outbox.cif.g08.bks.cpg/sg2_197_cif.got.tgz:392092.got - 2010.06.03 11:33:40.
