data_PCOD9025232
_publ_section_title
;
Structure prediction by ZEFSAII (Michael W. Deem and Ramdas Pophale) SiO2 
 PCOD9025232
Probable space group: P -1
;
_chemical_formula_sum "Si O2"
_cell_formula_units_Z 16
_cell_length_a 19.524103
_cell_length_b 12.675499
_cell_length_c 22.833298
_cell_angle_alpha 25.407486
_cell_angle_beta 162.341226
_cell_angle_gamma 153.633827
_cell_volume 707.956216
_symmetry_space_group_name_H-M "P -1"
_symmetry_group_IT_number 2
_symmetry_cell_setting 'triclinic'
loop_
_space_group_symop_operation_xyz
x,y,z
-x,-y,-z
loop_
_atom_site_type_symbol
_atom_site_label
_atom_site_fract_x
_atom_site_fract_y
_atom_site_fract_z
Si Si1 0.384357 0.209920 0.828171
Si Si2 0.174595 0.994181 0.267792
Si Si3 0.322825 0.387233 0.289639
Si Si4 0.309528 0.355583 0.964542
Si Si5 0.059094 0.799373 0.840104
Si Si6 0.436519 0.251558 0.247545
Si Si7 0.168910 0.322600 0.408374
Si Si8 0.057679 0.740205 0.626442
O O1 0.550582 0.468073 0.858448
O O2 0.203558 0.272776 0.602993
O O3 0.221516 0.072502 0.817756
O O4 0.500000 0.000000 0.000000
O O5 0.323479 0.808437 0.506326
O O6 0.900120 0.876849 0.114275
O O7 0.285870 0.254142 0.263430
O O8 0.233118 0.049404 0.219106
O O9 0.587744 0.469602 0.486238
O O10 0.149236 0.196779 0.287855
O O11 0.223221 0.634373 0.082003
O O12 0.175727 0.556895 0.779398
O O13 0.500000 0.500000 0.000000
O O14 0.413146 0.252480 0.158264
O O15 0.938583 0.668613 0.747459
O O16 0.985082 0.333662 0.303738
O O17 0.199717 0.035851 0.585238
#
# Coordination Sequence:
#
# PCOD9025232 Si02
#       8
#     2   2   2   2   2   2   2   2
#     4  11  22  42  73 105 134 180 233 297 360 409
#     4  11  26  49  67 105 138 193 244 287 351 427
#     4  11  24  41  68  97 142 178 224 286 356 417
#     4  12  29  46  71 103 145 195 238 295 354 423
#     4  10  24  39  64 105 136 174 225 288 348 427
#     4  11  26  45  76  98 142 188 241 297 349 425
#     4  10  22  40  68 100 133 174 220 291 353 405
#     4  10  23  42  67 105 139 168 240 291 340 432
#
# _framework density 22.600266999999999
#
# number of rings (size 3 to 8) (size 9 to 14) (size 15 to 20)
#    0.000    1.250    1.250    3.000   12.250    4.500 
#    0.000    0.000    0.000    0.000    0.000    0.000 
#    0.000    0.000    0.000    0.000    0.000    0.000 
#
# Total GULP energy -89544.263182 kJ/mol
# GULP energy per Si atom -5596.516449 kJ/mol
# Density = 2.254883 g / cm^3
# Si number density = 22.600267 Si / 1000 Ang^3
#
#
#
# Elastic Constant Matrix: (Units=GPa)
#
#
# Indices 1 2 3 4 5 6 
#
# 1 82.3790 -5.9458 27.6247 8.3698 -12.9055 23.5610
# 2 -5.9458 67.8567 26.8983 19.2137 0.1798 10.2522
# 3 27.6247 26.8983 85.1841 11.4033 -8.6744 12.1424
# 4 8.3698 19.2137 11.4033 20.0622 -5.5057 7.6747
# 5 -12.9055 0.1798 -8.6744 -5.5057 23.3306 -7.7847
# 6 23.5610 10.2522 12.1424 7.6747 -7.7847 37.4906
#
#
#
# Elastic Compliance Matrix: (Units=1/GPa)
#
#
# Indices 1 2 3 4 5 6 
#
# 1 0.018561 0.007292 -0.005684 -0.006887 0.003223 -0.009739
# 2 0.007292 0.025626 -0.007180 -0.022968 -0.006206 -0.005852
# 3 -0.005684 -0.007180 0.015960 0.000742 0.003322 0.000904
# 4 -0.006887 -0.022968 0.000742 0.079350 0.014407 -0.002884
# 5 0.003223 -0.006206 0.003322 0.014407 0.051439 0.006327
# 6 -0.009739 -0.005852 0.000904 -0.002884 0.006327 0.036005
#
#
# Mechanical properties :
#
#
# Convention : Reuss Voigt Hill
#
# Bulk Modulus (GPa) = 20.40625 36.95271 28.67948
# Shear Modulus (GPa) = 19.65265 28.63287 24.14276
#
# Velocity S-wave (km/s) = 2.95206 3.56325 3.27196
# Velocity P-wave (km/s) = 4.54624 5.77192 5.19535
#
# Compressibility (1/GPa) = 0.04900460
#
# Stress axis : x y z
#
# Youngs Moduli (GPa) = 53.87528 39.02294 62.65777
#
# Poissons Ratio (x) = -0.28457 0.35612
# Poissons Ratio (y) = -0.39287 0.44987
# Poissons Ratio (z) = 0.30621 0.28018
#
# Static dielectric constant tensor:
#      x y z
#    x 1.852500 -0.002420 -0.018590 
#    y -0.002420 1.862100 -0.012590 
#    z -0.018590 -0.012590 1.848220 
# 
# From -- ./inp_files/600017.got.cif
#   From: 2010.05.17/outbox.cif.g08.bks.cpg/sg2_301_cif.got.tgz:600017.got - 2010.06.03 11:33:40.
