data_PCOD9025887
_publ_section_title
;
Structure prediction by ZEFSAII (Michael W. Deem and Ramdas Pophale) SiO2 
 PCOD9025887
Probable space group: P -1
;
_chemical_formula_sum "Si O2"
_cell_formula_units_Z 14
_cell_length_a 13.597230
_cell_length_b 10.091530
_cell_length_c 8.624497
_cell_angle_alpha 98.018210
_cell_angle_beta 125.740068
_cell_angle_gamma 123.924089
_cell_volume 576.060386
_symmetry_space_group_name_H-M "P -1"
_symmetry_group_IT_number 2
_symmetry_cell_setting 'triclinic'
loop_
_space_group_symop_operation_xyz
x,y,z
-x,-y,-z
loop_
_atom_site_type_symbol
_atom_site_label
_atom_site_fract_x
_atom_site_fract_y
_atom_site_fract_z
Si Si1 0.853519 0.664780 0.684948
Si Si2 0.369582 0.948697 0.533203
Si Si3 0.214419 0.775601 0.034017
Si Si4 0.374852 0.563401 0.239544
Si Si5 0.934604 0.044973 0.314413
Si Si6 0.501972 0.428697 0.157115
Si Si7 0.014435 0.340327 0.662324
O O1 0.730028 0.546081 0.709293
O O2 0.684014 0.490314 0.369487
O O3 0.053015 0.751150 0.893805
O O4 0.950922 0.882421 0.729332
O O5 0.481172 0.181846 0.612880
O O6 0.552518 0.015345 0.771028
O O7 0.200037 0.839181 0.480177
O O8 0.254413 0.778264 0.254830
O O9 0.108687 0.570313 0.798915
O O10 0.501357 0.546325 0.302316
O O11 0.185001 0.407794 0.923363
O O12 0.978385 0.230380 0.453373
O O13 0.000000 0.000000 0.500000
O O14 0.700931 0.827136 0.045523
O O15 0.500000 0.500000 0.000000
#
# Coordination Sequence:
#
# PCOD9025887 Si02
#       7
#     2   2   2   2   2   2   2
#     4  12  27  44  69 103 143 172 235 295 330 409
#     4  10  22  40  74 102 137 178 220 282 354 406
#     4  10  24  42  69 105 137 177 226 285 343 406
#     4  11  24  41  71 109 134 179 230 283 344 401
#     4  12  26  47  70  95 137 192 226 277 352 407
#     4  12  25  47  69  98 144 185 227 278 344 410
#     4  11  22  45  74  98 140 180 226 278 344 420
#
# _framework density 24.303007999999998
#
# number of rings (size 3 to 8) (size 9 to 14) (size 15 to 20)
#    0.000    0.857    4.286    1.714    6.000    2.286 
#    0.000    1.429    0.000    0.000    0.000    0.000 
#    0.000    0.000    0.000    0.000    0.000    0.000 
#
# Total GULP energy -78144.067458 kJ/mol
# GULP energy per Si atom -5581.719104 kJ/mol
# Density = 2.424769 g / cm^3
# Si number density = 24.303008 Si / 1000 Ang^3
#
#
#
# Elastic Constant Matrix: (Units=GPa)
#
#
# Indices 1 2 3 4 5 6 
#
# 1 99.3271 11.5335 27.1153 8.0699 22.3755 7.7417
# 2 11.5335 63.5997 26.9329 6.6143 8.0951 12.6917
# 3 27.1153 26.9329 107.9284 15.0435 30.1274 2.1156
# 4 8.0699 6.6143 15.0435 32.3212 -1.5645 9.5652
# 5 22.3755 8.0951 30.1274 -1.5645 56.3448 9.2175
# 6 7.7417 12.6917 2.1156 9.5652 9.2175 37.7102
#
#
#
# Elastic Compliance Matrix: (Units=1/GPa)
#
#
# Indices 1 2 3 4 5 6 
#
# 1 0.011584 -0.000693 -0.001398 -0.002093 -0.003708 -0.000629
# 2 -0.000693 0.018968 -0.004836 0.000490 0.001194 -0.006386
# 3 -0.001398 -0.004836 0.013606 -0.006675 -0.006954 0.004544
# 4 -0.002093 0.000490 -0.006675 0.037994 0.007143 -0.010744
# 5 -0.003708 0.001194 -0.006954 0.007143 0.024103 -0.006954
# 6 -0.000629 -0.006386 0.004544 -0.010744 -0.006954 0.032967
#
#
# Mechanical properties :
#
#
# Convention : Reuss Voigt Hill
#
# Bulk Modulus (GPa) = 32.99885 44.66873 38.83379
# Shear Modulus (GPa) = 30.64138 38.96015 34.80077
#
# Velocity S-wave (km/s) = 3.55464 4.00822 3.78822
# Velocity P-wave (km/s) = 5.51859 6.31196 5.92856
#
# Compressibility (1/GPa) = 0.03030408
#
# Stress axis : x y z
#
# Youngs Moduli (GPa) = 86.32286 52.71927 73.49788
#
# Poissons Ratio (x) = 0.03656 0.10276
# Poissons Ratio (y) = 0.05986 0.35541
# Poissons Ratio (z) = 0.12069 0.25493
#
# Static dielectric constant tensor:
#      x y z
#    x 1.989850 -0.031890 0.025500 
#    y -0.031890 2.039920 0.003870 
#    z 0.025500 0.003870 1.941190 
# 
# From -- ./inp_files/305413.got.cif
#   From: 2010.05.17/outbox.cif.g08.bks.cpg/sg2_153_cif.got.tgz:305413.got - 2010.06.03 11:33:40.
