data_PCOD9025315
_publ_section_title
;
Structure prediction by ZEFSAII (Michael W. Deem and Ramdas Pophale) SiO2 
 PCOD9025315
Probable space group: P -1
;
_chemical_formula_sum "Si O2"
_cell_formula_units_Z 15
_cell_length_a 10.609126
_cell_length_b 11.999897
_cell_length_c 12.413435
_cell_angle_alpha 140.811357
_cell_angle_beta 87.023330
_cell_angle_gamma 64.784935
_cell_volume 671.941883
_symmetry_space_group_name_H-M "P -1"
_symmetry_group_IT_number 2
_symmetry_cell_setting 'triclinic'
loop_
_space_group_symop_operation_xyz
x,y,z
-x,-y,-z
loop_
_atom_site_type_symbol
_atom_site_label
_atom_site_fract_x
_atom_site_fract_y
_atom_site_fract_z
Si Si1 0.784744 0.407151 0.802123
Si Si2 0.500000 0.500000 0.000000
Si Si3 0.155951 0.931366 0.016186
Si Si4 0.851717 0.277517 0.459520
Si Si5 0.529884 0.157028 0.174826
Si Si6 0.954457 0.786815 0.158857
Si Si7 0.676447 0.554123 0.223520
Si Si8 0.400791 0.051541 0.747090
O O1 0.853030 0.353319 0.636536
O O2 0.955110 0.261709 0.766819
O O3 0.679410 0.336486 0.784903
O O4 0.616218 0.724417 0.060359
O O5 0.602802 0.529973 0.102945
O O6 0.033405 0.138070 0.275300
O O7 0.289700 0.930571 0.949057
O O8 0.285538 0.642415 0.841091
O O9 0.000000 0.000000 0.000000
O O10 0.658624 0.535172 0.605646
O O11 0.862478 0.057146 0.314292
O O12 0.559571 0.087601 0.246964
O O13 0.500000 0.000000 0.000000
O O14 0.125712 0.565872 0.907025
O O15 0.801615 0.794924 0.172535
O O16 0.546880 0.835575 0.491146
#
# Coordination Sequence:
#
# PCOD9025315 Si02
#       8
#     2   1   2   2   2   2   2   2
#     4  11  23  43  66 101 131 178 217 277 335 397
#     4  10  22  40  68  92 132 166 230 262 326 402
#     4  11  24  43  70  98 133 181 233 274 331 407
#     4  11  23  45  70  97 134 179 226 274 333 404
#     4  12  25  43  66 102 140 176 224 282 342 396
#     4  10  23  42  67  96 130 173 225 270 326 399
#     4  10  23  42  66 100 128 176 221 270 330 395
#     4  12  24  42  67  96 140 171 218 277 337 394
#
# _framework density 22.323360999999998
#
# number of rings (size 3 to 8) (size 9 to 14) (size 15 to 20)
#    0.000    1.067    1.333    5.600    0.000    6.400 
#    2.400    1.333    0.000    0.000    0.000    0.000 
#    0.000    0.000    0.000    0.000    0.000    0.000 
#
# Total GULP energy -83694.937363 kJ/mol
# GULP energy per Si atom -5579.662491 kJ/mol
# Density = 2.227255 g / cm^3
# Si number density = 22.323361 Si / 1000 Ang^3
#
#
#
# Elastic Constant Matrix: (Units=GPa)
#
#
# Indices 1 2 3 4 5 6 
#
# 1 47.9223 15.2594 23.8761 9.7732 -10.9226 -6.1457
# 2 15.2594 113.2454 20.6435 -1.4313 -6.6761 4.1158
# 3 23.8761 20.6435 124.7274 0.6521 -12.7362 -4.7026
# 4 9.7732 -1.4313 0.6521 29.1139 -0.6863 2.7981
# 5 -10.9226 -6.6761 -12.7362 -0.6863 16.4896 1.7980
# 6 -6.1457 4.1158 -4.7026 2.7981 1.7980 20.8294
#
#
#
# Elastic Compliance Matrix: (Units=1/GPa)
#
#
# Indices 1 2 3 4 5 6 
#
# 1 0.030215 -0.003045 -0.003381 -0.010726 0.014751 0.008921
# 2 -0.003045 0.009663 -0.000994 0.001886 0.001579 -0.003422
# 3 -0.003381 -0.000994 0.009314 0.000908 0.004503 0.000791
# 4 -0.010726 0.001886 0.000908 0.038742 -0.003127 -0.008267
# 5 0.014751 0.001579 0.004503 -0.003127 0.074507 -0.000955
# 6 0.008921 -0.003422 0.000791 -0.008267 -0.000955 0.052689
#
#
# Mechanical properties :
#
#
# Convention : Reuss Voigt Hill
#
# Bulk Modulus (GPa) = 29.11096 45.05033 37.08064
# Shear Modulus (GPa) = 20.71071 28.36099 24.53585
#
# Velocity S-wave (km/s) = 3.04922 3.56822 3.31888
# Velocity P-wave (km/s) = 5.04637 6.09925 5.59762
#
# Compressibility (1/GPa) = 0.03435133
#
# Stress axis : x y z
#
# Youngs Moduli (GPa) = 33.09618 103.48540 107.36293
#
# Poissons Ratio (x) = 0.31513 0.36302
# Poissons Ratio (y) = 0.10078 0.10672
# Poissons Ratio (z) = 0.11191 0.10287
#
# Static dielectric constant tensor:
#      x y z
#    x 1.862830 0.043920 0.019120 
#    y 0.043920 1.836580 0.031880 
#    z 0.019120 0.031880 1.810750 
# 
# From -- ./inp_files/426928.got.cif
#   From: 2010.05.17/outbox.cif.g08.bks.cpg/sg2_214_cif.got.tgz:426928.got - 2010.06.03 11:33:40.
