data_PCOD9025027
_publ_section_title
;
Structure prediction by ZEFSAII (Michael W. Deem and Ramdas Pophale) SiO2 
 PCOD9025027
Probable space group: P -1
;
_chemical_formula_sum "Si O2"
_cell_formula_units_Z 16
_cell_length_a 5.787808
_cell_length_b 8.592724
_cell_length_c 19.030098
_cell_angle_alpha 99.626798
_cell_angle_beta 88.791823
_cell_angle_gamma 132.141292
_cell_volume 686.488901
_symmetry_space_group_name_H-M "P -1"
_symmetry_group_IT_number 2
_symmetry_cell_setting 'triclinic'
loop_
_space_group_symop_operation_xyz
x,y,z
-x,-y,-z
loop_
_atom_site_type_symbol
_atom_site_label
_atom_site_fract_x
_atom_site_fract_y
_atom_site_fract_z
Si Si1 0.959970 0.329911 0.536233
Si Si2 0.456423 0.274483 0.201865
Si Si3 0.801618 0.675589 0.326653
Si Si4 0.513380 0.998404 0.721097
Si Si5 0.277177 0.011986 0.588205
Si Si6 0.548953 0.554280 0.920235
Si Si7 0.791588 0.052312 0.039856
Si Si8 0.724832 0.873529 0.168829
O O1 0.609643 0.167907 0.558096
O O2 0.000000 0.500000 0.500000
O O3 0.177129 0.420413 0.610091
O O4 0.979152 0.179248 0.477453
O O5 0.567346 0.478581 0.260449
O O6 0.512398 0.320455 0.120538
O O7 0.582641 0.178734 0.234965
O O8 0.083010 0.081610 0.196471
O O9 0.753124 0.828545 0.367993
O O10 0.132140 0.845519 0.296746
O O11 0.300137 0.903401 0.645987
O O12 0.480716 0.152325 0.770209
O O13 0.328175 0.330416 0.864811
O O14 0.923291 0.699678 0.922803
O O15 0.500000 0.500000 0.000000
O O16 0.634338 0.914866 0.100271
O O17 0.500000 0.000000 0.000000
O O18 0.000000 0.000000 0.000000
#
# Coordination Sequence:
#
# PCOD9025027 Si02
#       8
#     2   2   2   2   2   2   2   2
#     4  10  22  40  67 101 138 179 230 280 353 417
#     4  11  25  42  67  98 137 177 237 290 358 430
#     4  11  24  43  70  99 138 183 231 291 353 422
#     4  11  24  42  66  96 135 183 235 291 357 426
#     4  10  22  41  64  99 138 177 232 288 346 424
#     4  11  24  47  71 100 140 184 238 299 374 442
#     4  11  26  47  74 108 144 186 242 305 375 451
#     4  11  26  45  68  99 138 184 232 296 360 441
#
# _framework density 23.307005
#
# number of rings (size 3 to 8) (size 9 to 14) (size 15 to 20)
#    0.000    1.250    1.250    3.375    3.500    8.000 
#    2.250    0.000    0.000    0.000    0.000    0.000 
#    0.000    0.000    0.000    0.000    0.000    0.000 
#
# Total GULP energy -89256.885886 kJ/mol
# GULP energy per Si atom -5578.555368 kJ/mol
# Density = 2.325396 g / cm^3
# Si number density = 23.307005 Si / 1000 Ang^3
#
#
#
# Elastic Constant Matrix: (Units=GPa)
#
#
# Indices 1 2 3 4 5 6 
#
# 1 52.2601 20.9335 45.1520 -2.7553 -4.1989 -6.8520
# 2 20.9335 77.0913 57.1133 -1.5625 11.8225 -23.1085
# 3 45.1520 57.1133 166.8562 -12.3949 16.9269 -17.8981
# 4 -2.7553 -1.5625 -12.3949 63.2059 -15.7735 11.8986
# 5 -4.1989 11.8225 16.9269 -15.7735 53.8791 -2.8085
# 6 -6.8520 -23.1085 -17.8981 11.8986 -2.8085 23.5761
#
#
#
# Elastic Compliance Matrix: (Units=1/GPa)
#
#
# Indices 1 2 3 4 5 6 
#
# 1 0.026508 -0.003237 -0.006546 0.001153 0.005149 -0.000406
# 2 -0.003237 0.024892 -0.005264 -0.005826 -0.004627 0.021850
# 3 -0.006546 -0.005264 0.009821 0.001046 -0.002154 -0.000391
# 4 0.001153 -0.005826 0.001046 0.020114 0.006199 -0.013994
# 5 0.005149 -0.004627 -0.002154 0.006199 0.022199 -0.005158
# 6 -0.000406 0.021850 -0.000391 -0.013994 -0.005158 0.069866
#
#
# Mechanical properties :
#
#
# Convention : Reuss Voigt Hill
#
# Bulk Modulus (GPa) = 32.12564 60.28945 46.20755
# Shear Modulus (GPa) = 23.37897 39.66615 31.52256
#
# Velocity S-wave (km/s) = 3.17059 4.12988 3.68162
# Velocity P-wave (km/s) = 5.21701 6.97602 6.15963
#
# Compressibility (1/GPa) = 0.03112778
#
# Stress axis : x y z
#
# Youngs Moduli (GPa) = 37.72439 40.17434 101.82771
#
# Poissons Ratio (x) = 0.13004 0.66651
# Poissons Ratio (y) = 0.12211 0.53600
# Poissons Ratio (z) = 0.24693 0.21147
#
# Static dielectric constant tensor:
#      x y z
#    x 1.915430 -0.087130 0.021870 
#    y -0.087130 1.910190 -0.001660 
#    z 0.021870 -0.001660 1.922820 
# 
# From -- ./inp_files/548174.got.cif
#   From: 2010.05.17/outbox.cif.g08.bks.cpg/sg2_275_cif.got.tgz:548174.got - 2010.06.03 11:33:40.
