data_PCOD9025859
_publ_section_title
;
Structure prediction by ZEFSAII (Michael W. Deem and Ramdas Pophale) SiO2 
 PCOD9025859
Probable space group: P -1
;
_chemical_formula_sum "Si O2"
_cell_formula_units_Z 12
_cell_length_a 9.394901
_cell_length_b 11.739995
_cell_length_c 6.971468
_cell_angle_alpha 73.716450
_cell_angle_beta 48.897150
_cell_angle_gamma 52.843326
_cell_volume 452.981449
_symmetry_space_group_name_H-M "P -1"
_symmetry_group_IT_number 2
_symmetry_cell_setting 'triclinic'
loop_
_space_group_symop_operation_xyz
x,y,z
-x,-y,-z
loop_
_atom_site_type_symbol
_atom_site_label
_atom_site_fract_x
_atom_site_fract_y
_atom_site_fract_z
Si Si1 0.555855 0.868714 0.370561
Si Si2 0.753948 0.110564 0.062312
Si Si3 0.476303 0.383664 0.972042
Si Si4 0.917032 0.664842 0.636201
Si Si5 0.807192 0.968239 0.715641
Si Si6 0.967093 0.418405 0.867816
O O1 0.428035 0.813717 0.638670
O O2 0.823191 0.736176 0.168348
O O3 0.500000 0.000000 0.500000
O O4 0.409930 0.926198 0.278657
O O5 0.720304 0.234179 0.890155
O O6 0.733267 0.007349 0.983338
O O7 0.000000 0.000000 0.000000
O O8 0.324197 0.319265 0.182110
O O9 0.309889 0.483131 0.890833
O O10 0.500000 0.500000 0.000000
O O11 0.889772 0.806885 0.665236
O O12 0.026831 0.617504 0.350405
O O13 0.039873 0.531703 0.742907
O O14 0.000000 0.000000 0.500000
#
# Coordination Sequence:
#
# PCOD9025859 Si02
#       6
#     2   2   2   2   2   2
#     4  12  23  45  75 101 139 192 225 296 361 409
#     4  12  26  44  69 107 140 180 245 292 341 424
#     4  10  22  40  72  98 136 188 230 291 354 418
#     4   9  19  40  66  97 138 182 227 284 347 416
#     4  12  26  43  72 108 143 187 240 286 353 427
#     4   9  19  42  68  95 141 180 229 283 365 399
#
# _framework density 26.491150000000001
#
# number of rings (size 3 to 8) (size 9 to 14) (size 15 to 20)
#    1.000    0.333    5.000    0.000    4.667    2.667 
#    0.000    3.333    0.000    0.000    0.000    0.000 
#    0.000    0.000    0.000    0.000    0.000    0.000 
#
# Total GULP energy -66828.257949 kJ/mol
# GULP energy per Si atom -5569.021496 kJ/mol
# Density = 2.643086 g / cm^3
# Si number density = 26.491150 Si / 1000 Ang^3
#
#
#
# Elastic Constant Matrix: (Units=GPa)
#
#
# Indices 1 2 3 4 5 6 
#
# 1 189.8434 95.2537 26.8930 0.5456 -5.0749 -20.4488
# 2 95.2537 252.1263 19.8995 31.5723 -2.1092 -16.0757
# 3 26.8930 19.8995 77.8920 1.6503 1.3492 3.6838
# 4 0.5456 31.5723 1.6503 25.4100 4.2000 0.9295
# 5 -5.0749 -2.1092 1.3492 4.2000 41.7562 0.1426
# 6 -20.4488 -16.0757 3.6838 0.9295 0.1426 79.8782
#
#
#
# Elastic Compliance Matrix: (Units=1/GPa)
#
#
# Indices 1 2 3 4 5 6 
#
# 1 0.007121 -0.002888 -0.001862 0.003439 0.000429 0.001287
# 2 -0.002888 0.006090 -0.000438 -0.007620 0.000735 0.000594
# 3 -0.001862 -0.000438 0.013664 -0.000149 -0.000671 -0.001192
# 4 0.003439 -0.007620 -0.000149 0.049621 -0.004949 -0.001215
# 5 0.000429 0.000735 -0.000671 -0.004949 0.024556 0.000303
# 6 0.001287 0.000594 -0.001192 -0.001215 0.000303 0.013037
#
#
# Mechanical properties :
#
#
# Convention : Reuss Voigt Hill
#
# Bulk Modulus (GPa) = 60.61013 89.32824 74.96918
# Shear Modulus (GPa) = 38.47212 54.59659 46.53435
#
# Velocity S-wave (km/s) = 3.81499 4.54468 4.19573
# Velocity P-wave (km/s) = 6.50650 7.83148 7.19954
#
# Compressibility (1/GPa) = 0.01649889
#
# Stress axis : x y z
#
# Youngs Moduli (GPa) = 140.43841 164.19767 73.18428
#
# Poissons Ratio (x) = 0.47423 0.13625
# Poissons Ratio (y) = 0.40561 0.03206
# Poissons Ratio (z) = 0.26146 0.07194
#
# Static dielectric constant tensor:
#      x y z
#    x 2.195170 -0.047860 -0.105460 
#    y -0.047860 2.246330 0.030190 
#    z -0.105460 0.030190 2.312100 
# 
# From -- ./inp_files/186467.got.cif
#   From: 2010.05.17/outbox.cif.g08.bks.cpg/sg2_94_cif.got.tgz:186467.got - 2010.06.03 11:33:40.
