data_PCOD9025252
_publ_section_title
;
Structure prediction by ZEFSAII (Michael W. Deem and Ramdas Pophale) SiO2 
 PCOD9025252
Probable space group: P -1
;
_chemical_formula_sum "Si O2"
_cell_formula_units_Z 15
_cell_length_a 6.304061
_cell_length_b 10.451791
_cell_length_c 11.345101
_cell_angle_alpha 109.728835
_cell_angle_beta 115.755171
_cell_angle_gamma 95.109489
_cell_volume 608.742590
_symmetry_space_group_name_H-M "P -1"
_symmetry_group_IT_number 2
_symmetry_cell_setting 'triclinic'
loop_
_space_group_symop_operation_xyz
x,y,z
-x,-y,-z
loop_
_atom_site_type_symbol
_atom_site_label
_atom_site_fract_x
_atom_site_fract_y
_atom_site_fract_z
Si Si1 0.076699 0.543423 0.830762
Si Si2 0.708988 0.210284 0.883771
Si Si3 0.229616 0.010569 0.805831
Si Si4 0.219444 0.922097 0.379883
Si Si5 0.090481 0.304960 0.601188
Si Si6 0.526378 0.484061 0.641133
Si Si7 0.742361 0.295232 0.305881
Si Si8 0.000000 0.000000 0.000000
O O1 0.787875 0.485918 0.752058
O O2 0.165537 0.413979 0.761870
O O3 0.114503 0.653529 0.764081
O O4 0.206807 0.629919 0.000149
O O5 0.425189 0.139397 0.829351
O O6 0.761526 0.185404 0.753166
O O7 0.870275 0.121621 0.961975
O O8 0.952055 0.983736 0.680411
O O9 0.322632 0.872955 0.760498
O O10 0.189873 0.033423 0.940558
O O11 0.066441 0.840965 0.428031
O O12 0.500000 0.000000 0.500000
O O13 0.334889 0.338971 0.593484
O O14 0.904458 0.347974 0.478012
O O15 0.500000 0.500000 0.500000
O O16 0.467450 0.625736 0.719711
#
# Coordination Sequence:
#
# PCOD9025252 Si02
#       8
#     2   2   2   2   2   2   2   1
#     4  11  23  41  68 105 140 182 236 301 354 422
#     4  11  25  44  69 104 145 188 241 292 362 421
#     4  11  25  45  71 104 145 186 240 302 357 426
#     4  11  28  50  71 101 142 194 246 290 357 438
#     4  11  24  43  67 102 140 183 244 290 355 424
#     4  11  21  41  69 106 144 186 235 295 360 422
#     4  11  22  38  69 106 138 181 238 294 361 413
#     4  10  22  40  68 102 138 188 228 294 354 412
#
# _framework density 24.640958999999999
#
# number of rings (size 3 to 8) (size 9 to 14) (size 15 to 20)
#    0.000    1.067    4.000    2.000    1.867    9.067 
#    0.000    1.333    0.000    0.000    0.000    0.000 
#    0.000    0.000    0.000    0.000    0.000    0.000 
#
# Total GULP energy -83672.118334 kJ/mol
# GULP energy per Si atom -5578.141222 kJ/mol
# Density = 2.458488 g / cm^3
# Si number density = 24.640959 Si / 1000 Ang^3
#
#
#
# Elastic Constant Matrix: (Units=GPa)
#
#
# Indices 1 2 3 4 5 6 
#
# 1 109.4846 33.3197 40.5881 5.8682 -6.8711 22.9760
# 2 33.3197 84.0370 25.0888 1.3660 4.8641 20.0119
# 3 40.5881 25.0888 100.7703 14.3548 -11.2243 8.5305
# 4 5.8682 1.3660 14.3548 31.6369 4.3577 -0.0012
# 5 -6.8711 4.8641 -11.2243 4.3577 39.2986 -2.2449
# 6 22.9760 20.0119 8.5305 -0.0012 -2.2449 46.3297
#
#
#
# Elastic Compliance Matrix: (Units=1/GPa)
#
#
# Indices 1 2 3 4 5 6 
#
# 1 0.012359 -0.002883 -0.003666 -0.000685 0.001310 -0.004145
# 2 -0.002883 0.015228 -0.002873 0.001686 -0.003670 -0.004796
# 3 -0.003666 -0.002873 0.013348 -0.005834 0.004220 0.000805
# 4 -0.000685 0.001686 -0.005834 0.035118 -0.005866 0.000402
# 5 0.001310 -0.003670 0.004220 -0.005866 0.028072 0.001519
# 6 -0.004145 -0.004796 0.000805 0.000402 0.001519 0.025637
#
#
# Mechanical properties :
#
#
# Convention : Reuss Voigt Hill
#
# Bulk Modulus (GPa) = 45.26729 54.69835 49.98282
# Shear Modulus (GPa) = 32.05755 36.47273 34.26514
#
# Velocity S-wave (km/s) = 3.61083 3.85147 3.73309
# Velocity P-wave (km/s) = 5.98287 6.48265 6.23777
#
# Compressibility (1/GPa) = 0.02209101
#
# Stress axis : x y z
#
# Youngs Moduli (GPa) = 80.91273 65.66997 74.91681
#
# Poissons Ratio (x) = 0.18935 0.27462
# Poissons Ratio (y) = 0.23331 0.21523
# Poissons Ratio (z) = 0.29659 0.18866
#
# Static dielectric constant tensor:
#      x y z
#    x 1.960640 -0.000600 -0.017190 
#    y -0.000600 1.962670 0.024380 
#    z -0.017190 0.024380 1.978160 
# 
# From -- ./inp_files/363346.got.cif
#   From: 2010.05.17/outbox.cif.g08.bks.cpg/sg2_182_cif.got.tgz:363346.got - 2010.06.03 11:33:40.
