data_PCOD9025427
_publ_section_title
;
Structure prediction by ZEFSAII (Michael W. Deem and Ramdas Pophale) SiO2 
 PCOD9025427
Probable space group: P -1
;
_chemical_formula_sum "Si O2"
_cell_formula_units_Z 10
_cell_length_a 7.095990
_cell_length_b 6.212391
_cell_length_c 16.911689
_cell_angle_alpha 141.997488
_cell_angle_beta 58.258636
_cell_angle_gamma 115.684955
_cell_volume 390.105516
_symmetry_space_group_name_H-M "P -1"
_symmetry_group_IT_number 2
_symmetry_cell_setting 'triclinic'
loop_
_space_group_symop_operation_xyz
x,y,z
-x,-y,-z
loop_
_atom_site_type_symbol
_atom_site_label
_atom_site_fract_x
_atom_site_fract_y
_atom_site_fract_z
Si Si1 0.761006 0.551555 0.031814
Si Si2 0.624770 0.287492 0.240160
Si Si3 0.296144 0.192524 0.046927
Si Si4 0.282513 0.294827 0.519065
Si Si5 0.185927 0.492299 0.319770
O O1 0.558531 0.289959 0.025501
O O2 0.674202 0.941581 0.179986
O O3 0.773505 0.540236 0.930083
O O4 0.000000 0.500000 0.000000
O O5 0.719608 0.622220 0.362151
O O6 0.366260 0.334460 0.292307
O O7 0.733142 0.174271 0.100226
O O8 0.174053 0.270284 0.177033
O O9 0.500000 0.500000 0.500000
O O10 0.060088 0.453550 0.579002
O O11 0.277459 0.881474 0.388958
#
# Coordination Sequence:
#
# PCOD9025427 Si02
#       5
#     2   2   2   2   2
#     4   9  20  37  64 101 137 170 216 271 332 397
#     4  10  22  40  68  99 134 176 219 277 337 390
#     4   9  21  39  66 100 135 169 221 277 336 390
#     4  11  26  44  68  95 136 185 221 269 336 400
#     4  11  24  45  67 101 138 170 227 278 326 405
#
# _framework density 25.634094000000001
#
# number of rings (size 3 to 8) (size 9 to 14) (size 15 to 20)
#    1.200    0.800    0.000    2.400    2.800    3.200 
#    0.000    6.000    0.000    0.000    0.000    0.000 
#    0.000    0.000    0.000    0.000    0.000    0.000 
#
# Total GULP energy -55937.886549 kJ/mol
# GULP energy per Si atom -5593.788655 kJ/mol
# Density = 2.557575 g / cm^3
# Si number density = 25.634094 Si / 1000 Ang^3
#
#
#
# Elastic Constant Matrix: (Units=GPa)
#
#
# Indices 1 2 3 4 5 6 
#
# 1 182.0686 50.1659 38.2805 -2.7120 -35.1807 11.7095
# 2 50.1659 78.1418 25.6847 7.2599 -19.5894 34.4659
# 3 38.2805 25.6847 125.9077 19.3808 1.5755 -2.8123
# 4 -2.7120 7.2599 19.3808 24.3624 -3.5016 4.3955
# 5 -35.1807 -19.5894 1.5755 -3.5016 52.3439 -3.6425
# 6 11.7095 34.4659 -2.8123 4.3955 -3.6425 41.0543
#
#
#
# Elastic Compliance Matrix: (Units=1/GPa)
#
#
# Indices 1 2 3 4 5 6 
#
# 1 0.007917 -0.004094 -0.002273 0.004347 0.004213 0.000932
# 2 -0.004094 0.028905 -0.005279 0.000216 0.006646 -0.022893
# 3 -0.002273 -0.005279 0.011365 -0.009475 -0.004026 0.006516
# 4 0.004347 0.000216 -0.009475 0.051161 0.006224 -0.006996
# 5 0.004213 0.006646 -0.004026 0.006224 0.024575 -0.005543
# 6 0.000932 -0.022893 0.006516 -0.006996 -0.005543 0.044015
#
#
# Mechanical properties :
#
#
# Convention : Reuss Voigt Hill
#
# Bulk Modulus (GPa) = 40.17163 68.26447 54.21805
# Shear Modulus (GPa) = 25.05900 41.68457 33.37179
#
# Velocity S-wave (km/s) = 3.13000 4.03691 3.61203
# Velocity P-wave (km/s) = 5.36355 6.95824 6.21228
#
# Compressibility (1/GPa) = 0.02489319
#
# Stress axis : x y z
#
# Youngs Moduli (GPa) = 126.30402 34.59656 87.99129
#
# Poissons Ratio (x) = 0.14165 0.20000
# Poissons Ratio (y) = 0.51715 0.46454
# Poissons Ratio (z) = 0.28709 0.18265
#
# Static dielectric constant tensor:
#      x y z
#    x 2.059960 -0.079720 -0.010950 
#    y -0.079720 2.051320 -0.019650 
#    z -0.010950 -0.019650 2.021040 
# 
# From -- ./inp_files/157549.got.cif
#   From: 2010.05.17/outbox.cif.g08.bks.cpg/sg2_79_cif.got.tgz:157549.got - 2010.06.03 11:33:40.
