data_PCOD9025448
_publ_section_title
;
Structure prediction by ZEFSAII (Michael W. Deem and Ramdas Pophale) SiO2 
 PCOD9025448
Probable space group: P -1
;
_chemical_formula_sum "Si O2"
_cell_formula_units_Z 12
_cell_length_a 11.493647
_cell_length_b 9.366486
_cell_length_c 10.642859
_cell_angle_alpha 77.836714
_cell_angle_beta 68.346864
_cell_angle_gamma 137.061727
_cell_volume 471.949186
_symmetry_space_group_name_H-M "P -1"
_symmetry_group_IT_number 2
_symmetry_cell_setting 'triclinic'
loop_
_space_group_symop_operation_xyz
x,y,z
-x,-y,-z
loop_
_atom_site_type_symbol
_atom_site_label
_atom_site_fract_x
_atom_site_fract_y
_atom_site_fract_z
Si Si1 0.732009 0.290082 0.712609
Si Si2 0.866559 0.522970 0.878666
Si Si3 0.559848 0.967348 0.358643
Si Si4 0.312807 0.377142 0.951050
Si Si5 0.186731 0.316334 0.313168
Si Si6 0.721825 0.619548 0.334938
O O1 0.764190 0.302984 0.850436
O O2 0.493407 0.003933 0.758425
O O3 0.707973 0.440920 0.689462
O O4 0.000000 0.500000 0.500000
O O5 0.013475 0.793866 0.674240
O O6 0.116990 0.737571 0.825658
O O7 0.660494 0.434521 0.030053
O O8 0.359646 0.621557 0.530482
O O9 0.500000 0.000000 0.500000
O O10 0.547157 0.502220 0.861209
O O11 0.297890 0.396996 0.805281
O O12 0.027169 0.998934 0.173019
O O13 0.000000 0.000000 0.500000
O O14 0.500000 0.500000 0.500000
#
# Coordination Sequence:
#
# PCOD9025448 Si02
#       6
#     2   2   2   2   2   2
#     4  10  23  40  67  99 132 180 231 276 344 413
#     4  10  23  39  66 102 137 175 229 288 339 408
#     4  12  22  43  74  95 138 190 228 281 353 409
#     4  11  23  41  70 107 142 176 235 287 344 414
#     4  10  22  40  69 101 135 179 228 286 344 404
#     4  11  24  41  70 106 138 183 233 284 346 413
#
# _framework density 25.426466999999999
#
# number of rings (size 3 to 8) (size 9 to 14) (size 15 to 20)
#    1.000    0.333    3.333    2.500    4.667    0.000 
#    0.000    0.833    3.667    4.000    0.000    0.000 
#    0.000    0.000    0.000    0.000    0.000    0.000 
#
# Total GULP energy -66824.585585 kJ/mol
# GULP energy per Si atom -5568.715465 kJ/mol
# Density = 2.536860 g / cm^3
# Si number density = 25.426467 Si / 1000 Ang^3
#
#
#
# Elastic Constant Matrix: (Units=GPa)
#
#
# Indices 1 2 3 4 5 6 
#
# 1 113.2285 35.9568 22.5387 1.1911 -28.4655 14.3926
# 2 35.9568 92.0307 29.2796 21.2268 -15.6349 1.3031
# 3 22.5387 29.2796 77.4707 3.8005 -29.8085 0.3536
# 4 1.1911 21.2268 3.8005 59.6661 0.6554 2.2110
# 5 -28.4655 -15.6349 -29.8085 0.6554 61.7354 -2.1139
# 6 14.3926 1.3031 0.3536 2.2110 -2.1139 61.0733
#
#
#
# Elastic Compliance Matrix: (Units=1/GPa)
#
#
# Indices 1 2 3 4 5 6 
#
# 1 0.011471 -0.003938 -0.000351 0.001244 0.004023 -0.002523
# 2 -0.003938 0.014890 -0.004247 -0.004978 -0.000015 0.000815
# 3 -0.000351 -0.004247 0.017348 0.000323 0.007146 0.000308
# 4 0.001244 -0.004978 0.000323 0.018527 -0.000758 -0.000886
# 5 0.004023 -0.000015 0.007146 -0.000758 0.021500 -0.000217
# 6 -0.002523 0.000815 0.000308 -0.000886 -0.000217 0.016974
#
#
# Mechanical properties :
#
#
# Convention : Reuss Voigt Hill
#
# Bulk Modulus (GPa) = 37.54103 50.92003 44.23053
# Shear Modulus (GPa) = 39.47595 49.49193 44.48394
#
# Velocity S-wave (km/s) = 3.94452 4.41667 4.18726
# Velocity P-wave (km/s) = 5.96173 6.78816 6.38833
#
# Compressibility (1/GPa) = 0.02663752
#
# Stress axis : x y z
#
# Youngs Moduli (GPa) = 87.17645 67.15974 57.64493
#
# Poissons Ratio (x) = 0.26447 0.02021
# Poissons Ratio (y) = 0.34329 0.24482
# Poissons Ratio (z) = 0.03056 0.28523
#
# Static dielectric constant tensor:
#      x y z
#    x 1.996610 0.087460 0.093780 
#    y 0.087460 2.197870 0.097930 
#    z 0.093780 0.097930 1.794640 
# 
# From -- ./inp_files/388215.got.cif
#   From: 2010.05.17/outbox.cif.g08.bks.cpg/sg2_195_cif.got.tgz:388215.got - 2010.06.03 11:33:40.
