data_PCOD9025678
_publ_section_title
;
Structure prediction by ZEFSAII (Michael W. Deem and Ramdas Pophale) SiO2 
 PCOD9025678
Probable space group: P -1
;
_chemical_formula_sum "Si O2"
_cell_formula_units_Z 11
_cell_length_a 7.531751
_cell_length_b 10.943829
_cell_length_c 6.508603
_cell_angle_alpha 92.844163
_cell_angle_beta 111.871077
_cell_angle_gamma 60.962068
_cell_volume 429.555286
_symmetry_space_group_name_H-M "P -1"
_symmetry_group_IT_number 2
_symmetry_cell_setting 'triclinic'
loop_
_space_group_symop_operation_xyz
x,y,z
-x,-y,-z
loop_
_atom_site_type_symbol
_atom_site_label
_atom_site_fract_x
_atom_site_fract_y
_atom_site_fract_z
Si Si1 0.519815 0.396750 0.317579
Si Si2 0.219872 0.204223 0.837801
Si Si3 0.162835 0.836394 0.300350
Si Si4 0.000000 0.500000 0.000000
Si Si5 0.618094 0.017438 0.745899
Si Si6 0.822268 0.370077 0.066480
O O1 0.500000 0.500000 0.500000
O O2 0.631960 0.245881 0.460786
O O3 0.682343 0.389801 0.207237
O O4 0.281182 0.478576 0.105675
O O5 0.076615 0.368023 0.840669
O O6 0.433371 0.161880 0.788430
O O7 0.052426 0.151042 0.680436
O O8 0.315672 0.105940 0.072761
O O9 0.172877 0.970274 0.236263
O O10 0.189736 0.739099 0.103062
O O11 0.955794 0.627796 0.807188
O O12 0.500000 0.000000 0.500000
#
# Coordination Sequence:
#
# PCOD9025678 Si02
#       6
#     2   2   2   1   2   2
#     4   9  19  34  58  93 128 172 215 259 339 393
#     4  10  25  46  65 103 135 174 226 280 338 401
#     4  10  22  42  65  96 129 180 224 275 338 397
#     4  10  22  40  70  96 132 174 216 282 336 390
#     4  11  26  44  70  96 135 181 228 276 336 404
#     4   9  20  37  60  95 134 172 212 276 335 398
#
# _framework density 25.607879000000001
#
# number of rings (size 3 to 8) (size 9 to 14) (size 15 to 20)
#    0.000    2.182    0.000    0.545   10.182    5.091 
#    0.000    3.636    0.000    0.000    0.000    0.000 
#    0.000    0.000    0.000    0.000    0.000    0.000 
#
# Total GULP energy -61280.418311 kJ/mol
# GULP energy per Si atom -5570.947119 kJ/mol
# Density = 2.554959 g / cm^3
# Si number density = 25.607879 Si / 1000 Ang^3
#
#
#
# Elastic Constant Matrix: (Units=GPa)
#
#
# Indices 1 2 3 4 5 6 
#
# 1 112.9877 29.3251 20.1496 9.6106 -1.9757 9.6292
# 2 29.3251 64.7247 28.3510 -0.5664 -4.9227 -5.9167
# 3 20.1496 28.3510 85.1724 -17.8139 4.0133 8.0946
# 4 9.6106 -0.5664 -17.8139 29.1727 -7.4068 7.7666
# 5 -1.9757 -4.9227 4.0133 -7.4068 42.6192 7.1176
# 6 9.6292 -5.9167 8.0946 7.7666 7.1176 48.5958
#
#
#
# Elastic Compliance Matrix: (Units=1/GPa)
#
#
# Indices 1 2 3 4 5 6 
#
# 1 0.010808 -0.004271 -0.001903 -0.004467 -0.000325 -0.001583
# 2 -0.004271 0.021130 -0.007323 -0.003613 0.001469 0.005001
# 3 -0.001903 -0.007323 0.017870 0.013057 0.000599 -0.005666
# 4 -0.004467 -0.003613 0.013057 0.048641 0.008392 -0.010733
# 5 -0.000325 0.001469 0.000599 0.008392 0.025853 -0.004984
# 6 -0.001583 0.005001 -0.005666 -0.010733 -0.004984 0.024889
#
#
# Mechanical properties :
#
#
# Convention : Reuss Voigt Hill
#
# Bulk Modulus (GPa) = 43.83685 46.50402 45.17043
# Shear Modulus (GPa) = 27.20466 36.41482 31.80974
#
# Velocity S-wave (km/s) = 3.26291 3.77505 3.52829
# Velocity P-wave (km/s) = 5.59921 6.09925 5.85457
#
# Compressibility (1/GPa) = 0.02281186
#
# Stress axis : x y z
#
# Youngs Moduli (GPa) = 92.52597 47.32518 55.95956
#
# Poissons Ratio (x) = 0.20215 0.10652
# Poissons Ratio (y) = 0.39522 0.40980
# Poissons Ratio (z) = 0.17612 0.34657
#
# Static dielectric constant tensor:
#      x y z
#    x 2.153420 -0.106830 -0.001880 
#    y -0.106830 2.102460 -0.036670 
#    z -0.001880 -0.036670 2.045580 
# 
# From -- ./inp_files/21932.got.cif
#   From: 2010.05.17/outbox.cif.g08.bks.cpg/sg2_11_cif.got.tgz:21932.got - 2010.06.03 11:33:40.
