data_PCOD9025356
_publ_section_title
;
Structure prediction by ZEFSAII (Michael W. Deem and Ramdas Pophale) SiO2 
 PCOD9025356
Probable space group: P -1
;
_chemical_formula_sum "Si O2"
_cell_formula_units_Z 12
_cell_length_a 5.750434
_cell_length_b 9.045220
_cell_length_c 15.781460
_cell_angle_alpha 134.116354
_cell_angle_beta 78.256181
_cell_angle_gamma 79.125321
_cell_volume 509.287316
_symmetry_space_group_name_H-M "P -1"
_symmetry_group_IT_number 2
_symmetry_cell_setting 'triclinic'
loop_
_space_group_symop_operation_xyz
x,y,z
-x,-y,-z
loop_
_atom_site_type_symbol
_atom_site_label
_atom_site_fract_x
_atom_site_fract_y
_atom_site_fract_z
Si Si1 0.695439 0.558166 0.072392
Si Si2 0.734984 0.665578 0.388328
Si Si3 0.742768 0.777017 0.789288
Si Si4 0.724317 0.189978 0.054368
Si Si5 0.739182 0.920113 0.663722
Si Si6 0.838915 0.026371 0.436528
O O1 0.527326 0.833958 0.212272
O O2 0.500000 0.500000 0.000000
O O3 0.000000 0.500000 0.000000
O O4 0.271148 0.595299 0.907418
O O5 0.756481 0.778407 0.521228
O O6 0.766368 0.815966 0.369173
O O7 0.970186 0.405520 0.266761
O O8 0.426066 0.727286 0.438450
O O9 0.514231 0.729353 0.828106
O O10 0.758618 0.771077 0.684998
O O11 0.667720 0.039189 0.927027
O O12 0.000000 0.000000 0.000000
O O13 0.985677 0.981327 0.659713
O O14 0.000000 0.000000 0.500000
#
# Coordination Sequence:
#
# PCOD9025356 Si02
#       6
#     2   2   2   2   2   2
#     4  12  27  48  76 104 143 192 245 300 354 430
#     4  10  22  40  68  95 139 180 231 296 360 422
#     4  11  24  43  66 103 140 182 236 293 364 428
#     4  11  26  45  70  99 144 189 241 296 362 428
#     4  11  23  41  69 100 139 179 240 291 358 431
#     4   9  21  40  60  96 133 183 229 287 349 426
#
# _framework density 23.562339000000001
#
# number of rings (size 3 to 8) (size 9 to 14) (size 15 to 20)
#    0.000    1.333    1.667    2.500    4.667    8.667 
#    0.000    0.000    0.000    0.000    0.000    0.000 
#    0.000    0.000    0.000    0.000    0.000    0.000 
#
# Total GULP energy -67123.446590 kJ/mol
# GULP energy per Si atom -5593.620549 kJ/mol
# Density = 2.350871 g / cm^3
# Si number density = 23.562339 Si / 1000 Ang^3
#
#
#
# Elastic Constant Matrix: (Units=GPa)
#
#
# Indices 1 2 3 4 5 6 
#
# 1 95.4014 48.3481 45.9517 -12.6665 -34.4914 -4.0538
# 2 48.3481 156.3155 58.4950 -11.6175 -37.3361 -5.4764
# 3 45.9517 58.4950 117.0746 7.0448 -34.2768 14.6104
# 4 -12.6665 -11.6175 7.0448 49.6352 0.8350 -7.4989
# 5 -34.4914 -37.3361 -34.2768 0.8350 68.7663 -2.2625
# 6 -4.0538 -5.4764 14.6104 -7.4989 -2.2625 33.6059
#
#
#
# Elastic Compliance Matrix: (Units=1/GPa)
#
#
# Indices 1 2 3 4 5 6 
#
# 1 0.016518 -0.001280 -0.005416 0.005460 0.005012 0.005694
# 2 -0.001280 0.009266 -0.004085 0.002979 0.002447 0.003961
# 3 -0.005416 -0.004085 0.014825 -0.005826 0.002233 -0.008914
# 4 0.005460 0.002979 -0.005826 0.024434 0.001459 0.009228
# 5 0.005012 0.002447 0.002233 0.001459 0.019535 0.001673
# 6 0.005694 0.003961 -0.008914 0.009228 0.001673 0.037136
#
#
# Mechanical properties :
#
#
# Convention : Reuss Voigt Hill
#
# Bulk Modulus (GPa) = 52.49670 74.93121 63.71396
# Shear Modulus (GPa) = 33.41692 44.80126 39.10909
#
# Velocity S-wave (km/s) = 3.77003 4.36523 4.07850
# Velocity P-wave (km/s) = 6.42488 7.56817 7.01984
#
# Compressibility (1/GPa) = 0.01904882
#
# Stress axis : x y z
#
# Youngs Moduli (GPa) = 60.53941 107.91634 67.45472
#
# Poissons Ratio (x) = 0.13814 0.36531
# Poissons Ratio (y) = 0.07749 0.27552
# Poissons Ratio (z) = 0.32786 0.44079
#
# Static dielectric constant tensor:
#      x y z
#    x 2.023970 0.049640 0.065240 
#    y 0.049640 1.830960 0.002210 
#    z 0.065240 0.002210 1.881880 
# 
# From -- ./inp_files/547534.got.cif
#   From: 2010.05.17/outbox.cif.g08.bks.cpg/sg2_274_cif.got.tgz:547534.got - 2010.06.03 11:33:40.
