data_PCOD9025100
_publ_section_title
;
Structure prediction by ZEFSAII (Michael W. Deem and Ramdas Pophale) SiO2 
 PCOD9025100
Probable space group: P -1
;
_chemical_formula_sum "Si O2"
_cell_formula_units_Z 10
_cell_length_a 9.229886
_cell_length_b 10.029135
_cell_length_c 14.132437
_cell_angle_alpha 40.388167
_cell_angle_beta 151.528313
_cell_angle_gamma 129.686680
_cell_volume 402.070038
_symmetry_space_group_name_H-M "P -1"
_symmetry_group_IT_number 2
_symmetry_cell_setting 'triclinic'
loop_
_space_group_symop_operation_xyz
x,y,z
-x,-y,-z
loop_
_atom_site_type_symbol
_atom_site_label
_atom_site_fract_x
_atom_site_fract_y
_atom_site_fract_z
Si Si1 0.740204 0.536196 0.537376
Si Si2 0.731801 0.019128 0.537989
Si Si3 0.124615 0.684264 0.824580
Si Si4 0.672560 0.785203 0.184159
Si Si5 0.303048 0.322463 0.022028
O O1 0.500000 0.500000 0.500000
O O2 0.619630 0.613960 0.325493
O O3 0.934531 0.712649 0.601294
O O4 0.986110 0.335246 0.776251
O O5 0.514983 0.119284 0.275784
O O6 0.973352 0.177118 0.626824
O O7 0.500000 0.000000 0.500000
O O8 0.922811 0.812630 0.718048
O O9 0.471164 0.743536 0.999927
O O10 0.171259 0.432890 0.986210
O O11 0.500000 0.000000 0.000000
O O12 0.500000 0.500000 0.000000
#
# Coordination Sequence:
#
# PCOD9025100 Si02
#       5
#     2   2   2   2   2
#     4  10  23  42  67  92 129 166 212 263 316 377
#     4  11  23  41  64  99 127 164 220 259 307 389
#     4   9  24  43  67  90 132 170 204 266 328 357
#     4  10  22  40  67  93 127 169 209 261 318 377
#     4  10  22  43  66  91 128 164 216 261 311 382
#
# _framework density 24.871286999999999
#
# number of rings (size 3 to 8) (size 9 to 14) (size 15 to 20)
#    1.200    0.800    2.000    0.000    5.600   11.200 
#    3.600    1.000    0.000    0.000    0.000    0.000 
#    0.000    0.000    0.000    0.000    0.000    0.000 
#
# Total GULP energy -55675.539665 kJ/mol
# GULP energy per Si atom -5567.553966 kJ/mol
# Density = 2.481468 g / cm^3
# Si number density = 24.871287 Si / 1000 Ang^3
#
#
#
# Elastic Constant Matrix: (Units=GPa)
#
#
# Indices 1 2 3 4 5 6 
#
# 1 98.7003 19.7934 37.5748 0.9563 14.6901 17.0561
# 2 19.7934 35.1675 16.6994 8.9992 -3.0483 -13.1540
# 3 37.5748 16.6994 149.3825 4.6890 9.5185 20.7282
# 4 0.9563 8.9992 4.6890 28.1760 -8.2749 0.3602
# 5 14.6901 -3.0483 9.5185 -8.2749 49.6955 5.9566
# 6 17.0561 -13.1540 20.7282 0.3602 5.9566 52.2399
#
#
#
# Elastic Compliance Matrix: (Units=1/GPa)
#
#
# Indices 1 2 3 4 5 6 
#
# 1 0.014442 -0.010785 -0.001371 0.002233 -0.003517 -0.006501
# 2 -0.010785 0.046600 -0.004595 -0.013172 0.002713 0.016860
# 3 -0.001371 -0.004595 0.008150 -0.000085 -0.000993 -0.003830
# 4 0.002233 -0.013172 -0.000085 0.041478 0.006053 -0.004988
# 5 -0.003517 0.002713 -0.000993 0.006053 0.022573 -0.000390
# 6 -0.006501 0.016860 -0.003830 -0.004988 -0.000390 0.027109
#
#
# Mechanical properties :
#
#
# Convention : Reuss Voigt Hill
#
# Bulk Modulus (GPa) = 28.02014 47.93172 37.97593
# Shear Modulus (GPa) = 24.30121 39.96778 32.13450
#
# Velocity S-wave (km/s) = 3.12922 4.01307 3.59838
# Velocity P-wave (km/s) = 4.93422 6.38645 5.70672
#
# Compressibility (1/GPa) = 0.03568861
#
# Stress axis : x y z
#
# Youngs Moduli (GPa) = 69.24378 21.45926 122.69866
#
# Poissons Ratio (x) = 0.23145 0.16819
# Poissons Ratio (y) = 0.74682 0.56385
# Poissons Ratio (z) = 0.09492 0.09861
#
# Static dielectric constant tensor:
#      x y z
#    x 2.239210 0.090920 -0.073250 
#    y 0.090920 2.148490 -0.035920 
#    z -0.073250 -0.035920 2.095530 
# 
# From -- ./inp_files/145498.got.cif
#   From: 2010.05.17/outbox.cif.g08.bks.cpg/sg2_73_cif.got.tgz:145498.got - 2010.06.03 11:33:40.
