data_PCOD9025037
_publ_section_title
;
Structure prediction by ZEFSAII (Michael W. Deem and Ramdas Pophale) SiO2 
 PCOD9025037
Probable space group: P -1
;
_chemical_formula_sum "Si O2"
_cell_formula_units_Z 14
_cell_length_a 5.296254
_cell_length_b 16.115875
_cell_length_c 25.557873
_cell_angle_alpha 19.346987
_cell_angle_beta 121.491693
_cell_angle_gamma 119.818138
_cell_volume 616.177453
_symmetry_space_group_name_H-M "P -1"
_symmetry_group_IT_number 2
_symmetry_cell_setting 'triclinic'
loop_
_space_group_symop_operation_xyz
x,y,z
-x,-y,-z
loop_
_atom_site_type_symbol
_atom_site_label
_atom_site_fract_x
_atom_site_fract_y
_atom_site_fract_z
Si Si1 0.104563 0.582870 0.388084
Si Si2 0.484132 0.128120 0.679976
Si Si3 0.701802 0.847136 0.572855
Si Si4 0.803719 0.981942 0.937166
Si Si5 0.054364 0.751354 0.888614
Si Si6 0.833768 0.287734 0.955827
Si Si7 0.377484 0.799436 0.456747
O O1 0.289204 0.332908 0.566340
O O2 0.183287 0.771009 0.332300
O O3 0.781720 0.469521 0.410230
O O4 0.211213 0.743003 0.254382
O O5 0.401497 0.156435 0.593833
O O6 0.385284 0.860372 0.849232
O O7 0.773390 0.577006 0.764850
O O8 0.522459 0.807779 0.523337
O O9 0.500000 0.000000 0.500000
O O10 0.000000 0.000000 0.500000
O O11 0.479729 0.865808 0.983310
O O12 0.973425 0.821971 0.005919
O O13 0.000000 0.000000 0.000000
O O14 0.022615 0.719989 0.965988
O O15 0.841317 0.966023 0.715098
O O16 0.000000 0.500000 0.000000
#
# Coordination Sequence:
#
# PCOD9025037 Si02
#       7
#     2   2   2   2   2   2   2
#     4  10  22  40  67 102 144 180 238 292 367 429
#     4  10  22  41  68 102 137 187 236 297 363 438
#     4  12  29  51  76 103 148 197 250 301 360 440
#     4  12  26  44  73 106 149 192 240 299 374 441
#     4  11  25  44  71 105 146 189 248 309 370 429
#     4  12  27  48  72 110 148 189 247 306 368 432
#     4  11  25  42  74 100 142 191 247 292 372 436
#
# _framework density 22.720725000000002
#
# number of rings (size 3 to 8) (size 9 to 14) (size 15 to 20)
#    0.000    0.857    1.429    4.286   10.000    0.571 
#    0.000    0.000    0.000    0.000    0.000    0.000 
#    0.000    0.000    0.000    0.000    0.000    0.000 
#
# Total GULP energy -78289.272037 kJ/mol
# GULP energy per Si atom -5592.090860 kJ/mol
# Density = 2.266901 g / cm^3
# Si number density = 22.720725 Si / 1000 Ang^3
#
#
#
# Elastic Constant Matrix: (Units=GPa)
#
#
# Indices 1 2 3 4 5 6 
#
# 1 122.8210 51.3078 42.0827 -11.1143 -11.0779 -9.7399
# 2 51.3078 173.5455 61.3295 0.2405 -8.7443 -13.6409
# 3 42.0827 61.3295 152.3602 -9.5514 -15.8190 4.8437
# 4 -11.1143 0.2405 -9.5514 42.1933 -5.1701 0.7036
# 5 -11.0779 -8.7443 -15.8190 -5.1701 34.0503 -0.5850
# 6 -9.7399 -13.6409 4.8437 0.7036 -0.5850 33.0324
#
#
#
# Elastic Compliance Matrix: (Units=1/GPa)
#
#
# Indices 1 2 3 4 5 6 
#
# 1 0.010239 -0.002149 -0.001619 0.002606 0.002463 0.002357
# 2 -0.002149 0.007550 -0.002630 -0.001268 -0.000125 0.002894
# 3 -0.001619 -0.002630 0.008597 0.001954 0.003040 -0.002812
# 4 0.002606 -0.001268 0.001954 0.025493 0.005292 -0.000491
# 5 0.002463 -0.000125 0.003040 0.005292 0.032365 0.000689
# 6 0.002357 0.002894 -0.002812 -0.000491 0.000689 0.032599
#
#
# Mechanical properties :
#
#
# Convention : Reuss Voigt Hill
#
# Bulk Modulus (GPa) = 73.58447 84.24073 78.91260
# Shear Modulus (GPa) = 37.26638 41.45565 39.36101
#
# Velocity S-wave (km/s) = 4.05432 4.27614 4.16671
# Velocity P-wave (km/s) = 7.37384 7.84459 7.61285
#
# Compressibility (1/GPa) = 0.01358982
#
# Stress axis : x y z
#
# Youngs Moduli (GPa) = 97.66233 132.45063 116.32397
#
# Poissons Ratio (x) = 0.28468 0.18831
# Poissons Ratio (y) = 0.20991 0.30592
# Poissons Ratio (z) = 0.15810 0.34834
#
# Static dielectric constant tensor:
#      x y z
#    x 1.954970 0.028540 0.024320 
#    y 0.028540 1.851630 0.020620 
#    z 0.024320 0.020620 1.835110 
# 
# From -- ./inp_files/85372.got.cif
#   From: 2010.05.17/outbox.cif.g08.bks.cpg/sg2_43_cif.got.tgz:85372.got - 2010.06.03 11:33:40.
