data_PCOD9025681
_publ_section_title
;
Structure prediction by ZEFSAII (Michael W. Deem and Ramdas Pophale) SiO2 
 PCOD9025681
Probable space group: P -1
;
_chemical_formula_sum "Si O2"
_cell_formula_units_Z 16
_cell_length_a 16.317844
_cell_length_b 14.283170
_cell_length_c 5.216755
_cell_angle_alpha 54.788332
_cell_angle_beta 94.960012
_cell_angle_gamma 128.183899
_cell_volume 708.488965
_symmetry_space_group_name_H-M "P -1"
_symmetry_group_IT_number 2
_symmetry_cell_setting 'triclinic'
loop_
_space_group_symop_operation_xyz
x,y,z
-x,-y,-z
loop_
_atom_site_type_symbol
_atom_site_label
_atom_site_fract_x
_atom_site_fract_y
_atom_site_fract_z
Si Si1 0.772246 0.287364 0.133721
Si Si2 0.502136 0.632812 0.192516
Si Si3 0.252022 0.406948 0.664692
Si Si4 0.632854 0.101625 0.909964
Si Si5 0.873822 0.145521 0.416411
Si Si6 0.136979 0.385351 0.175552
Si Si7 0.299544 0.072928 0.892076
Si Si8 0.293788 0.213222 0.280816
O O1 0.693963 0.182737 0.525420
O O2 0.851593 0.253893 0.152472
O O3 0.692923 0.228565 0.956262
O O4 0.843946 0.468734 0.939739
O O5 0.500000 0.500000 0.500000
O O6 0.375922 0.556140 0.334875
O O7 0.595111 0.805268 0.078369
O O8 0.569193 0.682216 0.864383
O O9 0.169399 0.337477 0.505007
O O10 0.212455 0.442027 0.847511
O O11 0.263714 0.294719 0.984925
O O12 0.500000 0.000000 0.000000
O O13 0.652818 0.986977 0.165976
O O14 0.005373 0.240028 0.290312
O O15 0.790821 0.972156 0.533076
O O16 0.821439 0.088349 0.778209
O O17 0.277011 0.182832 0.625147
#
# Coordination Sequence:
#
# PCOD9025681 Si02
#       8
#     2   2   2   2   2   2   2   2
#     4  11  24  46  68  98 132 179 228 269 339 403
#     4   9  22  40  64  96 131 176 220 268 332 407
#     4  11  28  43  66 105 137 178 222 275 352 392
#     4  11  24  41  67 104 134 172 216 282 342 397
#     4  10  24  46  68  98 127 183 238 272 332 395
#     4  12  28  45  68  98 142 178 222 290 330 397
#     4  10  22  40  70  96 132 178 228 276 331 406
#     4  10  22  44  71  95 134 181 228 277 326 416
#
# _framework density 22.583276000000001
#
# number of rings (size 3 to 8) (size 9 to 14) (size 15 to 20)
#    0.000    1.500    1.250    1.500   12.250    2.000 
#    0.000    3.125    0.000    0.000    0.000    0.000 
#    0.000    0.000    0.000    0.000    0.000    0.000 
#
# Total GULP energy -89134.358803 kJ/mol
# GULP energy per Si atom -5570.897425 kJ/mol
# Density = 2.253188 g / cm^3
# Si number density = 22.583276 Si / 1000 Ang^3
#
#
#
# Elastic Constant Matrix: (Units=GPa)
#
#
# Indices 1 2 3 4 5 6 
#
# 1 86.6016 33.3430 31.2392 -5.4894 -0.7084 13.2439
# 2 33.3430 80.1035 12.4117 -1.6344 -13.1757 4.0811
# 3 31.2392 12.4117 57.6256 -2.8986 11.4842 10.7069
# 4 -5.4894 -1.6344 -2.8986 36.7594 3.8168 3.7480
# 5 -0.7084 -13.1757 11.4842 3.8168 25.9678 -2.7006
# 6 13.2439 4.0811 10.7069 3.7480 -2.7006 34.5640
#
#
#
# Elastic Compliance Matrix: (Units=1/GPa)
#
#
# Indices 1 2 3 4 5 6 
#
# 1 0.017086 -0.005753 -0.007202 0.002120 0.000019 -0.003865
# 2 -0.005753 0.016886 -0.003029 -0.001624 0.010210 0.002123
# 3 -0.007202 -0.003029 0.026124 0.003000 -0.014396 -0.006425
# 4 0.002120 -0.001624 0.003000 0.028933 -0.006889 -0.005225
# 5 0.000019 0.010210 -0.014396 -0.006889 0.051906 0.008049
# 6 -0.003865 0.002123 -0.006425 -0.005225 0.008049 0.033348
#
#
# Mechanical properties :
#
#
# Convention : Reuss Voigt Hill
#
# Bulk Modulus (GPa) = 35.55287 42.03539 38.79413
# Shear Modulus (GPa) = 23.18835 29.28069 26.23452
#
# Velocity S-wave (km/s) = 3.20784 3.60469 3.41204
# Velocity P-wave (km/s) = 5.43116 5.99825 5.72173
#
# Compressibility (1/GPa) = 0.02812712
#
# Stress axis : x y z
#
# Youngs Moduli (GPa) = 58.52902 59.22137 38.27937
#
# Poissons Ratio (x) = 0.34068 0.27570
# Poissons Ratio (y) = 0.33670 0.11595
# Poissons Ratio (z) = 0.42154 0.17939
#
# Static dielectric constant tensor:
#      x y z
#    x 1.932690 -0.084640 0.013570 
#    y -0.084640 1.938760 0.143680 
#    z 0.013570 0.143680 2.001580 
# 
# From -- ./inp_files/68680.got.cif
#   From: 2010.05.17/outbox.cif.g08.bks.cpg/sg2_35_cif.got.tgz:68680.got - 2010.06.03 11:33:40.
