data_PCOD9025403
_publ_section_title
;
Structure prediction by ZEFSAII (Michael W. Deem and Ramdas Pophale) SiO2 
 PCOD9025403
Probable space group: P -1
;
_chemical_formula_sum "Si O2"
_cell_formula_units_Z 11
_cell_length_a 9.483449
_cell_length_b 15.151416
_cell_length_c 6.544883
_cell_angle_alpha 65.345668
_cell_angle_beta 132.776410
_cell_angle_gamma 142.414053
_cell_volume 405.357524
_symmetry_space_group_name_H-M "P -1"
_symmetry_group_IT_number 2
_symmetry_cell_setting 'triclinic'
loop_
_space_group_symop_operation_xyz
x,y,z
-x,-y,-z
loop_
_atom_site_type_symbol
_atom_site_label
_atom_site_fract_x
_atom_site_fract_y
_atom_site_fract_z
Si Si1 0.313982 0.274811 0.739998
Si Si2 0.469705 0.010210 0.225346
Si Si3 0.499887 0.170855 0.803818
Si Si4 0.825258 0.726289 0.954214
Si Si5 0.976448 0.570246 0.231764
Si Si6 0.500000 0.500000 0.500000
O O1 0.279957 0.167985 0.672261
O O2 0.210310 0.335004 0.481856
O O3 0.249050 0.241430 0.947290
O O4 0.673934 0.441928 0.920429
O O5 0.597981 0.964131 0.283364
O O6 0.500000 0.000000 0.500000
O O7 0.112680 0.880410 0.977234
O O8 0.602058 0.160586 0.126303
O O9 0.747849 0.313897 0.763554
O O10 0.555995 0.596161 0.665315
O O11 0.931342 0.659859 0.192643
O O12 0.000000 0.500000 0.500000
#
# Coordination Sequence:
#
# PCOD9025403 Si02
#       6
#     2   2   2   2   2   1
#     4  11  24  39  67 102 136 174 227 285 349 397
#     4  10  24  47  69  93 139 182 234 281 333 413
#     4  10  24  41  65 103 128 184 231 273 347 399
#     4  10  24  43  67 101 133 184 221 281 348 398
#     4  10  22  40  68  98 137 177 228 280 339 408
#     4  10  22  42  64  96 146 166 218 278 340 408
#
# _framework density 27.136536
#
# number of rings (size 3 to 8) (size 9 to 14) (size 15 to 20)
#    0.000    1.818    0.000    2.727   10.182    6.545 
#    0.000    1.818    0.000    0.000    0.000    0.000 
#    0.000    0.000    0.000    0.000    0.000    0.000 
#
# Total GULP energy -61269.243797 kJ/mol
# GULP energy per Si atom -5569.931254 kJ/mol
# Density = 2.707477 g / cm^3
# Si number density = 27.136536 Si / 1000 Ang^3
#
#
#
# Elastic Constant Matrix: (Units=GPa)
#
#
# Indices 1 2 3 4 5 6 
#
# 1 188.8544 52.9003 40.6366 -9.4990 -27.3821 0.8338
# 2 52.9003 119.5693 51.5529 -27.0373 6.9195 11.4095
# 3 40.6366 51.5529 91.3706 -24.4420 -14.1837 14.7630
# 4 -9.4990 -27.0373 -24.4420 51.1467 1.2408 -5.9399
# 5 -27.3821 6.9195 -14.1837 1.2408 43.8103 -9.2050
# 6 0.8338 11.4095 14.7630 -5.9399 -9.2050 34.4223
#
#
#
# Elastic Compliance Matrix: (Units=1/GPa)
#
#
# Indices 1 2 3 4 5 6 
#
# 1 0.007219 -0.003480 -0.001085 -0.000830 0.005305 0.002719
# 2 -0.003480 0.014034 -0.005950 0.003721 -0.007112 -0.003275
# 3 -0.001085 -0.005950 0.017278 0.004404 0.005036 -0.003305
# 4 -0.000830 0.003721 0.004404 0.023580 -0.000154 0.000926
# 5 0.005305 -0.007112 0.005036 -0.000154 0.030629 0.008233
# 6 0.002719 -0.003275 -0.003305 0.000926 0.008233 0.033849
#
#
# Mechanical properties :
#
#
# Convention : Reuss Voigt Hill
#
# Bulk Modulus (GPa) = 57.14022 76.66378 66.90200
# Shear Modulus (GPa) = 32.58335 42.85617 37.71976
#
# Velocity S-wave (km/s) = 3.46890 3.97833 3.73231
# Velocity P-wave (km/s) = 6.09480 7.02960 6.57882
#
# Compressibility (1/GPa) = 0.01750081
#
# Stress axis : x y z
#
# Youngs Moduli (GPa) = 138.52660 71.25624 57.87809
#
# Poissons Ratio (x) = 0.24799 0.06279
# Poissons Ratio (y) = 0.48212 0.34435
# Poissons Ratio (z) = 0.15028 0.42395
#
# Static dielectric constant tensor:
#      x y z
#    x 2.095400 0.129940 -0.105480 
#    y 0.129940 2.051130 0.190780 
#    z -0.105480 0.190780 1.985450 
# 
# From -- ./inp_files/20931.got.cif
#   From: 2010.05.17/outbox.cif.g08.bks.cpg/sg2_11_cif.got.tgz:20931.got - 2010.06.03 11:33:40.
