data_PCOD9025514
_publ_section_title
;
Structure prediction by ZEFSAII (Michael W. Deem and Ramdas Pophale) SiO2 
 PCOD9025514
Probable space group: P -1
;
_chemical_formula_sum "Si O2"
_cell_formula_units_Z 16
_cell_length_a 14.560659
_cell_length_b 15.376322
_cell_length_c 8.413550
_cell_angle_alpha 74.262050
_cell_angle_beta 94.840354
_cell_angle_gamma 29.111589
_cell_volume 641.601296
_symmetry_space_group_name_H-M "P -1"
_symmetry_group_IT_number 2
_symmetry_cell_setting 'triclinic'
loop_
_space_group_symop_operation_xyz
x,y,z
-x,-y,-z
loop_
_atom_site_type_symbol
_atom_site_label
_atom_site_fract_x
_atom_site_fract_y
_atom_site_fract_z
Si Si1 0.491876 0.624682 0.605381
Si Si2 0.276918 0.397858 0.360145
Si Si3 0.813577 0.490749 0.079172
Si Si4 0.743363 0.018249 0.107914
Si Si5 0.769011 0.800168 0.084578
Si Si6 0.418870 0.646642 0.225131
Si Si7 0.996219 0.844804 0.549479
Si Si8 0.297221 0.129310 0.311682
O O1 0.682299 0.533357 0.634055
O O2 0.380764 0.696365 0.382966
O O3 0.651119 0.392304 0.808629
O O4 0.258687 0.866163 0.572211
O O5 0.554752 0.100051 0.585348
O O6 0.236313 0.437021 0.144702
O O7 0.061136 0.525822 0.336190
O O8 0.923349 0.289994 0.221546
O O9 0.549132 0.736819 0.008482
O O10 0.034088 0.351372 0.254459
O O11 0.904234 0.871262 0.368849
O O12 0.729660 0.133853 0.987062
O O13 0.787322 0.894398 0.055886
O O14 0.771173 0.768311 0.918521
O O15 0.500000 0.000000 0.000000
O O16 0.728191 0.365944 0.362593
O O17 0.500000 0.000000 0.500000
#
# Coordination Sequence:
#
# PCOD9025514 Si02
#       8
#     2   2   2   2   2   2   2   2
#     4  11  21  45  68  95 137 175 224 272 337 392
#     4  11  23  45  67  94 130 175 219 269 329 397
#     4  10  22  40  69  93 126 172 218 273 318 400
#     4  11  23  44  65  96 137 169 221 274 331 388
#     4  11  28  42  66  99 132 170 218 278 329 393
#     4  10  25  41  65 103 134 173 225 279 323 404
#     4  11  22  43  68  96 134 182 217 272 335 393
#     4  11  25  43  68  94 126 174 222 264 333 398
#
# _framework density 24.937605999999999
#
# number of rings (size 3 to 8) (size 9 to 14) (size 15 to 20)
#    0.000    1.250    2.500    1.875    7.000    3.000 
#    2.250    1.875    0.000    0.000    0.000    0.000 
#    0.000    0.000    0.000    0.000    0.000    0.000 
#
# Total GULP energy -89232.695850 kJ/mol
# GULP energy per Si atom -5577.043491 kJ/mol
# Density = 2.488085 g / cm^3
# Si number density = 24.937606 Si / 1000 Ang^3
#
#
#
# Elastic Constant Matrix: (Units=GPa)
#
#
# Indices 1 2 3 4 5 6 
#
# 1 109.9436 22.6582 12.4681 -15.5650 5.5396 5.7686
# 2 22.6582 78.1957 2.2847 2.8773 2.5163 1.1220
# 3 12.4681 2.2847 52.0726 -3.8201 0.7233 0.8871
# 4 -15.5650 2.8773 -3.8201 26.4984 -6.6601 9.3042
# 5 5.5396 2.5163 0.7233 -6.6601 36.2313 -1.3834
# 6 5.7686 1.1220 0.8871 9.3042 -1.3834 41.0620
#
#
#
# Elastic Compliance Matrix: (Units=1/GPa)
#
#
# Indices 1 2 3 4 5 6 
#
# 1 0.011314 -0.003460 -0.001925 0.007847 -0.000132 -0.003236
# 2 -0.003460 0.013972 -0.000095 -0.004218 -0.001176 0.001023
# 3 -0.001925 -0.000095 0.019823 0.002013 0.000252 -0.000603
# 4 0.007847 -0.004218 0.002013 0.049202 0.007642 -0.011922
# 5 -0.000132 -0.001176 0.000252 0.007642 0.029075 -0.000707
# 6 -0.003236 0.001023 -0.000603 -0.011922 -0.000707 0.027471
#
#
# Mechanical properties :
#
#
# Convention : Reuss Voigt Hill
#
# Bulk Modulus (GPa) = 29.28254 35.00379 32.14317
# Shear Modulus (GPa) = 28.86811 34.27838 31.57325
#
# Velocity S-wave (km/s) = 3.40606 3.71154 3.56208
# Velocity P-wave (km/s) = 5.21883 5.69512 5.46217
#
# Compressibility (1/GPa) = 0.03415004
#
# Stress axis : x y z
#
# Youngs Moduli (GPa) = 88.38319 71.57047 50.44554
#
# Poissons Ratio (x) = 0.24766 0.09709
# Poissons Ratio (y) = 0.30583 0.00479
# Poissons Ratio (z) = 0.17010 0.00680
#
# Static dielectric constant tensor:
#      x y z
#    x 2.097160 0.023230 -0.044520 
#    y 0.023230 2.106030 -0.134890 
#    z -0.044520 -0.134890 1.998840 
# 
# From -- ./inp_files/48430.got.cif
#   From: 2010.05.17/outbox.cif.g08.bks.cpg/sg2_25_cif.got.tgz:48430.got - 2010.06.03 11:33:40.
