data_PCOD9025822
_publ_section_title
;
Structure prediction by ZEFSAII (Michael W. Deem and Ramdas Pophale) SiO2 
 PCOD9025822
Probable space group: P -1
;
_chemical_formula_sum "Si O2"
_cell_formula_units_Z 15
_cell_length_a 22.075824
_cell_length_b 8.755347
_cell_length_c 28.056339
_cell_angle_alpha 42.558667
_cell_angle_beta 169.775114
_cell_angle_gamma 137.610178
_cell_volume 646.809833
_symmetry_space_group_name_H-M "P -1"
_symmetry_group_IT_number 2
_symmetry_cell_setting 'triclinic'
loop_
_space_group_symop_operation_xyz
x,y,z
-x,-y,-z
loop_
_atom_site_type_symbol
_atom_site_label
_atom_site_fract_x
_atom_site_fract_y
_atom_site_fract_z
Si Si1 0.331123 0.095106 0.023186
Si Si2 0.500000 0.500000 0.000000
Si Si3 0.378580 0.744424 0.594183
Si Si4 0.642596 0.029824 0.819838
Si Si5 0.912217 0.649734 0.667873
Si Si6 0.420076 0.265077 0.770323
Si Si7 0.296376 0.864762 0.831222
Si Si8 0.619041 0.770481 0.667201
O O1 0.952758 0.128040 0.702637
O O2 0.548581 0.323767 0.121728
O O3 0.327555 0.088138 0.078981
O O4 0.451779 0.868302 0.145578
O O5 0.494564 0.282839 0.007511
O O6 0.246884 0.488648 0.569738
O O7 0.570930 0.745245 0.692679
O O8 0.615647 0.866163 0.790987
O O9 0.291253 0.142451 0.522438
O O10 0.976299 0.214250 0.032871
O O11 0.637581 0.429702 0.508273
O O12 0.027112 0.696102 0.691425
O O13 0.242925 0.645982 0.958161
O O14 0.203342 0.075441 0.678556
O O15 0.500000 0.000000 0.000000
O O16 0.500000 0.000000 0.500000
#
# Coordination Sequence:
#
# PCOD9025822 Si02
#       8
#     2   1   2   2   2   2   2   2
#     4  11  24  46  67 107 141 186 243 296 362 432
#     4  10  22  40  72 104 146 192 242 298 362 434
#     4  12  25  46  73 101 145 187 241 300 365 428
#     4  12  26  45  72 103 143 189 243 298 362 429
#     4  11  23  45  71 104 144 188 239 301 360 432
#     4  10  23  45  71 104 145 185 237 300 359 438
#     4   9  21  40  70 107 145 190 243 295 365 439
#     4  12  25  45  70 101 140 188 245 299 360 431
#
# _framework density 23.190740999999999
#
# number of rings (size 3 to 8) (size 9 to 14) (size 15 to 20)
#    0.000    1.067    2.667    3.200    3.733    1.067 
#    0.000    6.667    0.000    0.000    0.000    0.000 
#    0.000    0.000    0.000    0.000    0.000    0.000 
#
# Total GULP energy -83684.006981 kJ/mol
# GULP energy per Si atom -5578.933799 kJ/mol
# Density = 2.313796 g / cm^3
# Si number density = 23.190741 Si / 1000 Ang^3
#
#
#
# Elastic Constant Matrix: (Units=GPa)
#
#
# Indices 1 2 3 4 5 6 
#
# 1 132.5066 34.1443 17.8712 6.1316 -29.2250 1.8248
# 2 34.1443 104.5951 3.3511 8.0827 -23.3641 1.6721
# 3 17.8712 3.3511 73.4183 14.7041 -30.9740 -10.4585
# 4 6.1316 8.0827 14.7041 17.1492 -6.1399 -3.9545
# 5 -29.2250 -23.3641 -30.9740 -6.1399 41.8239 5.6365
# 6 1.8248 1.6721 -10.4585 -3.9545 5.6365 35.4983
#
#
#
# Elastic Compliance Matrix: (Units=1/GPa)
#
#
# Indices 1 2 3 4 5 6 
#
# 1 0.009278 -0.001641 0.000275 -0.001014 0.005804 -0.001353
# 2 -0.001641 0.012298 0.004397 -0.006317 0.008215 -0.001208
# 3 0.000275 0.004397 0.024600 -0.016219 0.018171 0.002334
# 4 -0.001014 -0.006317 -0.016219 0.074537 -0.005956 0.004820
# 5 0.005804 0.008215 0.018171 -0.005956 0.045573 -0.003231
# 6 -0.001353 -0.001208 0.002334 0.004820 -0.003231 0.030035
#
#
# Mechanical properties :
#
#
# Convention : Reuss Voigt Hill
#
# Bulk Modulus (GPa) = 19.14292 46.80591 32.97442
# Shear Modulus (GPa) = 24.07653 35.90452 29.99052
#
# Velocity S-wave (km/s) = 3.22560 3.93902 3.60003
# Velocity P-wave (km/s) = 4.70586 6.39646 5.61515
#
# Compressibility (1/GPa) = 0.05223862
#
# Stress axis : x y z
#
# Youngs Moduli (GPa) = 107.77966 81.31363 40.65054
#
# Poissons Ratio (x) = 0.13345 -0.01119
# Poissons Ratio (y) = 0.17689 -0.17874
# Poissons Ratio (z) = -0.02968 -0.35754
#
# Static dielectric constant tensor:
#      x y z
#    x 1.890790 0.039740 -0.133370 
#    y 0.039740 1.902030 -0.105980 
#    z -0.133370 -0.105980 1.867770 
# 
# From -- ./inp_files/624127.got.cif
#   From: 2010.05.17/outbox.cif.g08.bks.cpg/sg2_313_cif.got.tgz:624127.got - 2010.06.03 11:33:40.
