data_PCOD9025954
_publ_section_title
;
Structure prediction by ZEFSAII (Michael W. Deem and Ramdas Pophale) SiO2 
 PCOD9025954
Probable space group: P -1
;
_chemical_formula_sum "Si O2"
_cell_formula_units_Z 16
_cell_length_a 14.942788
_cell_length_b 6.442499
_cell_length_c 16.454055
_cell_angle_alpha 127.250071
_cell_angle_beta 142.537744
_cell_angle_gamma 66.486710
_cell_volume 755.972060
_symmetry_space_group_name_H-M "P -1"
_symmetry_group_IT_number 2
_symmetry_cell_setting 'triclinic'
loop_
_space_group_symop_operation_xyz
x,y,z
-x,-y,-z
loop_
_atom_site_type_symbol
_atom_site_label
_atom_site_fract_x
_atom_site_fract_y
_atom_site_fract_z
Si Si1 0.984931 0.068279 0.326218
Si Si2 0.456193 0.787719 0.532715
Si Si3 0.716019 0.188897 0.257820
Si Si4 0.804395 0.479109 0.024573
Si Si5 0.947161 0.754392 0.764352
Si Si6 0.739002 0.165031 0.749824
Si Si7 0.755166 0.187094 0.477503
Si Si8 0.463805 0.399689 0.041224
O O1 0.877134 0.212690 0.337699
O O2 0.022149 0.213452 0.302117
O O3 0.892576 0.775824 0.170791
O O4 0.132325 0.012624 0.465605
O O5 0.500000 0.500000 0.500000
O O6 0.321032 0.778558 0.368800
O O7 0.396475 0.875734 0.595996
O O8 0.598521 0.986175 0.650057
O O9 0.729843 0.198993 0.366585
O O10 0.616201 0.391190 0.197689
O O11 0.626059 0.898695 0.102474
O O12 0.904003 0.280795 0.089006
O O13 0.783178 0.415073 0.899140
O O14 0.648591 0.452618 0.954178
O O15 0.832295 0.482042 0.629714
O O16 0.872190 0.998631 0.797434
O O17 0.500000 0.500000 0.000000
#
# Coordination Sequence:
#
# PCOD9025954 Si02
#       8
#     2   2   2   2   2   2   2   2
#     4  10  22  43  60  91 126 156 203 254 292 367
#     4  11  24  41  61  90 127 155 206 255 294 363
#     4  10  23  39  64  90 122 159 202 248 306 356
#     4  10  24  39  63  90 121 159 205 248 302 357
#     4  11  22  41  62  89 126 159 205 245 299 363
#     4  11  24  41  63  91 121 165 203 245 307 359
#     4  11  23  40  64  92 122 162 200 252 304 356
#     4  10  22  41  59  92 123 156 204 250 297 366
#
# _framework density 21.164802000000002
#
# number of rings (size 3 to 8) (size 9 to 14) (size 15 to 20)
#    0.000    1.500    2.500    1.500    3.500    3.000 
#    0.000    0.000    0.000    0.000    0.000    0.000 
#    0.000    0.000    0.000    0.000    0.000    0.000 
#
# Total GULP energy -89510.995581 kJ/mol
# GULP energy per Si atom -5594.437224 kJ/mol
# Density = 2.111663 g / cm^3
# Si number density = 21.164802 Si / 1000 Ang^3
#
#
#
# Elastic Constant Matrix: (Units=GPa)
#
#
# Indices 1 2 3 4 5 6 
#
# 1 148.7925 28.1910 23.5285 -14.6259 -3.4797 -9.7157
# 2 28.1910 60.4842 17.1797 -17.1879 17.0573 -8.2745
# 3 23.5285 17.1797 56.5757 -8.9524 -9.9720 -12.9573
# 4 -14.6259 -17.1879 -8.9524 20.8524 -0.1849 -0.0055
# 5 -3.4797 17.0573 -9.9720 -0.1849 28.5754 -5.4609
# 6 -9.7157 -8.2745 -12.9573 -0.0055 -5.4609 42.1402
#
#
#
# Elastic Compliance Matrix: (Units=1/GPa)
#
#
# Indices 1 2 3 4 5 6 
#
# 1 0.007903 -0.003314 -0.001150 0.002343 0.002779 0.001178
# 2 -0.003314 0.033366 -0.009678 0.020814 -0.023610 -0.000245
# 3 -0.001150 -0.009678 0.026222 0.002621 0.016336 0.008015
# 4 0.002343 0.020814 0.002621 0.067794 -0.009993 0.004147
# 5 0.002779 -0.023610 0.016336 -0.009993 0.056663 0.008370
# 6 0.001178 -0.000245 0.008015 0.004147 0.008370 0.027503
#
#
# Mechanical properties :
#
#
# Convention : Reuss Voigt Hill
#
# Bulk Modulus (GPa) = 25.50473 44.85006 35.17740
# Shear Modulus (GPa) = 19.17157 31.44382 25.30770
#
# Velocity S-wave (km/s) = 3.01296 3.85861 3.46171
# Velocity P-wave (km/s) = 4.91737 6.41005 5.71268
#
# Compressibility (1/GPa) = 0.03920841
#
# Stress axis : x y z
#
# Youngs Moduli (GPa) = 126.54011 29.97054 38.13560
#
# Poissons Ratio (x) = 0.09931 0.04385
# Poissons Ratio (y) = 0.41929 0.36907
# Poissons Ratio (z) = 0.14550 0.29005
#
# Static dielectric constant tensor:
#      x y z
#    x 1.725570 -0.007950 0.019240 
#    y -0.007950 1.738790 0.023790 
#    z 0.019240 0.023790 1.763670 
# 
# From -- ./inp_files/70774.got.cif
#   From: 2010.05.17/outbox.cif.g08.bks.cpg/sg2_36_cif.got.tgz:70774.got - 2010.06.03 11:33:40.
