data_PCOD9025583
_publ_section_title
;
Structure prediction by ZEFSAII (Michael W. Deem and Ramdas Pophale) SiO2 
 PCOD9025583
Probable space group: P -1
;
_chemical_formula_sum "Si O2"
_cell_formula_units_Z 14
_cell_length_a 7.942045
_cell_length_b 9.551626
_cell_length_c 10.185912
_cell_angle_alpha 66.585317
_cell_angle_beta 68.086414
_cell_angle_gamma 103.435832
_cell_volume 588.414883
_symmetry_space_group_name_H-M "P -1"
_symmetry_group_IT_number 2
_symmetry_cell_setting 'triclinic'
loop_
_space_group_symop_operation_xyz
x,y,z
-x,-y,-z
loop_
_atom_site_type_symbol
_atom_site_label
_atom_site_fract_x
_atom_site_fract_y
_atom_site_fract_z
Si Si1 0.346570 0.342206 0.018355
Si Si2 0.963337 0.017158 0.310497
Si Si3 0.424100 0.718271 0.249901
Si Si4 0.696213 0.086163 0.138751
Si Si5 0.347709 0.491318 0.694706
Si Si6 0.445775 0.138403 0.395661
Si Si7 0.951319 0.274430 0.737677
O O1 0.500000 0.500000 0.000000
O O2 0.472128 0.262314 0.930759
O O3 0.264906 0.415670 0.893909
O O4 0.163164 0.195081 0.203022
O O5 0.845451 0.055326 0.208498
O O6 0.797736 0.950462 0.499669
O O7 0.012938 0.864154 0.306961
O O8 0.523216 0.900629 0.220047
O O9 0.500454 0.593235 0.344310
O O10 0.188142 0.657325 0.322974
O O11 0.576971 0.179233 0.209690
O O12 0.821978 0.175410 0.940255
O O13 0.471655 0.691861 0.604641
O O14 0.158922 0.419426 0.679941
O O15 0.500000 0.000000 0.500000
#
# Coordination Sequence:
#
# PCOD9025583 Si02
#       7
#     2   2   2   2   2   2   2
#     4  10  22  40  69  99 136 168 232 279 323 393
#     4  11  21  44  67 103 133 186 215 277 344 395
#     4  10  23  38  70 105 127 171 235 279 317 396
#     4  11  20  43  67 102 134 179 222 280 329 404
#     4  10  23  45  67 100 135 180 217 288 326 394
#     4  10  26  42  69  96 142 179 218 271 355 398
#     4  12  21  39  78  99 130 178 236 268 332 396
#
# _framework density 23.792736999999999
#
# number of rings (size 3 to 8) (size 9 to 14) (size 15 to 20)
#    0.857    0.571    4.286    0.857    2.000    3.429 
#    0.000    3.571    0.000    0.000    0.000    0.000 
#    0.000    0.000    0.000    0.000    0.000    0.000 
#
# Total GULP energy -78340.001803 kJ/mol
# GULP energy per Si atom -5595.714415 kJ/mol
# Density = 2.373858 g / cm^3
# Si number density = 23.792737 Si / 1000 Ang^3
#
#
#
# Elastic Constant Matrix: (Units=GPa)
#
#
# Indices 1 2 3 4 5 6 
#
# 1 173.0617 56.2559 38.2020 -18.2304 -22.1154 7.1897
# 2 56.2559 148.9515 25.0304 -15.2056 -30.4024 8.8754
# 3 38.2020 25.0304 105.9634 -2.5904 -19.4928 -5.8254
# 4 -18.2304 -15.2056 -2.5904 41.5090 4.3393 -13.2092
# 5 -22.1154 -30.4024 -19.4928 4.3393 43.9960 0.2372
# 6 7.1897 8.8754 -5.8254 -13.2092 0.2372 41.0734
#
#
#
# Elastic Compliance Matrix: (Units=1/GPa)
#
#
# Indices 1 2 3 4 5 6 
#
# 1 0.007216 -0.001910 -0.001892 0.002073 0.001267 -0.000459
# 2 -0.001910 0.008698 -0.000535 0.001449 0.004677 -0.001182
# 3 -0.001892 -0.000535 0.011005 -0.000088 0.003553 0.001959
# 4 0.002073 0.001449 -0.000088 0.028292 -0.000832 0.008415
# 5 0.001267 0.004677 0.003553 -0.000832 0.028261 -0.001159
# 6 -0.000459 -0.001182 0.001959 0.008415 -0.001159 0.027673
#
#
# Mechanical properties :
#
#
# Convention : Reuss Voigt Hill
#
# Bulk Modulus (GPa) = 54.81009 74.10590 64.45799
# Shear Modulus (GPa) = 39.71419 45.88158 42.79788
#
# Velocity S-wave (km/s) = 4.08998 4.39610 4.24580
# Velocity P-wave (km/s) = 6.73724 7.54862 7.15444
#
# Compressibility (1/GPa) = 0.01824482
#
# Stress axis : x y z
#
# Youngs Moduli (GPa) = 138.57882 114.97244 90.86899
#
# Poissons Ratio (x) = 0.21957 0.17191
# Poissons Ratio (y) = 0.26466 0.04864
# Poissons Ratio (z) = 0.26217 0.06154
#
# Static dielectric constant tensor:
#      x y z
#    x 1.918610 0.007210 0.081020 
#    y 0.007210 1.825270 0.071680 
#    z 0.081020 0.071680 2.068250 
# 
# From -- ./inp_files/378187.got.cif
#   From: 2010.05.17/outbox.cif.g08.bks.cpg/sg2_190_cif.got.tgz:378187.got - 2010.06.03 11:33:40.
