data_PCOD9025366
_publ_section_title
;
Structure prediction by ZEFSAII (Michael W. Deem and Ramdas Pophale) SiO2 
 PCOD9025366
Probable space group: P -1
;
_chemical_formula_sum "Si O2"
_cell_formula_units_Z 10
_cell_length_a 13.672307
_cell_length_b 9.124840
_cell_length_c 5.104525
_cell_angle_alpha 118.858472
_cell_angle_beta 86.760105
_cell_angle_gamma 52.913112
_cell_volume 385.961650
_symmetry_space_group_name_H-M "P -1"
_symmetry_group_IT_number 2
_symmetry_cell_setting 'triclinic'
loop_
_space_group_symop_operation_xyz
x,y,z
-x,-y,-z
loop_
_atom_site_type_symbol
_atom_site_label
_atom_site_fract_x
_atom_site_fract_y
_atom_site_fract_z
Si Si1 0.322818 0.528623 0.580426
Si Si2 0.658170 0.853100 0.759434
Si Si3 0.905364 0.668917 0.910908
Si Si4 0.590808 0.280029 0.001885
Si Si5 0.088418 0.944928 0.686589
O O1 0.485224 0.355975 0.320202
O O2 0.293766 0.728475 0.929447
O O3 0.232261 0.662983 0.448766
O O4 0.291884 0.385246 0.577747
O O5 0.755772 0.775393 0.928133
O O6 0.656435 0.016783 0.709780
O O7 0.500000 0.000000 0.000000
O O8 0.000000 0.500000 0.500000
O O9 0.883170 0.893644 0.153249
O O10 0.000000 0.500000 0.000000
O O11 0.500000 0.500000 0.000000
O O12 0.000000 0.000000 0.500000
O O13 0.000000 0.000000 0.000000
#
# Coordination Sequence:
#
# PCOD9025366 Si02
#       5
#     2   2   2   2   2
#     4  10  22  42  63  96 137 175 233 288 352 418
#     4  10  22  46  67 103 142 185 235 296 359 426
#     4  12  26  49  74 108 147 193 243 299 365 438
#     4  10  22  40  68  96 131 181 233 289 352 421
#     4  12  26  45  73 104 141 190 240 296 358 432
#
# _framework density 25.909310999999999
#
# number of rings (size 3 to 8) (size 9 to 14) (size 15 to 20)
#    0.000    1.200    2.000    3.600    2.800    2.400 
#    7.200    0.000    0.000    0.000    0.000    0.000 
#    0.000    0.000    0.000    0.000    0.000    0.000 
#
# Total GULP energy -55897.300965 kJ/mol
# GULP energy per Si atom -5589.730097 kJ/mol
# Density = 2.585034 g / cm^3
# Si number density = 25.909311 Si / 1000 Ang^3
#
#
#
# Elastic Constant Matrix: (Units=GPa)
#
#
# Indices 1 2 3 4 5 6 
#
# 1 193.9590 93.4937 53.9598 3.5457 50.5086 9.4222
# 2 93.4937 197.4981 36.9210 -9.7393 41.7911 22.0577
# 3 53.9598 36.9210 88.1651 -16.8626 23.4884 7.3998
# 4 3.5457 -9.7393 -16.8626 44.4041 9.5746 18.3568
# 5 50.5086 41.7911 23.4884 9.5746 53.2429 19.9448
# 6 9.4222 22.0577 7.3998 18.3568 19.9448 81.3748
#
#
#
# Elastic Compliance Matrix: (Units=1/GPa)
#
#
# Indices 1 2 3 4 5 6 
#
# 1 0.008635 -0.002744 -0.003455 -0.002299 -0.004752 0.001741
# 2 -0.002744 0.007352 0.000236 0.003302 -0.003250 -0.001645
# 3 -0.003455 0.000236 0.016450 0.008408 -0.004989 -0.001834
# 4 -0.002299 0.003302 0.008408 0.030903 -0.007206 -0.006599
# 5 -0.004752 -0.003250 -0.004989 -0.007206 0.030855 -0.004052
# 6 0.001741 -0.001645 -0.001834 -0.006599 -0.004052 0.015182
#
#
# Mechanical properties :
#
#
# Convention : Reuss Voigt Hill
#
# Bulk Modulus (GPa) = 48.75780 94.26348 71.51064
# Shear Modulus (GPa) = 39.01986 55.48753 47.25369
#
# Velocity S-wave (km/s) = 3.88495 4.63277 4.27524
# Velocity P-wave (km/s) = 6.24366 8.06708 7.21322
#
# Compressibility (1/GPa) = 0.02050954
#
# Stress axis : x y z
#
# Youngs Moduli (GPa) = 115.81387 136.01040 60.79145
#
# Poissons Ratio (x) = 0.37320 0.21006
# Poissons Ratio (y) = 0.31778 -0.01433
# Poissons Ratio (z) = 0.40018 -0.03206
#
# Static dielectric constant tensor:
#      x y z
#    x 1.989960 0.018020 -0.060160 
#    y 0.018020 2.107910 0.063990 
#    z -0.060160 0.063990 2.281250 
# 
# From -- ./inp_files/58011.got.cif
#   From: 2010.05.17/outbox.cif.g08.bks.cpg/sg2_30_cif.got.tgz:58011.got - 2010.06.03 11:33:40.
