data_PCOD9025402
_publ_section_title
;
Structure prediction by ZEFSAII (Michael W. Deem and Ramdas Pophale) SiO2 
 PCOD9025402
Probable space group: P -1
;
_chemical_formula_sum "Si O2"
_cell_formula_units_Z 15
_cell_length_a 9.360156
_cell_length_b 12.880427
_cell_length_c 9.173634
_cell_angle_alpha 114.330262
_cell_angle_beta 43.204690
_cell_angle_gamma 117.400275
_cell_volume 666.877002
_symmetry_space_group_name_H-M "P -1"
_symmetry_group_IT_number 2
_symmetry_cell_setting 'triclinic'
loop_
_space_group_symop_operation_xyz
x,y,z
-x,-y,-z
loop_
_atom_site_type_symbol
_atom_site_label
_atom_site_fract_x
_atom_site_fract_y
_atom_site_fract_z
Si Si1 0.769354 0.920999 0.581655
Si Si2 0.169089 0.602144 0.850762
Si Si3 0.204765 0.497934 0.446662
Si Si4 0.412582 0.293532 0.210358
Si Si5 0.692533 0.080968 0.495920
Si Si6 0.499685 0.292709 0.805310
Si Si7 0.923441 0.802739 0.128281
Si Si8 0.000000 0.000000 0.000000
O O1 0.659895 0.837515 0.745807
O O2 0.805090 0.830755 0.376666
O O3 0.666445 0.016413 0.634888
O O4 0.000000 0.000000 0.500000
O O5 0.195897 0.561401 0.643475
O O6 0.393595 0.636191 0.789973
O O7 0.000000 0.500000 0.000000
O O8 0.057314 0.709065 0.995206
O O9 0.231290 0.367510 0.383820
O O10 0.411559 0.578006 0.253633
O O11 0.000000 0.500000 0.500000
O O12 0.486007 0.294016 0.989409
O O13 0.659469 0.211176 0.599493
O O14 0.500000 0.000000 0.500000
O O15 0.903355 0.067329 0.247051
O O16 0.266163 0.231067 0.873042
O O17 0.080873 0.919456 0.013553
#
# Coordination Sequence:
#
# PCOD9025402 Si02
#       8
#     2   2   2   2   2   2   2   1
#     4  11  27  44  68 100 149 184 232 294 360 425
#     4  12  25  45  73 101 141 181 232 301 369 419
#     4  12  26  47  74  99 139 188 243 292 358 435
#     4  12  28  45  69 107 143 183 236 303 364 420
#     4  11  24  45  72 103 142 186 248 283 356 425
#     4  12  25  45  73 102 140 186 245 292 353 436
#     4  11  24  43  70 100 137 184 241 283 357 426
#     4  10  22  40  68  98 136 180 236 278 338 412
#
# _framework density 22.492903999999999
#
# number of rings (size 3 to 8) (size 9 to 14) (size 15 to 20)
#    0.000    0.533    2.667    5.600    9.333    0.533 
#    0.000    0.000    0.000    0.000    0.000    0.000 
#    0.000    0.000    0.000    0.000    0.000    0.000 
#
# Total GULP energy -83672.803729 kJ/mol
# GULP energy per Si atom -5578.186915 kJ/mol
# Density = 2.244171 g / cm^3
# Si number density = 22.492904 Si / 1000 Ang^3
#
#
#
# Elastic Constant Matrix: (Units=GPa)
#
#
# Indices 1 2 3 4 5 6 
#
# 1 147.0388 21.4086 14.3165 -1.8268 7.9788 5.5972
# 2 21.4086 56.8585 -4.5996 -14.4588 -3.7542 -17.5794
# 3 14.3165 -4.5996 51.3529 -8.6521 16.1281 2.8127
# 4 -1.8268 -14.4588 -8.6521 40.8154 -16.6276 0.2322
# 5 7.9788 -3.7542 16.1281 -16.6276 44.3704 10.3861
# 6 5.5972 -17.5794 2.8127 0.2322 10.3861 50.5166
#
#
#
# Elastic Compliance Matrix: (Units=1/GPa)
#
#
# Indices 1 2 3 4 5 6 
#
# 1 0.007795 -0.004396 -0.002438 -0.002226 -0.001256 -0.001989
# 2 -0.004396 0.025114 0.003692 0.010970 0.003766 0.008196
# 3 -0.002438 0.003692 0.023082 0.003320 -0.006781 0.001649
# 4 -0.002226 0.010970 0.003320 0.034139 0.012653 0.001121
# 5 -0.001256 0.003766 -0.006781 0.012653 0.031385 -0.004684
# 6 -0.001989 0.008196 0.001649 0.001121 -0.004684 0.023734
#
#
# Mechanical properties :
#
#
# Convention : Reuss Voigt Hill
#
# Bulk Modulus (GPa) = 20.11882 35.27791 27.69836
# Shear Modulus (GPa) = 29.74384 42.08215 35.91300
#
# Velocity S-wave (km/s) = 3.64038 4.33009 4.00013
# Velocity P-wave (km/s) = 5.16079 6.38104 5.80308
#
# Compressibility (1/GPa) = 0.04970472
#
# Stress axis : x y z
#
# Youngs Moduli (GPa) = 128.29390 39.81901 43.32329
#
# Poissons Ratio (x) = 0.17504 0.10564
# Poissons Ratio (y) = 0.56398 -0.15993
# Poissons Ratio (z) = 0.31284 -0.14699
#
# Static dielectric constant tensor:
#      x y z
#    x 1.984970 0.175940 -0.003430 
#    y 0.175940 2.033420 -0.025660 
#    z -0.003430 -0.025660 1.833210 
# 
# From -- ./inp_files/189735.got.cif
#   From: 2010.05.17/outbox.cif.g08.bks.cpg/sg2_95_cif.got.tgz:189735.got - 2010.06.03 11:33:40.
