data_PCOD9025056
_publ_section_title
;
Structure prediction by ZEFSAII (Michael W. Deem and Ramdas Pophale) SiO2 
 PCOD9025056
Probable space group: P -1
;
_chemical_formula_sum "Si O2"
_cell_formula_units_Z 16
_cell_length_a 29.250370
_cell_length_b 6.065500
_cell_length_c 26.587247
_cell_angle_alpha 57.193526
_cell_angle_beta 9.911659
_cell_angle_gamma 58.199189
_cell_volume 681.701563
_symmetry_space_group_name_H-M "P -1"
_symmetry_group_IT_number 2
_symmetry_cell_setting 'triclinic'
loop_
_space_group_symop_operation_xyz
x,y,z
-x,-y,-z
loop_
_atom_site_type_symbol
_atom_site_label
_atom_site_fract_x
_atom_site_fract_y
_atom_site_fract_z
Si Si1 0.123727 0.085510 0.932473
Si Si2 0.676984 0.980194 0.711938
Si Si3 0.551335 0.699718 0.225889
Si Si4 0.491466 0.509515 0.211775
Si Si5 0.055961 0.817884 0.411417
Si Si6 0.925886 0.152430 0.783698
Si Si7 0.645991 0.764735 0.431055
Si Si8 0.888103 0.940875 0.306298
O O1 0.223048 0.303649 0.756813
O O2 0.389727 0.929305 0.674737
O O3 0.881859 0.923160 0.186318
O O4 0.015807 0.115997 0.102129
O O5 0.866431 0.935348 0.559498
O O6 0.814096 0.849236 0.531183
O O7 0.656768 0.293991 0.686933
O O8 0.375208 0.864868 0.055893
O O9 0.619602 0.680345 0.096126
O O10 0.472660 0.461953 0.376990
O O11 0.298755 0.879393 0.481340
O O12 0.803146 0.857897 0.955462
O O13 0.304404 0.302676 0.472199
O O14 0.714650 0.342202 0.964969
O O15 0.000000 0.500000 0.500000
O O16 0.000000 0.000000 0.500000
O O17 0.937015 0.206878 0.824523
#
# Coordination Sequence:
#
# PCOD9025056 Si02
#       8
#     2   2   2   2   2   2   2   2
#     4  10  22  41  62  96 124 194 248 313 376 458
#     4  12  28  52  84 120 157 208 261 305 385 460
#     4  11  23  43  62 104 141 196 243 316 384 455
#     4  11  25  45  71 107 155 196 242 320 380 451
#     4  12  31  59  89 123 168 214 263 322 381 458
#     4  11  27  43  71 114 153 193 252 312 385 457
#     4  10  22  40  67  86 134 186 255 307 382 453
#     4  11  24  39  68 100 146 188 251 310 388 452
#
# _framework density 23.470682
#
# number of rings (size 3 to 8) (size 9 to 14) (size 15 to 20)
#    0.000    1.000    2.500    2.250   12.250    0.500 
#    0.000    0.625    0.000    0.000    0.000    0.000 
#    0.000    0.000    0.000    0.000    0.000    0.000 
#
# Total GULP energy -89165.755420 kJ/mol
# GULP energy per Si atom -5572.859714 kJ/mol
# Density = 2.341726 g / cm^3
# Si number density = 23.470682 Si / 1000 Ang^3
#
#
#
# Elastic Constant Matrix: (Units=GPa)
#
#
# Indices 1 2 3 4 5 6 
#
# 1 144.5278 42.8960 65.6922 11.6662 -2.6424 -16.2094
# 2 42.8960 80.9835 33.7252 0.3185 7.9158 -21.0947
# 3 65.6922 33.7252 155.3853 -1.3549 4.5904 -2.3256
# 4 11.6662 0.3185 -1.3549 23.4098 -1.0638 -6.6683
# 5 -2.6424 7.9158 4.5904 -1.0638 40.3703 6.6044
# 6 -16.2094 -21.0947 -2.3256 -6.6683 6.6044 32.7217
#
#
#
# Elastic Compliance Matrix: (Units=1/GPa)
#
#
# Indices 1 2 3 4 5 6 
#
# 1 0.010198 -0.003765 -0.003565 -0.004862 0.001507 0.001076
# 2 -0.003765 0.018968 -0.002134 0.004746 -0.005612 0.012311
# 3 -0.003565 -0.002134 0.008400 0.001668 -0.000378 -0.002128
# 4 -0.004862 0.004746 0.001668 0.048214 -0.001966 0.010992
# 5 0.001507 -0.005612 -0.000378 -0.001966 0.027405 -0.008830
# 6 0.001076 0.012311 -0.002128 0.010992 -0.008830 0.042902
#
#
# Mechanical properties :
#
#
# Convention : Reuss Voigt Hill
#
# Bulk Modulus (GPa) = 53.65335 73.94704 63.80020
# Shear Modulus (GPa) = 27.58992 35.20590 31.39791
#
# Velocity S-wave (km/s) = 3.43228 3.87718 3.66149
# Velocity P-wave (km/s) = 6.21424 7.18456 6.71694
#
# Compressibility (1/GPa) = 0.01863816
#
# Stress axis : x y z
#
# Youngs Moduli (GPa) = 98.06289 52.72126 119.05170
#
# Poissons Ratio (x) = 0.19848 0.42441
# Poissons Ratio (y) = 0.36918 0.25402
# Poissons Ratio (z) = 0.34958 0.11249
#
# Static dielectric constant tensor:
#      x y z
#    x 1.963630 0.008800 -0.023920 
#    y 0.008800 1.940340 0.028050 
#    z -0.023920 0.028050 1.909050 
# 
# From -- ./inp_files/13335.got.cif
#   From: 2010.05.17/outbox.cif.g08.bks.cpg/sg2_7_cif.got.tgz:13335.got - 2010.06.03 11:33:40.
