data_PCOD9025357
_publ_section_title
;
Structure prediction by ZEFSAII (Michael W. Deem and Ramdas Pophale) SiO2 
 PCOD9025357
Probable space group: P -1
;
_chemical_formula_sum "Si O2"
_cell_formula_units_Z 12
_cell_length_a 9.385933
_cell_length_b 20.496650
_cell_length_c 5.326180
_cell_angle_alpha 112.549266
_cell_angle_beta 124.213573
_cell_angle_gamma 38.181524
_cell_volume 520.341155
_symmetry_space_group_name_H-M "P -1"
_symmetry_group_IT_number 2
_symmetry_cell_setting 'triclinic'
loop_
_space_group_symop_operation_xyz
x,y,z
-x,-y,-z
loop_
_atom_site_type_symbol
_atom_site_label
_atom_site_fract_x
_atom_site_fract_y
_atom_site_fract_z
Si Si1 0.810906 0.866192 0.366618
Si Si2 0.261575 0.733772 0.949819
Si Si3 0.248815 0.471774 0.126436
Si Si4 0.327983 0.593400 0.166917
Si Si5 0.438588 0.110597 0.332444
Si Si6 0.128979 0.927034 0.270179
O O1 0.691751 0.872065 0.513323
O O2 0.111451 0.777365 0.599066
O O3 0.681715 0.981565 0.360514
O O4 0.719067 0.848445 0.017349
O O5 0.567613 0.629084 0.036440
O O6 0.186879 0.692327 0.995612
O O7 0.137839 0.840353 0.117877
O O8 0.172224 0.575389 0.111244
O O9 0.462735 0.429884 0.485578
O O10 0.000000 0.500000 0.000000
O O11 0.500000 0.500000 0.000000
O O12 0.569138 0.145795 0.536660
O O13 0.000000 0.000000 0.500000
O O14 0.000000 0.000000 0.000000
#
# Coordination Sequence:
#
# PCOD9025357 Si02
#       6
#     2   2   2   2   2   2
#     4  10  22  40  68  95 139 189 245 297 354 426
#     4  11  25  43  72 105 145 199 243 305 379 443
#     4  10  23  49  78 106 144 187 246 319 386 454
#     4   9  22  46  72 105 144 184 242 316 386 441
#     4  10  22  42  63  97 139 195 242 294 352 422
#     4  12  26  44  69 103 154 197 249 305 357 437
#
# _framework density 23.061790999999999
#
# number of rings (size 3 to 8) (size 9 to 14) (size 15 to 20)
#    0.000    1.667    1.667    1.000    9.333    2.667 
#   12.000    0.000    0.000    0.000    0.000    0.000 
#    0.000    0.000    0.000    0.000    0.000    0.000 
#
# Total GULP energy -66922.842756 kJ/mol
# GULP energy per Si atom -5576.903563 kJ/mol
# Density = 2.300930 g / cm^3
# Si number density = 23.061791 Si / 1000 Ang^3
#
#
#
# Elastic Constant Matrix: (Units=GPa)
#
#
# Indices 1 2 3 4 5 6 
#
# 1 117.4737 60.3520 51.0675 7.8763 14.2452 6.5667
# 2 60.3520 153.3502 56.7189 -1.6370 -7.5866 13.7717
# 3 51.0675 56.7189 118.9820 13.6087 -15.0778 10.0276
# 4 7.8763 -1.6370 13.6087 24.8559 1.2974 -0.7512
# 5 14.2452 -7.5866 -15.0778 1.2974 37.6518 -2.5567
# 6 6.5667 13.7717 10.0276 -0.7512 -2.5567 38.4806
#
#
#
# Elastic Compliance Matrix: (Units=1/GPa)
#
#
# Indices 1 2 3 4 5 6 
#
# 1 0.013729 -0.004026 -0.004770 -0.001599 -0.007875 -0.000213
# 2 -0.004026 0.009404 -0.002707 0.003214 0.002103 -0.001771
# 3 -0.004770 -0.002707 0.013454 -0.006429 0.006774 -0.001399
# 4 -0.001599 0.003214 -0.006429 0.044659 -0.002760 0.001486
# 5 -0.007875 0.002103 0.006774 -0.002760 0.032835 0.000954
# 6 -0.000213 -0.001771 -0.001399 0.001486 0.000954 0.027114
#
#
# Mechanical properties :
#
#
# Convention : Reuss Voigt Hill
#
# Bulk Modulus (GPa) = 73.63533 80.67586 77.15559
# Shear Modulus (GPa) = 29.63361 34.97550 32.30456
#
# Velocity S-wave (km/s) = 3.58853 3.89858 3.74676
# Velocity P-wave (km/s) = 7.01206 7.43799 7.22816
#
# Compressibility (1/GPa) = 0.01358044
#
# Stress axis : x y z
#
# Youngs Moduli (GPa) = 72.83972 106.33698 74.32849
#
# Poissons Ratio (x) = 0.42814 0.35456
# Poissons Ratio (y) = 0.29327 0.20118
# Poissons Ratio (z) = 0.34746 0.28782
#
# Static dielectric constant tensor:
#      x y z
#    x 1.881510 -0.052580 -0.056450 
#    y -0.052580 1.838350 -0.087680 
#    z -0.056450 -0.087680 1.801940 
# 
# From -- ./inp_files/45610.got.cif
#   From: 2010.05.17/outbox.cif.g08.bks.cpg/sg2_23_cif.got.tgz:45610.got - 2010.06.03 11:33:40.
