data_PCOD9025586
_publ_section_title
;
Structure prediction by ZEFSAII (Michael W. Deem and Ramdas Pophale) SiO2 
 PCOD9025586
Probable space group: P -1
;
_chemical_formula_sum "Si O2"
_cell_formula_units_Z 16
_cell_length_a 11.094110
_cell_length_b 9.022859
_cell_length_c 23.072939
_cell_angle_alpha 127.151940
_cell_angle_beta 158.206288
_cell_angle_gamma 53.744841
_cell_volume 679.776183
_symmetry_space_group_name_H-M "P -1"
_symmetry_group_IT_number 2
_symmetry_cell_setting 'triclinic'
loop_
_space_group_symop_operation_xyz
x,y,z
-x,-y,-z
loop_
_atom_site_type_symbol
_atom_site_label
_atom_site_fract_x
_atom_site_fract_y
_atom_site_fract_z
Si Si1 0.832371 0.225767 0.985300
Si Si2 0.247930 0.753558 0.778744
Si Si3 0.569358 0.444948 0.084591
Si Si4 0.283585 0.393685 0.560723
Si Si5 0.721477 0.960753 0.236949
Si Si6 0.430080 0.776768 0.666886
Si Si7 0.799201 0.343240 0.582595
Si Si8 0.689419 0.386573 0.844541
O O1 0.764392 0.450432 0.014978
O O2 0.752095 0.221318 0.880311
O O3 0.582343 0.140698 0.897204
O O4 0.203915 0.166681 0.151696
O O5 0.340254 0.750132 0.887389
O O6 0.360371 0.917349 0.827727
O O7 0.427124 0.553385 0.790048
O O8 0.876803 0.737661 0.587760
O O9 0.891473 0.545569 0.268779
O O10 0.500000 0.500000 0.000000
O O11 0.435233 0.560466 0.635202
O O12 0.551117 0.306863 0.704993
O O13 0.000000 0.500000 0.500000
O O14 0.776029 0.103853 0.347904
O O15 0.033253 0.807234 0.332037
O O16 0.294856 0.780358 0.542876
O O17 0.500000 0.500000 0.500000
O O18 0.000000 0.500000 0.000000
#
# Coordination Sequence:
#
# PCOD9025586 Si02
#       8
#     2   2   2   2   2   2   2   2
#     4  10  22  35  59  96 131 166 207 260 325 379
#     4  10  20  37  60  91 127 162 209 267 314 379
#     4  10  21  41  66  89 120 175 221 250 313 392
#     4  10  18  31  58  89 128 161 207 256 322 368
#     4  11  23  39  63  97 131 164 209 274 325 368
#     4  12  20  38  66  95 130 167 214 267 313 377
#     4  11  25  42  63  90 127 174 221 260 319 388
#     4  10  17  31  54  86 125 162 199 250 316 382
#
# _framework density 23.537158000000002
#
# number of rings (size 3 to 8) (size 9 to 14) (size 15 to 20)
#    0.000    1.500    5.000    1.500    1.750    1.000 
#    0.000    3.125    0.000    0.000    0.000    0.000 
#    0.000    0.000    0.000    0.000    0.000    0.000 
#
# Total GULP energy -89129.966196 kJ/mol
# GULP energy per Si atom -5570.622887 kJ/mol
# Density = 2.348359 g / cm^3
# Si number density = 23.537158 Si / 1000 Ang^3
#
#
#
# Elastic Constant Matrix: (Units=GPa)
#
#
# Indices 1 2 3 4 5 6 
#
# 1 73.1864 51.8560 45.2242 -20.3218 -17.7273 34.1189
# 2 51.8560 109.4400 46.9194 -16.1269 -5.6167 37.2977
# 3 45.2242 46.9194 118.1387 -18.0813 -10.4309 19.5594
# 4 -20.3218 -16.1269 -18.0813 31.5138 4.7826 -7.9267
# 5 -17.7273 -5.6167 -10.4309 4.7826 41.1717 -10.4933
# 6 34.1189 37.2977 19.5594 -7.9267 -10.4933 56.5502
#
#
#
# Elastic Compliance Matrix: (Units=1/GPa)
#
#
# Indices 1 2 3 4 5 6 
#
# 1 0.031017 -0.007508 -0.005217 0.009708 0.007537 -0.009198
# 2 -0.007508 0.015574 -0.002592 0.000788 -0.003215 -0.005332
# 3 -0.005217 -0.002592 0.011671 0.002248 0.000404 0.001211
# 4 0.009708 0.000788 0.002248 0.039285 -0.000133 -0.001673
# 5 0.007537 -0.003215 0.000404 -0.000133 0.027872 0.002587
# 6 -0.009198 -0.005332 0.001211 -0.001673 0.002587 0.026576
#
#
# Mechanical properties :
#
#
# Convention : Reuss Voigt Hill
#
# Bulk Modulus (GPa) = 36.19587 65.41825 50.80706
# Shear Modulus (GPa) = 26.06361 36.29819 31.18090
#
# Velocity S-wave (km/s) = 3.33128 3.93130 3.64366
# Velocity P-wave (km/s) = 5.49619 6.96138 6.27172
#
# Compressibility (1/GPa) = 0.02762746
#
# Stress axis : x y z
#
# Youngs Moduli (GPa) = 32.24081 64.20828 85.68538
#
# Poissons Ratio (x) = 0.48205 0.44706
# Poissons Ratio (y) = 0.24205 0.22209
# Poissons Ratio (z) = 0.16822 0.16642
#
# Static dielectric constant tensor:
#      x y z
#    x 2.059140 -0.008730 -0.109210 
#    y -0.008730 2.024220 -0.042840 
#    z -0.109210 -0.042840 2.053630 
# 
# From -- ./inp_files/610019.got.cif
#   From: 2010.05.17/outbox.cif.g08.bks.cpg/sg2_306_cif.got.tgz:610019.got - 2010.06.03 11:33:40.
