data_PCOD9025457
_publ_section_title
;
Structure prediction by ZEFSAII (Michael W. Deem and Ramdas Pophale) SiO2 
 PCOD9025457
Probable space group: P -1
;
_chemical_formula_sum "Si O2"
_cell_formula_units_Z 16
_cell_length_a 10.403864
_cell_length_b 16.620913
_cell_length_c 8.698414
_cell_angle_alpha 35.771191
_cell_angle_beta 119.821089
_cell_angle_gamma 102.105572
_cell_volume 704.944504
_symmetry_space_group_name_H-M "P -1"
_symmetry_group_IT_number 2
_symmetry_cell_setting 'triclinic'
loop_
_space_group_symop_operation_xyz
x,y,z
-x,-y,-z
loop_
_atom_site_type_symbol
_atom_site_label
_atom_site_fract_x
_atom_site_fract_y
_atom_site_fract_z
Si Si1 0.980240 0.570670 0.708507
Si Si2 0.658635 0.768994 0.057020
Si Si3 0.455254 0.169282 0.649599
Si Si4 0.924207 0.177605 0.168980
Si Si5 0.269818 0.951605 0.224912
Si Si6 0.046932 0.833413 0.449388
Si Si7 0.173250 0.291928 0.065997
Si Si8 0.449829 0.669564 0.272334
O O1 0.049395 0.699675 0.551416
O O2 0.795165 0.647666 0.430468
O O3 0.072680 0.455999 0.810439
O O4 0.000000 0.500000 0.000000
O O5 0.491689 0.759890 0.018525
O O6 0.666895 0.927268 0.855780
O O7 0.713353 0.726013 0.983081
O O8 0.284876 0.212914 0.398891
O O9 0.459723 0.287684 0.596757
O O10 0.585962 0.162220 0.609755
O O11 0.500000 0.000000 0.000000
O O12 0.940887 0.224387 0.281126
O O13 0.040815 0.222851 0.059604
O O14 0.736287 0.257220 0.902653
O O15 0.000000 0.000000 0.500000
O O16 0.187801 0.886508 0.405238
O O17 0.124104 0.035074 0.889955
O O18 0.500000 0.500000 0.500000
#
# Coordination Sequence:
#
# PCOD9025457 Si02
#       8
#     2   2   2   2   2   2   2   2
#     4  11  22  43  72 101 144 195 237 290 368 446
#     4  11  25  45  71 107 145 187 246 304 364 432
#     4  12  25  46  73 102 143 197 247 291 368 446
#     4  12  25  43  70 104 145 188 244 296 364 437
#     4  10  22  42  71 101 141 184 240 304 356 426
#     4  10  22  40  69 102 135 182 240 296 355 429
#     4  12  26  43  74 103 145 191 247 296 369 439
#     4  12  28  46  72 106 154 189 239 308 375 436
#
# _framework density 22.696821
#
# number of rings (size 3 to 8) (size 9 to 14) (size 15 to 20)
#    0.000    0.750    2.500    4.875    3.500    3.500 
#    0.000    1.250    0.000    0.000    0.000    0.000 
#    0.000    0.000    0.000    0.000    0.000    0.000 
#
# Total GULP energy -89512.822032 kJ/mol
# GULP energy per Si atom -5594.551377 kJ/mol
# Density = 2.264516 g / cm^3
# Si number density = 22.696821 Si / 1000 Ang^3
#
#
#
# Elastic Constant Matrix: (Units=GPa)
#
#
# Indices 1 2 3 4 5 6 
#
# 1 128.9716 32.3462 11.3392 -3.5163 11.8248 5.7272
# 2 32.3462 102.0986 30.1624 -6.1862 14.1667 -11.7318
# 3 11.3392 30.1624 64.9701 3.1576 11.7126 11.4444
# 4 -3.5163 -6.1862 3.1576 33.2129 -8.4961 4.9287
# 5 11.8248 14.1667 11.7126 -8.4961 25.2028 1.9360
# 6 5.7272 -11.7318 11.4444 4.9287 1.9360 38.1262
#
#
#
# Elastic Compliance Matrix: (Units=1/GPa)
#
#
# Indices 1 2 3 4 5 6 
#
# 1 0.008756 -0.002870 0.000680 -0.000011 -0.002641 -0.002267
# 2 -0.002870 0.013990 -0.006577 0.000990 -0.003647 0.006767
# 3 0.000680 -0.006577 0.021147 -0.003868 -0.007170 -0.007610
# 4 -0.000011 0.000990 -0.003868 0.034577 0.013185 -0.003672
# 5 -0.002641 -0.003647 -0.007170 0.013185 0.050964 -0.002866
# 6 -0.002267 0.006767 -0.007610 -0.003672 -0.002866 0.031556
#
#
# Mechanical properties :
#
#
# Convention : Reuss Voigt Hill
#
# Bulk Modulus (GPa) = 37.93544 49.30401 43.61973
# Shear Modulus (GPa) = 26.69357 34.12121 30.40739
#
# Velocity S-wave (km/s) = 3.43314 3.88151 3.66419
# Velocity P-wave (km/s) = 5.69786 6.46979 6.09605
#
# Compressibility (1/GPa) = 0.02636057
#
# Stress axis : x y z
#
# Youngs Moduli (GPa) = 114.20667 71.47848 47.28751
#
# Poissons Ratio (x) = 0.20512 -0.03215
# Poissons Ratio (y) = 0.32773 0.31100
# Poissons Ratio (z) = -0.07766 0.47010
#
# Static dielectric constant tensor:
#      x y z
#    x 1.865510 0.022680 0.033790 
#    y 0.022680 1.887900 0.027980 
#    z 0.033790 0.027980 1.917320 
# 
# From -- ./inp_files/216573.got.cif
#   From: 2010.05.17/outbox.cif.g08.bks.cpg/sg2_109_cif.got.tgz:216573.got - 2010.06.03 11:33:40.
