data_PCOD9025694
_publ_section_title
;
Structure prediction by ZEFSAII (Michael W. Deem and Ramdas Pophale) SiO2 
 PCOD9025694
Probable space group: P -1
;
_chemical_formula_sum "Si O2"
_cell_formula_units_Z 14
_cell_length_a 11.723801
_cell_length_b 8.514755
_cell_length_c 9.152259
_cell_angle_alpha 55.505259
_cell_angle_beta 80.080218
_cell_angle_gamma 109.471890
_cell_volume 628.633426
_symmetry_space_group_name_H-M "P -1"
_symmetry_group_IT_number 2
_symmetry_cell_setting 'triclinic'
loop_
_space_group_symop_operation_xyz
x,y,z
-x,-y,-z
loop_
_atom_site_type_symbol
_atom_site_label
_atom_site_fract_x
_atom_site_fract_y
_atom_site_fract_z
Si Si1 0.009429 0.704335 0.298248
Si Si2 0.796457 0.332921 0.354578
Si Si3 0.548466 0.249687 0.913253
Si Si4 0.638244 0.493222 0.473356
Si Si5 0.739801 0.811146 0.025527
Si Si6 0.770908 0.474240 0.986788
Si Si7 0.996448 0.788839 0.552071
O O1 0.000000 0.500000 0.500000
O O2 0.920380 0.584364 0.240963
O O3 0.947912 0.778138 0.401674
O O4 0.156482 0.921957 0.127863
O O5 0.664700 0.316249 0.470102
O O6 0.854160 0.182563 0.480918
O O7 0.781493 0.324486 0.189140
O O8 0.643931 0.427855 0.673049
O O9 0.632668 0.325872 0.003939
O O10 0.410050 0.249401 0.953870
O O11 0.500000 0.000000 0.000000
O O12 0.500000 0.500000 0.500000
O O13 0.732807 0.715814 0.239692
O O14 0.776138 0.677839 0.970104
O O15 0.892379 0.579053 0.786515
O O16 0.000000 0.000000 0.500000
#
# Coordination Sequence:
#
# PCOD9025694 Si02
#       7
#     2   2   2   2   2   2   2
#     4  10  22  40  70  97 133 176 225 275 338 404
#     4  10  23  41  68  94 143 169 223 273 342 397
#     4  11  25  41  70  95 128 180 233 280 335 402
#     4   9  21  43  65  96 132 174 229 276 328 403
#     4  10  22  44  67  95 134 177 227 278 340 394
#     4  11  23  43  62  96 138 176 221 279 337 406
#     4  11  22  40  66 102 137 172 224 277 339 402
#
# _framework density 22.270530999999998
#
# number of rings (size 3 to 8) (size 9 to 14) (size 15 to 20)
#    0.000    1.714    1.429    1.714    8.000    2.286 
#    2.571    7.143    0.000    0.000    0.000    0.000 
#    0.000    0.000    0.000    0.000    0.000    0.000 
#
# Total GULP energy -77966.232410 kJ/mol
# GULP energy per Si atom -5569.016601 kJ/mol
# Density = 2.221984 g / cm^3
# Si number density = 22.270531 Si / 1000 Ang^3
#
#
#
# Elastic Constant Matrix: (Units=GPa)
#
#
# Indices 1 2 3 4 5 6 
#
# 1 118.9782 27.8685 38.2247 2.4134 9.7954 -3.9218
# 2 27.8685 89.0611 28.2925 2.0968 14.8935 17.9566
# 3 38.2247 28.2925 117.7801 11.4745 5.2945 24.9183
# 4 2.4134 2.0968 11.4745 38.1537 4.2606 8.4916
# 5 9.7954 14.8935 5.2945 4.2606 37.8016 12.1627
# 6 -3.9218 17.9566 24.9183 8.4916 12.1627 41.4509
#
#
#
# Elastic Compliance Matrix: (Units=1/GPa)
#
#
# Indices 1 2 3 4 5 6 
#
# 1 0.010681 -0.002736 -0.003791 -0.000261 -0.002856 0.005366
# 2 -0.002736 0.014015 -0.001446 0.001260 -0.003216 -0.004775
# 3 -0.003791 -0.001446 0.011634 -0.001880 0.002401 -0.007045
# 4 -0.000261 0.001260 -0.001880 0.027957 -0.001826 -0.004632
# 5 -0.002856 -0.003216 0.002401 -0.001826 0.031265 -0.009120
# 6 0.005366 -0.004775 -0.007045 -0.004632 -0.009120 0.034562
#
#
# Mechanical properties :
#
#
# Convention : Reuss Voigt Hill
#
# Bulk Modulus (GPa) = 49.06071 57.17675 53.11873
# Shear Modulus (GPa) = 32.71092 38.91015 35.81054
#
# Velocity S-wave (km/s) = 3.83665 4.18444 4.01431
# Velocity P-wave (km/s) = 6.45784 7.00539 6.73718
#
# Compressibility (1/GPa) = 0.02038291
#
# Stress axis : x y z
#
# Youngs Moduli (GPa) = 93.62475 71.35305 85.95639
#
# Poissons Ratio (x) = 0.19524 0.32583
# Poissons Ratio (y) = 0.25618 0.12433
# Poissons Ratio (z) = 0.35490 0.10321
#
# Static dielectric constant tensor:
#      x y z
#    x 1.851620 -0.175720 -0.023810 
#    y -0.175720 1.536170 -0.012150 
#    z -0.023810 -0.012150 1.864220 
# 
# From -- ./inp_files/237129.got.cif
#   From: 2010.05.17/outbox.cif.g08.bks.cpg/sg2_119_cif.got.tgz:237129.got - 2010.06.03 11:33:40.
