data_PCOD9025521
_publ_section_title
;
Structure prediction by ZEFSAII (Michael W. Deem and Ramdas Pophale) SiO2 
 PCOD9025521
Probable space group: P -1
;
_chemical_formula_sum "Si O2"
_cell_formula_units_Z 16
_cell_length_a 8.977417
_cell_length_b 25.232315
_cell_length_c 8.521244
_cell_angle_alpha 47.933839
_cell_angle_beta 127.602254
_cell_angle_gamma 148.675382
_cell_volume 741.383241
_symmetry_space_group_name_H-M "P -1"
_symmetry_group_IT_number 2
_symmetry_cell_setting 'triclinic'
loop_
_space_group_symop_operation_xyz
x,y,z
-x,-y,-z
loop_
_atom_site_type_symbol
_atom_site_label
_atom_site_fract_x
_atom_site_fract_y
_atom_site_fract_z
Si Si1 0.038304 0.332983 0.657260
Si Si2 0.579900 0.949787 0.565229
Si Si3 0.186259 0.589132 0.726668
Si Si4 0.596373 0.245901 0.982335
Si Si5 0.163584 0.079160 0.794171
Si Si6 0.220346 0.460737 0.836337
Si Si7 0.465758 0.909989 0.204225
Si Si8 0.463053 0.627085 0.145728
O O1 0.161474 0.415405 0.714713
O O2 0.309036 0.370197 0.678126
O O3 0.816946 0.325813 0.449086
O O4 0.831849 0.208369 0.816232
O O5 0.462128 0.846304 0.787775
O O6 0.479041 0.911518 0.397979
O O7 0.500000 0.000000 0.500000
O O8 0.924741 0.051920 0.598397
O O9 0.245443 0.553918 0.687036
O O10 0.853089 0.481386 0.775608
O O11 0.402991 0.621345 0.933815
O O12 0.435802 0.198077 0.806345
O O13 0.459740 0.273445 0.932159
O O14 0.936205 0.356660 0.959206
O O15 0.282447 0.057023 0.791927
O O16 0.000000 0.000000 0.000000
O O17 0.500000 0.500000 0.000000
O O18 0.500000 0.000000 0.000000
#
# Coordination Sequence:
#
# PCOD9025521 Si02
#       8
#     2   2   2   2   2   2   2   2
#     4  12  24  41  69 100 133 179 231 279 349 411
#     4  11  25  44  69 101 133 177 237 288 347 416
#     4  10  22  43  64  98 134 176 232 278 337 415
#     4  10  22  44  67  99 136 181 226 280 354 410
#     4  10  22  44  69  92 136 174 223 286 345 403
#     4  11  22  44  67  97 142 182 222 287 343 409
#     4  12  26  45  69  99 137 176 231 285 347 418
#     4  10  22  40  69  93 137 177 221 284 342 405
#
# _framework density 21.581282999999999
#
# number of rings (size 3 to 8) (size 9 to 14) (size 15 to 20)
#    0.000    1.250    2.500    3.375    5.250    0.000 
#    6.750    0.000    0.000    0.000    0.000    0.000 
#    0.000    0.000    0.000    0.000    0.000    0.000 
#
# Total GULP energy -89285.083500 kJ/mol
# GULP energy per Si atom -5580.317719 kJ/mol
# Density = 2.153216 g / cm^3
# Si number density = 21.581283 Si / 1000 Ang^3
#
#
#
# Elastic Constant Matrix: (Units=GPa)
#
#
# Indices 1 2 3 4 5 6 
#
# 1 158.7040 35.3345 16.1718 1.9569 30.5690 -21.8481
# 2 35.3345 74.1863 20.3756 -0.6659 16.0925 -10.3332
# 3 16.1718 20.3756 39.3786 -4.9380 15.4025 -10.1835
# 4 1.9569 -0.6659 -4.9380 37.3091 -6.3279 7.3098
# 5 30.5690 16.0925 15.4025 -6.3279 38.3043 3.6170
# 6 -21.8481 -10.3332 -10.1835 7.3098 3.6170 44.1462
#
#
#
# Elastic Compliance Matrix: (Units=1/GPa)
#
#
# Indices 1 2 3 4 5 6 
#
# 1 0.008897 -0.002284 0.001587 -0.002646 -0.007717 0.005305
# 2 -0.002284 0.017292 -0.006398 -0.001353 -0.003275 0.001933
# 3 0.001587 -0.006398 0.035664 0.000536 -0.013637 0.008543
# 4 -0.002646 -0.001353 0.000536 0.029742 0.008047 -0.007086
# 5 -0.007717 -0.003275 -0.013637 0.008047 0.041632 -0.012475
# 6 0.005305 0.001933 0.008543 -0.007086 -0.012475 0.029896
#
#
# Mechanical properties :
#
#
# Convention : Reuss Voigt Hill
#
# Bulk Modulus (GPa) = 20.98112 46.22584 33.60348
# Shear Modulus (GPa) = 25.87958 37.31106 31.59532
#
# Velocity S-wave (km/s) = 3.46666 4.16247 3.83040
# Velocity P-wave (km/s) = 5.07608 6.67589 5.93018
#
# Compressibility (1/GPa) = 0.04766191
#
# Stress axis : x y z
#
# Youngs Moduli (GPa) = 112.39402 57.82859 28.03952
#
# Poissons Ratio (x) = 0.13210 -0.04449
# Poissons Ratio (y) = 0.25675 0.17940
# Poissons Ratio (z) = -0.17832 0.36999
#
# Static dielectric constant tensor:
#      x y z
#    x 1.740660 -0.007840 -0.018110 
#    y -0.007840 1.792940 -0.009980 
#    z -0.018110 -0.009980 1.836440 
# 
# From -- ./inp_files/135188.got.cif
#   From: 2010.05.17/outbox.cif.g08.bks.cpg/sg2_68_cif.got.tgz:135188.got - 2010.06.03 11:33:40.
