data_PCOD9025099
_publ_section_title
;
Structure prediction by ZEFSAII (Michael W. Deem and Ramdas Pophale) SiO2 
 PCOD9025099
Probable space group: P -1
;
_chemical_formula_sum "Si O2"
_cell_formula_units_Z 16
_cell_length_a 14.922571
_cell_length_b 15.520009
_cell_length_c 9.564553
_cell_angle_alpha 111.795745
_cell_angle_beta 88.326153
_cell_angle_gamma 151.038987
_cell_volume 750.294354
_symmetry_space_group_name_H-M "P -1"
_symmetry_group_IT_number 2
_symmetry_cell_setting 'triclinic'
loop_
_space_group_symop_operation_xyz
x,y,z
-x,-y,-z
loop_
_atom_site_type_symbol
_atom_site_label
_atom_site_fract_x
_atom_site_fract_y
_atom_site_fract_z
Si Si1 0.797917 0.381609 0.657887
Si Si2 0.528340 0.240562 0.359704
Si Si3 0.888848 0.121746 0.631324
Si Si4 0.641120 0.040021 0.049190
Si Si5 0.360760 0.452498 0.540894
Si Si6 0.663178 0.042336 0.382259
Si Si7 0.612540 0.488407 0.116720
Si Si8 0.201413 0.123381 0.703010
O O1 0.708693 0.348619 0.503004
O O2 0.765637 0.241548 0.544191
O O3 0.079797 0.678191 0.847220
O O4 0.607222 0.225640 0.695357
O O5 0.621828 0.435641 0.476979
O O6 0.270802 0.991314 0.304737
O O7 0.488169 0.163278 0.160144
O O8 0.839213 0.136790 0.505947
O O9 0.170522 0.377611 0.813074
O O10 0.789693 0.924287 0.471244
O O11 0.647274 0.023937 0.204509
O O12 0.500000 0.000000 0.000000
O O13 0.500000 0.500000 0.500000
O O14 0.479852 0.590361 0.768813
O O15 0.075925 0.154592 0.399316
O O16 0.729290 0.702238 0.206979
O O17 0.395771 0.264140 0.883355
#
# Coordination Sequence:
#
# PCOD9025099 Si02
#       8
#     2   2   2   2   2   2   2   2
#     4  10  24  47  65  98 136 178 220 276 336 402
#     4  11  25  43  65  98 132 173 223 271 334 396
#     4  10  22  42  66  92 132 173 218 273 330 392
#     4  12  26  43  69 100 136 177 224 282 331 396
#     4  11  23  40  65  95 135 173 213 276 329 387
#     4  10  23  45  69  96 136 177 222 277 338 393
#     4  10  22  40  67  93 126 172 225 266 332 398
#     4  10  22  41  64  95 126 175 218 272 329 394
#
# _framework density 21.324964000000001
#
# number of rings (size 3 to 8) (size 9 to 14) (size 15 to 20)
#    0.000    1.500    1.250    3.375    5.250    3.000 
#    2.250    0.000    0.000    0.000    0.000    0.000 
#    0.000    0.000    0.000    0.000    0.000    0.000 
#
# Total GULP energy -89504.304617 kJ/mol
# GULP energy per Si atom -5594.019039 kJ/mol
# Density = 2.127643 g / cm^3
# Si number density = 21.324964 Si / 1000 Ang^3
#
#
#
# Elastic Constant Matrix: (Units=GPa)
#
#
# Indices 1 2 3 4 5 6 
#
# 1 118.9482 24.6583 37.2433 7.0945 16.6107 -1.8770
# 2 24.6583 63.1679 22.7616 -2.5398 7.3383 -8.7043
# 3 37.2433 22.7616 81.6389 -1.9286 13.1444 9.1667
# 4 7.0945 -2.5398 -1.9286 27.2521 -3.8445 0.9228
# 5 16.6107 7.3383 13.1444 -3.8445 34.7937 1.6273
# 6 -1.8770 -8.7043 9.1667 0.9228 1.6273 33.9516
#
#
#
# Elastic Compliance Matrix: (Units=1/GPa)
#
#
# Indices 1 2 3 4 5 6 
#
# 1 0.010912 -0.002372 -0.003964 -0.003911 -0.003707 0.001349
# 2 -0.002372 0.019566 -0.004824 0.001710 -0.001273 0.006202
# 3 -0.003964 -0.004824 0.016561 0.001542 -0.002904 -0.005830
# 4 -0.003911 0.001710 0.001542 0.038777 0.005279 -0.001501
# 5 -0.003707 -0.001273 -0.002904 0.005279 0.032527 -0.001450
# 6 0.001349 0.006202 -0.005830 -0.001501 -0.001450 0.032803
#
#
# Mechanical properties :
#
#
# Convention : Reuss Voigt Hill
#
# Bulk Modulus (GPa) = 40.45417 48.12016 44.28717
# Shear Modulus (GPa) = 27.51707 31.13892 29.32799
#
# Velocity S-wave (km/s) = 3.59607 3.82541 3.71251
# Velocity P-wave (km/s) = 6.02111 6.49045 6.26018
#
# Compressibility (1/GPa) = 0.02471933
#
# Stress axis : x y z
#
# Youngs Moduli (GPa) = 91.64183 51.10806 60.38334
#
# Poissons Ratio (x) = 0.12123 0.23934
# Poissons Ratio (y) = 0.21738 0.29130
# Poissons Ratio (z) = 0.36324 0.24656
#
# Static dielectric constant tensor:
#      x y z
#    x 1.775510 -0.019010 -0.004970 
#    y -0.019010 1.786250 -0.008130 
#    z -0.004970 -0.008130 1.734270 
# 
# From -- ./inp_files/315643.got.cif
#   From: 2010.05.17/outbox.cif.g08.bks.cpg/sg2_158_cif.got.tgz:315643.got - 2010.06.03 11:33:40.
