data_PCOD9025674
_publ_section_title
;
Structure prediction by ZEFSAII (Michael W. Deem and Ramdas Pophale) SiO2 
 PCOD9025674
Probable space group: P -1
;
_chemical_formula_sum "Si O2"
_cell_formula_units_Z 16
_cell_length_a 5.192594
_cell_length_b 14.653179
_cell_length_c 9.720454
_cell_angle_alpha 112.919659
_cell_angle_beta 87.973216
_cell_angle_gamma 86.988350
_cell_volume 679.024041
_symmetry_space_group_name_H-M "P -1"
_symmetry_group_IT_number 2
_symmetry_cell_setting 'triclinic'
loop_
_space_group_symop_operation_xyz
x,y,z
-x,-y,-z
loop_
_atom_site_type_symbol
_atom_site_label
_atom_site_fract_x
_atom_site_fract_y
_atom_site_fract_z
Si Si1 0.573525 0.109161 0.020062
Si Si2 0.759125 0.019605 0.691455
Si Si3 0.632803 0.480021 0.630630
Si Si4 0.290650 0.899189 0.567090
Si Si5 0.116716 0.399050 0.102237
Si Si6 0.976743 0.291812 0.503209
Si Si7 0.039469 0.222827 0.164673
Si Si8 0.767187 0.607867 0.212450
O O1 0.304340 0.173992 0.069201
O O2 0.801973 0.152235 0.129990
O O3 0.500000 0.000000 0.000000
O O4 0.689995 0.096089 0.858189
O O5 0.554397 0.934732 0.643750
O O6 0.044409 0.966683 0.670226
O O7 0.722808 0.074208 0.578619
O O8 0.500000 0.500000 0.500000
O O9 0.687597 0.580155 0.766442
O O10 0.878137 0.405724 0.546973
O O11 0.480004 0.420907 0.714197
O O12 0.244250 0.784270 0.517942
O O13 0.953179 0.314099 0.118316
O O14 0.954903 0.505610 0.153761
O O15 0.250001 0.371376 0.937761
O O16 0.104866 0.255721 0.337336
O O17 0.127744 0.301317 0.649429
#
# Coordination Sequence:
#
# PCOD9025674 Si02
#       8
#     2   2   2   2   2   2   2   2
#     4  12  26  45  69  97 139 180 229 284 347 401
#     4  10  22  43  65  96 133 180 217 285 344 394
#     4  11  23  41  70  95 141 177 224 280 343 409
#     4  10  22  40  70  95 137 171 229 276 337 415
#     4  10  24  44  64 103 131 182 228 279 345 404
#     4  11  25  40  65 103 126 181 226 277 339 401
#     4  12  27  42  72 101 137 180 232 282 337 420
#     4  10  23  43  69  92 144 173 228 285 340 403
#
# _framework density 23.563231999999999
#
# number of rings (size 3 to 8) (size 9 to 14) (size 15 to 20)
#    0.000    1.250    0.000    4.500    8.750    3.000 
#    0.000    0.000    0.000    0.000    0.000    0.000 
#    0.000    0.000    0.000    0.000    0.000    0.000 
#
# Total GULP energy -89490.923043 kJ/mol
# GULP energy per Si atom -5593.182690 kJ/mol
# Density = 2.350960 g / cm^3
# Si number density = 23.563232 Si / 1000 Ang^3
#
#
#
# Elastic Constant Matrix: (Units=GPa)
#
#
# Indices 1 2 3 4 5 6 
#
# 1 68.7047 6.1053 50.4556 3.3988 -9.0372 6.4499
# 2 6.1053 72.8813 57.2496 -6.2506 7.1021 15.7119
# 3 50.4556 57.2496 126.2736 -0.4526 8.7629 19.1490
# 4 3.3988 -6.2506 -0.4526 27.5101 0.1469 5.1573
# 5 -9.0372 7.1021 8.7629 0.1469 30.9930 -1.0881
# 6 6.4499 15.7119 19.1490 5.1573 -1.0881 26.1236
#
#
#
# Elastic Compliance Matrix: (Units=1/GPa)
#
#
# Indices 1 2 3 4 5 6 
#
# 1 0.026228 0.008464 -0.015047 -0.001657 0.009978 0.000206
# 2 0.008464 0.026519 -0.014011 0.006444 0.000004 -0.009041
# 3 -0.015047 -0.014011 0.021367 -0.000225 -0.007350 -0.003782
# 4 -0.001657 0.006444 -0.000225 0.040153 -0.002484 -0.011333
# 5 0.009978 0.000004 -0.007350 -0.002484 0.037438 0.004971
# 6 0.000206 -0.009041 -0.003782 -0.011333 0.004971 0.048883
#
#
# Mechanical properties :
#
#
# Convention : Reuss Voigt Hill
#
# Bulk Modulus (GPa) = 30.37185 55.05339 42.71262
# Shear Modulus (GPa) = 19.78215 27.19528 23.48872
#
# Velocity S-wave (km/s) = 2.90062 3.40095 3.16070
# Velocity P-wave (km/s) = 4.91280 6.23192 5.61126
#
# Compressibility (1/GPa) = 0.03292523
#
# Stress axis : x y z
#
# Youngs Moduli (GPa) = 38.12688 37.70822 46.80154
#
# Poissons Ratio (x) = -0.31915 0.70422
# Poissons Ratio (y) = -0.32269 0.65575
# Poissons Ratio (z) = 0.57369 0.52834
#
# Static dielectric constant tensor:
#      x y z
#    x 1.950270 0.014800 0.013750 
#    y 0.014800 1.922550 -0.019320 
#    z 0.013750 -0.019320 1.900460 
# 
# From -- ./inp_files/90348.got.cif
#   From: 2010.05.17/outbox.cif.g08.bks.cpg/sg2_46_cif.got.tgz:90348.got - 2010.06.03 11:33:40.
