data_PCOD9025163
_publ_section_title
;
Structure prediction by ZEFSAII (Michael W. Deem and Ramdas Pophale) SiO2 
 PCOD9025163
Probable space group: P -1
;
_chemical_formula_sum "Si O2"
_cell_formula_units_Z 16
_cell_length_a 12.209890
_cell_length_b 15.309428
_cell_length_c 5.614665
_cell_angle_alpha 98.169303
_cell_angle_beta 98.373000
_cell_angle_gamma 129.678044
_cell_volume 760.118308
_symmetry_space_group_name_H-M "P -1"
_symmetry_group_IT_number 2
_symmetry_cell_setting 'triclinic'
loop_
_space_group_symop_operation_xyz
x,y,z
-x,-y,-z
loop_
_atom_site_type_symbol
_atom_site_label
_atom_site_fract_x
_atom_site_fract_y
_atom_site_fract_z
Si Si1 0.409511 0.593949 0.010229
Si Si2 0.622178 0.593195 0.382697
Si Si3 0.918902 0.846024 0.702743
Si Si4 0.280034 0.760126 0.666731
Si Si5 0.777918 0.068793 0.391063
Si Si6 0.864945 0.002381 0.779511
Si Si7 0.421191 0.155325 0.060813
Si Si8 0.823438 0.386814 0.918228
O O1 0.541003 0.629312 0.234430
O O2 0.275496 0.576506 0.082921
O O3 0.352353 0.476767 0.808890
O O4 0.490490 0.708023 0.911488
O O5 0.500000 0.500000 0.500000
O O6 0.776974 0.707801 0.586660
O O7 0.066183 0.882241 0.650992
O O8 0.880139 0.920266 0.603776
O O9 0.975735 0.895863 0.007355
O O10 0.247314 0.845875 0.664462
O O11 0.458097 0.839324 0.763022
O O12 0.220872 0.684106 0.372936
O O13 0.215051 0.685976 0.871039
O O14 0.808624 0.063188 0.672258
O O15 0.638673 0.932525 0.217335
O O16 0.730425 0.905416 0.874675
O O17 0.000000 0.500000 0.000000
#
# Coordination Sequence:
#
# PCOD9025163 Si02
#       8
#     2   2   2   2   2   2   2   2
#     4  10  25  43  66 102 130 185 228 292 345 419
#     4  11  24  41  70  98 136 176 236 290 346 414
#     4  10  23  39  63  97 135 175 229 281 353 409
#     4  11  27  44  73 106 136 184 237 290 342 414
#     4  11  24  41  66  99 138 175 229 287 343 411
#     4  10  22  40  67  96 135 184 217 287 350 422
#     4  10  23  43  67  96 137 177 230 277 353 411
#     4  11  27  49  74 100 147 188 233 283 353 415
#
# _framework density 21.049356
#
# number of rings (size 3 to 8) (size 9 to 14) (size 15 to 20)
#    0.000    1.500    0.000    2.625   14.000    5.500 
#    0.000    0.000    0.000    0.000    0.000    0.000 
#    0.000    0.000    0.000    0.000    0.000    0.000 
#
# Total GULP energy -89269.831358 kJ/mol
# GULP energy per Si atom -5579.364460 kJ/mol
# Density = 2.100145 g / cm^3
# Si number density = 21.049356 Si / 1000 Ang^3
#
#
#
# Elastic Constant Matrix: (Units=GPa)
#
#
# Indices 1 2 3 4 5 6 
#
# 1 126.5816 51.7855 28.7243 5.1884 16.7440 -10.9498
# 2 51.7855 69.4660 32.1413 13.8179 21.9182 5.8649
# 3 28.7243 32.1413 87.6347 15.2201 19.0639 8.1184
# 4 5.1884 13.8179 15.2201 35.4819 9.5463 14.6487
# 5 16.7440 21.9182 19.0639 9.5463 27.3210 -0.6829
# 6 -10.9498 5.8649 8.1184 14.6487 -0.6829 39.6610
#
#
#
# Elastic Compliance Matrix: (Units=1/GPa)
#
#
# Indices 1 2 3 4 5 6 
#
# 1 0.012314 -0.009309 -0.001302 0.000050 0.000938 0.005040
# 2 -0.009309 0.028185 -0.003371 -0.002150 -0.013940 -0.005494
# 3 -0.001302 -0.003371 0.015040 -0.002382 -0.006214 -0.002167
# 4 0.000050 -0.002150 -0.002382 0.038432 -0.010411 -0.013555
# 5 0.000938 -0.013940 -0.006214 -0.010411 0.055394 0.008392
# 6 0.005040 -0.005494 -0.002167 -0.013555 0.008392 0.033012
#
#
# Mechanical properties :
#
#
# Convention : Reuss Voigt Hill
#
# Bulk Modulus (GPa) = 36.26400 56.55384 46.40892
# Shear Modulus (GPa) = 22.77576 31.89487 27.33532
#
# Velocity S-wave (km/s) = 3.29297 3.89683 3.60756
# Velocity P-wave (km/s) = 5.63238 6.86824 6.28078
#
# Compressibility (1/GPa) = 0.02757556
#
# Stress axis : x y z
#
# Youngs Moduli (GPa) = 81.21136 35.48029 66.48784
#
# Poissons Ratio (x) = 0.33028 0.08654
# Poissons Ratio (y) = 0.75597 0.22414
# Poissons Ratio (z) = 0.10570 0.11961
#
# Static dielectric constant tensor:
#      x y z
#    x 1.687620 0.063100 -0.048190 
#    y 0.063100 1.602320 -0.022050 
#    z -0.048190 -0.022050 1.855090 
# 
# From -- ./inp_files/66229.got.cif
#   From: 2010.05.17/outbox.cif.g08.bks.cpg/sg2_34_cif.got.tgz:66229.got - 2010.06.03 11:33:40.
