data_PCOD9025229
_publ_section_title
;
Structure prediction by ZEFSAII (Michael W. Deem and Ramdas Pophale) SiO2 
 PCOD9025229
Probable space group: P -1
;
_chemical_formula_sum "Si O2"
_cell_formula_units_Z 11
_cell_length_a 6.667250
_cell_length_b 8.201016
_cell_length_c 9.682729
_cell_angle_alpha 115.808622
_cell_angle_beta 111.812015
_cell_angle_gamma 78.840872
_cell_volume 442.182729
_symmetry_space_group_name_H-M "P -1"
_symmetry_group_IT_number 2
_symmetry_cell_setting 'triclinic'
loop_
_space_group_symop_operation_xyz
x,y,z
-x,-y,-z
loop_
_atom_site_type_symbol
_atom_site_label
_atom_site_fract_x
_atom_site_fract_y
_atom_site_fract_z
Si Si1 0.000000 0.500000 0.500000
Si Si2 0.418870 0.767045 0.339272
Si Si3 0.220883 0.391406 0.225367
Si Si4 0.242954 0.032887 0.615837
Si Si5 0.344921 0.801798 0.787346
Si Si6 0.145959 0.832743 0.032749
O O1 0.866573 0.575473 0.631026
O O2 0.814595 0.345182 0.369868
O O3 0.336404 0.568954 0.267225
O O4 0.383735 0.880166 0.511632
O O5 0.266735 0.858833 0.216414
O O6 0.664677 0.780709 0.350748
O O7 0.409577 0.238425 0.207688
O O8 0.015878 0.332509 0.062954
O O9 0.270112 0.992858 0.768865
O O10 0.000000 0.000000 0.500000
O O11 0.681548 0.206064 0.058622
O O12 0.000000 0.000000 0.000000
#
# Coordination Sequence:
#
# PCOD9025229 Si02
#       6
#     1   2   2   2   2   2
#     4  10  22  40  68 100 132 172 224 278 336 396
#     4  11  25  43  65 103 135 176 229 279 336 402
#     4  11  24  43  73  99 138 175 232 282 339 401
#     4  11  25  42  67  96 140 181 222 282 333 402
#     4  11  24  42  70  97 132 186 222 279 337 405
#     4  11  25  45  68  99 140 182 225 276 342 409
#
# _framework density 24.876594999999998
#
# number of rings (size 3 to 8) (size 9 to 14) (size 15 to 20)
#    0.000    1.091    1.818    3.273    2.545    8.000 
#    0.000    0.000    0.000    0.000    0.000    0.000 
#    0.000    0.000    0.000    0.000    0.000    0.000 
#
# Total GULP energy -61401.474859 kJ/mol
# GULP energy per Si atom -5581.952260 kJ/mol
# Density = 2.481998 g / cm^3
# Si number density = 24.876595 Si / 1000 Ang^3
#
#
#
# Elastic Constant Matrix: (Units=GPa)
#
#
# Indices 1 2 3 4 5 6 
#
# 1 160.4465 32.1492 36.2289 -2.1142 28.9839 31.8472
# 2 32.1492 69.5363 12.4084 -3.7730 12.9868 27.7315
# 3 36.2289 12.4084 98.1490 4.9581 15.9575 17.4843
# 4 -2.1142 -3.7730 4.9581 37.6533 10.3868 9.4095
# 5 28.9839 12.9868 15.9575 10.3868 36.8717 17.1489
# 6 31.8472 27.7315 17.4843 9.4095 17.1489 36.5929
#
#
#
# Elastic Compliance Matrix: (Units=1/GPa)
#
#
# Indices 1 2 3 4 5 6 
#
# 1 0.008535 -0.000761 -0.001644 0.003019 -0.004345 -0.004806
# 2 -0.000761 0.022286 0.000452 0.006867 -0.001167 -0.017662
# 3 -0.001644 0.000452 0.011728 -0.000098 -0.002335 -0.003396
# 4 0.003019 0.006867 -0.000098 0.032789 -0.008240 -0.012354
# 5 -0.004345 -0.001167 -0.002335 -0.008240 0.039135 -0.010440
# 6 -0.004806 -0.017662 -0.003396 -0.012354 -0.010440 0.054587
#
#
# Mechanical properties :
#
#
# Convention : Reuss Voigt Hill
#
# Bulk Modulus (GPa) = 25.87696 54.41165 40.14431
# Shear Modulus (GPa) = 26.90394 38.71326 32.80860
#
# Velocity S-wave (km/s) = 3.29218 3.94917 3.63554
# Velocity P-wave (km/s) = 4.98758 6.53564 5.81337
#
# Compressibility (1/GPa) = 0.03864441
#
# Stress axis : x y z
#
# Youngs Moduli (GPa) = 117.16596 44.87071 85.26670
#
# Poissons Ratio (x) = 0.03413 0.14020
# Poissons Ratio (y) = 0.08912 -0.03858
# Poissons Ratio (z) = 0.19265 -0.02030
#
# Static dielectric constant tensor:
#      x y z
#    x 1.963900 -0.000970 0.037150 
#    y -0.000970 2.017900 0.028270 
#    z 0.037150 0.028270 1.919020 
# 
# From -- ./inp_files/319725.got.cif
#   From: 2010.05.17/outbox.cif.g08.bks.cpg/sg2_160_cif.got.tgz:319725.got - 2010.06.03 11:33:40.
