data_PCOD9025725
_publ_section_title
;
Structure prediction by ZEFSAII (Michael W. Deem and Ramdas Pophale) SiO2 
 PCOD9025725
Probable space group: P -1
;
_chemical_formula_sum "Si O2"
_cell_formula_units_Z 16
_cell_length_a 8.627302
_cell_length_b 12.077190
_cell_length_c 18.315327
_cell_angle_alpha 50.562288
_cell_angle_beta 87.154564
_cell_angle_gamma 45.726452
_cell_volume 740.848974
_symmetry_space_group_name_H-M "P -1"
_symmetry_group_IT_number 2
_symmetry_cell_setting 'triclinic'
loop_
_space_group_symop_operation_xyz
x,y,z
-x,-y,-z
loop_
_atom_site_type_symbol
_atom_site_label
_atom_site_fract_x
_atom_site_fract_y
_atom_site_fract_z
Si Si1 0.410336 0.657085 0.257556
Si Si2 0.703241 0.647036 0.367980
Si Si3 0.535711 0.346906 0.504306
Si Si4 0.256469 0.774316 0.687743
Si Si5 0.764148 0.481094 0.031040
Si Si6 0.369051 0.018853 0.564415
Si Si7 0.752378 0.258975 0.005049
Si Si8 0.683472 0.812952 0.794029
O O1 0.514857 0.701420 0.290571
O O2 0.370689 0.544748 0.354421
O O3 0.670470 0.402486 0.301091
O O4 0.096637 0.949816 0.101210
O O5 0.625213 0.654262 0.449092
O O6 0.050898 0.342630 0.464263
O O7 0.588225 0.901011 0.270248
O O8 0.500000 0.500000 0.500000
O O9 0.901467 0.040859 0.608982
O O10 0.514954 0.537918 0.843282
O O11 0.305708 0.898604 0.606504
O O12 0.440080 0.729028 0.975658
O O13 0.034418 0.302436 0.154968
O O14 0.808271 0.297343 0.064299
O O15 0.771971 0.594226 0.921424
O O16 0.500000 0.000000 0.500000
O O17 0.598708 0.853292 0.696289
#
# Coordination Sequence:
#
# PCOD9025725 Si02
#       8
#     2   2   2   2   2   2   2   2
#     4  11  24  40  69 103 138 174 224 287 351 398
#     4  11  24  42  68 101 131 177 234 282 335 412
#     4  10  22  40  71 100 128 172 233 293 334 386
#     4  12  24  44  67 103 142 180 224 290 347 411
#     4  10  23  39  73  98 130 181 230 295 335 398
#     4  12  28  43  64  98 143 187 221 274 354 424
#     4  11  23  42  70 102 135 175 239 286 339 403
#     4  11  23  45  66  99 137 179 231 279 348 411
#
# _framework density 21.596844999999998
#
# number of rings (size 3 to 8) (size 9 to 14) (size 15 to 20)
#    0.000    1.000    5.000    1.875    8.750    2.000 
#    0.000    0.000    0.000    3.750    0.000    0.000 
#    0.000    0.000    0.000    0.000    0.000    0.000 
#
# Total GULP energy -89361.148916 kJ/mol
# GULP energy per Si atom -5585.071807 kJ/mol
# Density = 2.154769 g / cm^3
# Si number density = 21.596845 Si / 1000 Ang^3
#
#
#
# Elastic Constant Matrix: (Units=GPa)
#
#
# Indices 1 2 3 4 5 6 
#
# 1 66.0334 16.8532 28.2679 6.3061 3.8617 -11.1456
# 2 16.8532 89.1686 28.2825 -10.4350 -1.4530 -12.1633
# 3 28.2679 28.2825 97.4682 -0.1713 19.3200 -15.7864
# 4 6.3061 -10.4350 -0.1713 37.0596 1.9051 3.0557
# 5 3.8617 -1.4530 19.3200 1.9051 22.5590 0.9688
# 6 -11.1456 -12.1633 -15.7864 3.0557 0.9688 37.0513
#
#
#
# Elastic Compliance Matrix: (Units=1/GPa)
#
#
# Indices 1 2 3 4 5 6 
#
# 1 0.018452 -0.002128 -0.004322 -0.004065 0.000606 0.003330
# 2 -0.002128 0.013594 -0.003858 0.003814 0.004147 0.001756
# 3 -0.004322 -0.003858 0.016048 0.000034 -0.013454 0.004620
# 4 -0.004065 0.003814 0.000034 0.029014 -0.001438 -0.002311
# 5 0.000606 0.004147 -0.013454 -0.001438 0.056373 -0.005544
# 6 0.003330 0.001756 0.004620 -0.002311 -0.005544 0.030872
#
#
# Mechanical properties :
#
#
# Convention : Reuss Voigt Hill
#
# Bulk Modulus (GPa) = 36.39389 44.38638 40.39014
# Shear Modulus (GPa) = 25.75622 31.28511 28.52066
#
# Velocity S-wave (km/s) = 3.45714 3.81017 3.63794
# Velocity P-wave (km/s) = 5.72921 6.32087 6.03230
#
# Compressibility (1/GPa) = 0.02747714
#
# Stress axis : x y z
#
# Youngs Moduli (GPa) = 54.19490 73.56121 62.31402
#
# Poissons Ratio (x) = 0.15656 0.26931
# Poissons Ratio (y) = 0.11534 0.24042
# Poissons Ratio (z) = 0.23422 0.28382
#
# Static dielectric constant tensor:
#      x y z
#    x 1.835630 -0.017970 -0.021600 
#    y -0.017970 1.788150 0.007100 
#    z -0.021600 0.007100 1.860560 
# 
# From -- ./inp_files/559767.got.cif
#   From: 2010.05.17/outbox.cif.g08.bks.cpg/sg2_280_cif.got.tgz:559767.got - 2010.06.03 11:33:40.
