data_PCOD9025151
_publ_section_title
;
Structure prediction by ZEFSAII (Michael W. Deem and Ramdas Pophale) SiO2 
 PCOD9025151
Probable space group: P -1
;
_chemical_formula_sum "Si O2"
_cell_formula_units_Z 16
_cell_length_a 16.097526
_cell_length_b 22.164648
_cell_length_c 12.435033
_cell_angle_alpha 156.746628
_cell_angle_beta 26.961992
_cell_angle_gamma 156.863100
_cell_volume 656.704756
_symmetry_space_group_name_H-M "P -1"
_symmetry_group_IT_number 2
_symmetry_cell_setting 'triclinic'
loop_
_space_group_symop_operation_xyz
x,y,z
-x,-y,-z
loop_
_atom_site_type_symbol
_atom_site_label
_atom_site_fract_x
_atom_site_fract_y
_atom_site_fract_z
Si Si1 0.595869 0.441076 0.644044
Si Si2 0.149954 0.969370 0.197980
Si Si3 0.757654 0.101659 0.377949
Si Si4 0.557041 0.935740 0.693639
Si Si5 0.965706 0.647839 0.730588
Si Si6 0.078156 0.409223 0.678648
Si Si7 0.969643 0.886298 0.609839
Si Si8 0.333381 0.184598 0.827551
O O1 0.458514 0.226910 0.484146
O O2 0.741081 0.533306 0.735023
O O3 0.737471 0.459981 0.406939
O O4 0.545194 0.597375 0.937232
O O5 0.366163 0.973562 0.993744
O O6 0.983131 0.769533 0.009630
O O7 0.000000 0.000000 0.500000
O O8 0.192021 0.105820 0.273442
O O9 0.860628 0.216453 0.338271
O O10 0.873865 0.252977 0.586229
O O11 0.500000 0.000000 0.500000
O O12 0.756176 0.928675 0.144598
O O13 0.523862 0.864045 0.490310
O O14 0.182422 0.898126 0.328748
O O15 0.000000 0.500000 0.500000
O O16 0.149273 0.295722 0.480195
O O17 0.000000 0.500000 0.000000
O O18 0.112359 0.076699 0.828256
#
# Coordination Sequence:
#
# PCOD9025151 Si02
#       8
#     2   2   2   2   2   2   2   2
#     4  11  21  39  68  97 136 176 234 284 348 410
#     4  12  25  40  66 100 136 179 225 286 357 411
#     4  10  22  40  67  96 129 180 233 281 341 414
#     4  10  22  43  67  97 134 176 227 290 345 410
#     4  11  22  37  64  97 131 172 226 286 336 406
#     4  10  24  42  66  99 138 187 227 287 362 413
#     4   9  23  43  67  92 134 176 234 278 341 423
#     4   9  20  40  67  98 126 176 235 285 337 408
#
# _framework density 24.364068
#
# number of rings (size 3 to 8) (size 9 to 14) (size 15 to 20)
#    0.750    1.000    2.500    1.125    3.500    2.000 
#    0.000    0.000    0.000    1.500    0.000    0.000 
#    0.000    0.000    0.000    0.000    0.000    0.000 
#
# Total GULP energy -89222.438729 kJ/mol
# GULP energy per Si atom -5576.402421 kJ/mol
# Density = 2.430861 g / cm^3
# Si number density = 24.364068 Si / 1000 Ang^3
#
#
#
# Elastic Constant Matrix: (Units=GPa)
#
#
# Indices 1 2 3 4 5 6 
#
# 1 52.9241 26.8629 35.5423 11.1517 -20.3559 -19.5025
# 2 26.8629 132.9410 44.5979 3.7188 -6.9589 -31.9485
# 3 35.5423 44.5979 165.0510 -7.1963 8.4496 -27.0470
# 4 11.1517 3.7188 -7.1963 29.0997 -4.1648 -7.9728
# 5 -20.3559 -6.9589 8.4496 -4.1648 39.8568 -4.5010
# 6 -19.5025 -31.9485 -27.0470 -7.9728 -4.5010 30.7692
#
#
#
# Elastic Compliance Matrix: (Units=1/GPa)
#
#
# Indices 1 2 3 4 5 6 
#
# 1 0.044181 0.000978 -0.007567 -0.008621 0.026144 0.023958
# 2 0.000978 0.010743 -0.001344 0.001704 0.004153 0.011643
# 3 -0.007567 -0.001344 0.008902 0.005132 -0.005201 0.002203
# 4 -0.008621 0.001704 0.005132 0.042024 0.000528 0.011782
# 5 0.026144 0.004153 -0.005201 0.000528 0.042891 0.022722
# 6 0.023958 0.011643 0.002203 0.011782 0.022722 0.068088
#
#
# Mechanical properties :
#
#
# Convention : Reuss Voigt Hill
#
# Bulk Modulus (GPa) = 20.85006 62.76914 41.80960
# Shear Modulus (GPa) = 20.10619 36.20600 28.15610
#
# Velocity S-wave (km/s) = 2.87581 3.85910 3.40316
# Velocity P-wave (km/s) = 4.42757 6.75839 5.71311
#
# Compressibility (1/GPa) = 0.04796149
#
# Stress axis : x y z
#
# Youngs Moduli (GPa) = 22.63437 93.08404 112.33047
#
# Poissons Ratio (x) = -0.09106 0.84995
# Poissons Ratio (y) = -0.02214 0.15096
# Poissons Ratio (z) = 0.17126 0.12510
#
# Static dielectric constant tensor:
#      x y z
#    x 1.964200 -0.002470 -0.029330 
#    y -0.002470 2.007250 -0.104270 
#    z -0.029330 -0.104270 2.092000 
# 
# From -- ./inp_files/259386.got.cif
#   From: 2010.05.17/outbox.cif.g08.bks.cpg/sg2_130_cif.got.tgz:259386.got - 2010.06.03 11:33:40.
