data_PCOD9025312
_publ_section_title
;
Structure prediction by ZEFSAII (Michael W. Deem and Ramdas Pophale) SiO2 
 PCOD9025312
Probable space group: P -1
;
_chemical_formula_sum "Si O2"
_cell_formula_units_Z 16
_cell_length_a 9.306614
_cell_length_b 9.521534
_cell_length_c 18.299915
_cell_angle_alpha 51.931171
_cell_angle_beta 44.450076
_cell_angle_gamma 36.715561
_cell_volume 675.085340
_symmetry_space_group_name_H-M "P -1"
_symmetry_group_IT_number 2
_symmetry_cell_setting 'triclinic'
loop_
_space_group_symop_operation_xyz
x,y,z
-x,-y,-z
loop_
_atom_site_type_symbol
_atom_site_label
_atom_site_fract_x
_atom_site_fract_y
_atom_site_fract_z
Si Si1 0.677716 0.661355 0.581877
Si Si2 0.461024 0.545309 0.181256
Si Si3 0.500336 0.144726 0.728260
Si Si4 0.570105 0.484062 0.563519
Si Si5 0.388991 0.156522 0.918843
Si Si6 0.167056 0.210200 0.395723
Si Si7 0.118793 0.754969 0.995414
Si Si8 0.931313 0.372931 0.799775
O O1 0.618690 0.524149 0.697704
O O2 0.515630 0.701768 0.554556
O O3 0.622539 0.853409 0.596407
O O4 0.000000 0.500000 0.500000
O O5 0.608338 0.638899 0.124148
O O6 0.650910 0.339546 0.118158
O O7 0.178985 0.723432 0.180749
O O8 0.435933 0.390362 0.680251
O O9 0.569008 0.035574 0.818590
O O10 0.243616 0.193490 0.769160
O O11 0.732938 0.987848 0.635372
O O12 0.500000 0.500000 0.500000
O O13 0.896770 0.293707 0.505457
O O14 0.111391 0.224507 0.971062
O O15 0.500000 0.000000 0.000000
O O16 0.111407 0.422022 0.298523
O O17 0.213428 0.570494 0.086847
O O18 0.000000 0.000000 0.000000
#
# Coordination Sequence:
#
# PCOD9025312 Si02
#       8
#     2   2   2   2   2   2   2   2
#     4   9  21  40  67  94 131 172 216 270 332 399
#     4  11  22  43  67  94 136 180 215 279 344 384
#     4  11  23  42  66  99 132 173 231 274 328 405
#     4  11  20  42  66  95 132 173 223 279 337 391
#     4  11  25  43  64  97 140 174 223 277 332 405
#     4  10  22  40  68  91 132 180 218 277 337 389
#     4  11  25  42  69  99 133 176 233 273 332 411
#     4  10  23  39  67  95 131 171 221 270 334 400
#
# _framework density 23.700710000000001
#
# number of rings (size 3 to 8) (size 9 to 14) (size 15 to 20)
#    0.000    1.500    2.500    1.875    8.750    0.000 
#    2.250    0.625    0.000    0.000    0.000    0.000 
#    0.000    0.000    0.000    0.000    0.000    0.000 
#
# Total GULP energy -89215.675674 kJ/mol
# GULP energy per Si atom -5575.979730 kJ/mol
# Density = 2.364677 g / cm^3
# Si number density = 23.700710 Si / 1000 Ang^3
#
#
#
# Elastic Constant Matrix: (Units=GPa)
#
#
# Indices 1 2 3 4 5 6 
#
# 1 196.2783 29.0050 32.1103 -10.9498 10.3588 37.4601
# 2 29.0050 50.1456 26.6121 -3.8927 4.0919 27.2513
# 3 32.1103 26.6121 120.0646 -2.7187 -0.2542 12.2142
# 4 -10.9498 -3.8927 -2.7187 32.7173 3.9726 2.1948
# 5 10.3588 4.0919 -0.2542 3.9726 46.9006 3.6536
# 6 37.4601 27.2513 12.2142 2.1948 3.6536 23.5238
#
#
#
# Elastic Compliance Matrix: (Units=1/GPa)
#
#
# Indices 1 2 3 4 5 6 
#
# 1 0.009343 0.010739 -0.002034 0.006198 -0.001463 -0.026613
# 2 0.010739 0.074526 -0.008776 0.018783 -0.002706 -0.100211
# 3 -0.002034 -0.008776 0.009943 -0.001545 0.000756 0.008271
# 4 0.006198 0.018783 -0.001545 0.037443 -0.003557 -0.033768
# 5 -0.001463 -0.002706 0.000756 -0.003557 0.022032 0.001983
# 6 -0.026613 -0.100211 0.008271 -0.033768 0.001983 0.199528
#
#
# Mechanical properties :
#
#
# Convention : Reuss Voigt Hill
#
# Bulk Modulus (GPa) = 10.67593 60.21593 35.44593
# Shear Modulus (GPa) = 13.01465 39.21242 26.11353
#
# Velocity S-wave (km/s) = 2.34588 4.07195 3.32294
# Velocity P-wave (km/s) = 3.44265 6.89707 5.45075
#
# Compressibility (1/GPa) = 0.09366864
#
# Stress axis : x y z
#
# Youngs Moduli (GPa) = 107.03343 13.41811 100.56885
#
# Poissons Ratio (x) = -0.14410 0.20459
# Poissons Ratio (y) = -1.14942 0.88264
# Poissons Ratio (z) = 0.21774 0.11776
#
# Static dielectric constant tensor:
#      x y z
#    x 1.992030 0.101590 -0.083790 
#    y 0.101590 2.090510 -0.131580 
#    z -0.083790 -0.131580 2.064710 
# 
# From -- ./inp_files/556039.got.cif
#   From: 2010.05.17/outbox.cif.g08.bks.cpg/sg2_279_cif.got.tgz:556039.got - 2010.06.03 11:33:40.
