data_PCOD9025711
_publ_section_title
;
Structure prediction by ZEFSAII (Michael W. Deem and Ramdas Pophale) SiO2 
 PCOD9025711
Probable space group: P -1
;
_chemical_formula_sum "Si O2"
_cell_formula_units_Z 14
_cell_length_a 15.222590
_cell_length_b 5.767791
_cell_length_c 8.180830
_cell_angle_alpha 79.879896
_cell_angle_beta 45.608633
_cell_angle_gamma 83.957442
_cell_volume 505.124333
_symmetry_space_group_name_H-M "P -1"
_symmetry_group_IT_number 2
_symmetry_cell_setting 'triclinic'
loop_
_space_group_symop_operation_xyz
x,y,z
-x,-y,-z
loop_
_atom_site_type_symbol
_atom_site_label
_atom_site_fract_x
_atom_site_fract_y
_atom_site_fract_z
Si Si1 0.780129 0.942612 0.540859
Si Si2 0.389210 0.654162 0.421826
Si Si3 0.731332 0.736747 0.152099
Si Si4 0.500000 0.000000 0.500000
Si Si5 0.844080 0.262338 0.669453
Si Si6 0.632473 0.552578 0.955868
Si Si7 0.000000 0.000000 0.000000
Si Si8 0.041898 0.528187 0.172172
O O1 0.694828 0.154605 0.573083
O O2 0.851188 0.007187 0.610457
O O3 0.880820 0.920304 0.274761
O O4 0.687543 0.729444 0.727980
O O5 0.312978 0.444282 0.628378
O O6 0.466860 0.785271 0.447419
O O7 0.488731 0.556865 0.176652
O O8 0.653137 0.964509 0.268500
O O9 0.689965 0.643501 0.040984
O O10 0.879546 0.705627 0.952394
O O11 0.698880 0.308979 0.870856
O O12 0.901671 0.331229 0.759454
O O13 0.913022 0.428762 0.424999
O O14 0.053033 0.726538 0.994780
#
# Coordination Sequence:
#
# PCOD9025711 Si02
#       8
#     2   2   2   1   2   2   1   2
#     4  12  26  43  66 103 136 179 224 279 341 397
#     4  11  24  43  67 103 139 176 228 279 332 405
#     4  10  22  43  70 103 135 175 229 276 333 406
#     4  10  22  40  70  98 136 178 216 274 336 390
#     4  10  24  45  70  95 135 182 222 279 342 398
#     4  10  22  43  65  96 138 175 229 273 332 409
#     4  12  24  46  70 100 140 170 236 284 328 408
#     4  10  22  47  69 100 136 176 230 280 332 407
#
# _framework density 27.715949999999999
#
# number of rings (size 3 to 8) (size 9 to 14) (size 15 to 20)
#    0.000    1.429    2.857    2.143    0.000   10.857 
#    0.000    0.000    0.000    0.000    0.000    0.000 
#    0.000    0.000    0.000    0.000    0.000    0.000 
#
# Total GULP energy -77991.440048 kJ/mol
# GULP energy per Si atom -5570.817146 kJ/mol
# Density = 2.765287 g / cm^3
# Si number density = 27.715950 Si / 1000 Ang^3
#
#
#
# Elastic Constant Matrix: (Units=GPa)
#
#
# Indices 1 2 3 4 5 6 
#
# 1 77.4192 17.4811 40.6062 0.8071 -5.9389 3.9201
# 2 17.4811 73.8427 73.5779 0.1316 4.7986 -7.1744
# 3 40.6062 73.5779 225.9127 6.9889 -19.3446 -21.7441
# 4 0.8071 0.1316 6.9889 67.2265 -12.4501 -1.5457
# 5 -5.9389 4.7986 -19.3446 -12.4501 45.5035 7.6891
# 6 3.9201 -7.1744 -21.7441 -1.5457 7.6891 43.8292
#
#
#
# Elastic Compliance Matrix: (Units=1/GPa)
#
#
# Indices 1 2 3 4 5 6 
#
# 1 0.014759 -0.001636 -0.002271 0.000313 0.001727 -0.003006
# 2 -0.001636 0.021459 -0.007068 -0.000329 -0.005766 0.001153
# 3 -0.002271 -0.007068 0.007638 -0.000092 0.003290 0.002255
# 4 0.000313 -0.000329 -0.000092 0.015686 0.004386 -0.000344
# 5 0.001727 -0.005766 0.003290 0.004386 0.026065 -0.003884
# 6 -0.003006 0.001153 0.002255 -0.000344 -0.003884 0.025062
#
#
# Mechanical properties :
#
#
# Convention : Reuss Voigt Hill
#
# Bulk Modulus (GPa) = 45.64773 71.16722 58.40748
# Shear Modulus (GPa) = 35.73477 47.67913 41.70695
#
# Velocity S-wave (km/s) = 3.59461 4.15212 3.88338
# Velocity P-wave (km/s) = 5.80809 6.97997 6.42082
#
# Compressibility (1/GPa) = 0.02190689
#
# Stress axis : x y z
#
# Youngs Moduli (GPa) = 67.75652 46.60034 130.92051
#
# Poissons Ratio (x) = 0.07622 0.29735
# Poissons Ratio (y) = 0.11083 0.92530
# Poissons Ratio (z) = 0.15389 0.32936
#
# Static dielectric constant tensor:
#      x y z
#    x 2.325920 0.007060 0.023890 
#    y 0.007060 2.366760 0.081700 
#    z 0.023890 0.081700 2.065710 
# 
# From -- ./inp_files/59242.got.cif
#   From: 2010.05.17/outbox.cif.g08.bks.cpg/sg2_30_cif.got.tgz:59242.got - 2010.06.03 11:33:40.
