data_PCOD9025347
_publ_section_title
;
Structure prediction by ZEFSAII (Michael W. Deem and Ramdas Pophale) SiO2 
 PCOD9025347
Probable space group: P -1
;
_chemical_formula_sum "Si O2"
_cell_formula_units_Z 16
_cell_length_a 5.028345
_cell_length_b 11.355228
_cell_length_c 11.268614
_cell_angle_alpha 89.729624
_cell_angle_beta 83.553256
_cell_angle_gamma 82.045716
_cell_volume 633.157278
_symmetry_space_group_name_H-M "P -1"
_symmetry_group_IT_number 2
_symmetry_cell_setting 'triclinic'
loop_
_space_group_symop_operation_xyz
x,y,z
-x,-y,-z
loop_
_atom_site_type_symbol
_atom_site_label
_atom_site_fract_x
_atom_site_fract_y
_atom_site_fract_z
Si Si1 0.632844 0.601571 0.117535
Si Si2 0.260303 0.896464 0.968539
Si Si3 0.215230 0.003331 0.633025
Si Si4 0.853200 0.352851 0.037308
Si Si5 0.352269 0.966216 0.202683
Si Si6 0.416338 0.635202 0.361395
Si Si7 0.770267 0.589857 0.576219
Si Si8 0.036853 0.802158 0.523452
O O1 0.345276 0.611524 0.065769
O O2 0.604407 0.663819 0.245951
O O3 0.840850 0.653725 0.020442
O O4 0.770604 0.464167 0.126514
O O5 0.187121 0.776744 0.915823
O O6 0.349589 0.868385 0.100541
O O7 0.505670 0.937514 0.881729
O O8 0.000000 0.000000 0.000000
O O9 0.449689 0.048889 0.696026
O O10 0.248582 0.867448 0.586208
O O11 0.948415 0.008503 0.729794
O O12 0.163956 0.088983 0.521517
O O13 0.556262 0.626952 0.482677
O O14 0.345205 0.503728 0.332168
O O15 0.161492 0.732456 0.400438
O O16 0.000000 0.500000 0.500000
O O17 0.896948 0.706526 0.605773
#
# Coordination Sequence:
#
# PCOD9025347 Si02
#       8
#     2   2   2   2   2   2   2   2
#     4  10  24  44  68  99 130 175 220 270 342 384
#     4  11  25  45  70 104 137 176 230 276 335 412
#     4  11  26  44  66 101 137 177 224 275 342 393
#     4  10  25  44  66  99 137 167 219 282 323 408
#     4  11  26  44  66 100 135 182 223 273 341 398
#     4  10  22  40  68  95 128 177 223 273 330 399
#     4   9  21  41  58  94 129 168 221 273 324 391
#     4  10  25  41  67  96 136 175 226 280 327 403
#
# _framework density 25.270184
#
# number of rings (size 3 to 8) (size 9 to 14) (size 15 to 20)
#    0.000    1.750    1.250    0.000   12.250    2.000 
#    4.500    0.000    0.000    0.000    0.000    0.000 
#    0.000    0.000    0.000    0.000    0.000    0.000 
#
# Total GULP energy -89430.007020 kJ/mol
# GULP energy per Si atom -5589.375439 kJ/mol
# Density = 2.521267 g / cm^3
# Si number density = 25.270184 Si / 1000 Ang^3
#
#
#
# Elastic Constant Matrix: (Units=GPa)
#
#
# Indices 1 2 3 4 5 6 
#
# 1 92.7792 14.4719 10.2630 7.7751 -7.8518 5.0834
# 2 14.4719 127.5951 2.5012 -0.6920 -5.7081 20.8764
# 3 10.2630 2.5012 61.2388 8.4924 -17.7163 -5.0623
# 4 7.7751 -0.6920 8.4924 15.5604 0.4102 4.3430
# 5 -7.8518 -5.7081 -17.7163 0.4102 42.5855 -3.1605
# 6 5.0834 20.8764 -5.0623 4.3430 -3.1605 30.1493
#
#
#
# Elastic Compliance Matrix: (Units=1/GPa)
#
#
# Indices 1 2 3 4 5 6 
#
# 1 0.011664 -0.001220 -0.000659 -0.005497 0.001747 -0.000258
# 2 -0.001220 0.009140 -0.001258 0.003619 -0.000067 -0.006863
# 3 -0.000659 -0.001258 0.021813 -0.014020 0.009488 0.007659
# 4 -0.005497 0.003619 -0.014020 0.079586 -0.008335 -0.016271
# 5 0.001747 -0.000067 0.009488 -0.008335 0.028231 0.005505
# 6 -0.000258 -0.006863 0.007659 -0.016271 0.005505 0.042171
#
#
# Mechanical properties :
#
#
# Convention : Reuss Voigt Hill
#
# Bulk Modulus (GPa) = 27.51339 37.34284 32.42811
# Shear Modulus (GPa) = 23.69760 34.61750 29.15755
#
# Velocity S-wave (km/s) = 3.06562 3.70522 3.40050
# Velocity P-wave (km/s) = 4.84170 5.75451 5.31773
#
# Compressibility (1/GPa) = 0.03634594
#
# Stress axis : x y z
#
# Youngs Moduli (GPa) = 85.73399 109.41277 45.84319
#
# Poissons Ratio (x) = 0.13343 0.03019
# Poissons Ratio (y) = 0.10455 0.05765
# Poissons Ratio (z) = 0.05646 0.13759
#
# Static dielectric constant tensor:
#      x y z
#    x 1.206590 0.915170 -0.004400 
#    y 0.915170 1.073370 -0.006180 
#    z -0.004400 -0.006180 2.003940 
# 
# From -- ./inp_files/364492.got.cif
#   From: 2010.05.17/outbox.cif.g08.bks.cpg/sg2_183_cif.got.tgz:364492.got - 2010.06.03 11:33:40.
