data_PCOD9025273
_publ_section_title
;
Structure prediction by ZEFSAII (Michael W. Deem and Ramdas Pophale) SiO2 
 PCOD9025273
Probable space group: P -1
;
_chemical_formula_sum "Si O2"
_cell_formula_units_Z 11
_cell_length_a 9.128187
_cell_length_b 8.792416
_cell_length_c 18.341074
_cell_angle_alpha 143.948459
_cell_angle_beta 144.087519
_cell_angle_gamma 31.469593
_cell_volume 416.116606
_symmetry_space_group_name_H-M "P -1"
_symmetry_group_IT_number 2
_symmetry_cell_setting 'triclinic'
loop_
_space_group_symop_operation_xyz
x,y,z
-x,-y,-z
loop_
_atom_site_type_symbol
_atom_site_label
_atom_site_fract_x
_atom_site_fract_y
_atom_site_fract_z
Si Si1 0.545856 0.601359 0.635330
Si Si2 0.181312 0.302146 0.729662
Si Si3 0.000000 0.500000 0.000000
Si Si4 0.055110 0.620061 0.671249
Si Si5 0.162695 0.851634 0.085201
Si Si6 0.676419 0.233227 0.686369
O O1 0.500000 0.500000 0.500000
O O2 0.562834 0.379946 0.618428
O O3 0.874332 0.544656 0.742551
O O4 0.298562 0.970632 0.685248
O O5 0.080693 0.337598 0.617004
O O6 0.478153 0.309193 0.847960
O O7 0.903835 0.376652 0.987088
O O8 0.926800 0.293103 0.837814
O O9 0.387977 0.457268 0.709071
O O10 0.957939 0.866225 0.794519
O O11 0.820059 0.862345 0.609390
O O12 0.000000 0.000000 0.000000
#
# Coordination Sequence:
#
# PCOD9025273 Si02
#       6
#     2   2   1   2   2   2
#     4  12  27  48  75 104 138 194 252 309 373 433
#     4  12  23  47  70 103 147 180 247 305 363 445
#     4  10  22  40  68 104 142 188 238 282 366 440
#     4  11  22  45  67  98 147 182 238 293 369 429
#     4  11  24  42  72 111 151 198 241 301 370 439
#     4  11  24  44  69 103 143 188 239 305 355 443
#
# _framework density 26.434899000000001
#
# number of rings (size 3 to 8) (size 9 to 14) (size 15 to 20)
#    0.000    0.727    5.455    2.727    0.000    5.091 
#    0.000    5.455    0.000    0.000    0.000    0.000 
#    0.000    0.000    0.000    0.000    0.000    0.000 
#
# Total GULP energy -61248.569700 kJ/mol
# GULP energy per Si atom -5568.051791 kJ/mol
# Density = 2.637473 g / cm^3
# Si number density = 26.434899 Si / 1000 Ang^3
#
#
#
# Elastic Constant Matrix: (Units=GPa)
#
#
# Indices 1 2 3 4 5 6 
#
# 1 150.6790 35.7793 36.6430 -14.7917 21.0795 47.3919
# 2 35.7793 161.9954 15.2539 -17.4812 14.1653 26.6839
# 3 36.6430 15.2539 85.3517 -6.3391 4.3759 14.6591
# 4 -14.7917 -17.4812 -6.3391 32.2298 16.8232 -19.3904
# 5 21.0795 14.1653 4.3759 16.8232 53.8240 -8.3029
# 6 47.3919 26.6839 14.6591 -19.3904 -8.3029 67.5954
#
#
#
# Elastic Compliance Matrix: (Units=1/GPa)
#
#
# Indices 1 2 3 4 5 6 
#
# 1 0.010566 -0.000105 -0.002841 0.003433 -0.005955 -0.006497
# 2 -0.000105 0.007353 -0.000424 0.004614 -0.003588 -0.001854
# 3 -0.002841 -0.000424 0.013167 0.000874 -0.000192 -0.000469
# 4 0.003433 0.004614 0.000874 0.048422 -0.016618 0.007431
# 5 -0.005955 -0.003588 -0.000192 -0.016618 0.027724 0.004271
# 6 -0.006497 -0.001854 -0.000469 0.007431 0.004271 0.022839
#
#
# Mechanical properties :
#
#
# Convention : Reuss Voigt Hill
#
# Bulk Modulus (GPa) = 41.07455 63.70872 52.39163
# Shear Modulus (GPa) = 34.50000 51.41983 42.95992
#
# Velocity S-wave (km/s) = 3.61653 4.41517 4.03565
# Velocity P-wave (km/s) = 5.74550 7.08126 6.44806
#
# Compressibility (1/GPa) = 0.02434598
#
# Stress axis : x y z
#
# Youngs Moduli (GPa) = 94.64340 135.99554 75.94699
#
# Poissons Ratio (x) = 0.01425 0.21579
# Poissons Ratio (y) = 0.00992 0.03220
# Poissons Ratio (z) = 0.26891 0.05767
#
# Static dielectric constant tensor:
#      x y z
#    x 2.098710 0.098730 0.038780 
#    y 0.098730 2.181830 -0.037580 
#    z 0.038780 -0.037580 2.160920 
# 
# From -- ./inp_files/178509.got.cif
#   From: 2010.05.17/outbox.cif.g08.bks.cpg/sg2_90_cif.got.tgz:178509.got - 2010.06.03 11:33:40.
