data_PCOD9025458
_publ_section_title
;
Structure prediction by ZEFSAII (Michael W. Deem and Ramdas Pophale) SiO2 
 PCOD9025458
Probable space group: P -1
;
_chemical_formula_sum "Si O2"
_cell_formula_units_Z 15
_cell_length_a 11.722741
_cell_length_b 12.099061
_cell_length_c 11.083045
_cell_angle_alpha 50.098726
_cell_angle_beta 56.039377
_cell_angle_gamma 28.530099
_cell_volume 575.922378
_symmetry_space_group_name_H-M "P -1"
_symmetry_group_IT_number 2
_symmetry_cell_setting 'triclinic'
loop_
_space_group_symop_operation_xyz
x,y,z
-x,-y,-z
loop_
_atom_site_type_symbol
_atom_site_label
_atom_site_fract_x
_atom_site_fract_y
_atom_site_fract_z
Si Si1 0.683024 0.648736 0.073694
Si Si2 0.364757 0.160812 0.796755
Si Si3 0.729818 0.207809 0.690441
Si Si4 0.557637 0.271354 0.510851
Si Si5 0.781948 0.745718 0.541400
Si Si6 0.090460 0.616706 0.115864
Si Si7 0.000000 0.000000 0.000000
Si Si8 0.172906 0.962654 0.713050
O O1 0.767885 0.627889 0.170183
O O2 0.467598 0.723055 0.178459
O O3 0.851829 0.431179 0.027887
O O4 0.584683 0.883875 0.914685
O O5 0.453844 0.200925 0.620990
O O6 0.182766 0.197513 0.837270
O O7 0.759923 0.106655 0.611911
O O8 0.643974 0.440560 0.540126
O O9 0.935232 0.066350 0.765058
O O10 0.644938 0.247228 0.346720
O O11 0.775926 0.633584 0.729875
O O12 0.864709 0.840629 0.441814
O O13 0.000000 0.500000 0.500000
O O14 0.500000 0.000000 0.500000
O O15 0.128969 0.732330 0.080459
O O16 0.781522 0.099910 0.131060
#
# Coordination Sequence:
#
# PCOD9025458 Si02
#       8
#     2   2   2   2   2   2   1   2
#     4  10  22  41  71 108 146 186 237 312 383 464
#     4  10  22  42  72 108 141 183 247 309 385 456
#     4  10  22  41  66 104 140 178 236 303 378 454
#     4  10  22  40  69 102 137 180 237 304 375 445
#     4  12  30  52  77 106 145 200 270 323 368 448
#     4  12  25  47  73 102 152 199 254 310 387 445
#     4  12  28  44  64 106 146 206 250 308 364 466
#     4  12  25  44  72  98 145 194 243 306 377 442
#
# _framework density 26.045175
#
# number of rings (size 3 to 8) (size 9 to 14) (size 15 to 20)
#    0.000    1.067    1.333    4.000    5.600    1.067 
#    0.000   14.667    0.000    0.000    0.000    0.000 
#    0.000    0.000    0.000    0.000    0.000    0.000 
#
# Total GULP energy -83584.817534 kJ/mol
# GULP energy per Si atom -5572.321169 kJ/mol
# Density = 2.598590 g / cm^3
# Si number density = 26.045175 Si / 1000 Ang^3
#
#
#
# Elastic Constant Matrix: (Units=GPa)
#
#
# Indices 1 2 3 4 5 6 
#
# 1 97.2538 45.0400 31.0463 3.9698 -29.4112 15.4936
# 2 45.0400 80.9104 47.6253 18.4781 32.5865 20.3022
# 3 31.0463 47.6253 167.2668 15.5959 9.7526 15.6754
# 4 3.9698 18.4781 15.5959 49.2987 7.7554 0.7230
# 5 -29.4112 32.5865 9.7526 7.7554 105.2218 -4.0748
# 6 15.4936 20.3022 15.6754 0.7230 -4.0748 45.2130
#
#
#
# Elastic Compliance Matrix: (Units=1/GPa)
#
#
# Indices 1 2 3 4 5 6 
#
# 1 0.021458 -0.017510 -0.000081 0.003067 0.011260 0.001503
# 2 -0.017510 0.034762 -0.004162 -0.007795 -0.015064 -0.009399
# 3 -0.000081 -0.004162 0.007270 -0.000825 0.000632 -0.000554
# 4 0.003067 -0.007795 -0.000825 0.022907 0.001757 0.002527
# 5 0.011260 -0.015064 0.000632 0.001757 0.017291 0.004217
# 6 0.001503 -0.009399 -0.000554 0.002527 0.004217 0.026355
#
#
# Mechanical properties :
#
#
# Convention : Reuss Voigt Hill
#
# Bulk Modulus (GPa) = 50.03670 65.87269 57.95469
# Shear Modulus (GPa) = 27.74549 54.72799 41.23674
#
# Velocity S-wave (km/s) = 3.26741 4.58894 3.98336
# Velocity P-wave (km/s) = 5.78687 7.30920 6.59212
#
# Compressibility (1/GPa) = 0.01998533
#
# Stress axis : x y z
#
# Youngs Moduli (GPa) = 46.60264 28.76728 137.54464
#
# Poissons Ratio (x) = 0.50372 0.01108
# Poissons Ratio (y) = 0.81602 0.57240
# Poissons Ratio (z) = 0.00376 0.11972
#
# Static dielectric constant tensor:
#      x y z
#    x 0.027090 -1.083100 -0.387490 
#    y -1.083100 1.547840 -0.359160 
#    z -0.387490 -0.359160 2.349830 
# 
# From -- ./inp_files/70090.got.cif
#   From: 2010.05.17/outbox.cif.g08.bks.cpg/sg2_36_cif.got.tgz:70090.got - 2010.06.03 11:33:40.
