data_PCOD9025062
_publ_section_title
;
Structure prediction by ZEFSAII (Michael W. Deem and Ramdas Pophale) SiO2 
 PCOD9025062
Probable space group: P -1
;
_chemical_formula_sum "Si O2"
_cell_formula_units_Z 16
_cell_length_a 8.611224
_cell_length_b 12.050379
_cell_length_c 14.815028
_cell_angle_alpha 31.074214
_cell_angle_beta 112.708740
_cell_angle_gamma 123.138597
_cell_volume 652.310958
_symmetry_space_group_name_H-M "P -1"
_symmetry_group_IT_number 2
_symmetry_cell_setting 'triclinic'
loop_
_space_group_symop_operation_xyz
x,y,z
-x,-y,-z
loop_
_atom_site_type_symbol
_atom_site_label
_atom_site_fract_x
_atom_site_fract_y
_atom_site_fract_z
Si Si1 0.119063 0.796905 0.229968
Si Si2 0.288397 0.407480 0.054369
Si Si3 0.335379 0.911589 0.706654
Si Si4 0.300452 0.330981 0.321336
Si Si5 0.703271 0.758675 0.159309
Si Si6 0.653344 0.785058 0.333044
Si Si7 0.758471 0.077736 0.641218
Si Si8 0.074928 0.370317 0.396952
O O1 0.169440 0.756364 0.370229
O O2 0.141687 0.623209 0.284087
O O3 0.902673 0.750220 0.213416
O O4 0.263338 0.062487 0.041583
O O5 0.285271 0.355574 0.195610
O O6 0.187060 0.141091 0.175039
O O7 0.500000 0.500000 0.000000
O O8 0.229303 0.621315 0.881781
O O9 0.248219 0.061688 0.529815
O O10 0.376451 0.030416 0.734466
O O11 0.536088 0.979549 0.657999
O O12 0.516654 0.507664 0.276203
O O13 0.160095 0.402999 0.294754
O O14 0.677254 0.854407 0.184941
O O15 0.500000 0.500000 0.500000
O O16 0.834198 0.771461 0.426053
O O17 0.854507 0.221348 0.472673
#
# Coordination Sequence:
#
# PCOD9025062 Si02
#       8
#     2   2   2   2   2   2   2   2
#     4  11  24  37  62  97 125 164 199 260 324 368
#     4  10  24  44  65  90 124 170 215 255 301 372
#     4  10  22  40  67  89 123 169 208 257 312 364
#     4  11  24  42  64  98 124 162 215 254 310 377
#     4  11  22  38  59  93 131 156 206 258 313 375
#     4  11  20  37  60  93 124 159 202 255 317 375
#     4  11  22  41  64  89 126 166 211 254 306 377
#     4  11  23  37  64  93 124 162 200 262 319 368
#
# _framework density 24.528178
#
# number of rings (size 3 to 8) (size 9 to 14) (size 15 to 20)
#    0.000    1.250    3.750    3.375    1.750    3.000 
#    0.000    5.000    0.000    0.000    0.000    0.000 
#    0.000    0.000    0.000    0.000    0.000    0.000 
#
# Total GULP energy -89497.809642 kJ/mol
# GULP energy per Si atom -5593.613103 kJ/mol
# Density = 2.447235 g / cm^3
# Si number density = 24.528178 Si / 1000 Ang^3
#
#
#
# Elastic Constant Matrix: (Units=GPa)
#
#
# Indices 1 2 3 4 5 6 
#
# 1 74.1204 21.3426 14.9231 7.6680 -12.5556 -26.3092
# 2 21.3426 77.9065 26.5809 9.6945 -11.8161 -39.2133
# 3 14.9231 26.5809 89.0812 -3.5315 -10.6433 -28.6971
# 4 7.6680 9.6945 -3.5315 44.9690 -12.5109 -3.4699
# 5 -12.5556 -11.8161 -10.6433 -12.5109 29.7166 4.9565
# 6 -26.3092 -39.2133 -28.6971 -3.4699 4.9565 43.8912
#
#
#
# Elastic Compliance Matrix: (Units=1/GPa)
#
#
# Indices 1 2 3 4 5 6 
#
# 1 0.018417 0.002147 0.001211 -0.000665 0.006630 0.012949
# 2 0.002147 0.024828 0.000195 -0.002249 0.006111 0.022728
# 3 0.001211 0.000195 0.015128 0.003320 0.005668 0.010414
# 4 -0.000665 -0.002249 0.003320 0.026186 0.010939 0.000598
# 5 0.006630 0.006111 0.005668 0.010939 0.044011 0.009035
# 6 0.012949 0.022728 0.010414 0.000598 0.009035 0.056687
#
#
# Mechanical properties :
#
#
# Convention : Reuss Voigt Hill
#
# Bulk Modulus (GPa) = 15.27193 40.75569 28.01381
# Shear Modulus (GPa) = 25.00271 35.59945 30.30108
#
# Velocity S-wave (km/s) = 3.19618 3.81382 3.51858
# Velocity P-wave (km/s) = 4.45652 6.00379 5.28707
#
# Compressibility (1/GPa) = 0.06547962
#
# Stress axis : x y z
#
# Youngs Moduli (GPa) = 54.29640 40.27688 66.10137
#
# Poissons Ratio (x) = -0.08648 -0.08006
# Poissons Ratio (y) = -0.11658 -0.01287
# Poissons Ratio (z) = -0.06576 -0.00784
#
# Static dielectric constant tensor:
#      x y z
#    x 1.947700 -0.008710 0.011390 
#    y -0.008710 1.951270 -0.046690 
#    z 0.011390 -0.046690 1.960840 
# 
# From -- ./inp_files/216507.got.cif
#   From: 2010.05.17/outbox.cif.g08.bks.cpg/sg2_109_cif.got.tgz:216507.got - 2010.06.03 11:33:40.
