data_PCOD9025872
_publ_section_title
;
Structure prediction by ZEFSAII (Michael W. Deem and Ramdas Pophale) SiO2 
 PCOD9025872
Probable space group: P -1
;
_chemical_formula_sum "Si O2"
_cell_formula_units_Z 14
_cell_length_a 9.805460
_cell_length_b 7.366959
_cell_length_c 11.982921
_cell_angle_alpha 117.183887
_cell_angle_beta 66.606411
_cell_angle_gamma 71.114614
_cell_volume 555.240037
_symmetry_space_group_name_H-M "P -1"
_symmetry_group_IT_number 2
_symmetry_cell_setting 'triclinic'
loop_
_space_group_symop_operation_xyz
x,y,z
-x,-y,-z
loop_
_atom_site_type_symbol
_atom_site_label
_atom_site_fract_x
_atom_site_fract_y
_atom_site_fract_z
Si Si1 0.677806 0.944147 0.368095
Si Si2 0.205946 0.803738 0.940735
Si Si3 0.042274 0.714319 0.280863
Si Si4 0.982544 0.246149 0.434425
Si Si5 0.664285 0.689742 0.094691
Si Si6 0.416303 0.532146 0.417022
Si Si7 0.662789 0.978653 0.864572
O O1 0.669779 0.893553 0.224636
O O2 0.879916 0.708507 0.279982
O O3 0.500000 0.000000 0.500000
O O4 0.670901 0.172313 0.492909
O O5 0.243574 0.553964 0.918919
O O6 0.398400 0.668123 0.769286
O O7 0.241910 0.946098 0.059648
O O8 0.000000 0.000000 0.000000
O O9 0.026969 0.733222 0.423230
O O10 0.041631 0.954265 0.311161
O O11 0.220945 0.449528 0.095111
O O12 0.766178 0.454583 0.520189
O O13 0.139873 0.253097 0.326409
O O14 0.453793 0.841095 0.156109
O O15 0.500000 0.500000 0.500000
O O16 0.500000 0.000000 0.000000
#
# Coordination Sequence:
#
# PCOD9025872 Si02
#       7
#     2   2   2   2   2   2   2
#     4  11  23  43  69 109 144 198 252 311 381 451
#     4  12  27  49  79 110 155 207 255 316 390 464
#     4  10  22  40  73 106 143 198 252 308 381 456
#     4  10  22  45  74 106 147 198 257 311 388 460
#     4  12  25  47  76 106 158 197 258 315 387 457
#     4  11  25  45  74 104 152 202 254 317 380 460
#     4  12  28  48  76 114 154 200 257 322 385 463
#
# _framework density 25.214317000000001
#
# number of rings (size 3 to 8) (size 9 to 14) (size 15 to 20)
#    0.000    0.857    2.857    3.429    8.000    1.143 
#    2.571    1.429    0.000    0.000    0.000    0.000 
#    0.000    0.000    0.000    0.000    0.000    0.000 
#
# Total GULP energy -77971.355815 kJ/mol
# GULP energy per Si atom -5569.382558 kJ/mol
# Density = 2.515693 g / cm^3
# Si number density = 25.214317 Si / 1000 Ang^3
#
#
#
# Elastic Constant Matrix: (Units=GPa)
#
#
# Indices 1 2 3 4 5 6 
#
# 1 198.6480 50.8262 77.2840 9.9466 -9.9885 -31.3026
# 2 50.8262 97.5812 24.7240 4.7310 -16.0267 -9.0237
# 3 77.2840 24.7240 213.9181 -12.0002 -11.5013 -7.0174
# 4 9.9466 4.7310 -12.0002 31.7219 -5.1242 -4.5328
# 5 -9.9885 -16.0267 -11.5013 -5.1242 53.1733 -4.9757
# 6 -31.3026 -9.0237 -7.0174 -4.5328 -4.9757 48.1387
#
#
#
# Elastic Compliance Matrix: (Units=1/GPa)
#
#
# Indices 1 2 3 4 5 6 
#
# 1 0.007355 -0.002758 -0.002330 -0.002213 0.000183 0.003737
# 2 -0.002758 0.012367 -0.000262 -0.000455 0.003181 0.000773
# 3 -0.002330 -0.000262 0.005761 0.003062 0.000993 -0.000334
# 4 -0.002213 -0.000455 0.003062 0.034398 0.003662 0.002540
# 5 0.000183 0.003181 0.000993 0.003662 0.020680 0.003342
# 6 0.003737 0.000773 -0.000334 0.002540 0.003342 0.023884
#
#
# Mechanical properties :
#
#
# Convention : Reuss Voigt Hill
#
# Bulk Modulus (GPa) = 67.64685 90.64619 79.14652
# Shear Modulus (GPa) = 41.64147 50.42763 46.03455
#
# Velocity S-wave (km/s) = 4.06828 4.47694 4.27749
# Velocity P-wave (km/s) = 6.99677 7.92164 7.47353
#
# Compressibility (1/GPa) = 0.01478265
#
# Stress axis : x y z
#
# Youngs Moduli (GPa) = 135.96235 80.86279 173.57920
#
# Poissons Ratio (x) = 0.22299 0.40448
# Poissons Ratio (y) = 0.37494 0.04550
# Poissons Ratio (z) = 0.31682 0.02120
#
# Static dielectric constant tensor:
#      x y z
#    x 1.951050 0.083500 -0.026570 
#    y 0.083500 1.949000 -0.105130 
#    z -0.026570 -0.105130 1.838740 
# 
# From -- ./inp_files/383166.got.cif
#   From: 2010.05.17/outbox.cif.g08.bks.cpg/sg2_192_cif.got.tgz:383166.got - 2010.06.03 11:33:40.
