data_PCOD9025290
_publ_section_title
;
Structure prediction by ZEFSAII (Michael W. Deem and Ramdas Pophale) SiO2 
 PCOD9025290
Probable space group: P -1
;
_chemical_formula_sum "Si O2"
_cell_formula_units_Z 15
_cell_length_a 8.225919
_cell_length_b 15.098593
_cell_length_c 11.075555
_cell_angle_alpha 37.993652
_cell_angle_beta 104.745679
_cell_angle_gamma 75.245515
_cell_volume 527.611870
_symmetry_space_group_name_H-M "P -1"
_symmetry_group_IT_number 2
_symmetry_cell_setting 'triclinic'
loop_
_space_group_symop_operation_xyz
x,y,z
-x,-y,-z
loop_
_atom_site_type_symbol
_atom_site_label
_atom_site_fract_x
_atom_site_fract_y
_atom_site_fract_z
Si Si1 0.293659 0.315177 0.206892
Si Si2 0.389754 0.557754 0.067238
Si Si3 0.187286 0.210895 0.855711
Si Si4 0.192151 0.683689 0.132369
Si Si5 0.000000 0.000000 0.500000
Si Si6 0.709376 0.159342 0.826514
Si Si7 0.120222 0.571967 0.672466
Si Si8 0.337944 0.013991 0.684452
O O1 0.415487 0.093103 0.522946
O O2 0.402251 0.385330 0.218606
O O3 0.254827 0.363274 0.005474
O O4 0.000000 0.500000 0.000000
O O5 0.136912 0.747057 0.912150
O O6 0.656133 0.453788 0.274249
O O7 0.243261 0.751062 0.734079
O O8 0.331069 0.977651 0.073013
O O9 0.408779 0.172136 0.985246
O O10 0.990013 0.617808 0.471655
O O11 0.008809 0.265454 0.873225
O O12 0.454969 0.415525 0.460904
O O13 0.256486 0.795830 0.081926
O O14 0.223805 0.959146 0.646721
O O15 0.000000 0.000000 0.000000
O O16 0.886585 0.783967 0.483645
#
# Coordination Sequence:
#
# PCOD9025290 Si02
#       8
#     2   2   2   2   1   2   2   2
#     4  10  22  47  79 108 148 212 265 311 385 477
#     4  12  24  46  77 113 156 204 260 324 392 460
#     4  11  24  46  75 116 159 207 255 325 394 467
#     4  10  22  40  68 116 157 202 255 314 387 471
#     4  12  28  48  74 114 152 202 266 338 382 460
#     4   9  18  37  67 104 152 200 243 300 382 460
#     4  11  24  46  82 112 154 205 259 315 391 479
#     4  11  26  52  78 113 152 207 267 322 395 464
#
# _framework density 28.429991000000001
#
# number of rings (size 3 to 8) (size 9 to 14) (size 15 to 20)
#    0.000    1.333    2.667    4.000    1.867    2.133 
#    7.200    2.000    0.000    0.800    0.000    0.000 
#    0.000    0.000    0.000    0.000    0.000    0.000 
#
# Total GULP energy -83906.251018 kJ/mol
# GULP energy per Si atom -5593.750068 kJ/mol
# Density = 2.836528 g / cm^3
# Si number density = 28.429991 Si / 1000 Ang^3
#
#
#
# Elastic Constant Matrix: (Units=GPa)
#
#
# Indices 1 2 3 4 5 6 
#
# 1 173.7795 101.6771 63.5376 14.6065 15.3452 7.7866
# 2 101.6771 203.3018 75.4999 31.7739 8.0088 13.7567
# 3 63.5376 75.4999 176.2388 -3.3962 16.0664 23.3253
# 4 14.6065 31.7739 -3.3962 62.8133 16.3524 4.0269
# 5 15.3452 8.0088 16.0664 16.3524 40.6576 2.6342
# 6 7.7866 13.7567 23.3253 4.0269 2.6342 63.4566
#
#
#
# Elastic Compliance Matrix: (Units=1/GPa)
#
#
# Indices 1 2 3 4 5 6 
#
# 1 0.008610 -0.003821 -0.001304 0.000403 -0.002164 0.000315
# 2 -0.003821 0.008291 -0.002436 -0.004049 0.002418 -0.000276
# 3 -0.001304 -0.002436 0.007828 0.002923 -0.003152 -0.002244
# 4 0.000403 -0.004049 0.002923 0.020352 -0.008619 -0.001180
# 5 -0.002164 0.002418 -0.003152 -0.008619 0.029634 0.000217
# 6 0.000315 -0.000276 -0.002244 -0.001180 0.000217 0.016671
#
#
# Mechanical properties :
#
#
# Convention : Reuss Voigt Hill
#
# Bulk Modulus (GPa) = 104.08658 114.97216 109.52937
# Shear Modulus (GPa) = 45.57481 54.22587 49.90034
#
# Velocity S-wave (km/s) = 4.00816 4.37206 4.19406
# Velocity P-wave (km/s) = 7.62309 8.12495 7.87801
#
# Compressibility (1/GPa) = 0.00960739
#
# Stress axis : x y z
#
# Youngs Moduli (GPa) = 116.14665 120.61764 127.74009
#
# Poissons Ratio (x) = 0.46088 0.16654
# Poissons Ratio (y) = 0.44379 0.31118
# Poissons Ratio (z) = 0.15143 0.29382
#
# Static dielectric constant tensor:
#      x y z
#    x 1.905470 0.027790 0.351850 
#    y 0.027790 2.177770 -0.253100 
#    z 0.351850 -0.253100 1.798170 
# 
# From -- ./inp_files/503897.got.cif
#   From: 2010.05.17/outbox.cif.g08.bks.cpg/sg2_252_cif.got.tgz:503897.got - 2010.06.03 11:33:40.
