data_PCOD9025058
_publ_section_title
;
Structure prediction by ZEFSAII (Michael W. Deem and Ramdas Pophale) SiO2 
 PCOD9025058
Probable space group: P -1
;
_chemical_formula_sum "Si O2"
_cell_formula_units_Z 10
_cell_length_a 7.540361
_cell_length_b 17.808811
_cell_length_c 5.377953
_cell_angle_alpha 123.466219
_cell_angle_beta 58.666258
_cell_angle_gamma 137.156067
_cell_volume 401.056072
_symmetry_space_group_name_H-M "P -1"
_symmetry_group_IT_number 2
_symmetry_cell_setting 'triclinic'
loop_
_space_group_symop_operation_xyz
x,y,z
-x,-y,-z
loop_
_atom_site_type_symbol
_atom_site_label
_atom_site_fract_x
_atom_site_fract_y
_atom_site_fract_z
Si Si1 0.494207 0.786130 0.739038
Si Si2 0.009006 0.352026 0.798644
Si Si3 0.012430 0.853220 0.703392
Si Si4 0.760783 0.428148 0.740985
Si Si5 0.771424 0.011718 0.701346
O O1 0.746716 0.843025 0.842977
O O2 0.529112 0.879469 0.699874
O O3 0.215602 0.723687 0.966006
O O4 0.485930 0.688376 0.420353
O O5 0.068988 0.273424 0.486367
O O6 0.863680 0.382782 0.779059
O O7 0.256429 0.477844 0.953792
O O8 0.203358 0.928105 0.464518
O O9 0.155633 0.914450 0.967920
O O10 0.000000 0.500000 0.500000
O O11 0.000000 0.000000 0.500000
#
# Coordination Sequence:
#
# PCOD9025058 Si02
#       5
#     2   2   2   2   2
#     4  10  22  40  67  87 130 172 202 260 321 366
#     4  10  23  41  64  93 126 164 217 261 313 375
#     4  11  25  41  67  97 128 166 213 258 309 385
#     4   9  21  42  62  90 127 164 209 270 313 367
#     4  10  23  42  64  97 132 164 208 261 312 375
#
# _framework density 24.934166999999999
#
# number of rings (size 3 to 8) (size 9 to 14) (size 15 to 20)
#    0.000    2.000    0.000    2.400   14.000    2.400 
#    0.000    9.000    0.000    0.000    0.000    0.000 
#    0.000    0.000    0.000    0.000    0.000    0.000 
#
# Total GULP energy -55908.660436 kJ/mol
# GULP energy per Si atom -5590.866044 kJ/mol
# Density = 2.487742 g / cm^3
# Si number density = 24.934167 Si / 1000 Ang^3
#
#
#
# Elastic Constant Matrix: (Units=GPa)
#
#
# Indices 1 2 3 4 5 6 
#
# 1 210.5499 -158.5957 40.3956 129.0840 37.4712 56.8217
# 2 -158.5957 345.1857 29.8870 -125.5118 -41.7709 -91.5073
# 3 40.3956 29.8870 127.4427 49.2843 20.3416 -10.9192
# 4 129.0840 -125.5118 49.2843 148.4661 26.0999 50.3292
# 5 37.4712 -41.7709 20.3416 26.0999 46.6176 25.9898
# 6 56.8217 -91.5073 -10.9192 50.3292 25.9898 55.9383
#
#
#
# Elastic Compliance Matrix: (Units=1/GPa)
#
#
# Indices 1 2 3 4 5 6 
#
# 1 0.011841 0.002492 -0.001272 -0.007113 -0.002354 -0.000706
# 2 0.002492 0.006753 -0.003215 0.002753 0.001205 0.004852
# 3 -0.001272 -0.003215 0.014876 -0.008648 -0.009788 0.011265
# 4 -0.007113 0.002753 -0.008648 0.020990 0.006933 -0.012065
# 5 -0.002354 0.001205 -0.009788 0.006933 0.036335 -0.020669
# 6 -0.000706 0.004852 0.011265 -0.012065 -0.020669 0.049188
#
#
# Mechanical properties :
#
#
# Convention : Reuss Voigt Hill
#
# Bulk Modulus (GPa) = 33.92056 56.28358 45.10207
# Shear Modulus (GPa) = 32.51012 101.63717 67.07364
#
# Velocity S-wave (km/s) = 3.61479 6.39145 5.19218
# Velocity P-wave (km/s) = 5.57278 8.78006 7.35341
#
# Compressibility (1/GPa) = 0.02948064
#
# Stress axis : x y z
#
# Youngs Moduli (GPa) = 84.45320 148.07383 67.22380
#
# Poissons Ratio (x) = -0.36901 0.08549
# Poissons Ratio (y) = -0.21046 0.21612
# Poissons Ratio (z) = 0.10740 0.47606
#
# Static dielectric constant tensor:
#      x y z
#    x 1.967550 0.026900 0.067670 
#    y 0.026900 2.139690 -0.090770 
#    z 0.067670 -0.090770 2.159460 
# 
# From -- ./inp_files/20463.got.cif
#   From: 2010.05.17/outbox.cif.g08.bks.cpg/sg2_11_cif.got.tgz:20463.got - 2010.06.03 11:33:40.
