data_PCOD9025443
_publ_section_title
;
Structure prediction by ZEFSAII (Michael W. Deem and Ramdas Pophale) SiO2 
 PCOD9025443
Probable space group: P -1
;
_chemical_formula_sum "Si O2"
_cell_formula_units_Z 16
_cell_length_a 17.750312
_cell_length_b 8.244904
_cell_length_c 9.217479
_cell_angle_alpha 81.579200
_cell_angle_beta 140.695038
_cell_angle_gamma 117.906433
_cell_volume 696.819411
_symmetry_space_group_name_H-M "P -1"
_symmetry_group_IT_number 2
_symmetry_cell_setting 'triclinic'
loop_
_space_group_symop_operation_xyz
x,y,z
-x,-y,-z
loop_
_atom_site_type_symbol
_atom_site_label
_atom_site_fract_x
_atom_site_fract_y
_atom_site_fract_z
Si Si1 0.706433 0.973615 0.430946
Si Si2 0.128867 0.197384 0.246447
Si Si3 0.387835 0.800896 0.543148
Si Si4 0.703503 0.121224 0.901166
Si Si5 0.207567 0.517725 0.822518
Si Si6 0.996776 0.710289 0.710399
Si Si7 0.031099 0.361128 0.857401
Si Si8 0.446339 0.641721 0.924607
O O1 0.733248 0.810995 0.553829
O O2 0.645526 0.052148 0.447273
O O3 0.869573 0.162690 0.614514
O O4 0.587159 0.862842 0.142384
O O5 0.091220 0.216570 0.351535
O O6 0.112933 0.355348 0.119606
O O7 0.000000 0.000000 0.000000
O O8 0.318262 0.774617 0.283660
O O9 0.365396 0.651367 0.659702
O O10 0.555923 0.916105 0.739107
O O11 0.748397 0.266681 0.086592
O O12 0.837120 0.106876 0.072718
O O13 0.074766 0.392939 0.533051
O O14 0.342660 0.563508 0.921844
O O15 0.138700 0.393683 0.883584
O O16 0.006582 0.536138 0.817824
O O17 0.500000 0.500000 0.000000
#
# Coordination Sequence:
#
# PCOD9025443 Si02
#       8
#     2   2   2   2   2   2   2   2
#     4  11  23  43  71  95 135 182 228 273 340 405
#     4  10  22  42  63 101 138 178 226 276 336 400
#     4  11  24  44  72  95 137 180 234 269 341 404
#     4  10  22  42  68 107 127 180 227 286 328 397
#     4  11  24  42  65 104 138 169 230 277 341 400
#     4  11  22  39  70  99 141 169 230 275 345 398
#     4  10  22  40  69 101 130 180 223 287 333 394
#     4  12  27  46  65 100 138 183 222 276 344 408
#
# _framework density 22.961472000000001
#
# number of rings (size 3 to 8) (size 9 to 14) (size 15 to 20)
#    0.000    1.250    1.250    5.250    3.500    5.000 
#    9.000    4.375    0.000    0.000    0.000    0.000 
#    0.000    0.000    0.000    0.000    0.000    0.000 
#
# Total GULP energy -89254.373846 kJ/mol
# GULP energy per Si atom -5578.398365 kJ/mol
# Density = 2.290921 g / cm^3
# Si number density = 22.961472 Si / 1000 Ang^3
#
#
#
# Elastic Constant Matrix: (Units=GPa)
#
#
# Indices 1 2 3 4 5 6 
#
# 1 104.2003 56.1882 22.8008 -18.8467 5.2505 -7.7689
# 2 56.1882 9.5963 14.0887 12.3659 3.3438 -7.2576
# 3 22.8008 14.0887 100.1495 -4.8461 -0.1455 0.2532
# 4 -18.8467 12.3659 -4.8461 30.2760 5.6157 15.7645
# 5 5.2505 3.3438 -0.1455 5.6157 41.7111 5.2070
# 6 -7.7689 -7.2576 0.2532 15.7645 5.2070 34.0400
#
#
#
# Elastic Compliance Matrix: (Units=1/GPa)
#
#
# Indices 1 2 3 4 5 6 
#
# 1 0.001400 0.014392 -0.002819 -0.009383 -0.001065 0.007917
# 2 0.014392 -0.020432 0.000785 0.023975 -0.001915 -0.011887
# 3 -0.002819 0.000785 0.010509 -0.000197 0.000421 -0.000527
# 4 -0.009383 0.023975 -0.000197 0.021234 -0.002797 -0.006434
# 5 -0.001065 -0.001915 0.000421 -0.002797 0.025038 -0.003189
# 6 0.007917 -0.011887 -0.000527 -0.006434 -0.003189 0.032121
#
#
# Mechanical properties :
#
#
# Convention : Reuss Voigt Hill
#
# Bulk Modulus (GPa) = 61.75338 44.45573 53.10456
# Shear Modulus (GPa) = 98.90806 29.26330 64.08568
#
# Velocity S-wave (km/s) = 6.57033 3.57382 5.28873
# Velocity P-wave (km/s) = 9.19302 6.03595 7.77638
#
# Compressibility (1/GPa) = 0.01619345
#
# Stress axis : x y z
#
# Youngs Moduli (GPa) = 714.35271 -48.94368 95.15792
#
# Poissons Ratio (x) = 0.70440 0.26824
# Poissons Ratio (y) = -10.28105 -0.07470
# Poissons Ratio (z) = 2.01372 0.03842
#
# Static dielectric constant tensor:
#      x y z
#    x 1.843650 0.066960 -0.004900 
#    y 0.066960 1.963010 0.023600 
#    z -0.004900 0.023600 1.895660 
# 
# From -- ./inp_files/328975.got.cif
#   From: 2010.05.17/outbox.cif.g08.bks.cpg/sg2_165_cif.got.tgz:328975.got - 2010.06.03 11:33:40.
