data_PCOD9025926
_publ_section_title
;
Structure prediction by ZEFSAII (Michael W. Deem and Ramdas Pophale) SiO2 
 PCOD9025926
Probable space group: P -1
;
_chemical_formula_sum "Si O2"
_cell_formula_units_Z 16
_cell_length_a 15.148248
_cell_length_b 8.207188
_cell_length_c 14.181191
_cell_angle_alpha 45.344248
_cell_angle_beta 38.765405
_cell_angle_gamma 54.675974
_cell_volume 783.457835
_symmetry_space_group_name_H-M "P -1"
_symmetry_group_IT_number 2
_symmetry_cell_setting 'triclinic'
loop_
_space_group_symop_operation_xyz
x,y,z
-x,-y,-z
loop_
_atom_site_type_symbol
_atom_site_label
_atom_site_fract_x
_atom_site_fract_y
_atom_site_fract_z
Si Si1 0.051101 0.448073 0.653444
Si Si2 0.337299 0.449295 0.148854
Si Si3 0.749637 0.957674 0.842794
Si Si4 0.990364 0.990109 0.771724
Si Si5 0.335510 0.557483 0.901561
Si Si6 0.059114 0.770764 0.989417
Si Si7 0.862657 0.893324 0.577763
Si Si8 0.656020 0.442805 0.693945
O O1 0.216554 0.492913 0.504511
O O2 0.026703 0.221279 0.703647
O O3 0.993153 0.424057 0.818113
O O4 0.963741 0.658636 0.589471
O O5 0.295862 0.191367 0.269693
O O6 0.281818 0.502533 0.277007
O O7 0.500000 0.500000 0.000000
O O8 0.290376 0.585705 0.038126
O O9 0.856383 0.976213 0.657038
O O10 0.836265 0.999845 0.848546
O O11 0.638153 0.170670 0.828135
O O12 0.695480 0.704181 0.992629
O O13 0.094328 0.961261 0.606475
O O14 0.006344 0.793520 0.917509
O O15 0.504018 0.571655 0.748717
O O16 0.229377 0.732393 0.863016
O O17 0.000000 0.000000 0.000000
#
# Coordination Sequence:
#
# PCOD9025926 Si02
#       8
#     2   2   2   2   2   2   2   2
#     4  11  20  38  62  90 113 155 205 253 291 339
#     4   9  18  33  59  84 114 151 195 246 298 336
#     4  11  22  34  61  93 121 154 194 248 304 352
#     4  11  22  35  60  92 118 152 205 246 298 350
#     4  10  22  41  56  87 127 157 196 242 304 359
#     4  10  23  40  62  86 120 161 198 248 293 355
#     4  11  19  35  58  91 119 146 203 255 288 342
#     4  11  21  35  64  88 120 157 198 250 300 346
#
# _framework density 20.422286
#
# number of rings (size 3 to 8) (size 9 to 14) (size 15 to 20)
#    0.000    1.500    5.000    1.875    1.750    0.500 
#    0.000    2.500    0.000    1.500    0.000    0.000 
#    0.000    0.000    0.000    0.000    0.000    0.000 
#
# Total GULP energy -89162.585241 kJ/mol
# GULP energy per Si atom -5572.661578 kJ/mol
# Density = 2.037580 g / cm^3
# Si number density = 20.422286 Si / 1000 Ang^3
#
#
#
# Elastic Constant Matrix: (Units=GPa)
#
#
# Indices 1 2 3 4 5 6 
#
# 1 112.3932 29.7378 48.8169 7.4078 9.5519 -9.8415
# 2 29.7378 56.3608 -1.4107 0.3924 -8.4442 -7.8746
# 3 48.8169 -1.4107 81.7312 9.7701 -0.0637 -6.5086
# 4 7.4078 0.3924 9.7701 20.8946 2.2581 -11.5487
# 5 9.5519 -8.4442 -0.0637 2.2581 40.4038 4.6339
# 6 -9.8415 -7.8746 -6.5086 -11.5487 4.6339 30.1546
#
#
#
# Elastic Compliance Matrix: (Units=1/GPa)
#
#
# Indices 1 2 3 4 5 6 
#
# 1 0.016345 -0.009524 -0.009865 0.000733 -0.006134 0.001941
# 2 -0.009524 0.024522 0.006264 0.001573 0.006817 0.004203
# 3 -0.009865 0.006264 0.018939 -0.006188 0.004073 -0.000492
# 4 0.000733 0.001573 -0.006188 0.065096 -0.006385 0.025226
# 5 -0.006134 0.006817 0.004073 -0.006385 0.028699 -0.006198
# 6 0.001941 0.004203 -0.000492 0.025226 -0.006198 0.045401
#
#
# Mechanical properties :
#
#
# Convention : Reuss Voigt Hill
#
# Bulk Modulus (GPa) = 29.80061 44.97479 37.38770
# Shear Modulus (GPa) = 21.14723 29.84669 25.49696
#
# Velocity S-wave (km/s) = 3.22141 3.82707 3.53723
# Velocity P-wave (km/s) = 5.33484 6.44972 5.91859
#
# Compressibility (1/GPa) = 0.03355636
#
# Stress axis : x y z
#
# Youngs Moduli (GPa) = 61.18139 40.77936 52.80079
#
# Poissons Ratio (x) = 0.38838 0.52086
# Poissons Ratio (y) = 0.58268 -0.33072
# Poissons Ratio (z) = 0.60354 -0.25543
#
# Static dielectric constant tensor:
#      x y z
#    x 1.770080 0.021240 -0.016640 
#    y 0.021240 1.773160 0.000840 
#    z -0.016640 0.000840 1.793570 
# 
# From -- ./inp_files/527234.got.cif
#   From: 2010.05.17/outbox.cif.g08.bks.cpg/sg2_264_cif.got.tgz:527234.got - 2010.06.03 11:33:40.
