data_PCOD9025299
_publ_section_title
;
Structure prediction by ZEFSAII (Michael W. Deem and Ramdas Pophale) SiO2 
 PCOD9025299
Probable space group: P -1
;
_chemical_formula_sum "Si O2"
_cell_formula_units_Z 14
_cell_length_a 7.833550
_cell_length_b 26.329406
_cell_length_c 14.216899
_cell_angle_alpha 19.906314
_cell_angle_beta 129.289667
_cell_angle_gamma 141.194804
_cell_volume 553.506903
_symmetry_space_group_name_H-M "P -1"
_symmetry_group_IT_number 2
_symmetry_cell_setting 'triclinic'
loop_
_space_group_symop_operation_xyz
x,y,z
-x,-y,-z
loop_
_atom_site_type_symbol
_atom_site_label
_atom_site_fract_x
_atom_site_fract_y
_atom_site_fract_z
Si Si1 0.914318 0.213429 0.950884
Si Si2 0.503909 0.595226 0.602263
Si Si3 0.634098 0.910512 0.947512
Si Si4 0.877152 0.716825 0.674072
Si Si5 0.790816 0.412967 0.960463
Si Si6 0.763551 0.495279 0.602599
Si Si7 0.880273 0.997564 0.566282
O O1 0.157381 0.404793 0.774947
O O2 0.952148 0.321412 0.680768
O O3 0.046277 0.113627 0.152963
O O4 0.566468 0.049700 0.148988
O O5 0.553140 0.626147 0.678008
O O6 0.668370 0.513352 0.781942
O O7 0.653594 0.795838 0.238715
O O8 0.904937 0.097536 0.650994
O O9 0.405737 0.722945 0.122430
O O10 0.939020 0.568416 0.944228
O O11 0.966879 0.804442 0.659707
O O12 0.486694 0.162818 0.290143
O O13 0.871597 0.503000 0.728006
O O14 0.500000 0.500000 0.500000
O O15 0.000000 0.000000 0.500000
#
# Coordination Sequence:
#
# PCOD9025299 Si02
#       7
#     2   2   2   2   2   2   2
#     4  10  22  40  68  90 126 166 220 256 299 382
#     4  10  22  41  65  97 130 163 206 263 320 371
#     4  11  21  40  69  95 122 168 215 257 308 381
#     4  12  24  40  66  97 129 165 204 268 327 361
#     4  11  22  39  65  93 126 170 213 251 312 390
#     4  11  17  36  64  94 117 164 220 254 296 371
#     4  11  23  40  63  92 127 166 217 259 307 376
#
# _framework density 25.29327
#
# number of rings (size 3 to 8) (size 9 to 14) (size 15 to 20)
#    0.000    1.143    5.714    3.857    2.000    0.000 
#    0.000    3.571    9.429    0.000    0.000    0.000 
#    0.000    0.000    0.000    0.000    0.000    0.000 
#
# Total GULP energy -78156.851622 kJ/mol
# GULP energy per Si atom -5582.632259 kJ/mol
# Density = 2.523570 g / cm^3
# Si number density = 25.293270 Si / 1000 Ang^3
#
#
#
# Elastic Constant Matrix: (Units=GPa)
#
#
# Indices 1 2 3 4 5 6 
#
# 1 84.4185 30.7543 18.8427 6.0314 -10.4975 0.1726
# 2 30.7543 98.9065 12.2465 38.9858 -9.8021 -2.4875
# 3 18.8427 12.2465 79.1197 16.6691 -4.2013 11.4372
# 4 6.0314 38.9858 16.6691 33.7073 4.7364 8.5624
# 5 -10.4975 -9.8021 -4.2013 4.7364 43.7046 3.3054
# 6 0.1726 -2.4875 11.4372 8.5624 3.3054 15.4185
#
#
#
# Elastic Compliance Matrix: (Units=1/GPa)
#
#
# Indices 1 2 3 4 5 6 
#
# 1 0.014949 -0.007732 -0.003645 0.008932 0.000829 -0.003849
# 2 -0.007732 0.030342 0.002966 -0.042576 0.007978 0.024715
# 3 -0.003645 0.002966 0.016183 -0.009444 0.002888 -0.006859
# 4 0.008932 -0.042576 -0.009444 0.096938 -0.014991 -0.050583
# 5 0.000829 0.007978 0.002888 -0.014991 0.026639 0.001750
# 6 -0.003849 0.024715 -0.006859 -0.050583 0.001750 0.101691
#
#
# Mechanical properties :
#
#
# Convention : Reuss Voigt Hill
#
# Bulk Modulus (GPa) = 22.39576 42.90350 32.64963
# Shear Modulus (GPa) = 15.70115 31.93949 23.82032
#
# Velocity S-wave (km/s) = 2.49422 3.55740 3.07215
# Velocity P-wave (km/s) = 4.14349 5.82002 5.05179
#
# Compressibility (1/GPa) = 0.04465131
#
# Stress axis : x y z
#
# Youngs Moduli (GPa) = 66.89389 32.95765 61.79475
#
# Poissons Ratio (x) = 0.25484 0.22522
# Poissons Ratio (y) = 0.51725 -0.18328
# Poissons Ratio (z) = 0.24381 -0.09775
#
# Static dielectric constant tensor:
#      x y z
#    x 2.103650 -0.014610 0.008330 
#    y -0.014610 2.037570 -0.029500 
#    z 0.008330 -0.029500 2.007410 
# 
# From -- ./inp_files/508979.got.cif
#   From: 2010.05.17/outbox.cif.g08.bks.cpg/sg2_255_cif.got.tgz:508979.got - 2010.06.03 11:33:40.
