data_PCOD9025686
_publ_section_title
;
Structure prediction by ZEFSAII (Michael W. Deem and Ramdas Pophale) SiO2 
 PCOD9025686
Probable space group: P -1
;
_chemical_formula_sum "Si O2"
_cell_formula_units_Z 13
_cell_length_a 7.582893
_cell_length_b 5.430943
_cell_length_c 14.302626
_cell_angle_alpha 68.125463
_cell_angle_beta 119.277193
_cell_angle_gamma 113.602140
_cell_volume 459.139314
_symmetry_space_group_name_H-M "P -1"
_symmetry_group_IT_number 2
_symmetry_cell_setting 'triclinic'
loop_
_space_group_symop_operation_xyz
x,y,z
-x,-y,-z
loop_
_atom_site_type_symbol
_atom_site_label
_atom_site_fract_x
_atom_site_fract_y
_atom_site_fract_z
Si Si1 0.871235 0.203915 0.216839
Si Si2 0.289464 0.420209 0.739129
Si Si3 0.802453 0.285076 0.814840
Si Si4 0.496776 0.782927 0.412197
Si Si5 0.311960 0.616198 0.034379
Si Si6 0.000000 0.000000 0.000000
Si Si7 0.780576 0.269955 0.481922
O O1 0.829058 0.381504 0.268567
O O2 0.097632 0.392518 0.215857
O O3 0.843604 0.887770 0.275589
O O4 0.705853 0.231384 0.088177
O O5 0.473931 0.394258 0.859954
O O6 0.365355 0.580347 0.638970
O O7 0.593147 0.188748 0.717204
O O8 0.786639 0.220978 0.932894
O O9 0.971560 0.117343 0.867018
O O10 0.500000 0.500000 0.500000
O O11 0.311749 0.829639 0.426085
O O12 0.729829 0.978749 0.457478
O O13 0.182767 0.302691 0.028806
O O14 0.000000 0.500000 0.500000
#
# Coordination Sequence:
#
# PCOD9025686 Si02
#       7
#     2   2   2   2   2   1   2
#     4  11  27  44  73 110 148 200 242 309 379 456
#     4  12  27  47  73 107 152 191 251 311 382 445
#     4  11  25  44  73 106 146 197 249 310 375 455
#     4  11  26  48  77 108 146 197 258 315 384 452
#     4  11  25  43  72 102 148 192 249 302 374 454
#     4  10  22  40  70  96 144 182 246 290 374 434
#     4  11  27  49  75 107 145 199 254 317 382 449
#
# _framework density 28.313848
#
# number of rings (size 3 to 8) (size 9 to 14) (size 15 to 20)
#    0.000    0.923    0.000    5.538   17.231    1.846 
#    0.000    0.000    0.000    0.000    0.000    0.000 
#    0.000    0.000    0.000    0.000    0.000    0.000 
#
# Total GULP energy -72589.239326 kJ/mol
# GULP energy per Si atom -5583.787640 kJ/mol
# Density = 2.824940 g / cm^3
# Si number density = 28.313848 Si / 1000 Ang^3
#
#
#
# Elastic Constant Matrix: (Units=GPa)
#
#
# Indices 1 2 3 4 5 6 
#
# 1 65.3901 32.7671 21.4605 16.3654 -6.5793 0.9176
# 2 32.7671 220.8866 49.1444 -15.0990 4.0837 20.1628
# 3 21.4605 49.1444 105.9548 4.0327 -12.4313 -6.3436
# 4 16.3654 -15.0990 4.0327 52.8414 14.1778 3.1555
# 5 -6.5793 4.0837 -12.4313 14.1778 48.0675 10.4598
# 6 0.9176 20.1628 -6.3436 3.1555 10.4598 39.4720
#
#
#
# Elastic Compliance Matrix: (Units=1/GPa)
#
#
# Indices 1 2 3 4 5 6 
#
# 1 0.020091 -0.003322 -0.001599 -0.008419 0.005034 0.000312
# 2 -0.003322 0.006247 -0.002815 0.003793 -0.002112 -0.003310
# 3 -0.001599 -0.002815 0.011676 -0.002193 0.003098 0.002706
# 4 -0.008419 0.003793 -0.002193 0.025338 -0.009146 -0.001696
# 5 0.005034 -0.002112 0.003098 -0.009146 0.026206 -0.004754
# 6 0.000312 -0.003310 0.002706 -0.001696 -0.004754 0.028848
#
#
# Mechanical properties :
#
#
# Convention : Reuss Voigt Hill
#
# Bulk Modulus (GPa) = 44.35900 66.55282 55.45591
# Shear Modulus (GPa) = 35.36273 47.33350 41.34811
#
# Velocity S-wave (km/s) = 3.53789 4.09313 3.82560
# Velocity P-wave (km/s) = 5.69120 6.77457 6.25638
#
# Compressibility (1/GPa) = 0.02254334
#
# Stress axis : x y z
#
# Youngs Moduli (GPa) = 49.77292 160.08636 85.64280
#
# Poissons Ratio (x) = 0.53175 0.13694
# Poissons Ratio (y) = 0.16533 0.24107
# Poissons Ratio (z) = 0.07959 0.45062
#
# Static dielectric constant tensor:
#      x y z
#    x 5.119520 -1.436910 1.283280 
#    y -1.436910 2.891810 -0.612250 
#    z 1.283280 -0.612250 2.926160 
# 
# From -- ./inp_files/60152.got.cif
#   From: 2010.05.17/outbox.cif.g08.bks.cpg/sg2_31_cif.got.tgz:60152.got - 2010.06.03 11:33:40.
