data_PCOD9025843
_publ_section_title
;
Structure prediction by ZEFSAII (Michael W. Deem and Ramdas Pophale) SiO2 
 PCOD9025843
Probable space group: P -1
;
_chemical_formula_sum "Si O2"
_cell_formula_units_Z 15
_cell_length_a 14.405891
_cell_length_b 8.690586
_cell_length_c 11.589894
_cell_angle_alpha 104.693079
_cell_angle_beta 44.816067
_cell_angle_gamma 138.733116
_cell_volume 538.958584
_symmetry_space_group_name_H-M "P -1"
_symmetry_group_IT_number 2
_symmetry_cell_setting 'triclinic'
loop_
_space_group_symop_operation_xyz
x,y,z
-x,-y,-z
loop_
_atom_site_type_symbol
_atom_site_label
_atom_site_fract_x
_atom_site_fract_y
_atom_site_fract_z
Si Si1 0.169711 0.702536 0.530021
Si Si2 0.831935 0.484316 0.134055
Si Si3 0.271441 0.952460 0.233943
Si Si4 0.441409 0.672792 0.253529
Si Si5 0.210638 0.484313 0.075114
Si Si6 0.608178 0.481249 0.490323
Si Si7 0.000000 0.000000 0.500000
Si Si8 0.880540 0.968470 0.895902
O O1 0.939745 0.356699 0.705374
O O2 0.068108 0.750953 0.697854
O O3 0.208794 0.810732 0.388182
O O4 0.387397 0.797598 0.363268
O O5 0.637331 0.337795 0.375499
O O6 0.728389 0.393491 0.082285
O O7 0.000000 0.500000 0.000000
O O8 0.994534 0.807888 0.068814
O O9 0.211050 0.076808 0.321588
O O10 0.555857 0.220449 0.002634
O O11 0.517721 0.664645 0.304984
O O12 0.203393 0.349130 0.353300
O O13 0.675294 0.875179 0.009687
O O14 0.211759 0.297015 0.046838
O O15 0.500000 0.500000 0.500000
O O16 0.883321 0.809961 0.353061
#
# Coordination Sequence:
#
# PCOD9025843 Si02
#       8
#     2   2   2   2   2   2   1   2
#     4  10  25  41  68  97 131 176 218 270 336 392
#     4  10  24  42  62  96 132 168 218 274 327 389
#     4  10  23  44  64  98 135 170 222 273 331 392
#     4  11  22  45  65  96 135 172 222 274 327 399
#     4  12  22  42  68  94 131 175 219 273 330 391
#     4  10  24  41  67  95 130 175 221 272 325 395
#     4  10  22  40  72  94 130 174 214 276 326 388
#     4  10  25  41  63  94 130 173 216 269 329 387
#
# _framework density 27.831451000000001
#
# number of rings (size 3 to 8) (size 9 to 14) (size 15 to 20)
#    0.800    0.800    1.333    2.400    5.600    0.000 
#    0.000    6.667    0.000    0.000    0.000    0.000 
#    0.000    0.000    0.000    0.000    0.000    0.000 
#
# Total GULP energy -83600.558416 kJ/mol
# GULP energy per Si atom -5573.370561 kJ/mol
# Density = 2.776811 g / cm^3
# Si number density = 27.831451 Si / 1000 Ang^3
#
#
#
# Elastic Constant Matrix: (Units=GPa)
#
#
# Indices 1 2 3 4 5 6 
#
# 1 98.5057 19.8170 18.6240 10.1602 -14.4753 -23.8423
# 2 19.8170 92.4261 29.7873 14.7651 -11.6954 -24.6327
# 3 18.6240 29.7873 151.3661 5.2945 -30.7168 -9.9204
# 4 10.1602 14.7651 5.2945 52.9719 -1.1410 -10.8301
# 5 -14.4753 -11.6954 -30.7168 -1.1410 37.0171 7.5460
# 6 -23.8423 -24.6327 -9.9204 -10.8301 7.5460 30.5239
#
#
#
# Elastic Compliance Matrix: (Units=1/GPa)
#
#
# Indices 1 2 3 4 5 6 
#
# 1 0.012896 0.000296 -0.000436 -0.000557 0.002869 0.009264
# 2 0.000296 0.014590 -0.001977 -0.001756 0.000886 0.010521
# 3 -0.000436 -0.001977 0.008265 -0.000236 0.006234 -0.000875
# 4 -0.000557 -0.001756 -0.000236 0.020645 -0.001508 0.005769
# 5 0.002869 0.000886 0.006234 -0.001508 0.034369 -0.004049
# 6 0.009264 0.010521 -0.000875 0.005769 -0.004049 0.051251
#
#
# Mechanical properties :
#
#
# Convention : Reuss Voigt Hill
#
# Bulk Modulus (GPa) = 31.72847 53.19493 42.46170
# Shear Modulus (GPa) = 31.89718 42.37388 37.13553
#
# Velocity S-wave (km/s) = 3.38906 3.90618 3.65677
# Velocity P-wave (km/s) = 5.17100 6.28483 5.75492
#
# Compressibility (1/GPa) = 0.03151743
#
# Stress axis : x y z
#
# Youngs Moduli (GPa) = 77.54525 68.54236 120.98844
#
# Poissons Ratio (x) = -0.02032 0.05278
# Poissons Ratio (y) = -0.02299 0.23916
# Poissons Ratio (z) = 0.03383 0.13549
#
# Static dielectric constant tensor:
#      x y z
#    x 1.727380 -0.314520 -0.377340 
#    y -0.314520 1.855870 -0.306050 
#    z -0.377340 -0.306050 2.009400 
# 
# From -- ./inp_files/529892.got.cif
#   From: 2010.05.17/outbox.cif.g08.bks.cpg/sg2_265_cif.got.tgz:529892.got - 2010.06.03 11:33:40.
