data_PCOD9025003
_publ_section_title
;
Structure prediction by ZEFSAII (Michael W. Deem and Ramdas Pophale) SiO2 
 PCOD9025003
Probable space group: P -1
;
_chemical_formula_sum "Si O2"
_cell_formula_units_Z 16
_cell_length_a 15.019436
_cell_length_b 10.470416
_cell_length_c 8.302737
_cell_angle_alpha 70.428969
_cell_angle_beta 59.919603
_cell_angle_gamma 118.468547
_cell_volume 651.918742
_symmetry_space_group_name_H-M "P -1"
_symmetry_group_IT_number 2
_symmetry_cell_setting 'triclinic'
loop_
_space_group_symop_operation_xyz
x,y,z
-x,-y,-z
loop_
_atom_site_type_symbol
_atom_site_label
_atom_site_fract_x
_atom_site_fract_y
_atom_site_fract_z
Si Si1 0.264873 0.623955 0.276521
Si Si2 0.691558 0.406538 0.434614
Si Si3 0.376038 0.940835 0.770348
Si Si4 0.234684 0.005575 0.648520
Si Si5 0.359238 0.105608 0.141064
Si Si6 0.554153 0.528811 0.621671
Si Si7 0.926004 0.806899 0.862977
Si Si8 0.950571 0.133575 0.632930
O O1 0.228982 0.617828 0.501873
O O2 0.114520 0.367760 0.467521
O O3 0.462150 0.784416 0.052978
O O4 0.284138 0.746320 0.059427
O O5 0.505144 0.167693 0.659053
O O6 0.688554 0.547543 0.472243
O O7 0.780220 0.544793 0.132469
O O8 0.244941 0.895915 0.811418
O O9 0.500000 0.000000 0.500000
O O10 0.280065 0.003169 0.430515
O O11 0.374267 0.260774 0.460343
O O12 0.060612 0.902117 0.834068
O O13 0.207199 0.929418 0.224939
O O14 0.415497 0.318837 0.954434
O O15 0.500000 0.500000 0.500000
O O16 0.997476 0.855552 0.599854
O O17 0.893713 0.933809 0.853782
#
# Coordination Sequence:
#
# PCOD9025003 Si02
#       8
#     2   2   2   2   2   2   2   2
#     4  11  24  44  66  96 133 180 218 275 322 393
#     4  11  24  42  66  97 133 170 217 274 343 385
#     4  12  24  45  69  90 130 182 230 267 313 397
#     4  11  23  41  65  99 130 174 222 268 332 386
#     4  10  22  40  67 100 129 173 224 267 329 393
#     4  11  21  36  65  98 133 165 208 275 336 394
#     4  10  22  41  64 102 132 166 217 279 331 396
#     4  10  22  41  68  98 134 169 220 275 328 389
#
# _framework density 24.542936000000001
#
# number of rings (size 3 to 8) (size 9 to 14) (size 15 to 20)
#    0.000    1.250    2.500    3.750    0.000    4.000 
#    2.250    2.500    0.000    0.000    0.000    0.000 
#    0.000    0.000    0.000    0.000    0.000    0.000 
#
# Total GULP energy -89332.649294 kJ/mol
# GULP energy per Si atom -5583.290581 kJ/mol
# Density = 2.448708 g / cm^3
# Si number density = 24.542936 Si / 1000 Ang^3
#
#
#
# Elastic Constant Matrix: (Units=GPa)
#
#
# Indices 1 2 3 4 5 6 
#
# 1 151.8715 54.5537 42.3854 -1.4633 15.8298 38.2012
# 2 54.5537 69.5323 20.2708 -9.5884 -3.5792 18.1617
# 3 42.3854 20.2708 105.6538 -10.9268 27.8217 10.9947
# 4 -1.4633 -9.5884 -10.9268 27.1264 11.1236 -4.2389
# 5 15.8298 -3.5792 27.8217 11.1236 45.9987 -1.5781
# 6 38.2012 18.1617 10.9947 -4.2389 -1.5781 31.9309
#
#
#
# Elastic Compliance Matrix: (Units=1/GPa)
#
#
# Indices 1 2 3 4 5 6 
#
# 1 0.012869 -0.007173 -0.002036 -0.003010 -0.003411 -0.011183
# 2 -0.007173 0.022004 -0.001626 0.004724 0.003934 -0.002553
# 3 -0.002036 -0.001626 0.014372 0.009224 -0.010379 -0.000877
# 4 -0.003010 0.004724 0.009224 0.049170 -0.015947 0.003477
# 5 -0.003411 0.003934 -0.010379 -0.015947 0.033524 0.004957
# 6 -0.011183 -0.002553 -0.000877 0.003477 0.004957 0.047158
#
#
# Mechanical properties :
#
#
# Convention : Reuss Voigt Hill
#
# Bulk Modulus (GPa) = 36.26346 62.38638 49.32492
# Shear Modulus (GPa) = 23.81448 35.00103 29.40776
#
# Velocity S-wave (km/s) = 3.11837 3.78049 3.46528
# Velocity P-wave (km/s) = 5.27003 6.67313 6.01265
#
# Compressibility (1/GPa) = 0.02757597
#
# Stress axis : x y z
#
# Youngs Moduli (GPa) = 77.70795 45.44608 69.58090
#
# Poissons Ratio (x) = 0.32597 0.14164
# Poissons Ratio (y) = 0.55737 0.11314
# Poissons Ratio (z) = 0.15819 0.07389
#
# Static dielectric constant tensor:
#      x y z
#    x 2.012230 -0.028590 -0.003200 
#    y -0.028590 1.963440 0.062690 
#    z -0.003200 0.062690 2.113650 
# 
# From -- ./inp_files/306731.got.cif
#   From: 2010.05.17/outbox.cif.g08.bks.cpg/sg2_154_cif.got.tgz:306731.got - 2010.06.03 11:33:40.
