data_PCOD9025332
_publ_section_title
;
Structure prediction by ZEFSAII (Michael W. Deem and Ramdas Pophale) SiO2 
 PCOD9025332
Probable space group: P -1
;
_chemical_formula_sum "Si O2"
_cell_formula_units_Z 14
_cell_length_a 15.557259
_cell_length_b 8.994643
_cell_length_c 9.978757
_cell_angle_alpha 74.535022
_cell_angle_beta 51.454361
_cell_angle_gamma 39.711607
_cell_volume 631.395440
_symmetry_space_group_name_H-M "P -1"
_symmetry_group_IT_number 2
_symmetry_cell_setting 'triclinic'
loop_
_space_group_symop_operation_xyz
x,y,z
-x,-y,-z
loop_
_atom_site_type_symbol
_atom_site_label
_atom_site_fract_x
_atom_site_fract_y
_atom_site_fract_z
Si Si1 0.452101 0.128327 0.157374
Si Si2 0.926004 0.441067 0.676454
Si Si3 0.006542 0.362850 0.909979
Si Si4 0.666209 0.188746 0.919405
Si Si5 0.327376 0.152887 0.541693
Si Si6 0.139171 0.928343 0.489160
Si Si7 0.920844 0.287461 0.254647
O O1 0.254526 0.422218 0.249405
O O2 0.408617 0.059455 0.335972
O O3 0.587098 0.114967 0.064022
O O4 0.500000 0.000000 0.000000
O O5 0.000000 0.500000 0.500000
O O6 0.898018 0.517384 0.840593
O O7 0.055958 0.149435 0.613224
O O8 0.216438 0.130469 0.710078
O O9 0.000000 0.500000 0.000000
O O10 0.924281 0.314018 0.085689
O O11 0.724830 0.127726 0.721947
O O12 0.500000 0.500000 0.000000
O O13 0.863125 0.984768 0.853339
O O14 0.173704 0.461687 0.635338
O O15 0.500000 0.000000 0.500000
O O16 0.197612 0.722624 0.575694
O O17 0.000000 0.000000 0.500000
#
# Coordination Sequence:
#
# PCOD9025332 Si02
#       7
#     2   2   2   2   2   2   2
#     4  12  25  35  64 100 133 164 225 287 328 396
#     4  12  24  44  68 100 138 179 234 284 337 406
#     4  10  24  40  69  94 136 182 224 282 348 399
#     4  11  22  40  66  97 132 177 223 273 339 407
#     4  11  23  41  66  97 134 180 224 278 344 405
#     4  10  22  40  68  94 132 179 219 278 343 397
#     4  10  22  43  69  92 136 181 230 270 342 411
#
# _framework density 22.173109
#
# number of rings (size 3 to 8) (size 9 to 14) (size 15 to 20)
#    0.000    1.143    1.429    6.000   12.000    0.571 
#    0.000    0.000    0.000    2.571    0.000    0.000 
#    0.000    0.000    0.000    0.000    0.000    0.000 
#
# Total GULP energy -77970.736229 kJ/mol
# GULP energy per Si atom -5569.338302 kJ/mol
# Density = 2.212264 g / cm^3
# Si number density = 22.173109 Si / 1000 Ang^3
#
#
#
# Elastic Constant Matrix: (Units=GPa)
#
#
# Indices 1 2 3 4 5 6 
#
# 1 51.0983 1.5782 12.3609 -2.5780 6.7338 -11.7668
# 2 1.5782 51.8005 10.6471 -0.6330 14.0676 -0.9800
# 3 12.3609 10.6471 144.2839 -40.5263 14.6883 -4.1388
# 4 -2.5780 -0.6330 -40.5263 48.6438 -2.5843 -1.2968
# 5 6.7338 14.0676 14.6883 -2.5843 37.4726 -0.7626
# 6 -11.7668 -0.9800 -4.1388 -1.2968 -0.7626 38.1295
#
#
#
# Elastic Compliance Matrix: (Units=1/GPa)
#
#
# Indices 1 2 3 4 5 6 
#
# 1 0.021851 0.000695 -0.001375 0.000009 -0.003515 0.006542
# 2 0.000695 0.021650 -0.001132 -0.001031 -0.007870 0.000456
# 3 -0.001375 -0.001132 0.009605 0.007801 -0.002538 0.000804
# 4 0.000009 -0.001031 0.007801 0.027049 -0.000772 0.001728
# 5 -0.003515 -0.007870 -0.002538 -0.000772 0.031195 -0.000965
# 6 0.006542 0.000456 0.000804 0.001728 -0.000965 0.028384
#
#
# Mechanical properties :
#
#
# Convention : Reuss Voigt Hill
#
# Bulk Modulus (GPa) = 20.20969 32.92834 26.56902
# Shear Modulus (GPa) = 31.27905 39.68895 35.48400
#
# Velocity S-wave (km/s) = 3.75997 4.23538 4.00474
# Velocity P-wave (km/s) = 5.29000 6.22902 5.77862
#
# Compressibility (1/GPa) = 0.04948120
#
# Stress axis : x y z
#
# Youngs Moduli (GPa) = 45.76356 46.18977 104.11567
#
# Poissons Ratio (x) = -0.03212 0.14319
# Poissons Ratio (y) = -0.03182 0.11790
# Poissons Ratio (z) = 0.06294 0.05231
#
# Static dielectric constant tensor:
#      x y z
#    x 1.919710 -0.055180 -0.107500 
#    y -0.055180 1.941810 0.036740 
#    z -0.107500 0.036740 1.973090 
# 
# From -- ./inp_files/298163.got.cif
#   From: 2010.05.17/outbox.cif.g08.bks.cpg/sg2_150_cif.got.tgz:298163.got - 2010.06.03 11:33:40.
