data_PCOD9025989
_publ_section_title
;
Structure prediction by ZEFSAII (Michael W. Deem and Ramdas Pophale) SiO2 
 PCOD9025989
Probable space group: P -1
;
_chemical_formula_sum "Si O2"
_cell_formula_units_Z 14
_cell_length_a 9.643627
_cell_length_b 5.523344
_cell_length_c 18.620377
_cell_angle_alpha 124.847412
_cell_angle_beta 65.402845
_cell_angle_gamma 132.753007
_cell_volume 597.018281
_symmetry_space_group_name_H-M "P -1"
_symmetry_group_IT_number 2
_symmetry_cell_setting 'triclinic'
loop_
_space_group_symop_operation_xyz
x,y,z
-x,-y,-z
loop_
_atom_site_type_symbol
_atom_site_label
_atom_site_fract_x
_atom_site_fract_y
_atom_site_fract_z
Si Si1 0.140514 0.752017 0.708946
Si Si2 0.311568 0.423080 0.994967
Si Si3 0.711711 0.489508 0.144463
Si Si4 0.754973 0.541344 0.708020
Si Si5 0.398305 0.027458 0.237630
Si Si6 0.007045 0.577703 0.870206
Si Si7 0.471088 0.744953 0.597737
O O1 0.054916 0.574586 0.775824
O O2 0.259984 0.634793 0.625490
O O3 0.972141 0.685713 0.685283
O O4 0.288339 0.177839 0.770102
O O5 0.349853 0.604528 0.939493
O O6 0.154380 0.994203 0.937748
O O7 0.500000 0.500000 0.000000
O O8 0.199773 0.532561 0.086606
O O9 0.570620 0.156162 0.169913
O O10 0.927081 0.626619 0.131665
O O11 0.724778 0.849847 0.750368
O O12 0.686147 0.362055 0.772449
O O13 0.624485 0.182327 0.625200
O O14 0.485723 0.283180 0.333408
O O15 0.500000 0.500000 0.500000
#
# Coordination Sequence:
#
# PCOD9025989 Si02
#       7
#     2   2   2   2   2   2   2
#     4  11  23  41  68  96 131 177 221 277 333 401
#     4  10  24  40  61  92 130 170 217 279 328 390
#     4  11  21  41  67  90 134 174 222 272 336 394
#     4  10  24  42  65 102 133 174 227 270 336 399
#     4  10  22  43  65  99 132 174 221 273 332 397
#     4  10  22  41  60  94 127 166 225 266 334 393
#     4  10  23  44  68  98 137 174 221 279 336 396
#
# _framework density 23.449866
#
# number of rings (size 3 to 8) (size 9 to 14) (size 15 to 20)
#    0.857    0.857    2.857    0.429    6.000    1.714 
#    0.000    0.714    0.000    0.000    0.000    0.000 
#    0.000    0.000    0.000    0.000    0.000    0.000 
#
# Total GULP energy -78238.375975 kJ/mol
# GULP energy per Si atom -5588.455427 kJ/mol
# Density = 2.339649 g / cm^3
# Si number density = 23.449866 Si / 1000 Ang^3
#
#
#
# Elastic Constant Matrix: (Units=GPa)
#
#
# Indices 1 2 3 4 5 6 
#
# 1 187.0915 20.4039 40.9463 -13.3518 -32.9613 14.9383
# 2 20.4039 85.6554 22.7914 3.1696 -12.7730 3.2250
# 3 40.9463 22.7914 116.2132 2.2087 -40.9915 5.0884
# 4 -13.3518 3.1696 2.2087 26.8546 -1.1819 -4.3981
# 5 -32.9613 -12.7730 -40.9915 -1.1819 39.4937 -4.2455
# 6 14.9383 3.2250 5.0884 -4.3981 -4.2455 39.2076
#
#
#
# Elastic Compliance Matrix: (Units=1/GPa)
#
#
# Indices 1 2 3 4 5 6 
#
# 1 0.006760 -0.000828 -0.000543 0.003461 0.004750 -0.001535
# 2 -0.000828 0.012617 -0.001528 -0.001789 0.001692 -0.000542
# 3 -0.000543 -0.001528 0.013832 -0.000653 0.013380 -0.000087
# 4 0.003461 -0.001789 -0.000653 0.039979 0.003232 0.003748
# 5 0.004750 0.001692 0.013380 0.003232 0.043970 0.001439
# 6 -0.001535 -0.000542 -0.000087 0.003748 0.001439 0.026722
#
#
# Mechanical properties :
#
#
# Convention : Reuss Voigt Hill
#
# Bulk Modulus (GPa) = 36.48175 61.91592 49.19883
# Shear Modulus (GPa) = 31.48290 41.43242 36.45766
#
# Velocity S-wave (km/s) = 3.66807 4.20795 3.94725
# Velocity P-wave (km/s) = 5.79058 7.07602 6.46532
#
# Compressibility (1/GPa) = 0.02741097
#
# Stress axis : x y z
#
# Youngs Moduli (GPa) = 147.92025 79.25534 72.29864
#
# Poissons Ratio (x) = 0.06562 0.03925
# Poissons Ratio (y) = 0.12248 0.11050
# Poissons Ratio (z) = 0.08030 0.12113
#
# Static dielectric constant tensor:
#      x y z
#    x 1.961250 0.020400 0.001310 
#    y 0.020400 1.963710 0.039000 
#    z 0.001310 0.039000 1.846530 
# 
# From -- ./inp_files/585408.got.cif
#   From: 2010.05.17/outbox.cif.g08.bks.cpg/sg2_293_cif.got.tgz:585408.got - 2010.06.03 11:33:40.
