data_PCOD9025808
_publ_section_title
;
Structure prediction by ZEFSAII (Michael W. Deem and Ramdas Pophale) SiO2 
 PCOD9025808
Probable space group: P -1
;
_chemical_formula_sum "Si O2"
_cell_formula_units_Z 16
_cell_length_a 14.824926
_cell_length_b 8.836888
_cell_length_c 9.312793
_cell_angle_alpha 63.126986
_cell_angle_beta 137.160287
_cell_angle_gamma 104.886068
_cell_volume 734.367277
_symmetry_space_group_name_H-M "P -1"
_symmetry_group_IT_number 2
_symmetry_cell_setting 'triclinic'
loop_
_space_group_symop_operation_xyz
x,y,z
-x,-y,-z
loop_
_atom_site_type_symbol
_atom_site_label
_atom_site_fract_x
_atom_site_fract_y
_atom_site_fract_z
Si Si1 0.207819 0.288184 0.882517
Si Si2 0.003547 0.952651 0.357243
Si Si3 0.379953 0.457755 0.780780
Si Si4 0.031218 0.407867 0.855471
Si Si5 0.625148 0.913960 0.593496
Si Si6 0.586518 0.844340 0.253461
Si Si7 0.811269 0.196265 0.595585
Si Si8 0.115006 0.270977 0.302444
O O1 0.287994 0.353906 0.817808
O O2 0.104884 0.429327 0.782671
O O3 0.122900 0.140398 0.793084
O O4 0.304880 0.223027 0.154383
O O5 0.135328 0.841932 0.489090
O O6 0.008243 0.138915 0.214583
O O7 0.000000 0.000000 0.500000
O O8 0.434874 0.336651 0.765338
O O9 0.294401 0.637813 0.571179
O O10 0.500000 0.500000 0.000000
O O11 0.945050 0.250128 0.801075
O O12 0.938293 0.579227 0.715720
O O13 0.127525 0.361311 0.124522
O O14 0.567755 0.858831 0.396929
O O15 0.500000 0.000000 0.500000
O O16 0.738398 0.038137 0.633807
O O17 0.748369 0.832886 0.437612
O O18 0.500000 0.000000 0.000000
#
# Coordination Sequence:
#
# PCOD9025808 Si02
#       8
#     2   2   2   2   2   2   2   2
#     4  11  24  44  70 104 142 180 239 289 359 426
#     4  11  24  38  69 105 143 181 227 285 357 430
#     4  12  27  47  68 100 143 192 234 295 357 418
#     4  10  22  40  72 102 140 180 219 302 354 424
#     4  12  25  47  72 100 136 192 246 294 345 429
#     4  12  24  45  72  98 140 190 236 292 352 425
#     4  11  23  42  70 100 145 180 233 289 359 412
#     4  11  21  42  67 106 141 174 234 284 366 414
#
# _framework density 21.787462000000001
#
# number of rings (size 3 to 8) (size 9 to 14) (size 15 to 20)
#    0.000    0.750    3.750    3.750    1.750    3.000 
#    0.000    5.000    0.000    0.000    0.000    0.000 
#    0.000    0.000    0.000    0.000    0.000    0.000 
#
# Total GULP energy -89319.519103 kJ/mol
# GULP energy per Si atom -5582.469944 kJ/mol
# Density = 2.173787 g / cm^3
# Si number density = 21.787462 Si / 1000 Ang^3
#
#
#
# Elastic Constant Matrix: (Units=GPa)
#
#
# Indices 1 2 3 4 5 6 
#
# 1 106.6242 21.5988 14.3391 10.5325 -10.6825 -31.6951
# 2 21.5988 89.2928 7.4311 20.6081 -10.8102 -24.0109
# 3 14.3391 7.4311 99.7056 4.5832 -6.9050 -24.0975
# 4 10.5325 20.6081 4.5832 33.9755 3.6556 -4.8180
# 5 -10.6825 -10.8102 -6.9050 3.6556 23.5474 9.0771
# 6 -31.6951 -24.0109 -24.0975 -4.8180 9.0771 52.4927
#
#
#
# Elastic Compliance Matrix: (Units=1/GPa)
#
#
# Indices 1 2 3 4 5 6 
#
# 1 0.011917 -0.000027 0.000220 -0.003177 0.003489 0.006389
# 2 -0.000027 0.015654 0.001101 -0.009577 0.006829 0.005590
# 3 0.000220 0.001101 0.011440 -0.001754 0.002169 0.005352
# 4 -0.003177 -0.009577 -0.001754 0.037466 -0.011524 -0.001673
# 5 0.003489 0.006829 0.002169 -0.011524 0.051019 -0.003654
# 6 0.006389 0.005590 0.005352 -0.001673 -0.003654 0.028400
#
#
# Mechanical properties :
#
#
# Convention : Reuss Voigt Hill
#
# Bulk Modulus (GPa) = 24.03852 42.48450 33.26151
# Shear Modulus (GPa) = 29.90856 38.82002 34.36429
#
# Velocity S-wave (km/s) = 3.70907 4.22567 3.97577
# Velocity P-wave (km/s) = 5.42219 6.58409 6.03118
#
# Compressibility (1/GPa) = 0.04159989
#
# Stress axis : x y z
#
# Youngs Moduli (GPa) = 83.91162 63.88017 87.41073
#
# Poissons Ratio (x) = 0.00175 -0.01923
# Poissons Ratio (y) = 0.00229 -0.09627
# Poissons Ratio (z) = -0.01846 -0.07035
#
# Static dielectric constant tensor:
#      x y z
#    x 1.850880 -0.041290 0.028210 
#    y -0.041290 1.808690 -0.003610 
#    z 0.028210 -0.003610 1.847920 
# 
# From -- ./inp_files/291976.got.cif
#   From: 2010.05.17/outbox.cif.g08.bks.cpg/sg2_146_cif.got.tgz:291976.got - 2010.06.03 11:33:40.
