data_PCOD9025803
_publ_section_title
;
Structure prediction by ZEFSAII (Michael W. Deem and Ramdas Pophale) SiO2 
 PCOD9025803
Probable space group: P -1
;
_chemical_formula_sum "Si O2"
_cell_formula_units_Z 14
_cell_length_a 9.201167
_cell_length_b 12.842079
_cell_length_c 18.360585
_cell_angle_alpha 40.185818
_cell_angle_beta 151.163670
_cell_angle_gamma 130.869725
_cell_volume 674.424895
_symmetry_space_group_name_H-M "P -1"
_symmetry_group_IT_number 2
_symmetry_cell_setting 'triclinic'
loop_
_space_group_symop_operation_xyz
x,y,z
-x,-y,-z
loop_
_atom_site_type_symbol
_atom_site_label
_atom_site_fract_x
_atom_site_fract_y
_atom_site_fract_z
Si Si1 0.845124 0.330592 0.038903
Si Si2 0.203004 0.539322 0.896769
Si Si3 0.926247 0.325086 0.464032
Si Si4 0.662002 0.667297 0.489617
Si Si5 0.823902 0.696610 0.258882
Si Si6 0.281576 0.214106 0.185725
Si Si7 0.149896 0.924967 0.178276
O O1 0.764730 0.343293 0.082186
O O2 0.084322 0.200269 0.180138
O O3 0.526834 0.311321 0.870617
O O4 0.000000 0.500000 0.000000
O O5 0.943676 0.622422 0.689656
O O6 0.500000 0.500000 0.000000
O O7 0.133441 0.364504 0.993341
O O8 0.908532 0.520693 0.355939
O O9 0.613668 0.264152 0.328236
O O10 0.197834 0.276835 0.554923
O O11 0.986716 0.274472 0.600614
O O12 0.500000 0.500000 0.500000
O O13 0.423644 0.799190 0.345782
O O14 0.898372 0.830468 0.161901
O O15 0.273508 0.060197 0.213504
O O16 0.000000 0.000000 0.000000
#
# Coordination Sequence:
#
# PCOD9025803 Si02
#       7
#     2   2   2   2   2   2   2
#     4  10  22  40  72 102 134 188 236 284 353 418
#     4  11  22  43  74 105 136 184 245 294 338 422
#     4  11  24  44  75 104 141 183 251 291 350 433
#     4  12  25  43  74 103 135 193 238 295 356 426
#     4  11  24  45  72 107 140 189 240 298 346 438
#     4  11  25  45  69 106 146 188 231 304 359 423
#     4  12  30  47  71 106 152 184 240 304 369 421
#
# _framework density 20.758427000000001
#
# number of rings (size 3 to 8) (size 9 to 14) (size 15 to 20)
#    0.000    0.857    5.714    0.857   10.000    1.714 
#    0.000    0.000    0.000    0.000    0.000    0.000 
#    0.000    0.000    0.000    0.000    0.000    0.000 
#
# Total GULP energy -78243.433125 kJ/mol
# GULP energy per Si atom -5588.816652 kJ/mol
# Density = 2.071118 g / cm^3
# Si number density = 20.758427 Si / 1000 Ang^3
#
#
#
# Elastic Constant Matrix: (Units=GPa)
#
#
# Indices 1 2 3 4 5 6 
#
# 1 123.2432 58.4899 46.0739 -2.9764 9.2565 -15.9225
# 2 58.4899 111.2395 58.6159 2.4569 -1.0276 -26.9994
# 3 46.0739 58.6159 104.7243 9.3124 2.7945 -7.9033
# 4 -2.9764 2.4569 9.3124 26.8662 -6.7411 2.0753
# 5 9.2565 -1.0276 2.7945 -6.7411 40.7445 -8.5643
# 6 -15.9225 -26.9994 -7.9033 2.0753 -8.5643 40.6934
#
#
#
# Elastic Compliance Matrix: (Units=1/GPa)
#
#
# Indices 1 2 3 4 5 6 
#
# 1 0.011560 -0.004723 -0.002539 0.002023 -0.002166 0.000337
# 2 -0.004723 0.017525 -0.007205 0.000678 0.004055 0.009199
# 3 -0.002539 -0.007205 0.014980 -0.005111 -0.002119 -0.003050
# 4 0.002023 0.000678 -0.005111 0.040838 0.006570 -0.000451
# 5 -0.002166 0.004055 -0.002119 0.006570 0.027831 0.006954
# 6 0.000337 0.009199 -0.003050 -0.000451 0.006954 0.031703
#
#
# Mechanical properties :
#
#
# Convention : Reuss Voigt Hill
#
# Bulk Modulus (GPa) = 66.09508 73.95182 70.02345
# Shear Modulus (GPa) = 28.02444 33.39597 30.71020
#
# Velocity S-wave (km/s) = 3.67826 4.01532 3.85048
# Velocity P-wave (km/s) = 7.06744 7.56303 7.31943
#
# Compressibility (1/GPa) = 0.01512972
#
# Stress axis : x y z
#
# Youngs Moduli (GPa) = 86.50633 57.06134 66.75742
#
# Poissons Ratio (x) = 0.26951 0.16948
# Poissons Ratio (y) = 0.40859 0.48101
# Poissons Ratio (z) = 0.21962 0.41115
#
# Static dielectric constant tensor:
#      x y z
#    x 1.795660 -0.004020 -0.005770 
#    y -0.004020 1.743940 0.011850 
#    z -0.005770 0.011850 1.756070 
# 
# From -- ./inp_files/158589.got.cif
#   From: 2010.05.17/outbox.cif.g08.bks.cpg/sg2_80_cif.got.tgz:158589.got - 2010.06.03 11:33:40.
