data_PCOD9025075
_publ_section_title
;
Structure prediction by ZEFSAII (Michael W. Deem and Ramdas Pophale) SiO2 
 PCOD9025075
Probable space group: P -1
;
_chemical_formula_sum "Si O2"
_cell_formula_units_Z 16
_cell_length_a 13.536348
_cell_length_b 9.299656
_cell_length_c 7.817966
_cell_angle_alpha 60.493256
_cell_angle_beta 91.283061
_cell_angle_gamma 54.641633
_cell_volume 629.604985
_symmetry_space_group_name_H-M "P -1"
_symmetry_group_IT_number 2
_symmetry_cell_setting 'triclinic'
loop_
_space_group_symop_operation_xyz
x,y,z
-x,-y,-z
loop_
_atom_site_type_symbol
_atom_site_label
_atom_site_fract_x
_atom_site_fract_y
_atom_site_fract_z
Si Si1 0.102343 0.023736 0.434671
Si Si2 0.300795 0.532670 0.669831
Si Si3 0.473026 0.725591 0.808781
Si Si4 0.907375 0.610965 0.761083
Si Si5 0.685911 0.756861 0.916502
Si Si6 0.319711 0.566492 0.272260
Si Si7 0.622562 0.132074 0.942911
Si Si8 0.952272 0.216017 0.966916
O O1 0.247042 0.772191 0.586960
O O2 0.090594 0.209958 0.420824
O O3 0.000000 0.000000 0.500000
O O4 0.052180 0.115167 0.188175
O O5 0.273877 0.539778 0.464362
O O6 0.461225 0.337784 0.801089
O O7 0.238318 0.464122 0.830465
O O8 0.561449 0.789372 0.826486
O O9 0.530347 0.648724 0.660936
O O10 0.500000 0.500000 0.000000
O O11 0.349970 0.905636 0.828683
O O12 0.761970 0.743914 0.763591
O O13 0.950029 0.402187 0.777828
O O14 0.000000 0.500000 0.000000
O O15 0.656941 0.937404 0.942172
O O16 0.315229 0.768126 0.178314
O O17 0.205865 0.644498 0.084571
O O18 0.000000 0.000000 0.000000
#
# Coordination Sequence:
#
# PCOD9025075 Si02
#       8
#     2   2   2   2   2   2   2   2
#     4  11  24  42  68  95 124 172 221 269 313 387
#     4  11  21  38  63  93 127 164 224 264 310 381
#     4   9  19  36  60  85 121 165 207 255 318 372
#     4  10  22  40  67  91 124 170 215 255 324 389
#     4  11  21  41  66  90 127 171 218 263 316 395
#     4  11  21  39  62  91 128 168 208 269 322 376
#     4  10  23  39  64  91 125 178 218 256 324 387
#     4  11  22  42  66  93 131 168 209 263 337 383
#
# _framework density 25.412758
#
# number of rings (size 3 to 8) (size 9 to 14) (size 15 to 20)
#    0.000    1.500    2.500    4.125    3.500    0.000 
#    0.000    4.375    8.250    0.000    0.000    0.000 
#    0.000    0.000    0.000    0.000    0.000    0.000 
#
# Total GULP energy -89151.700246 kJ/mol
# GULP energy per Si atom -5571.981265 kJ/mol
# Density = 2.535492 g / cm^3
# Si number density = 25.412758 Si / 1000 Ang^3
#
#
#
# Elastic Constant Matrix: (Units=GPa)
#
#
# Indices 1 2 3 4 5 6 
#
# 1 82.2426 13.7728 18.4728 -23.2206 -12.7103 16.8063
# 2 13.7728 169.3732 33.9889 -26.2495 -24.3602 42.4605
# 3 18.4728 33.9889 54.8397 -12.4377 -9.9496 6.2636
# 4 -23.2206 -26.2495 -12.4377 41.3541 0.7664 -12.1230
# 5 -12.7103 -24.3602 -9.9496 0.7664 42.8285 -9.3832
# 6 16.8063 42.4605 6.2636 -12.1230 -9.3832 50.3875
#
#
#
# Elastic Compliance Matrix: (Units=1/GPa)
#
#
# Indices 1 2 3 4 5 6 
#
# 1 0.016508 0.002411 -0.003911 0.008296 0.004281 -0.004259
# 2 0.002411 0.009333 -0.004304 0.004009 0.003526 -0.006513
# 3 -0.003911 -0.004304 0.022934 0.002867 0.002372 0.003212
# 4 0.008296 0.004009 0.002867 0.032851 0.005346 0.002397
# 5 0.004281 0.003526 0.002372 0.005346 0.027453 0.001705
# 6 -0.004259 -0.006513 0.003212 0.002397 0.001705 0.027250
#
#
# Mechanical properties :
#
#
# Convention : Reuss Voigt Hill
#
# Bulk Modulus (GPa) = 26.90484 48.76939 37.83712
# Shear Modulus (GPa) = 31.18692 42.92873 37.05783
#
# Velocity S-wave (km/s) = 3.50696 4.11452 3.82283
# Velocity P-wave (km/s) = 5.19697 6.46567 5.86572
#
# Compressibility (1/GPa) = 0.03716803
#
# Stress axis : x y z
#
# Youngs Moduli (GPa) = 60.57718 107.14895 43.60429
#
# Poissons Ratio (x) = -0.25839 0.17052
# Poissons Ratio (y) = -0.14608 0.18767
# Poissons Ratio (z) = 0.23690 0.46116
#
# Static dielectric constant tensor:
#      x y z
#    x 2.123960 -0.028750 0.028180 
#    y -0.028750 2.066080 0.032110 
#    z 0.028180 0.032110 2.170930 
# 
# From -- ./inp_files/294510.got.cif
#   From: 2010.05.17/outbox.cif.g08.bks.cpg/sg2_148_cif.got.tgz:294510.got - 2010.06.03 11:33:40.
