data_PCOD9025527
_publ_section_title
;
Structure prediction by ZEFSAII (Michael W. Deem and Ramdas Pophale) SiO2 
 PCOD9025527
Probable space group: P -1
;
_chemical_formula_sum "Si O2"
_cell_formula_units_Z 12
_cell_length_a 12.176243
_cell_length_b 17.603633
_cell_length_c 12.077251
_cell_angle_alpha 28.729234
_cell_angle_beta 155.295490
_cell_angle_gamma 148.989883
_cell_volume 495.959440
_symmetry_space_group_name_H-M "P -1"
_symmetry_group_IT_number 2
_symmetry_cell_setting 'triclinic'
loop_
_space_group_symop_operation_xyz
x,y,z
-x,-y,-z
loop_
_atom_site_type_symbol
_atom_site_label
_atom_site_fract_x
_atom_site_fract_y
_atom_site_fract_z
Si Si1 0.519813 0.849435 0.947676
Si Si2 0.492900 0.166510 0.387704
Si Si3 0.464719 0.710050 0.302558
Si Si4 0.840217 0.510999 0.976859
Si Si5 0.539470 0.394976 0.340211
Si Si6 0.089887 0.236348 0.753619
O O1 0.538233 0.848059 0.099408
O O2 0.463178 0.008145 0.640060
O O3 0.279427 0.682762 0.906447
O O4 0.790104 0.820287 0.175429
O O5 0.544780 0.322620 0.317669
O O6 0.765309 0.186749 0.537981
O O7 0.234966 0.162461 0.079543
O O8 0.159762 0.591258 0.152665
O O9 0.680703 0.605328 0.630669
O O10 0.459774 0.741894 0.389433
O O11 0.734914 0.554924 0.944256
O O12 0.778491 0.564917 0.367112
#
# Coordination Sequence:
#
# PCOD9025527 Si02
#       6
#     2   2   2   2   2   2
#     4  11  24  42  66  93 131 155 209 263 309 366
#     4  12  26  42  62  96 126 167 204 255 312 361
#     4  10  22  40  69  95 117 165 207 257 312 361
#     4   9  22  38  66  93 122 158 209 245 314 366
#     4   9  24  41  70  88 127 159 215 251 305 374
#     4  11  26  41  66  87 128 170 210 246 302 373
#
# _framework density 24.195526999999998
#
# number of rings (size 3 to 8) (size 9 to 14) (size 15 to 20)
#    1.000    0.667    0.000    3.000    7.000    4.667 
#    0.000    0.833    0.000    0.000    0.000    0.000 
#    0.000    0.000    0.000    0.000    0.000    0.000 
#
# Total GULP energy -67138.166255 kJ/mol
# GULP energy per Si atom -5594.847188 kJ/mol
# Density = 2.414046 g / cm^3
# Si number density = 24.195527 Si / 1000 Ang^3
#
#
#
# Elastic Constant Matrix: (Units=GPa)
#
#
# Indices 1 2 3 4 5 6 
#
# 1 90.2463 15.3285 24.1813 -1.9228 -18.7126 0.6316
# 2 15.3285 37.4399 24.1983 -7.1289 5.6313 3.5248
# 3 24.1813 24.1983 136.7457 1.9823 -21.0618 11.1397
# 4 -1.9228 -7.1289 1.9823 46.8210 12.7079 2.9021
# 5 -18.7126 5.6313 -21.0618 12.7079 40.0168 -8.6495
# 6 0.6316 3.5248 11.1397 2.9021 -8.6495 22.4495
#
#
#
# Elastic Compliance Matrix: (Units=1/GPa)
#
#
# Indices 1 2 3 4 5 6 
#
# 1 0.014660 -0.009105 0.000285 -0.004066 0.010779 0.005554
# 2 -0.009105 0.042810 -0.008477 0.013114 -0.021559 -0.012260
# 3 0.000285 -0.008477 0.010029 -0.003804 0.007777 -0.000165
# 4 -0.004066 0.013114 -0.003804 0.028623 -0.017073 -0.010335
# 5 0.010779 -0.021559 0.007777 -0.017073 0.046784 0.019455
# 6 0.005554 -0.012260 -0.000165 -0.010335 0.019455 0.055227
#
#
# Mechanical properties :
#
#
# Convention : Reuss Voigt Hill
#
# Bulk Modulus (GPa) = 30.38984 43.53867 36.96426
# Shear Modulus (GPa) = 20.51742 35.23906 27.87824
#
# Velocity S-wave (km/s) = 2.91518 3.82046 3.39810
# Velocity P-wave (km/s) = 4.89064 6.12330 5.54135
#
# Compressibility (1/GPa) = 0.03290574
#
# Stress axis : x y z
#
# Youngs Moduli (GPa) = 68.21181 23.35889 99.71069
#
# Poissons Ratio (x) = 0.21268 -0.02846
# Poissons Ratio (y) = 0.62106 0.84529
# Poissons Ratio (z) = -0.01947 0.19802
#
# Static dielectric constant tensor:
#      x y z
#    x 1.961590 0.006970 -0.070480 
#    y 0.006970 1.886650 -0.008630 
#    z -0.070480 -0.008630 1.937850 
# 
# From -- ./inp_files/58012.got.cif
#   From: 2010.05.17/outbox.cif.g08.bks.cpg/sg2_30_cif.got.tgz:58012.got - 2010.06.03 11:33:40.
