data_PCOD9025422
_publ_section_title
;
Structure prediction by ZEFSAII (Michael W. Deem and Ramdas Pophale) SiO2 
 PCOD9025422
Probable space group: P -1
;
_chemical_formula_sum "Si O2"
_cell_formula_units_Z 16
_cell_length_a 10.848062
_cell_length_b 5.592953
_cell_length_c 15.430514
_cell_angle_alpha 72.866607
_cell_angle_beta 95.630001
_cell_angle_gamma 58.568174
_cell_volume 726.091696
_symmetry_space_group_name_H-M "P -1"
_symmetry_group_IT_number 2
_symmetry_cell_setting 'triclinic'
loop_
_space_group_symop_operation_xyz
x,y,z
-x,-y,-z
loop_
_atom_site_type_symbol
_atom_site_label
_atom_site_fract_x
_atom_site_fract_y
_atom_site_fract_z
Si Si1 0.588185 0.137591 0.030315
Si Si2 0.865357 0.838874 0.484161
Si Si3 0.529622 0.153461 0.386039
Si Si4 0.408506 0.827468 0.325859
Si Si5 0.060786 0.760602 0.659042
Si Si6 0.085722 0.157852 0.986619
Si Si7 0.072057 0.272917 0.179938
Si Si8 0.642554 0.883465 0.250915
O O1 0.735201 0.029307 0.995388
O O2 0.636615 0.993373 0.143877
O O3 0.500000 0.500000 0.000000
O O4 0.500000 0.000000 0.000000
O O5 0.000000 0.500000 0.500000
O O6 0.911111 0.878086 0.579189
O O7 0.697251 0.925052 0.461297
O O8 0.873575 0.062356 0.394966
O O9 0.439854 0.497053 0.380340
O O10 0.445003 0.983943 0.389005
O O11 0.570321 0.156032 0.286858
O O12 0.533852 0.770116 0.270050
O O13 0.242475 0.071625 0.249299
O O14 0.187236 0.402711 0.686810
O O15 0.020179 0.799950 0.753660
O O16 0.015926 0.361867 0.871005
O O17 0.067958 0.246225 0.078645
O O18 0.000000 0.000000 0.000000
#
# Coordination Sequence:
#
# PCOD9025422 Si02
#       8
#     2   2   2   2   2   2   2   2
#     4  12  29  45  74 109 144 191 251 304 358 428
#     4  11  21  41  70 103 137 177 238 309 359 418
#     4  10  22  40  68  99 132 179 227 291 347 417
#     4  10  23  42  71  95 138 186 227 284 354 424
#     4  11  23  43  70 102 139 185 239 297 362 432
#     4  11  28  46  70 102 152 192 241 304 360 441
#     4  11  26  47  67 100 143 193 235 283 373 434
#     4  10  22  41  69  98 137 180 243 288 351 413
#
# _framework density 22.035785000000001
#
# number of rings (size 3 to 8) (size 9 to 14) (size 15 to 20)
#    0.750    0.500    3.750    0.750   12.250    2.000 
#    0.000    1.250    0.000    0.000    0.000    0.000 
#    0.000    0.000    0.000    0.000    0.000    0.000 
#
# Total GULP energy -89121.640519 kJ/mol
# GULP energy per Si atom -5570.102532 kJ/mol
# Density = 2.198563 g / cm^3
# Si number density = 22.035785 Si / 1000 Ang^3
#
#
#
# Elastic Constant Matrix: (Units=GPa)
#
#
# Indices 1 2 3 4 5 6 
#
# 1 71.5704 27.2284 56.9770 0.1613 8.8765 7.6505
# 2 27.2284 72.0495 46.9221 -16.1391 1.5268 21.0935
# 3 56.9770 46.9221 124.2729 -8.3739 -12.7519 -2.2754
# 4 0.1613 -16.1391 -8.3739 35.9864 -15.0489 -6.0902
# 5 8.8765 1.5268 -12.7519 -15.0489 47.8302 6.2306
# 6 7.6505 21.0935 -2.2754 -6.0902 6.2306 31.6572
#
#
#
# Elastic Compliance Matrix: (Units=1/GPa)
#
#
# Indices 1 2 3 4 5 6 
#
# 1 0.027905 -0.001317 -0.014222 -0.009804 -0.011156 -0.006579
# 2 -0.001317 0.027203 -0.009295 0.007785 0.001600 -0.017293
# 3 -0.014222 -0.009295 0.019544 0.005815 0.008614 0.010459
# 4 -0.009804 0.007785 0.005815 0.039419 0.015239 0.002184
# 5 -0.011156 0.001600 0.008614 0.015239 0.030115 -0.000746
# 6 -0.006579 -0.017293 0.010459 0.002184 -0.000746 0.046020
#
#
# Mechanical properties :
#
#
# Convention : Reuss Voigt Hill
#
# Bulk Modulus (GPa) = 40.02659 58.90529 49.46594
# Shear Modulus (GPa) = 20.14478 32.21244 26.17861
#
# Velocity S-wave (km/s) = 3.02683 3.82753 3.45048
# Velocity P-wave (km/s) = 5.51538 6.80610 6.19445
#
# Compressibility (1/GPa) = 0.02498339
#
# Stress axis : x y z
#
# Youngs Moduli (GPa) = 35.83641 36.76016 51.16531
#
# Poissons Ratio (x) = 0.04840 0.72769
# Poissons Ratio (y) = 0.04718 0.47560
# Poissons Ratio (z) = 0.50968 0.34170
#
# Static dielectric constant tensor:
#      x y z
#    x 1.797570 0.040930 -0.002690 
#    y 0.040930 1.389290 0.061710 
#    z -0.002690 0.061710 1.789290 
# 
# From -- ./inp_files/564075.got.cif
#   From: 2010.05.17/outbox.cif.g08.bks.cpg/sg2_283_cif.got.tgz:564075.got - 2010.06.03 11:33:40.
