data_PCOD9025320
_publ_section_title
;
Structure prediction by ZEFSAII (Michael W. Deem and Ramdas Pophale) SiO2 
 PCOD9025320
Probable space group: P -1
;
_chemical_formula_sum "Si O2"
_cell_formula_units_Z 14
_cell_length_a 11.791538
_cell_length_b 15.501022
_cell_length_c 9.899467
_cell_angle_alpha 130.571943
_cell_angle_beta 140.441474
_cell_angle_gamma 29.160858
_cell_volume 559.980961
_symmetry_space_group_name_H-M "P -1"
_symmetry_group_IT_number 2
_symmetry_cell_setting 'triclinic'
loop_
_space_group_symop_operation_xyz
x,y,z
-x,-y,-z
loop_
_atom_site_type_symbol
_atom_site_label
_atom_site_fract_x
_atom_site_fract_y
_atom_site_fract_z
Si Si1 0.998340 0.605920 0.830973
Si Si2 0.979486 0.166265 0.282862
Si Si3 0.849134 0.119043 0.694389
Si Si4 0.512707 0.629798 0.144957
Si Si5 0.215839 0.652674 0.312684
Si Si6 0.320953 0.030309 0.191929
Si Si7 0.052781 0.332379 0.680241
O O1 0.190710 0.481334 0.752558
O O2 0.946187 0.513200 0.763682
O O3 0.744608 0.808947 0.755299
O O4 0.190995 0.591379 0.089778
O O5 0.221381 0.065830 0.291735
O O6 0.889524 0.332801 0.424494
O O7 0.078214 0.046818 0.381461
O O8 0.733048 0.221424 0.036304
O O9 0.584146 0.272853 0.703514
O O10 0.811923 0.201202 0.602998
O O11 0.103520 0.062842 0.939215
O O12 0.500000 0.500000 0.000000
O O13 0.500000 0.500000 0.500000
O O14 0.983614 0.708559 0.250177
O O15 0.627979 0.836520 0.245444
#
# Coordination Sequence:
#
# PCOD9025320 Si02
#       7
#     2   2   2   2   2   2   2
#     4  11  23  43  68  95 130 170 210 267 327 379
#     4  11  22  40  64  99 129 162 217 265 317 386
#     4  10  22  40  68  93 125 168 218 268 312 377
#     4  11  18  40  71  94 124 167 211 264 322 368
#     4  11  25  44  67  93 124 170 228 264 308 385
#     4  10  22  42  64  97 129 163 211 266 326 383
#     4  12  26  40  63  94 137 174 206 262 327 381
#
# _framework density 25.000848000000001
#
# number of rings (size 3 to 8) (size 9 to 14) (size 15 to 20)
#    0.000    1.143    4.286    5.143    0.000    4.571 
#    0.000    2.857    0.000    0.000    0.000    0.000 
#    0.000    0.000    0.000    0.000    0.000    0.000 
#
# Total GULP energy -78397.248097 kJ/mol
# GULP energy per Si atom -5599.803436 kJ/mol
# Density = 2.494394 g / cm^3
# Si number density = 25.000848 Si / 1000 Ang^3
#
#
#
# Elastic Constant Matrix: (Units=GPa)
#
#
# Indices 1 2 3 4 5 6 
#
# 1 98.4530 40.6119 18.4489 -6.5682 -23.8736 24.4265
# 2 40.6119 128.9719 23.8219 -8.1135 0.4734 46.8887
# 3 18.4489 23.8219 75.8594 -9.0631 4.0311 8.2142
# 4 -6.5682 -8.1135 -9.0631 29.1800 7.6436 -6.8035
# 5 -23.8736 0.4734 4.0311 7.6436 25.8681 -6.1402
# 6 24.4265 46.8887 8.2142 -6.8035 -6.1402 58.8807
#
#
#
# Elastic Compliance Matrix: (Units=1/GPa)
#
#
# Indices 1 2 3 4 5 6 
#
# 1 0.016956 -0.004271 -0.003905 -0.003421 0.016939 -0.001717
# 2 -0.004271 0.012604 -0.001432 0.001814 -0.006511 -0.008535
# 3 -0.003905 -0.001432 0.015612 0.005661 -0.007578 0.000447
# 4 -0.003421 0.001814 0.005661 0.040333 -0.015461 0.002233
# 5 0.016939 -0.006511 -0.007578 -0.015461 0.061060 0.003796
# 6 -0.001717 -0.008535 0.000447 0.002233 0.003796 0.025084
#
#
# Mechanical properties :
#
#
# Convention : Reuss Voigt Hill
#
# Bulk Modulus (GPa) = 38.52865 52.11665 45.32265
# Shear Modulus (GPa) = 25.06033 37.47919 31.26976
#
# Velocity S-wave (km/s) = 3.16947 3.87604 3.54043
# Velocity P-wave (km/s) = 5.37015 6.39710 5.90598
#
# Compressibility (1/GPa) = 0.02595471
#
# Stress axis : x y z
#
# Youngs Moduli (GPa) = 58.97639 79.34003 64.05126
#
# Poissons Ratio (x) = 0.33887 0.25014
# Poissons Ratio (y) = 0.25189 0.09175
# Poissons Ratio (z) = 0.23032 0.11365
#
# Static dielectric constant tensor:
#      x y z
#    x 2.006190 0.028850 0.002390 
#    y 0.028850 1.985510 -0.025620 
#    z 0.002390 -0.025620 1.990500 
# 
# From -- ./inp_files/274149.got.cif
#   From: 2010.05.17/outbox.cif.g08.bks.cpg/sg2_138_cif.got.tgz:274149.got - 2010.06.03 11:33:40.
