data_PCOD9025533
_publ_section_title
;
Structure prediction by ZEFSAII (Michael W. Deem and Ramdas Pophale) SiO2 
 PCOD9025533
Probable space group: P -1
;
_chemical_formula_sum "Si O2"
_cell_formula_units_Z 16
_cell_length_a 20.451458
_cell_length_b 13.087748
_cell_length_c 7.898582
_cell_angle_alpha 42.275475
_cell_angle_beta 65.550546
_cell_angle_gamma 39.404085
_cell_volume 838.850223
_symmetry_space_group_name_H-M "P -1"
_symmetry_group_IT_number 2
_symmetry_cell_setting 'triclinic'
loop_
_space_group_symop_operation_xyz
x,y,z
-x,-y,-z
loop_
_atom_site_type_symbol
_atom_site_label
_atom_site_fract_x
_atom_site_fract_y
_atom_site_fract_z
Si Si1 0.103681 0.799120 0.756978
Si Si2 0.034000 0.098769 0.944812
Si Si3 0.757970 0.939066 0.679273
Si Si4 0.955616 0.791272 0.542238
Si Si5 0.386093 0.610503 0.919392
Si Si6 0.208597 0.447801 0.800910
Si Si7 0.613206 0.398377 0.451145
Si Si8 0.719215 0.395582 0.650024
O O1 0.199766 0.577069 0.811321
O O2 0.118015 0.938709 0.661538
O O3 0.000000 0.000000 0.500000
O O4 0.058487 0.746983 0.000825
O O5 0.038292 0.222999 0.649708
O O6 0.155852 0.873338 0.164404
O O7 0.000000 0.000000 0.000000
O O8 0.887487 0.764903 0.728398
O O9 0.696482 0.114803 0.368892
O O10 0.708410 0.116922 0.669005
O O11 0.735974 0.798573 0.904845
O O12 0.080594 0.616081 0.684668
O O13 0.400286 0.516752 0.830408
O O14 0.500000 0.500000 0.000000
O O15 0.335081 0.577941 0.151405
O O16 0.263551 0.452316 0.583073
O O17 0.500000 0.500000 0.500000
O O18 0.648053 0.450775 0.500913
#
# Coordination Sequence:
#
# PCOD9025533 Si02
#       8
#     2   2   2   2   2   2   2   2
#     4   9  17  29  51  79 118 150 204 228 266 350
#     4  10  17  31  54  85 115 156 211 238 261 345
#     4  10  22  37  59  86 126 152 194 252 311 344
#     4  10  18  35  55  82 123 167 200 228 277 369
#     4  10  22  41  66  86 109 150 210 255 298 362
#     4  11  22  34  54  94 124 160 188 243 305 350
#     4  10  22  40  67  90 107 151 213 254 298 362
#     4  12  19  37  68  84 118 160 204 241 293 358
#
# _framework density 19.073727000000002
#
# number of rings (size 3 to 8) (size 9 to 14) (size 15 to 20)
#    0.750    1.000    6.250    1.125    1.750    0.000 
#    0.000    4.375    0.000    1.500    0.000    0.000 
#    0.000    0.000    0.000    0.000    0.000    0.000 
#
# Total GULP energy -89101.532628 kJ/mol
# GULP energy per Si atom -5568.845789 kJ/mol
# Density = 1.903031 g / cm^3
# Si number density = 19.073727 Si / 1000 Ang^3
#
#
#
# Elastic Constant Matrix: (Units=GPa)
#
#
# Indices 1 2 3 4 5 6 
#
# 1 72.8989 16.3884 37.2250 9.4250 9.1559 -21.9397
# 2 16.3884 60.9796 45.4174 34.6881 -7.2758 -16.7051
# 3 37.2250 45.4174 103.9684 29.8279 -18.3407 -5.1616
# 4 9.4250 34.6881 29.8279 31.1963 -4.6340 -0.5248
# 5 9.1559 -7.2758 -18.3407 -4.6340 33.2032 4.0652
# 6 -21.9397 -16.7051 -5.1616 -0.5248 4.0652 29.6789
#
#
#
# Elastic Compliance Matrix: (Units=1/GPa)
#
#
# Indices 1 2 3 4 5 6 
#
# 1 0.037709 0.031390 -0.020979 -0.029147 -0.024656 0.044757
# 2 0.031390 0.107571 -0.028923 -0.103861 -0.025395 0.080364
# 3 -0.020979 -0.028923 0.027735 0.014515 0.020405 -0.029503
# 4 -0.029147 -0.103861 0.014515 0.144577 0.023033 -0.078080
# 5 -0.024656 -0.025395 0.020405 0.023033 0.050176 -0.035437
# 6 0.044757 0.080364 -0.029503 -0.078080 -0.035437 0.110356
#
#
# Mechanical properties :
#
#
# Convention : Reuss Voigt Hill
#
# Bulk Modulus (GPa) = 7.35345 48.43428 27.89386
# Shear Modulus (GPa) = 8.92096 28.07009 18.49553
#
# Velocity S-wave (km/s) = 2.16500 3.84039 3.11736
# Velocity P-wave (km/s) = 3.18014 6.71663 5.25483
#
# Compressibility (1/GPa) = 0.13599067
#
# Stress axis : x y z
#
# Youngs Moduli (GPa) = 26.51921 9.29617 36.05543
#
# Poissons Ratio (x) = -0.29181 0.75641
# Poissons Ratio (y) = -0.83244 1.04283
# Poissons Ratio (z) = 0.55635 0.26887
#
# Static dielectric constant tensor:
#      x y z
#    x 1.701270 -0.002200 -0.002810 
#    y -0.002200 1.696440 0.026490 
#    z -0.002810 0.026490 1.703080 
# 
# From -- ./inp_files/346817.got.cif
#   From: 2010.05.17/outbox.cif.g08.bks.cpg/sg2_174_cif.got.tgz:346817.got - 2010.06.03 11:33:40.
