data_PCOD9025149
_publ_section_title
;
Structure prediction by ZEFSAII (Michael W. Deem and Ramdas Pophale) SiO2 
 PCOD9025149
Probable space group: P -1
;
_chemical_formula_sum "Si O2"
_cell_formula_units_Z 16
_cell_length_a 7.941251
_cell_length_b 9.291290
_cell_length_c 16.643146
_cell_angle_alpha 116.314708
_cell_angle_beta 44.730890
_cell_angle_gamma 96.234406
_cell_volume 732.075253
_symmetry_space_group_name_H-M "P -1"
_symmetry_group_IT_number 2
_symmetry_cell_setting 'triclinic'
loop_
_space_group_symop_operation_xyz
x,y,z
-x,-y,-z
loop_
_atom_site_type_symbol
_atom_site_label
_atom_site_fract_x
_atom_site_fract_y
_atom_site_fract_z
Si Si1 0.144159 0.938572 0.320417
Si Si2 0.074174 0.569128 0.675004
Si Si3 0.491209 0.258184 0.402798
Si Si4 0.873143 0.678792 0.131939
Si Si5 0.758932 0.928127 0.846414
Si Si6 0.131199 0.995972 0.871211
Si Si7 0.387691 0.941729 0.409023
Si Si8 0.789258 0.410663 0.853350
O O1 0.257499 0.978485 0.374353
O O2 0.196533 0.737090 0.251139
O O3 0.257590 0.983386 0.211654
O O4 0.842837 0.035422 0.447104
O O5 0.212713 0.395226 0.536875
O O6 0.305526 0.644652 0.626511
O O7 0.853220 0.725032 0.750277
O O8 0.944700 0.523665 0.788181
O O9 0.498149 0.099181 0.419999
O O10 0.603594 0.156629 0.258552
O O11 0.597784 0.755435 0.287640
O O12 0.842080 0.823015 0.111561
O O13 0.064464 0.676325 0.138098
O O14 0.000000 0.500000 0.000000
O O15 0.962505 0.965112 0.847054
O O16 0.500000 0.000000 0.000000
O O17 0.000000 0.000000 0.000000
O O18 0.500000 0.500000 0.000000
#
# Coordination Sequence:
#
# PCOD9025149 Si02
#       8
#     2   2   2   2   2   2   2   2
#     4  11  23  44  67  99 133 180 225 275 346 393
#     4  10  22  40  67  96 129 171 218 276 339 393
#     4   9  20  41  66  93 125 168 220 270 333 395
#     4  11  25  41  64  99 126 174 226 274 334 398
#     4  11  24  41  63  96 130 176 219 264 332 403
#     4  10  23  41  64  91 128 170 214 270 332 393
#     4  10  23  44  71  94 138 177 224 284 333 404
#     4  12  24  42  68  98 136 173 224 282 335 403
#
# _framework density 21.855677
#
# number of rings (size 3 to 8) (size 9 to 14) (size 15 to 20)
#    0.000    1.500    2.500    1.500    7.000    3.500 
#    0.000    0.625    0.000    0.000    0.000    0.000 
#    0.000    0.000    0.000    0.000    0.000    0.000 
#
# Total GULP energy -89208.823614 kJ/mol
# GULP energy per Si atom -5575.551476 kJ/mol
# Density = 2.180593 g / cm^3
# Si number density = 21.855677 Si / 1000 Ang^3
#
#
#
# Elastic Constant Matrix: (Units=GPa)
#
#
# Indices 1 2 3 4 5 6 
#
# 1 54.7318 16.7670 25.3531 -7.1314 -4.8254 -0.9980
# 2 16.7670 69.4427 39.5156 8.2229 -6.4518 3.6226
# 3 25.3531 39.5156 191.3199 13.5602 -38.9857 6.2648
# 4 -7.1314 8.2229 13.5602 50.9870 -2.1279 1.8175
# 5 -4.8254 -6.4518 -38.9857 -2.1279 35.5925 1.3298
# 6 -0.9980 3.6226 6.2648 1.8175 1.3298 22.5263
#
#
#
# Elastic Compliance Matrix: (Units=1/GPa)
#
#
# Indices 1 2 3 4 5 6 
#
# 1 0.021270 -0.004444 -0.002324 0.004227 -0.000289 0.001979
# 2 -0.004444 0.017479 -0.002917 -0.002625 -0.000713 -0.001943
# 3 -0.002324 -0.002917 0.007910 -0.001555 0.007808 -0.002169
# 4 0.004227 -0.002625 -0.001555 0.021050 -0.000324 -0.000637
# 5 -0.000289 -0.000713 0.007808 -0.000324 0.036617 -0.004205
# 6 0.001979 -0.001943 -0.002169 -0.000637 -0.004205 0.045696
#
#
# Mechanical properties :
#
#
# Convention : Reuss Voigt Hill
#
# Bulk Modulus (GPa) = 36.64467 53.19623 44.92045
# Shear Modulus (GPa) = 28.01303 37.41174 32.71238
#
# Velocity S-wave (km/s) = 3.58401 4.14183 3.87298
# Velocity P-wave (km/s) = 5.82493 6.87500 6.37164
#
# Compressibility (1/GPa) = 0.02728909
#
# Stress axis : x y z
#
# Youngs Moduli (GPa) = 47.01400 57.21112 126.42895
#
# Poissons Ratio (x) = 0.25424 0.29383
# Poissons Ratio (y) = 0.20892 0.36879
# Poissons Ratio (z) = 0.10926 0.16688
#
# Static dielectric constant tensor:
#      x y z
#    x 1.861580 0.073860 -0.012250 
#    y 0.073860 1.860220 0.022220 
#    z -0.012250 0.022220 1.847280 
# 
# From -- ./inp_files/346140.got.cif
#   From: 2010.05.17/outbox.cif.g08.bks.cpg/sg2_174_cif.got.tgz:346140.got - 2010.06.03 11:33:40.
