data_PCOD9025682
_publ_section_title
;
Structure prediction by ZEFSAII (Michael W. Deem and Ramdas Pophale) SiO2 
 PCOD9025682
Probable space group: P -1
;
_chemical_formula_sum "Si O2"
_cell_formula_units_Z 14
_cell_length_a 15.824996
_cell_length_b 10.682961
_cell_length_c 20.282355
_cell_angle_alpha 30.523669
_cell_angle_beta 162.891881
_cell_angle_gamma 148.192692
_cell_volume 504.174591
_symmetry_space_group_name_H-M "P -1"
_symmetry_group_IT_number 2
_symmetry_cell_setting 'triclinic'
loop_
_space_group_symop_operation_xyz
x,y,z
-x,-y,-z
loop_
_atom_site_type_symbol
_atom_site_label
_atom_site_fract_x
_atom_site_fract_y
_atom_site_fract_z
Si Si1 0.589414 0.774109 0.475391
Si Si2 0.626079 0.512738 0.749529
Si Si3 0.482684 0.566138 0.080023
Si Si4 0.287229 0.014490 0.663769
Si Si5 0.000000 0.500000 0.500000
Si Si6 0.063731 0.257876 0.008339
Si Si7 0.500000 0.500000 0.000000
Si Si8 0.151134 0.755173 0.360249
O O1 0.500000 0.500000 0.500000
O O2 0.703521 0.718209 0.656992
O O3 0.758138 0.927394 0.471986
O O4 0.267101 0.844458 0.211121
O O5 0.529276 0.236193 0.773050
O O6 0.883643 0.552606 0.976535
O O7 0.339881 0.577758 0.543763
O O8 0.226687 0.424207 0.995633
O O9 0.672723 0.421375 0.237332
O O10 0.771328 0.696640 0.271326
O O11 0.400100 0.748295 0.876665
O O12 0.000000 0.000000 0.500000
O O13 0.169651 0.718346 0.469079
O O14 0.213726 0.030470 0.248997
O O15 0.806786 0.670992 0.127100
#
# Coordination Sequence:
#
# PCOD9025682 Si02
#       8
#     2   2   2   2   1   2   1   2
#     4  10  23  44  69  99 138 180 235 291 347 425
#     4  11  25  45  72 102 140 192 231 289 365 409
#     4  11  23  42  68 104 140 183 235 288 350 416
#     4  11  24  47  71 101 143 184 239 293 345 434
#     4  10  22  42  64  96 146 168 226 292 332 414
#     4  12  25  45  72 104 144 181 237 301 347 427
#     4  10  22  40  70  96 134 186 224 282 356 400
#     4  11  23  45  66 106 138 179 237 290 350 423
#
# _framework density 27.768160000000002
#
# number of rings (size 3 to 8) (size 9 to 14) (size 15 to 20)
#    0.000    1.143    1.429    5.571    0.000    6.286 
#    7.714    0.000    0.000    0.000    0.000    0.000 
#    0.000    0.000    0.000    0.000    0.000    0.000 
#
# Total GULP energy -78035.727278 kJ/mol
# GULP energy per Si atom -5573.980520 kJ/mol
# Density = 2.770496 g / cm^3
# Si number density = 27.768160 Si / 1000 Ang^3
#
#
#
# Elastic Constant Matrix: (Units=GPa)
#
#
# Indices 1 2 3 4 5 6 
#
# 1 219.5401 78.2104 56.7785 -6.0552 -29.7866 66.0757
# 2 78.2104 135.0697 31.0644 -12.7294 -13.0668 19.5438
# 3 56.7785 31.0644 102.1156 5.5406 5.7330 33.4326
# 4 -6.0552 -12.7294 5.5406 53.6295 7.0922 -1.1255
# 5 -29.7866 -13.0668 5.7330 7.0922 56.2727 0.3590
# 6 66.0757 19.5438 33.4326 -1.1255 0.3590 69.4230
#
#
#
# Elastic Compliance Matrix: (Units=1/GPa)
#
#
# Indices 1 2 3 4 5 6 
#
# 1 0.008736 -0.003300 -0.001952 -0.000278 0.004133 -0.006472
# 2 -0.003300 0.009758 -0.001674 0.002087 0.000419 0.001231
# 3 -0.001952 -0.001674 0.012895 -0.001702 -0.002496 -0.003896
# 4 -0.000278 0.002087 -0.001702 0.019563 -0.001960 0.000823
# 5 0.004133 0.000419 -0.002496 -0.001960 0.020576 -0.002988
# 6 -0.006472 0.001231 -0.003896 0.000823 -0.002988 0.022123
#
#
# Mechanical properties :
#
#
# Convention : Reuss Voigt Hill
#
# Bulk Modulus (GPa) = 57.01432 87.64799 72.33116
# Shear Modulus (GPa) = 44.11190 55.24317 49.67753
#
# Velocity S-wave (km/s) = 3.99002 4.46516 4.23426
# Velocity P-wave (km/s) = 6.46559 7.62996 7.07178
#
# Compressibility (1/GPa) = 0.01753945
#
# Stress axis : x y z
#
# Youngs Moduli (GPa) = 114.46492 102.47818 77.54824
#
# Poissons Ratio (x) = 0.33813 0.15136
# Poissons Ratio (y) = 0.37768 0.12979
# Poissons Ratio (z) = 0.22342 0.17152
#
# Static dielectric constant tensor:
#      x y z
#    x 3.002610 -0.534280 0.093880 
#    y -0.534280 2.443890 -0.157820 
#    z 0.093880 -0.157820 2.547760 
# 
# From -- ./inp_files/597984.got.cif
#   From: 2010.05.17/outbox.cif.g08.bks.cpg/sg2_299_cif.got.tgz:597984.got - 2010.06.03 11:33:40.
