data_PCOD9025087
_publ_section_title
;
Structure prediction by ZEFSAII (Michael W. Deem and Ramdas Pophale) SiO2 
 PCOD9025087
Probable space group: P -1
;
_chemical_formula_sum "Si O2"
_cell_formula_units_Z 16
_cell_length_a 9.207400
_cell_length_b 20.466655
_cell_length_c 8.938997
_cell_angle_alpha 56.874820
_cell_angle_beta 125.665099
_cell_angle_gamma 79.782259
_cell_volume 784.556121
_symmetry_space_group_name_H-M "P -1"
_symmetry_group_IT_number 2
_symmetry_cell_setting 'triclinic'
loop_
_space_group_symop_operation_xyz
x,y,z
-x,-y,-z
loop_
_atom_site_type_symbol
_atom_site_label
_atom_site_fract_x
_atom_site_fract_y
_atom_site_fract_z
Si Si1 0.496158 0.924680 0.696741
Si Si2 0.357668 0.077279 0.672467
Si Si3 0.529678 0.325275 0.236846
Si Si4 0.370615 0.456902 0.698289
Si Si5 0.059009 0.670756 0.806634
Si Si6 0.994696 0.542925 0.101429
Si Si7 0.048316 0.676083 0.443206
Si Si8 0.694630 0.099795 0.662698
O O1 0.360751 0.904163 0.537986
O O2 0.500000 0.000000 0.500000
O O3 0.342793 0.007102 0.643368
O O4 0.782134 0.800926 0.067948
O O5 0.085097 0.202433 0.401157
O O6 0.534805 0.088396 0.683547
O O7 0.500000 0.000000 0.000000
O O8 0.724729 0.330568 0.400667
O O9 0.617440 0.214187 0.488347
O O10 0.488216 0.349850 0.004151
O O11 0.239658 0.424858 0.998005
O O12 0.236445 0.468743 0.453088
O O13 0.162132 0.573713 0.526667
O O14 0.628699 0.426300 0.862662
O O15 0.005676 0.666699 0.604841
O O16 0.947759 0.646838 0.892706
O O17 0.000000 0.500000 0.000000
O O18 0.000000 0.000000 0.000000
#
# Coordination Sequence:
#
# PCOD9025087 Si02
#       8
#     2   2   2   2   2   2   2   2
#     4  10  22  40  67  92 123 173 216 258 314 389
#     4  11  22  44  68  95 128 168 215 262 323 382
#     4  11  22  41  65  96 127 163 213 271 317 376
#     4  11  25  42  65  94 127 181 215 252 319 400
#     4  11  23  42  66  95 129 166 216 266 319 385
#     4  12  24  42  60  95 133 161 211 272 325 364
#     4  11  22  43  71  91 124 176 224 253 315 398
#     4  11  24  43  66  97 128 166 217 264 319 378
#
# _framework density 20.393698000000001
#
# number of rings (size 3 to 8) (size 9 to 14) (size 15 to 20)
#    0.000    1.000    2.500    6.000    3.500    1.000 
#    2.250    0.625    0.000    0.000    0.000    0.000 
#    0.000    0.000    0.000    0.000    0.000    0.000 
#
# Total GULP energy -89258.410473 kJ/mol
# GULP energy per Si atom -5578.650655 kJ/mol
# Density = 2.034728 g / cm^3
# Si number density = 20.393698 Si / 1000 Ang^3
#
#
#
# Elastic Constant Matrix: (Units=GPa)
#
#
# Indices 1 2 3 4 5 6 
#
# 1 76.7150 7.9427 24.2475 4.7346 -9.0187 -2.1415
# 2 7.9427 62.2024 43.2933 3.6456 -0.1739 -15.2397
# 3 24.2475 43.2933 151.5405 12.1124 -1.2872 -3.7358
# 4 4.7346 3.6456 12.1124 45.0922 -3.3906 -5.3199
# 5 -9.0187 -0.1739 -1.2872 -3.3906 25.2017 -6.0759
# 6 -2.1415 -15.2397 -3.7358 -5.3199 -6.0759 24.9118
#
#
#
# Elastic Compliance Matrix: (Units=1/GPa)
#
#
# Indices 1 2 3 4 5 6 
#
# 1 0.014465 0.000383 -0.002298 -0.000220 0.005625 0.002458
# 2 0.000383 0.024386 -0.006770 0.001905 0.003903 0.015295
# 3 -0.002298 -0.006770 0.008967 -0.002199 -0.001639 -0.003864
# 4 -0.000220 0.001905 -0.002199 0.023825 0.004729 0.007058
# 5 0.005625 0.003903 -0.001639 0.004729 0.045845 0.014817
# 6 0.002458 0.015295 -0.003864 0.007058 0.014817 0.054251
#
#
# Mechanical properties :
#
#
# Convention : Reuss Voigt Hill
#
# Bulk Modulus (GPa) = 32.84188 49.04722 40.94455
# Shear Modulus (GPa) = 25.09296 33.37276 29.23286
#
# Velocity S-wave (km/s) = 3.51155 4.04966 3.79017
# Velocity P-wave (km/s) = 5.70791 6.78003 6.26694
#
# Compressibility (1/GPa) = 0.03044893
#
# Stress axis : x y z
#
# Youngs Moduli (GPa) = 69.13044 41.00678 111.51498
#
# Poissons Ratio (x) = -0.01572 0.25628
# Poissons Ratio (y) = -0.02650 0.75498
# Poissons Ratio (z) = 0.15887 0.27763
#
# Static dielectric constant tensor:
#      x y z
#    x 0.988330 0.279540 -0.049640 
#    y 0.279540 1.728670 -0.031770 
#    z -0.049640 -0.031770 1.734560 
# 
# From -- ./inp_files/216409.got.cif
#   From: 2010.05.17/outbox.cif.g08.bks.cpg/sg2_109_cif.got.tgz:216409.got - 2010.06.03 11:33:40.
