data_PCOD9025724
_publ_section_title
;
Structure prediction by ZEFSAII (Michael W. Deem and Ramdas Pophale) SiO2 
 PCOD9025724
Probable space group: P -1
;
_chemical_formula_sum "Si O2"
_cell_formula_units_Z 14
_cell_length_a 9.323544
_cell_length_b 10.242910
_cell_length_c 13.109650
_cell_angle_alpha 146.952818
_cell_angle_beta 122.839330
_cell_angle_gamma 51.884320
_cell_volume 536.250839
_symmetry_space_group_name_H-M "P -1"
_symmetry_group_IT_number 2
_symmetry_cell_setting 'triclinic'
loop_
_space_group_symop_operation_xyz
x,y,z
-x,-y,-z
loop_
_atom_site_type_symbol
_atom_site_label
_atom_site_fract_x
_atom_site_fract_y
_atom_site_fract_z
Si Si1 0.893585 0.799647 0.939798
Si Si2 0.536499 0.531634 0.306993
Si Si3 0.532102 0.735856 0.718717
Si Si4 0.149522 0.790320 0.284630
Si Si5 0.206227 0.216535 0.874432
Si Si6 0.328581 0.057030 0.391538
Si Si7 0.267170 0.739835 0.974096
O O1 0.744898 0.685456 0.768925
O O2 0.831926 0.066851 0.029740
O O3 0.861220 0.825138 0.064744
O O4 0.105437 0.654417 0.899836
O O5 0.538807 0.282221 0.205574
O O6 0.332094 0.725000 0.379225
O O7 0.681677 0.667932 0.476784
O O8 0.571633 0.471256 0.161216
O O9 0.500000 0.500000 0.500000
O O10 0.404219 0.004311 0.798229
O O11 0.164983 0.015669 0.365877
O O12 0.953826 0.828402 0.282654
O O13 0.196975 0.508175 0.063400
O O14 0.338278 0.876697 0.180144
O O15 0.500000 0.000000 0.500000
#
# Coordination Sequence:
#
# PCOD9025724 Si02
#       7
#     2   2   2   2   2   2   2
#     4  11  22  42  69 102 138 183 241 289 359 424
#     4  11  23  43  72 102 143 186 237 297 354 423
#     4  12  25  44  71 107 140 183 246 302 356 421
#     4  10  22  40  70  99 141 184 232 284 353 431
#     4  11  21  43  72  98 139 188 231 301 351 421
#     4  10  23  42  64 102 145 184 234 284 352 428
#     4  11  23  42  70 106 140 186 237 293 360 421
#
# _framework density 26.107187
#
# number of rings (size 3 to 8) (size 9 to 14) (size 15 to 20)
#    0.000    1.143    4.286    2.143    0.000    3.429 
#    0.000    5.000    0.000    0.000    0.000    0.000 
#    0.000    0.000    0.000    0.000    0.000    0.000 
#
# Total GULP energy -78171.440922 kJ/mol
# GULP energy per Si atom -5583.674352 kJ/mol
# Density = 2.604777 g / cm^3
# Si number density = 26.107187 Si / 1000 Ang^3
#
#
#
# Elastic Constant Matrix: (Units=GPa)
#
#
# Indices 1 2 3 4 5 6 
#
# 1 156.9705 22.0397 42.8871 -8.4120 39.1381 -9.8970
# 2 22.0397 78.9600 5.0800 4.0949 4.1956 -3.4305
# 3 42.8871 5.0800 104.4001 -9.4913 26.6188 -18.7389
# 4 -8.4120 4.0949 -9.4913 31.2880 11.4490 11.3261
# 5 39.1381 4.1956 26.6188 11.4490 57.3702 -0.1620
# 6 -9.8970 -3.4305 -18.7389 11.3261 -0.1620 37.9085
#
#
#
# Elastic Compliance Matrix: (Units=1/GPa)
#
#
# Indices 1 2 3 4 5 6 
#
# 1 0.008863 -0.002281 -0.001600 0.004407 -0.006017 -0.000026
# 2 -0.002281 0.013488 -0.000073 -0.003467 0.001300 0.001630
# 3 -0.001600 -0.000073 0.012878 0.003816 -0.005627 0.004778
# 4 0.004407 -0.003467 0.003816 0.043303 -0.013194 -0.010271
# 5 -0.006017 0.001300 -0.005627 -0.013194 0.026683 -0.000178
# 6 -0.000026 0.001630 0.004778 -0.010271 -0.000178 0.031950
#
#
# Mechanical properties :
#
#
# Convention : Reuss Voigt Hill
#
# Bulk Modulus (GPa) = 36.60231 53.37157 44.98694
# Shear Modulus (GPa) = 32.42974 43.33494 37.88234
#
# Velocity S-wave (km/s) = 3.52828 4.07859 3.81337
# Velocity P-wave (km/s) = 5.53613 6.53203 6.05460
#
# Compressibility (1/GPa) = 0.02732068
#
# Stress axis : x y z
#
# Youngs Moduli (GPa) = 112.83354 74.14260 77.65013
#
# Poissons Ratio (x) = 0.16911 0.12421
# Poissons Ratio (y) = 0.25735 0.00570
# Poissons Ratio (z) = 0.18049 0.00544
#
# Static dielectric constant tensor:
#      x y z
#    x 2.090810 0.071220 -0.017970 
#    y 0.071220 2.238770 -0.040940 
#    z -0.017970 -0.040940 2.073580 
# 
# From -- ./inp_files/499589.got.cif
#   From: 2010.05.17/outbox.cif.g08.bks.cpg/sg2_250_cif.got.tgz:499589.got - 2010.06.03 11:33:40.
