data_PCOD9025399
_publ_section_title
;
Structure prediction by ZEFSAII (Michael W. Deem and Ramdas Pophale) SiO2 
 PCOD9025399
Probable space group: P -1
;
_chemical_formula_sum "Si O2"
_cell_formula_units_Z 16
_cell_length_a 18.369366
_cell_length_b 8.780296
_cell_length_c 8.180531
_cell_angle_alpha 129.768604
_cell_angle_beta 56.578620
_cell_angle_gamma 132.749828
_cell_volume 728.662853
_symmetry_space_group_name_H-M "P -1"
_symmetry_group_IT_number 2
_symmetry_cell_setting 'triclinic'
loop_
_space_group_symop_operation_xyz
x,y,z
-x,-y,-z
loop_
_atom_site_type_symbol
_atom_site_label
_atom_site_fract_x
_atom_site_fract_y
_atom_site_fract_z
Si Si1 0.574209 0.496235 0.542175
Si Si2 0.253954 0.977018 0.317474
Si Si3 0.014503 0.556151 0.825767
Si Si4 0.061278 0.924306 0.482000
Si Si5 0.556092 0.857192 0.283530
Si Si6 0.408450 0.902527 0.918943
Si Si7 0.778499 0.007699 0.251440
Si Si8 0.104738 0.208564 0.943962
O O1 0.500000 0.500000 0.500000
O O2 0.666069 0.752850 0.613700
O O3 0.514483 0.387001 0.709534
O O4 0.605767 0.318674 0.310770
O O5 0.159157 0.929098 0.291511
O O6 0.223826 0.926162 0.510165
O O7 0.308074 0.843503 0.098524
O O8 0.009615 0.346771 0.583723
O O9 0.123739 0.782287 0.812332
O O10 0.922972 0.593327 0.902771
O O11 0.000000 0.500000 0.000000
O O12 0.105652 0.112714 0.697942
O O13 0.000000 0.000000 0.500000
O O14 0.500000 0.000000 0.500000
O O15 0.566463 0.896494 0.104548
O O16 0.670279 0.948627 0.271616
O O17 0.500000 0.000000 0.000000
O O18 0.803291 0.797499 0.081136
O O19 0.000000 0.000000 0.000000
#
# Coordination Sequence:
#
# PCOD9025399 Si02
#       8
#     2   2   2   2   2   2   2   2
#     4  11  21  44  69  93 137 179 214 281 339 389
#     4  11  24  41  65  98 135 173 226 270 341 397
#     4  11  23  42  72  96 133 181 230 280 347 398
#     4  11  24  41  63  97 135 170 228 283 324 407
#     4  10  22  40  68  98 135 174 225 276 335 407
#     4  11  23  41  69  97 133 174 223 278 336 410
#     4  10  22  42  66  97 136 179 223 279 343 406
#     4   9  21  40  65  93 132 168 225 277 336 398
#
# _framework density 21.958029
#
# number of rings (size 3 to 8) (size 9 to 14) (size 15 to 20)
#    0.000    1.500    3.750    0.750    1.750    9.000 
#    0.000    1.250    0.000    0.000    0.000    0.000 
#    0.000    0.000    0.000    0.000    0.000    0.000 
#
# Total GULP energy -89256.825630 kJ/mol
# GULP energy per Si atom -5578.551602 kJ/mol
# Density = 2.190805 g / cm^3
# Si number density = 21.958029 Si / 1000 Ang^3
#
#
#
# Elastic Constant Matrix: (Units=GPa)
#
#
# Indices 1 2 3 4 5 6 
#
# 1 182.5126 39.1064 28.8031 -9.7626 -26.5336 -1.0897
# 2 39.1064 108.5799 22.6723 -11.4444 -2.9035 -8.3704
# 3 28.8031 22.6723 71.1369 -7.0780 -24.1930 -7.6420
# 4 -9.7626 -11.4444 -7.0780 45.6178 -4.1768 -2.8687
# 5 -26.5336 -2.9035 -24.1930 -4.1768 40.2254 -1.4344
# 6 -1.0897 -8.3704 -7.6420 -2.8687 -1.4344 38.7651
#
#
#
# Elastic Compliance Matrix: (Units=1/GPa)
#
#
# Indices 1 2 3 4 5 6 
#
# 1 0.006656 -0.002057 -0.000571 0.001179 0.004017 -0.000134
# 2 -0.002057 0.010833 -0.002984 0.001729 -0.002128 0.001742
# 3 -0.000571 -0.002984 0.020120 0.003605 0.012027 0.004018
# 4 0.001179 0.001729 0.003605 0.023880 0.005661 0.003094
# 5 0.004017 -0.002128 0.012027 0.005661 0.035311 0.003750
# 6 -0.000134 0.001742 0.004018 0.003094 0.003750 0.027329
#
#
# Mechanical properties :
#
#
# Convention : Reuss Voigt Hill
#
# Bulk Modulus (GPa) = 37.89875 60.37700 49.13788
# Shear Modulus (GPa) = 34.68681 43.03148 38.85915
#
# Velocity S-wave (km/s) = 3.97884 4.43167 4.21135
# Velocity P-wave (km/s) = 6.19720 7.33093 6.78778
#
# Compressibility (1/GPa) = 0.02638610
#
# Stress axis : x y z
#
# Youngs Moduli (GPa) = 150.24030 92.30690 49.70166
#
# Poissons Ratio (x) = 0.18985 0.02836
# Poissons Ratio (y) = 0.30900 0.14833
# Poissons Ratio (z) = 0.08571 0.27549
#
# Static dielectric constant tensor:
#      x y z
#    x 1.834720 0.001460 -0.041770 
#    y 0.001460 1.850940 0.015040 
#    z -0.041770 0.015040 1.949190 
# 
# From -- ./inp_files/327996.got.cif
#   From: 2010.05.17/outbox.cif.g08.bks.cpg/sg2_164_cif.got.tgz:327996.got - 2010.06.03 11:33:40.
