data_PCOD9025493
_publ_section_title
;
Structure prediction by ZEFSAII (Michael W. Deem and Ramdas Pophale) SiO2 
 PCOD9025493
Probable space group: P -1
;
_chemical_formula_sum "Si O2"
_cell_formula_units_Z 12
_cell_length_a 7.341970
_cell_length_b 7.836133
_cell_length_c 13.296524
_cell_angle_alpha 44.799847
_cell_angle_beta 69.883430
_cell_angle_gamma 56.091625
_cell_volume 445.593460
_symmetry_space_group_name_H-M "P -1"
_symmetry_group_IT_number 2
_symmetry_cell_setting 'triclinic'
loop_
_space_group_symop_operation_xyz
x,y,z
-x,-y,-z
loop_
_atom_site_type_symbol
_atom_site_label
_atom_site_fract_x
_atom_site_fract_y
_atom_site_fract_z
Si Si1 0.049965 0.723289 0.318191
Si Si2 0.270096 0.954954 0.928778
Si Si3 0.895999 0.536893 0.114515
Si Si4 0.406753 0.138540 0.648881
Si Si5 0.139663 0.991392 0.382226
Si Si6 0.478320 0.428235 0.233473
O O1 0.926810 0.939246 0.158887
O O2 0.289993 0.514819 0.317866
O O3 0.850852 0.640237 0.402757
O O4 0.073173 0.891230 0.336112
O O5 0.197718 0.159585 0.950632
O O6 0.441471 0.018984 0.806289
O O7 0.362795 0.643532 0.073879
O O8 0.691716 0.470286 0.193505
O O9 0.086891 0.306554 0.243454
O O10 0.000000 0.500000 0.000000
O O11 0.603751 0.200833 0.563964
O O12 0.437330 0.886304 0.678920
O O13 0.000000 0.000000 0.500000
#
# Coordination Sequence:
#
# PCOD9025493 Si02
#       6
#     2   2   2   2   2   2
#     4  10  24  43  68 103 139 183 244 279 355 412
#     4  10  22  40  69 106 146 180 236 286 354 420
#     4  12  24  43  74 112 143 189 236 292 359 419
#     4  10  24  43  70  99 146 178 242 286 352 408
#     4  12  26  49  73 103 143 192 239 293 356 424
#     4  12  21  42  72 106 149 186 231 297 354 425
#
# _framework density 26.930375999999999
#
# number of rings (size 3 to 8) (size 9 to 14) (size 15 to 20)
#    1.000    0.000    1.667    5.500    0.000    2.000 
#    0.000    6.667    0.000    0.000    0.000    0.000 
#    0.000    0.000    0.000    0.000    0.000    0.000 
#
# Total GULP energy -67250.060348 kJ/mol
# GULP energy per Si atom -5604.171696 kJ/mol
# Density = 2.686908 g / cm^3
# Si number density = 26.930376 Si / 1000 Ang^3
#
#
#
# Elastic Constant Matrix: (Units=GPa)
#
#
# Indices 1 2 3 4 5 6 
#
# 1 174.6462 43.5422 35.9933 24.6616 -9.5130 -33.8638
# 2 43.5422 123.6863 43.9918 24.0740 -7.4978 -15.0056
# 3 35.9933 43.9918 83.4439 24.4215 -8.0643 -18.0328
# 4 24.6616 24.0740 24.4215 65.7413 -17.5656 -6.3971
# 5 -9.5130 -7.4978 -8.0643 -17.5656 48.9264 9.5874
# 6 -33.8638 -15.0056 -18.0328 -6.3971 9.5874 57.0087
#
#
#
# Elastic Compliance Matrix: (Units=1/GPa)
#
#
# Indices 1 2 3 4 5 6 
#
# 1 0.007178 -0.001415 -0.001216 -0.001448 -0.000204 0.003378
# 2 -0.001415 0.010501 -0.004363 -0.001674 -0.000057 0.000365
# 3 -0.001216 -0.004363 0.016561 -0.003847 -0.000136 0.002959
# 4 -0.001448 -0.001674 -0.003847 0.019270 0.006014 -0.001367
# 5 -0.000204 -0.000057 -0.000136 0.006014 0.023194 -0.003405
# 6 0.003378 0.000365 0.002959 -0.001367 -0.003405 0.020999
#
#
# Mechanical properties :
#
#
# Convention : Reuss Voigt Hill
#
# Bulk Modulus (GPa) = 49.37559 69.87010 59.62285
# Shear Modulus (GPa) = 42.21476 51.55189 46.88332
#
# Velocity S-wave (km/s) = 3.96353 4.37998 4.17695
# Velocity P-wave (km/s) = 6.27060 7.18192 6.74168
#
# Compressibility (1/GPa) = 0.02025292
#
# Stress axis : x y z
#
# Youngs Moduli (GPa) = 139.32034 95.22502 60.38390
#
# Poissons Ratio (x) = 0.13474 0.07341
# Poissons Ratio (y) = 0.19713 0.26344
# Poissons Ratio (z) = 0.16939 0.41544
#
# Static dielectric constant tensor:
#      x y z
#    x 2.163910 -0.070890 -0.043560 
#    y -0.070890 2.052540 -0.004430 
#    z -0.043560 -0.004430 2.241420 
# 
# From -- ./inp_files/375541.got.cif
#   From: 2010.05.17/outbox.cif.g08.bks.cpg/sg2_188_cif.got.tgz:375541.got - 2010.06.03 11:33:40.
