data_PCOD9025941
_publ_section_title
;
Structure prediction by ZEFSAII (Michael W. Deem and Ramdas Pophale) SiO2 
 PCOD9025941
Probable space group: P -1
;
_chemical_formula_sum "Si O2"
_cell_formula_units_Z 16
_cell_length_a 12.159606
_cell_length_b 6.166082
_cell_length_c 19.499586
_cell_angle_alpha 120.866553
_cell_angle_beta 42.104535
_cell_angle_gamma 135.174205
_cell_volume 690.772959
_symmetry_space_group_name_H-M "P -1"
_symmetry_group_IT_number 2
_symmetry_cell_setting 'triclinic'
loop_
_space_group_symop_operation_xyz
x,y,z
-x,-y,-z
loop_
_atom_site_type_symbol
_atom_site_label
_atom_site_fract_x
_atom_site_fract_y
_atom_site_fract_z
Si Si1 0.320064 0.410519 0.010610
Si Si2 0.134405 0.265625 0.691189
Si Si3 0.229221 0.773145 0.918629
Si Si4 0.646276 0.630002 0.255941
Si Si5 0.306389 0.660147 0.347658
Si Si6 0.275662 0.364776 0.176308
Si Si7 0.923118 0.232226 0.153469
Si Si8 0.095460 0.969053 0.520258
O O1 0.533356 0.653678 0.919206
O O2 0.296820 0.085140 0.977010
O O3 0.277563 0.478103 0.117236
O O4 0.139845 0.364672 0.043877
O O5 0.309812 0.364158 0.682054
O O6 0.090786 0.523440 0.758530
O O7 0.165262 0.213028 0.589366
O O8 0.932616 0.948039 0.759304
O O9 0.363567 0.640426 0.826170
O O10 0.221342 0.864352 0.858997
O O11 0.000000 0.500000 0.000000
O O12 0.469999 0.665394 0.320713
O O13 0.849784 0.936502 0.184221
O O14 0.331511 0.614122 0.249059
O O15 0.274042 0.929709 0.415892
O O16 0.093248 0.348771 0.413932
O O17 0.000000 0.000000 0.500000
#
# Coordination Sequence:
#
# PCOD9025941 Si02
#       8
#     2   2   2   2   2   2   2   2
#     4  11  21  37  63  91 130 182 218 259 316 383
#     4  10  23  43  65  98 128 171 215 273 327 383
#     4  11  22  37  58  91 132 174 227 264 312 373
#     4  11  23  43  65  94 135 169 218 270 319 387
#     4  10  24  44  68  95 128 170 210 273 333 380
#     4  10  22  41  58  95 132 168 221 263 316 380
#     4  11  22  37  64  91 131 179 215 266 324 374
#     4  10  24  45  72  96 125 163 215 270 338 394
#
# _framework density 23.162457
#
# number of rings (size 3 to 8) (size 9 to 14) (size 15 to 20)
#    0.000    1.500    2.500    1.875    3.500    5.000 
#    6.750    1.250    0.000    0.000    0.000    0.000 
#    0.000    0.000    0.000    0.000    0.000    0.000 
#
# Total GULP energy -89328.563129 kJ/mol
# GULP energy per Si atom -5583.035196 kJ/mol
# Density = 2.310974 g / cm^3
# Si number density = 23.162457 Si / 1000 Ang^3
#
#
#
# Elastic Constant Matrix: (Units=GPa)
#
#
# Indices 1 2 3 4 5 6 
#
# 1 127.8055 35.3813 72.9650 31.4553 -6.5050 4.9157
# 2 35.3813 51.9779 29.1305 19.7191 7.8219 11.6740
# 3 72.9650 29.1305 124.9305 33.5962 5.7048 6.5765
# 4 31.4553 19.7191 33.5962 36.5956 0.1086 -1.4797
# 5 -6.5050 7.8219 5.7048 0.1086 51.4245 0.2834
# 6 4.9157 11.6740 6.5765 -1.4797 0.2834 28.1849
#
#
#
# Elastic Compliance Matrix: (Units=1/GPa)
#
#
# Indices 1 2 3 4 5 6 
#
# 1 0.013721 -0.005425 -0.006076 -0.003258 0.003236 0.001068
# 2 -0.005425 0.031386 0.000259 -0.012986 -0.005391 -0.012742
# 3 -0.006076 0.000259 0.013806 -0.007692 -0.002309 -0.002650
# 4 -0.003258 -0.012986 -0.007692 0.044585 0.002267 0.010060
# 5 0.003236 -0.005391 -0.002309 0.002267 0.020915 0.002116
# 6 0.001068 -0.012742 -0.002650 0.010060 0.002116 0.041696
#
#
# Mechanical properties :
#
#
# Convention : Reuss Voigt Hill
#
# Bulk Modulus (GPa) = 27.45073 64.40751 45.92912
# Shear Modulus (GPa) = 24.90818 34.39014 29.64916
#
# Velocity S-wave (km/s) = 3.28284 3.85741 3.58166
# Velocity P-wave (km/s) = 5.12313 6.90700 6.08084
#
# Compressibility (1/GPa) = 0.03642891
#
# Stress axis : x y z
#
# Youngs Moduli (GPa) = 72.88180 31.86119 72.43098
#
# Poissons Ratio (x) = 0.17285 0.44012
# Poissons Ratio (y) = 0.39538 -0.01877
# Poissons Ratio (z) = 0.44285 -0.00826
#
# Static dielectric constant tensor:
#      x y z
#    x 1.919310 0.025470 -0.011680 
#    y 0.025470 1.888470 -0.011860 
#    z -0.011680 -0.011860 1.904490 
# 
# From -- ./inp_files/592830.got.cif
#   From: 2010.05.17/outbox.cif.g08.bks.cpg/sg2_297_cif.got.tgz:592830.got - 2010.06.03 11:33:40.
