data_PCOD9025082
_publ_section_title
;
Structure prediction by ZEFSAII (Michael W. Deem and Ramdas Pophale) SiO2 
 PCOD9025082
Probable space group: P -1
;
_chemical_formula_sum "Si O2"
_cell_formula_units_Z 16
_cell_length_a 15.133834
_cell_length_b 9.043307
_cell_length_c 12.217096
_cell_angle_alpha 118.412378
_cell_angle_beta 113.196236
_cell_angle_gamma 120.525883
_cell_volume 689.561836
_symmetry_space_group_name_H-M "P -1"
_symmetry_group_IT_number 2
_symmetry_cell_setting 'triclinic'
loop_
_space_group_symop_operation_xyz
x,y,z
-x,-y,-z
loop_
_atom_site_type_symbol
_atom_site_label
_atom_site_fract_x
_atom_site_fract_y
_atom_site_fract_z
Si Si1 0.834264 0.689668 0.162763
Si Si2 0.126526 0.613274 0.007833
Si Si3 0.462445 0.310538 0.818970
Si Si4 0.172690 0.448055 0.652779
Si Si5 0.883290 0.270650 0.195816
Si Si6 0.748259 0.343641 0.456224
Si Si7 0.507730 0.528091 0.703423
Si Si8 0.430791 0.635136 0.501002
O O1 0.754759 0.501477 0.175229
O O2 0.895255 0.618853 0.099793
O O3 0.664947 0.533948 0.969400
O O4 0.007577 0.070483 0.408845
O O5 0.348358 0.984237 0.263369
O O6 0.074236 0.623021 0.871974
O O7 0.000000 0.500000 0.000000
O O8 0.387269 0.281085 0.659979
O O9 0.333631 0.964716 0.674423
O O10 0.500000 0.500000 0.000000
O O11 0.097465 0.524515 0.659935
O O12 0.310891 0.667351 0.693691
O O13 0.027861 0.345949 0.329055
O O14 0.668775 0.886949 0.960545
O O15 0.684130 0.370373 0.530610
O O16 0.404256 0.473383 0.536667
O O17 0.607548 0.526779 0.684358
#
# Coordination Sequence:
#
# PCOD9025082 Si02
#       8
#     2   2   2   2   2   2   2   2
#     4  10  22  42  62 100 127 177 225 265 329 399
#     4  10  22  42  68  91 134 172 220 273 332 391
#     4  12  25  39  66 101 134 172 217 278 336 384
#     4  10  22  40  67  91 140 169 222 270 329 404
#     4  10  22  42  62  97 127 180 213 269 333 391
#     4  12  24  39  69  99 132 171 222 276 334 385
#     4  10  24  45  66  88 145 168 225 269 327 402
#     4  10  24  45  66 100 127 182 222 275 329 390
#
# _framework density 23.203140999999999
#
# number of rings (size 3 to 8) (size 9 to 14) (size 15 to 20)
#    0.000    1.500    1.250    2.625    3.500    5.500 
#    0.000    0.000    0.000    0.000    0.000    0.000 
#    0.000    0.000    0.000    0.000    0.000    0.000 
#
# Total GULP energy -89554.833056 kJ/mol
# GULP energy per Si atom -5597.177066 kJ/mol
# Density = 2.315033 g / cm^3
# Si number density = 23.203141 Si / 1000 Ang^3
#
#
#
# Elastic Constant Matrix: (Units=GPa)
#
#
# Indices 1 2 3 4 5 6 
#
# 1 94.8340 21.0404 17.6529 -3.8418 -26.7452 -6.9125
# 2 21.0404 104.8937 16.0206 4.1580 -14.3925 6.7374
# 3 17.6529 16.0206 50.4339 5.6911 -10.6758 -7.2694
# 4 -3.8418 4.1580 5.6911 25.9275 -6.3096 -5.1983
# 5 -26.7452 -14.3925 -10.6758 -6.3096 32.1929 0.1061
# 6 -6.9125 6.7374 -7.2694 -5.1983 0.1061 26.0341
#
#
#
# Elastic Compliance Matrix: (Units=1/GPa)
#
#
# Indices 1 2 3 4 5 6 
#
# 1 0.015672 -0.001655 -0.002272 0.007311 0.012941 0.005362
# 2 -0.001655 0.010966 -0.002872 -0.001713 0.002254 -0.004431
# 3 -0.002272 -0.002872 0.023605 -0.002832 0.004081 0.006149
# 4 0.007311 -0.001713 -0.002832 0.045942 0.013338 0.010713
# 5 0.012941 0.002254 0.004081 0.013338 0.046768 0.006465
# 6 0.005362 -0.004431 0.006149 0.010713 0.006465 0.044811
#
#
# Mechanical properties :
#
#
# Convention : Reuss Voigt Hill
#
# Bulk Modulus (GPa) = 27.28986 39.95439 33.62212
# Shear Modulus (GPa) = 23.41059 29.86074 26.63567
#
# Velocity S-wave (km/s) = 3.17983 3.59127 3.39179
# Velocity P-wave (km/s) = 5.02678 5.86967 5.46450
#
# Compressibility (1/GPa) = 0.03664365
#
# Stress axis : x y z
#
# Youngs Moduli (GPa) = 63.80927 91.19197 42.36322
#
# Poissons Ratio (x) = 0.15092 0.09627
# Poissons Ratio (y) = 0.10560 0.12168
# Poissons Ratio (z) = 0.14500 0.26193
#
# Static dielectric constant tensor:
#      x y z
#    x 1.845870 -0.009320 0.015150 
#    y -0.009320 1.929320 -0.026760 
#    z 0.015150 -0.026760 1.892240 
# 
# From -- ./inp_files/223485.got.cif
#   From: 2010.05.17/outbox.cif.g08.bks.cpg/sg2_112_cif.got.tgz:223485.got - 2010.06.03 11:33:40.
