data_PCOD9025584
_publ_section_title
;
Structure prediction by ZEFSAII (Michael W. Deem and Ramdas Pophale) SiO2 
 PCOD9025584
Probable space group: P -1
;
_chemical_formula_sum "Si O2"
_cell_formula_units_Z 16
_cell_length_a 14.412222
_cell_length_b 9.920682
_cell_length_c 5.290483
_cell_angle_alpha 73.457237
_cell_angle_beta 90.873349
_cell_angle_gamma 109.487386
_cell_volume 680.912868
_symmetry_space_group_name_H-M "P -1"
_symmetry_group_IT_number 2
_symmetry_cell_setting 'triclinic'
loop_
_space_group_symop_operation_xyz
x,y,z
-x,-y,-z
loop_
_atom_site_type_symbol
_atom_site_label
_atom_site_fract_x
_atom_site_fract_y
_atom_site_fract_z
Si Si1 0.644039 0.814886 0.165656
Si Si2 0.212337 0.880031 0.171206
Si Si3 0.265310 0.626156 0.626573
Si Si4 0.105069 0.609471 0.044741
Si Si5 0.559446 0.390908 0.640247
Si Si6 0.701088 0.671438 0.748232
Si Si7 0.968203 0.065921 0.712640
Si Si8 0.867896 0.630556 0.510892
O O1 0.525021 0.757692 0.187822
O O2 0.676594 0.763495 0.462440
O O3 0.674276 0.731510 0.975435
O O4 0.700458 0.990420 0.028810
O O5 0.250421 0.763335 0.387612
O O6 0.147073 0.953526 0.294046
O O7 0.128117 0.781100 0.023876
O O8 0.201459 0.624503 0.873302
O O9 0.379423 0.647970 0.564430
O O10 0.217230 0.447583 0.649590
O O11 0.109087 0.517177 0.342637
O O12 0.000000 0.500000 0.000000
O O13 0.500000 0.500000 0.500000
O O14 0.636970 0.494936 0.791444
O O15 0.814706 0.684933 0.707122
O O16 0.034811 0.240549 0.627978
O O17 0.000000 0.000000 0.500000
O O18 0.000000 0.000000 0.000000
#
# Coordination Sequence:
#
# PCOD9025584 Si02
#       8
#     2   2   2   2   2   2   2   2
#     4  11  23  42  67  99 136 179 215 286 339 402
#     4  11  26  43  64  98 139 178 233 278 346 404
#     4  10  23  43  68  96 134 180 230 281 336 404
#     4  11  24  42  71  92 133 182 230 280 333 407
#     4   9  21  42  70 104 134 176 231 282 341 405
#     4  10  22  40  69  99 136 173 223 274 345 404
#     4  12  27  42  67 100 134 176 223 277 341 400
#     4  10  23  40  64  98 127 176 223 278 335 406
#
# _framework density 23.497865000000001
#
# number of rings (size 3 to 8) (size 9 to 14) (size 15 to 20)
#    0.000    1.500    0.000    3.375   12.250    2.500 
#    6.750    0.625    0.000    0.000    0.000    0.000 
#    0.000    0.000    0.000    0.000    0.000    0.000 
#
# Total GULP energy -89259.236436 kJ/mol
# GULP energy per Si atom -5578.702277 kJ/mol
# Density = 2.344438 g / cm^3
# Si number density = 23.497865 Si / 1000 Ang^3
#
#
#
# Elastic Constant Matrix: (Units=GPa)
#
#
# Indices 1 2 3 4 5 6 
#
# 1 119.0308 29.5279 34.9878 -13.5540 -37.3791 -1.4866
# 2 29.5279 97.8538 46.6178 -20.6889 -20.9598 17.0705
# 3 34.9878 46.6178 119.6950 -17.9124 -18.0122 3.8139
# 4 -13.5540 -20.6889 -17.9124 52.5391 -0.3326 -20.8619
# 5 -37.3791 -20.9598 -18.0122 -0.3326 44.0009 -8.5667
# 6 -1.4866 17.0705 3.8139 -20.8619 -8.5667 43.8038
#
#
#
# Elastic Compliance Matrix: (Units=1/GPa)
#
#
# Indices 1 2 3 4 5 6 
#
# 1 0.013171 -0.000866 -0.001249 0.004858 0.011359 0.005429
# 2 -0.000866 0.014493 -0.004306 0.002748 0.003793 -0.003252
# 3 -0.001249 -0.004306 0.011001 0.002662 0.001861 0.002309
# 4 0.004858 0.002748 0.002662 0.027895 0.009462 0.013998
# 5 0.011359 0.003793 0.001861 0.009462 0.037060 0.010500
# 6 0.005429 -0.003252 0.002309 0.013998 0.010500 0.032799
#
#
# Mechanical properties :
#
#
# Convention : Reuss Voigt Hill
#
# Bulk Modulus (GPa) = 38.72483 62.09406 50.40945
# Shear Modulus (GPa) = 31.67172 43.09851 37.38511
#
# Velocity S-wave (km/s) = 3.67530 4.28734 3.99306
# Velocity P-wave (km/s) = 5.87591 7.14081 6.53902
#
# Compressibility (1/GPa) = 0.02582323
#
# Stress axis : x y z
#
# Youngs Moduli (GPa) = 75.92280 69.00055 90.89705
#
# Poissons Ratio (x) = 0.05976 0.11356
# Poissons Ratio (y) = 0.06576 0.39137
# Poissons Ratio (z) = 0.09485 0.29709
#
# Static dielectric constant tensor:
#      x y z
#    x 2.823430 0.523680 0.455630 
#    y 0.523680 2.450930 0.439370 
#    z 0.455630 0.439370 2.232310 
# 
# From -- ./inp_files/89827.got.cif
#   From: 2010.05.17/outbox.cif.g08.bks.cpg/sg2_45_cif.got.tgz:89827.got - 2010.06.03 11:33:40.
