data_PCOD9025115
_publ_section_title
;
Structure prediction by ZEFSAII (Michael W. Deem and Ramdas Pophale) SiO2 
 PCOD9025115
Probable space group: P -1
;
_chemical_formula_sum "Si O2"
_cell_formula_units_Z 14
_cell_length_a 14.325205
_cell_length_b 11.230436
_cell_length_c 14.365031
_cell_angle_alpha 125.438064
_cell_angle_beta 159.620585
_cell_angle_gamma 52.908014
_cell_volume 641.074665
_symmetry_space_group_name_H-M "P -1"
_symmetry_group_IT_number 2
_symmetry_cell_setting 'triclinic'
loop_
_space_group_symop_operation_xyz
x,y,z
-x,-y,-z
loop_
_atom_site_type_symbol
_atom_site_label
_atom_site_fract_x
_atom_site_fract_y
_atom_site_fract_z
Si Si1 0.375611 0.859895 0.846851
Si Si2 0.257018 0.743244 0.034762
Si Si3 0.308172 0.638069 0.533215
Si Si4 0.542522 0.178331 0.404196
Si Si5 0.663095 0.830108 0.589914
Si Si6 0.862072 0.022390 0.134501
Si Si7 0.231920 0.439964 0.935943
O O1 0.250595 0.793977 0.609942
O O2 0.172771 0.908247 0.764088
O O3 0.620846 0.720259 0.040611
O O4 0.500000 0.000000 0.000000
O O5 0.236612 0.845460 0.971502
O O6 0.227496 0.572504 0.919608
O O7 0.987798 0.814429 0.876456
O O8 0.536568 0.745564 0.351711
O O9 0.378676 0.686385 0.518843
O O10 0.053404 0.566297 0.285810
O O11 0.571721 0.540635 0.785545
O O12 0.409701 0.220736 0.399368
O O13 0.825602 0.058104 0.628285
O O14 0.330079 0.099147 0.113073
O O15 0.500000 0.000000 0.500000
#
# Coordination Sequence:
#
# PCOD9025115 Si02
#       7
#     2   2   2   2   2   2   2
#     4  10  22  40  67  94 125 167 209 258 311 364
#     4  12  24  44  63  94 133 164 208 257 321 373
#     4  10  22  42  62  91 130 160 212 253 309 367
#     4  12  23  39  65  99 121 157 220 267 306 361
#     4  12  23  43  67  93 125 167 211 264 311 368
#     4  12  23  36  66  97 125 163 207 261 315 368
#     4  10  24  42  63  89 138 168 199 257 315 378
#
# _framework density 21.838329999999999
#
# number of rings (size 3 to 8) (size 9 to 14) (size 15 to 20)
#    0.857    0.000    4.286    3.857    2.000    1.714 
#    0.000    5.000    0.000    0.000    0.000    0.000 
#    0.000    0.000    0.000    0.000    0.000    0.000 
#
# Total GULP energy -78247.189062 kJ/mol
# GULP energy per Si atom -5589.084933 kJ/mol
# Density = 2.178862 g / cm^3
# Si number density = 21.838330 Si / 1000 Ang^3
#
#
#
# Elastic Constant Matrix: (Units=GPa)
#
#
# Indices 1 2 3 4 5 6 
#
# 1 80.2086 -16.5963 -10.8595 1.0620 3.8304 9.3444
# 2 -16.5963 68.2602 -1.9144 12.0237 6.8231 7.1843
# 3 -10.8595 -1.9144 77.7876 -5.3301 18.6433 -4.2213
# 4 1.0620 12.0237 -5.3301 23.5636 5.3217 4.8081
# 5 3.8304 6.8231 18.6433 5.3217 26.1050 1.2439
# 6 9.3444 7.1843 -4.2213 4.8081 1.2439 26.3207
#
#
#
# Elastic Compliance Matrix: (Units=1/GPa)
#
#
# Indices 1 2 3 4 5 6 
#
# 1 0.014841 0.004856 0.003177 -0.000012 -0.005436 -0.005826
# 2 0.004856 0.018113 0.001550 -0.007004 -0.004892 -0.004909
# 3 0.003177 0.001550 0.017267 0.006081 -0.014480 0.000792
# 4 -0.000012 -0.007004 0.006081 0.051467 -0.012720 -0.005909
# 5 -0.005436 -0.004892 -0.014480 -0.012720 0.053282 0.000748
# 6 -0.005826 -0.004909 0.000792 -0.005909 0.000748 0.042572
#
#
# Mechanical properties :
#
#
# Convention : Reuss Voigt Hill
#
# Bulk Modulus (GPa) = 14.41182 18.61290 16.51236
# Shear Modulus (GPa) = 24.81316 32.23961 28.52638
#
# Velocity S-wave (km/s) = 3.37444 3.84641 3.61813
# Velocity P-wave (km/s) = 4.66863 5.31677 5.00321
#
# Compressibility (1/GPa) = 0.06938750
#
# Stress axis : x y z
#
# Youngs Moduli (GPa) = 67.38146 55.20795 57.91286
#
# Poissons Ratio (x) = -0.26809 -0.18400
# Poissons Ratio (y) = -0.32720 -0.08975
# Poissons Ratio (z) = -0.21409 -0.08556
#
# Static dielectric constant tensor:
#      x y z
#    x 1.766680 -0.008860 -0.007810 
#    y -0.008860 1.846430 0.018190 
#    z -0.007810 0.018190 1.793410 
# 
# From -- ./inp_files/70261.got.cif
#   From: 2010.05.17/outbox.cif.g08.bks.cpg/sg2_36_cif.got.tgz:70261.got - 2010.06.03 11:33:40.
