data_PCOD9025635
_publ_section_title
;
Structure prediction by ZEFSAII (Michael W. Deem and Ramdas Pophale) SiO2 
 PCOD9025635
Probable space group: P -1
;
_chemical_formula_sum "Si O2"
_cell_formula_units_Z 13
_cell_length_a 6.852486
_cell_length_b 9.785427
_cell_length_c 11.823636
_cell_angle_alpha 129.955479
_cell_angle_beta 56.909677
_cell_angle_gamma 112.138072
_cell_volume 508.744162
_symmetry_space_group_name_H-M "P -1"
_symmetry_group_IT_number 2
_symmetry_cell_setting 'triclinic'
loop_
_space_group_symop_operation_xyz
x,y,z
-x,-y,-z
loop_
_atom_site_type_symbol
_atom_site_label
_atom_site_fract_x
_atom_site_fract_y
_atom_site_fract_z
Si Si1 0.525379 0.492580 0.101221
Si Si2 0.425129 0.768731 0.457386
Si Si3 0.667132 0.885543 0.963103
Si Si4 0.267198 0.404685 0.569525
Si Si5 0.000000 0.500000 0.500000
Si Si6 0.154879 0.022112 0.803506
Si Si7 0.029446 0.425870 0.054669
O O1 0.469949 0.682941 0.275879
O O2 0.422261 0.319094 0.109111
O O3 0.309470 0.478652 0.055774
O O4 0.812210 0.476840 0.054423
O O5 0.652864 0.752909 0.456647
O O6 0.237682 0.624115 0.491671
O O7 0.303090 0.953165 0.615691
O O8 0.930684 0.895810 0.839077
O O9 0.500000 0.000000 0.000000
O O10 0.685585 0.962229 0.125849
O O11 0.500000 0.500000 0.500000
O O12 0.106226 0.365266 0.492984
O O13 0.118500 0.531104 0.763935
O O14 0.051023 0.214292 0.919637
#
# Coordination Sequence:
#
# PCOD9025635 Si02
#       7
#     2   2   2   2   1   2   2
#     4  12  24  46  75 104 148 202 245 307 388 457
#     4  11  24  43  71 107 145 191 248 311 376 442
#     4  11  26  46  75 109 150 198 250 309 379 449
#     4  10  24  43  72 105 143 197 249 302 368 454
#     4  10  22  40  70 104 146 188 250 298 364 450
#     4  11  27  46  74 111 149 191 253 315 369 451
#     4  12  24  48  75 105 147 202 251 304 386 461
#
# _framework density 25.553117
#
# number of rings (size 3 to 8) (size 9 to 14) (size 15 to 20)
#    0.000    0.923    3.077    2.769    8.615    3.077 
#    0.000    0.000    0.000    3.692    0.000    0.000 
#    0.000    0.000    0.000    0.000    0.000    0.000 
#
# Total GULP energy -72440.357286 kJ/mol
# GULP energy per Si atom -5572.335176 kJ/mol
# Density = 2.549496 g / cm^3
# Si number density = 25.553117 Si / 1000 Ang^3
#
#
#
# Elastic Constant Matrix: (Units=GPa)
#
#
# Indices 1 2 3 4 5 6 
#
# 1 192.7116 27.0778 42.6576 -2.6345 6.3062 -10.6538
# 2 27.0778 128.2770 58.2978 -0.8868 -2.3287 19.4671
# 3 42.6576 58.2978 211.7087 -13.0852 -11.8777 6.8981
# 4 -2.6345 -0.8868 -13.0852 31.7505 6.3242 -7.4428
# 5 6.3062 -2.3287 -11.8777 6.3242 33.0911 -5.8707
# 6 -10.6538 19.4671 6.8981 -7.4428 -5.8707 52.5271
#
#
#
# Elastic Compliance Matrix: (Units=1/GPa)
#
#
# Indices 1 2 3 4 5 6 
#
# 1 0.005686 -0.001034 -0.000946 0.000698 -0.001344 0.001610
# 2 -0.001034 0.009681 -0.002456 -0.001635 -0.000355 -0.003747
# 3 -0.000946 -0.002456 0.005799 0.001990 0.001786 0.000439
# 4 0.000698 -0.001635 0.001990 0.034501 -0.005279 0.004785
# 5 -0.001344 -0.000355 0.001786 -0.005279 0.032547 0.002514
# 6 0.001610 -0.003747 0.000439 0.004785 0.002514 0.021654
#
#
# Mechanical properties :
#
#
# Convention : Reuss Voigt Hill
#
# Bulk Modulus (GPa) = 81.34049 87.64043 84.49046
# Shear Modulus (GPa) = 40.70353 50.45135 45.57744
#
# Velocity S-wave (km/s) = 3.99544 4.44821 4.22789
# Velocity P-wave (km/s) = 7.29286 7.79448 7.54784
#
# Compressibility (1/GPa) = 0.01229400
#
# Stress axis : x y z
#
# Youngs Moduli (GPa) = 175.86272 103.29346 172.43344
#
# Poissons Ratio (x) = 0.10685 0.16305
# Poissons Ratio (y) = 0.18191 0.42356
# Poissons Ratio (z) = 0.16629 0.25373
#
# Static dielectric constant tensor:
#      x y z
#    x 2.125960 0.020330 -0.001520 
#    y 0.020330 2.002630 -0.043560 
#    z -0.001520 -0.043560 2.028760 
# 
# From -- ./inp_files/334863.got.cif
#   From: 2010.05.17/outbox.cif.g08.bks.cpg/sg2_168_cif.got.tgz:334863.got - 2010.06.03 11:33:40.
