data_PCOD9025876
_publ_section_title
;
Structure prediction by ZEFSAII (Michael W. Deem and Ramdas Pophale) SiO2 
 PCOD9025876
Probable space group: P -1
;
_chemical_formula_sum "Si O2"
_cell_formula_units_Z 14
_cell_length_a 5.781556
_cell_length_b 9.889478
_cell_length_c 20.946888
_cell_angle_alpha 34.963516
_cell_angle_beta 120.422845
_cell_angle_gamma 124.169242
_cell_volume 565.167100
_symmetry_space_group_name_H-M "P -1"
_symmetry_group_IT_number 2
_symmetry_cell_setting 'triclinic'
loop_
_space_group_symop_operation_xyz
x,y,z
-x,-y,-z
loop_
_atom_site_type_symbol
_atom_site_label
_atom_site_fract_x
_atom_site_fract_y
_atom_site_fract_z
Si Si1 0.613707 0.389315 0.362936
Si Si2 0.969791 0.035418 0.572891
Si Si3 0.798525 0.173946 0.904594
Si Si4 0.350383 0.360712 0.096009
Si Si5 0.729692 0.602518 0.433470
Si Si6 0.229092 0.839679 0.944519
Si Si7 0.230807 0.645554 0.732692
O O1 0.330429 0.169371 0.394220
O O2 0.590669 0.526944 0.372915
O O3 0.672501 0.495339 0.258259
O O4 0.883195 0.280562 0.448551
O O5 0.170749 0.909450 0.610347
O O6 0.121786 0.114036 0.632592
O O7 0.951750 0.443698 0.795963
O O8 0.504008 0.045391 0.879293
O O9 0.752919 0.182629 0.969336
O O10 0.000000 0.000000 0.000000
O O11 0.553349 0.299485 0.199703
O O12 0.072665 0.138546 0.126622
O O13 0.500000 0.500000 0.000000
O O14 0.253096 0.577638 0.029163
O O15 0.500000 0.500000 0.500000
O O16 0.000000 0.500000 0.500000
#
# Coordination Sequence:
#
# PCOD9025876 Si02
#       7
#     2   2   2   2   2   2   2
#     4  10  25  46  75 110 149 196 249 313 385 456
#     4  10  25  46  76 106 150 195 244 315 385 457
#     4  11  22  43  68 103 136 191 247 310 372 440
#     4  11  22  43  67 100 138 191 245 308 373 442
#     4  10  24  46  81 107 148 200 250 309 392 461
#     4  10  22  40  73  90 139 188 246 305 376 433
#     4  12  25  41  76 105 150 195 257 310 380 456
#
# _framework density 24.771435
#
# number of rings (size 3 to 8) (size 9 to 14) (size 15 to 20)
#    0.000    1.429    2.857    0.429   12.000    0.000 
#    0.000    8.571    3.143    0.000    0.000    0.000 
#    0.000    0.000    0.000    0.000    0.000    0.000 
#
# Total GULP energy -78016.753726 kJ/mol
# GULP energy per Si atom -5572.625266 kJ/mol
# Density = 2.471505 g / cm^3
# Si number density = 24.771435 Si / 1000 Ang^3
#
#
#
# Elastic Constant Matrix: (Units=GPa)
#
#
# Indices 1 2 3 4 5 6 
#
# 1 126.0764 68.3821 33.9783 15.6779 3.4434 -1.1330
# 2 68.3821 189.0720 24.7074 20.0023 -2.6253 3.8013
# 3 33.9783 24.7074 80.5763 12.7593 13.1819 1.4383
# 4 15.6779 20.0023 12.7593 25.4758 -5.3027 7.8233
# 5 3.4434 -2.6253 13.1819 -5.3027 27.0376 0.3540
# 6 -1.1330 3.8013 1.4383 7.8233 0.3540 72.9804
#
#
#
# Elastic Compliance Matrix: (Units=1/GPa)
#
#
# Indices 1 2 3 4 5 6 
#
# 1 0.010917 -0.003260 -0.002991 -0.003064 -0.000859 0.000731
# 2 -0.003260 0.006845 -0.000350 -0.003032 0.000657 -0.000078
# 3 -0.002991 -0.000350 0.016630 -0.008351 -0.009406 0.000585
# 4 -0.003064 -0.003032 -0.008351 0.052384 0.014512 -0.005411
# 5 -0.000859 0.000657 -0.009406 0.014512 0.044612 -0.001634
# 6 0.000731 -0.000078 0.000585 -0.005411 -0.001634 0.014294
#
#
# Mechanical properties :
#
#
# Convention : Reuss Voigt Hill
#
# Bulk Modulus (GPa) = 47.19359 72.20671 59.70015
# Shear Modulus (GPa) = 30.12980 43.00922 36.56951
#
# Velocity S-wave (km/s) = 3.49135 4.17134 3.84640
# Velocity P-wave (km/s) = 5.94522 7.23966 6.62413
#
# Compressibility (1/GPa) = 0.02118932
#
# Stress axis : x y z
#
# Youngs Moduli (GPa) = 91.59944 146.08607 60.13178
#
# Poissons Ratio (x) = 0.47624 0.17988
# Poissons Ratio (y) = 0.29861 0.02106
# Poissons Ratio (z) = 0.27401 0.05116
#
# Static dielectric constant tensor:
#      x y z
#    x 1.903260 0.162320 0.020510 
#    y 0.162320 2.045370 0.051400 
#    z 0.020510 0.051400 2.048940 
# 
# From -- ./inp_files/582218.got.cif
#   From: 2010.05.17/outbox.cif.g08.bks.cpg/sg2_292_cif.got.tgz:582218.got - 2010.06.03 11:33:40.
