data_PCOD9025606
_publ_section_title
;
Structure prediction by ZEFSAII (Michael W. Deem and Ramdas Pophale) SiO2 
 PCOD9025606
Probable space group: P -1
;
_chemical_formula_sum "Si O2"
_cell_formula_units_Z 16
_cell_length_a 18.130823
_cell_length_b 11.599939
_cell_length_c 8.363792
_cell_angle_alpha 97.916002
_cell_angle_beta 86.482369
_cell_angle_gamma 29.426529
_cell_volume 794.362035
_symmetry_space_group_name_H-M "P -1"
_symmetry_group_IT_number 2
_symmetry_cell_setting 'triclinic'
loop_
_space_group_symop_operation_xyz
x,y,z
-x,-y,-z
loop_
_atom_site_type_symbol
_atom_site_label
_atom_site_fract_x
_atom_site_fract_y
_atom_site_fract_z
Si Si1 0.287166 0.193364 0.294498
Si Si2 0.159441 0.081208 0.028138
Si Si3 0.341676 0.890894 0.452623
Si Si4 0.608727 0.687796 0.986820
Si Si5 0.610909 0.071874 0.203902
Si Si6 0.596795 0.449819 0.097228
Si Si7 0.983001 0.664731 0.555493
Si Si8 0.845094 0.561491 0.968559
O O1 0.174295 0.344921 0.179462
O O2 0.169606 0.442380 0.460886
O O3 0.323896 0.030308 0.368587
O O4 0.462469 0.965167 0.145774
O O5 0.085026 0.206486 0.237032
O O6 0.310623 0.952171 0.942845
O O7 0.023693 0.303379 0.960692
O O8 0.231172 0.852125 0.956289
O O9 0.481384 0.619993 0.299793
O O10 0.393032 0.856852 0.615121
O O11 0.159318 0.094859 0.500881
O O12 0.766384 0.545533 0.952102
O O13 0.552160 0.744045 0.822773
O O14 0.621311 0.544579 0.041409
O O15 0.734661 0.790666 0.148305
O O16 0.500000 0.500000 0.000000
O O17 0.000000 0.500000 0.500000
#
# Coordination Sequence:
#
# PCOD9025606 Si02
#       8
#     2   2   2   2   2   2   2   2
#     4   9  18  35  56  82 118 151 186 237 297 346
#     4  12  23  37  63  89 119 161 198 245 294 351
#     4  10  20  34  60  92 118 153 196 251 291 348
#     4  10  22  41  62  84 122 164 193 243 297 354
#     4  11  20  37  62  94 117 151 202 246 300 351
#     4  11  21  43  62  84 118 161 205 239 290 355
#     4  10  17  31  54  87 119 145 189 245 296 339
#     4  11  22  38  60  90 125 155 193 246 303 355
#
# _framework density 20.141949
#
# number of rings (size 3 to 8) (size 9 to 14) (size 15 to 20)
#    0.000    1.500    2.500    7.125    0.000    1.000 
#    0.000   11.250    0.000    1.500    0.000    0.000 
#    0.000    0.000    0.000    0.000    0.000    0.000 
#
# Total GULP energy -89160.967151 kJ/mol
# GULP energy per Si atom -5572.560447 kJ/mol
# Density = 2.009610 g / cm^3
# Si number density = 20.141949 Si / 1000 Ang^3
#
#
#
# Elastic Constant Matrix: (Units=GPa)
#
#
# Indices 1 2 3 4 5 6 
#
# 1 61.8938 3.4719 11.5916 -0.1163 8.4346 6.7025
# 2 3.4719 68.6317 16.6277 14.5153 12.1991 14.4428
# 3 11.5916 16.6277 128.2261 16.9961 12.0257 8.7155
# 4 -0.1163 14.5153 16.9961 26.8454 3.8305 4.3112
# 5 8.4346 12.1991 12.0257 3.8305 15.6911 1.9890
# 6 6.7025 14.4428 8.7155 4.3112 1.9890 23.0416
#
#
#
# Elastic Compliance Matrix: (Units=1/GPa)
#
#
# Indices 1 2 3 4 5 6 
#
# 1 0.018237 0.001903 -0.000790 0.001949 -0.010435 -0.005663
# 2 0.001903 0.020881 0.000210 -0.007617 -0.014155 -0.011074
# 3 -0.000790 0.000210 0.009113 -0.004811 -0.005296 -0.001991
# 4 0.001949 -0.007617 -0.004811 0.045089 -0.002164 -0.002222
# 5 -0.010435 -0.014155 -0.005296 -0.002164 0.084036 0.007062
# 6 -0.005663 -0.011074 -0.001991 -0.002222 0.007062 0.052548
#
#
# Mechanical properties :
#
#
# Convention : Reuss Voigt Hill
#
# Bulk Modulus (GPa) = 19.65545 35.79266 27.72405
# Shear Modulus (GPa) = 20.47372 28.25297 24.36334
#
# Velocity S-wave (km/s) = 3.19167 3.74932 3.48168
# Velocity P-wave (km/s) = 4.83343 6.04582 5.47330
#
# Compressibility (1/GPa) = 0.05087648
#
# Stress axis : x y z
#
# Youngs Moduli (GPa) = 54.83399 47.89108 109.73839
#
# Poissons Ratio (x) = -0.09115 0.08671
# Poissons Ratio (y) = -0.10436 -0.02305
# Poissons Ratio (z) = 0.04333 -0.01006
#
# Static dielectric constant tensor:
#      x y z
#    x 1.785860 -0.003430 -0.034110 
#    y -0.003430 1.736890 0.031360 
#    z -0.034110 0.031360 1.778390 
# 
# From -- ./inp_files/176415.got.cif
#   From: 2010.05.17/outbox.cif.g08.bks.cpg/sg2_89_cif.got.tgz:176415.got - 2010.06.03 11:33:40.
