data_PCOD9025798
_publ_section_title
;
Structure prediction by ZEFSAII (Michael W. Deem and Ramdas Pophale) SiO2 
 PCOD9025798
Probable space group: P -1
;
_chemical_formula_sum "Si O2"
_cell_formula_units_Z 16
_cell_length_a 8.901210
_cell_length_b 9.327068
_cell_length_c 13.045764
_cell_angle_alpha 105.484845
_cell_angle_beta 48.771225
_cell_angle_gamma 102.946586
_cell_volume 783.275662
_symmetry_space_group_name_H-M "P -1"
_symmetry_group_IT_number 2
_symmetry_cell_setting 'triclinic'
loop_
_space_group_symop_operation_xyz
x,y,z
-x,-y,-z
loop_
_atom_site_type_symbol
_atom_site_label
_atom_site_fract_x
_atom_site_fract_y
_atom_site_fract_z
Si Si1 0.096542 0.738734 0.228386
Si Si2 0.329778 0.782522 0.579988
Si Si3 0.106725 0.470242 0.553082
Si Si4 0.532451 0.732752 0.696035
Si Si5 0.744292 0.888578 0.318961
Si Si6 0.867266 0.847608 0.029674
Si Si7 0.479350 0.953175 0.119203
Si Si8 0.852390 0.357843 0.047789
O O1 0.282607 0.844021 0.205508
O O2 0.037042 0.601350 0.305376
O O3 0.893579 0.823712 0.321317
O O4 0.154612 0.706057 0.077320
O O5 0.212543 0.629191 0.570770
O O6 0.433284 0.757073 0.636294
O O7 0.515722 0.835872 0.433865
O O8 0.211344 0.932548 0.668717
O O9 0.267623 0.349692 0.430003
O O10 0.000000 0.500000 0.500000
O O11 0.373658 0.627794 0.812506
O O12 0.541941 0.893928 0.778404
O O13 0.784167 0.824712 0.177143
O O14 0.678874 0.870212 0.045771
O O15 0.037751 0.730470 0.927547
O O16 0.000000 0.000000 0.000000
O O17 0.500000 0.000000 0.000000
O O18 0.000000 0.500000 0.000000
#
# Coordination Sequence:
#
# PCOD9025798 Si02
#       8
#     2   2   2   2   2   2   2   2
#     4  11  25  45  69 104 139 184 226 288 351 406
#     4  11  23  44  70  99 136 180 237 280 338 415
#     4  12  30  46  66 103 149 183 225 288 355 413
#     4  12  24  46  70 101 135 190 225 280 350 406
#     4  10  22  40  72 101 126 182 237 281 336 404
#     4  11  21  42  68 103 131 177 232 280 337 408
#     4  12  24  44  72 107 144 173 231 296 343 410
#     4  11  24  43  72 102 134 178 236 282 340 412
#
# _framework density 20.427036000000001
#
# number of rings (size 3 to 8) (size 9 to 14) (size 15 to 20)
#    0.000    0.750    5.000    1.875    7.000    0.500 
#    2.250    1.250    0.000    0.000    0.000    0.000 
#    0.000    0.000    0.000    0.000    0.000    0.000 
#
# Total GULP energy -89269.415155 kJ/mol
# GULP energy per Si atom -5579.338447 kJ/mol
# Density = 2.038054 g / cm^3
# Si number density = 20.427036 Si / 1000 Ang^3
#
#
#
# Elastic Constant Matrix: (Units=GPa)
#
#
# Indices 1 2 3 4 5 6 
#
# 1 121.8099 35.2410 14.4023 -7.9690 18.5066 -2.2884
# 2 35.2410 79.6277 -3.7924 -20.8690 8.9998 9.6445
# 3 14.4023 -3.7924 66.2511 -10.2731 4.5881 -0.7595
# 4 -7.9690 -20.8690 -10.2731 32.8483 6.1244 1.3318
# 5 18.5066 8.9998 4.5881 6.1244 30.7590 -4.6178
# 6 -2.2884 9.6445 -0.7595 1.3318 -4.6178 45.4940
#
#
#
# Elastic Compliance Matrix: (Units=1/GPa)
#
#
# Indices 1 2 3 4 5 6 
#
# 1 0.010426 -0.004364 -0.002215 -0.000137 -0.004494 0.000960
# 2 -0.004364 0.020242 0.004920 0.015038 -0.007876 -0.005668
# 3 -0.002215 0.004920 0.017570 0.009038 -0.004769 -0.001610
# 4 -0.000137 0.015038 0.009038 0.045963 -0.015716 -0.005985
# 5 -0.004494 -0.007876 -0.004769 -0.015716 0.042278 0.006115
# 6 0.000960 -0.005668 -0.001610 -0.005985 0.006115 0.024000
#
#
# Mechanical properties :
#
#
# Convention : Reuss Voigt Hill
#
# Bulk Modulus (GPa) = 22.26212 39.93225 31.09718
# Shear Modulus (GPa) = 27.96869 36.60945 32.28907
#
# Velocity S-wave (km/s) = 3.70428 4.23804 3.98012
# Velocity P-wave (km/s) = 5.40533 6.59842 6.03145
#
# Compressibility (1/GPa) = 0.04491936
#
# Stress axis : x y z
#
# Youngs Moduli (GPa) = 95.91538 49.40189 56.91367
#
# Poissons Ratio (x) = 0.21559 0.12608
# Poissons Ratio (y) = 0.41858 -0.28000
# Poissons Ratio (z) = 0.21248 -0.24305
#
# Static dielectric constant tensor:
#      x y z
#    x 1.717590 -0.011560 -0.024870 
#    y -0.011560 1.856660 0.045400 
#    z -0.024870 0.045400 1.783640 
# 
# From -- ./inp_files/216356.got.cif
#   From: 2010.05.17/outbox.cif.g08.bks.cpg/sg2_109_cif.got.tgz:216356.got - 2010.06.03 11:33:40.
