data_PCOD9025172
_publ_section_title
;
Structure prediction by ZEFSAII (Michael W. Deem and Ramdas Pophale) SiO2 
 PCOD9025172
Probable space group: P -1
;
_chemical_formula_sum "Si O2"
_cell_formula_units_Z 14
_cell_length_a 11.466082
_cell_length_b 16.840615
_cell_length_c 7.912353
_cell_angle_alpha 63.795531
_cell_angle_beta 44.501329
_cell_angle_gamma 34.088537
_cell_volume 555.300857
_symmetry_space_group_name_H-M "P -1"
_symmetry_group_IT_number 2
_symmetry_cell_setting 'triclinic'
loop_
_space_group_symop_operation_xyz
x,y,z
-x,-y,-z
loop_
_atom_site_type_symbol
_atom_site_label
_atom_site_fract_x
_atom_site_fract_y
_atom_site_fract_z
Si Si1 0.079893 0.737614 0.280466
Si Si2 0.278273 0.677332 0.592231
Si Si3 0.757682 0.019591 0.534602
Si Si4 0.422542 0.410468 0.294962
Si Si5 0.865920 0.752558 0.144593
Si Si6 0.683524 0.159248 0.815672
Si Si7 0.070971 0.479896 0.149774
O O1 0.239628 0.580588 0.324774
O O2 0.904618 0.787904 0.245663
O O3 0.347410 0.685480 0.002379
O O4 0.869817 0.874179 0.501383
O O5 0.500000 0.500000 0.500000
O O6 0.384890 0.673803 0.658806
O O7 0.296298 0.751405 0.376468
O O8 0.967113 0.770566 0.868112
O O9 0.443677 0.156953 0.647230
O O10 0.713645 0.070866 0.724342
O O11 0.026871 0.966977 0.251985
O O12 0.187041 0.438947 0.539974
O O13 0.096760 0.572483 0.072748
O O14 0.352698 0.302337 0.077569
O O15 0.000000 0.500000 0.000000
#
# Coordination Sequence:
#
# PCOD9025172 Si02
#       7
#     2   2   2   2   2   2   2
#     4  10  24  44  64  94 133 174 215 262 318 391
#     4  11  19  37  66  97 124 167 212 273 317 372
#     4  11  24  45  61  93 139 170 211 267 324 392
#     4  10  22  40  67  97 125 169 221 266 316 376
#     4  11  23  40  68  94 129 169 219 260 322 382
#     4  11  24  41  67  96 134 168 213 270 328 379
#     4  12  21  42  70  99 125 165 222 274 316 377
#
# _framework density 25.211559000000001
#
# number of rings (size 3 to 8) (size 9 to 14) (size 15 to 20)
#    0.000    1.143    4.286    1.286    4.000    1.143 
#    5.143    6.429    0.000    0.000    0.000    0.000 
#    0.000    0.000    0.000    0.000    0.000    0.000 
#
# Total GULP energy -78218.263041 kJ/mol
# GULP energy per Si atom -5587.018789 kJ/mol
# Density = 2.515418 g / cm^3
# Si number density = 25.211559 Si / 1000 Ang^3
#
#
#
# Elastic Constant Matrix: (Units=GPa)
#
#
# Indices 1 2 3 4 5 6 
#
# 1 134.1684 20.6100 44.4621 19.5432 -7.6051 -5.2447
# 2 20.6100 86.9266 53.8847 24.2319 8.5502 16.7680
# 3 44.4621 53.8847 109.2699 9.8499 -24.4576 -2.9916
# 4 19.5432 24.2319 9.8499 48.8045 -5.9689 -1.7930
# 5 -7.6051 8.5502 -24.4576 -5.9689 37.3283 16.1975
# 6 -5.2447 16.7680 -2.9916 -1.7930 16.1975 45.0523
#
#
#
# Elastic Compliance Matrix: (Units=1/GPa)
#
#
# Indices 1 2 3 4 5 6 
#
# 1 0.009292 0.002362 -0.005240 -0.004186 -0.003099 0.000802
# 2 0.002362 0.028958 -0.018097 -0.014052 -0.017695 -0.005902
# 3 -0.005240 -0.018097 0.023853 0.008712 0.019672 0.000983
# 4 -0.004186 -0.014052 0.008712 0.028901 0.011715 0.002260
# 5 -0.003099 -0.017695 0.019672 0.011715 0.049175 -0.009682
# 6 0.000802 -0.005902 0.000983 0.002260 -0.009682 0.028123
#
#
# Mechanical properties :
#
#
# Convention : Reuss Voigt Hill
#
# Bulk Modulus (GPa) = 49.61914 63.14206 56.38060
# Shear Modulus (GPa) = 23.04468 40.33088 31.68778
#
# Velocity S-wave (km/s) = 3.02661 4.00396 3.54909
# Velocity P-wave (km/s) = 5.65134 6.81725 6.26149
#
# Compressibility (1/GPa) = 0.02015351
#
# Stress axis : x y z
#
# Youngs Moduli (GPa) = 107.61434 34.53255 41.92368
#
# Poissons Ratio (x) = -0.08156 0.21969
# Poissons Ratio (y) = -0.25418 0.75868
# Poissons Ratio (z) = 0.56391 0.62493
#
# Static dielectric constant tensor:
#      x y z
#    x 2.029080 -0.060440 -0.028360 
#    y -0.060440 2.047330 0.010730 
#    z -0.028360 0.010730 2.051060 
# 
# From -- ./inp_files/279266.got.cif
#   From: 2010.05.17/outbox.cif.g08.bks.cpg/sg2_140_cif.got.tgz:279266.got - 2010.06.03 11:33:40.
