data_PCOD9025446
_publ_section_title
;
Structure prediction by ZEFSAII (Michael W. Deem and Ramdas Pophale) SiO2 
 PCOD9025446
Probable space group: P -1
;
_chemical_formula_sum "Si O2"
_cell_formula_units_Z 16
_cell_length_a 8.438135
_cell_length_b 14.239001
_cell_length_c 11.405122
_cell_angle_alpha 111.078234
_cell_angle_beta 128.737679
_cell_angle_gamma 107.817924
_cell_volume 682.046859
_symmetry_space_group_name_H-M "P -1"
_symmetry_group_IT_number 2
_symmetry_cell_setting 'triclinic'
loop_
_space_group_symop_operation_xyz
x,y,z
-x,-y,-z
loop_
_atom_site_type_symbol
_atom_site_label
_atom_site_fract_x
_atom_site_fract_y
_atom_site_fract_z
Si Si1 0.765771 0.394025 0.001691
Si Si2 0.527297 0.176976 0.601718
Si Si3 0.549523 0.362693 0.535503
Si Si4 0.686973 0.118634 0.243224
Si Si5 0.786454 0.092947 0.524642
Si Si6 0.383430 0.420346 0.688423
Si Si7 0.610428 0.711208 0.011106
Si Si8 0.738014 0.851591 0.889327
O O1 0.596582 0.301575 0.001171
O O2 0.102314 0.539331 0.259000
O O3 0.766560 0.308683 0.862801
O O4 0.586557 0.421275 0.867421
O O5 0.408213 0.225834 0.493188
O O6 0.636707 0.129871 0.543863
O O7 0.285296 0.038591 0.508749
O O8 0.503329 0.447207 0.623897
O O9 0.384052 0.286246 0.303995
O O10 0.673646 0.046876 0.320886
O O11 0.524397 0.162509 0.224538
O O12 0.035950 0.265311 0.451735
O O13 0.500000 0.000000 0.000000
O O14 0.131873 0.237551 0.762690
O O15 0.423308 0.548787 0.805753
O O16 0.769746 0.822793 0.024421
O O17 0.000000 0.000000 0.000000
#
# Coordination Sequence:
#
# PCOD9025446 Si02
#       8
#     2   2   2   2   2   2   2   2
#     4  11  23  42  73 106 141 175 237 297 345 412
#     4  10  22  40  69 101 132 185 234 283 344 413
#     4  11  22  45  70 102 144 186 228 292 354 408
#     4  12  27  47  71 102 147 184 229 295 354 411
#     4  11  23  44  70 101 136 185 242 285 341 425
#     4  11  24  46  73 104 141 183 238 289 347 418
#     4  12  26  43  73 107 136 183 237 289 351 410
#     4  12  28  49  68 101 148 187 229 288 357 418
#
# _framework density 23.458798000000002
#
# number of rings (size 3 to 8) (size 9 to 14) (size 15 to 20)
#    0.000    0.750    2.500    5.625    3.500    4.000 
#    0.000    0.000    0.000    0.000    0.000    0.000 
#    0.000    0.000    0.000    0.000    0.000    0.000 
#
# Total GULP energy -89416.014413 kJ/mol
# GULP energy per Si atom -5588.500901 kJ/mol
# Density = 2.340540 g / cm^3
# Si number density = 23.458798 Si / 1000 Ang^3
#
#
#
# Elastic Constant Matrix: (Units=GPa)
#
#
# Indices 1 2 3 4 5 6 
#
# 1 85.5241 29.7458 37.7684 -4.9589 -0.8368 28.0172
# 2 29.7458 80.1304 41.7912 -0.5433 -20.8951 17.5476
# 3 37.7684 41.7912 136.9837 -4.1965 -11.8450 18.2604
# 4 -4.9589 -0.5433 -4.1965 26.3398 5.6795 -12.3421
# 5 -0.8368 -20.8951 -11.8450 5.6795 31.0591 -13.4735
# 6 28.0172 17.5476 18.2604 -12.3421 -13.4735 26.3887
#
#
#
# Elastic Compliance Matrix: (Units=1/GPa)
#
#
# Indices 1 2 3 4 5 6 
#
# 1 0.025014 -0.004993 -0.002569 -0.008013 -0.016871 -0.033821
# 2 -0.004993 0.019489 -0.003521 -0.004180 0.011927 -0.001088
# 3 -0.002569 -0.003521 0.009261 0.000394 0.000669 -0.000814
# 4 -0.008013 -0.004180 0.000394 0.053384 0.003814 0.037930
# 5 -0.016871 0.011927 0.000669 0.003814 0.056809 0.040308
# 6 -0.033821 -0.001088 -0.000814 0.037930 0.040308 0.113409
#
#
# Mechanical properties :
#
#
# Convention : Reuss Voigt Hill
#
# Bulk Modulus (GPa) = 31.64771 57.91657 44.78214
# Shear Modulus (GPa) = 16.12563 29.64637 22.88600
#
# Velocity S-wave (km/s) = 2.62468 3.55880 3.12682
# Velocity P-wave (km/s) = 4.76501 6.45205 5.67161
#
# Compressibility (1/GPa) = 0.03159786
#
# Stress axis : x y z
#
# Youngs Moduli (GPa) = 39.97812 51.30993 107.97877
#
# Poissons Ratio (x) = 0.25619 0.27743
# Poissons Ratio (y) = 0.19961 0.38019
# Poissons Ratio (z) = 0.10272 0.18066
#
# Static dielectric constant tensor:
#      x y z
#    x 1.914690 0.047110 -0.012650 
#    y 0.047110 1.926380 -0.003570 
#    z -0.012650 -0.003570 1.913710 
# 
# From -- ./inp_files/399339.got.cif
#   From: 2010.05.17/outbox.cif.g08.bks.cpg/sg2_200_cif.got.tgz:399339.got - 2010.06.03 11:33:40.
