data_PCOD9025730
_publ_section_title
;
Structure prediction by ZEFSAII (Michael W. Deem and Ramdas Pophale) SiO2 
 PCOD9025730
Probable space group: P -1
;
_chemical_formula_sum "Si O2"
_cell_formula_units_Z 14
_cell_length_a 9.294955
_cell_length_b 17.589159
_cell_length_c 11.164894
_cell_angle_alpha 32.004899
_cell_angle_beta 128.040849
_cell_angle_gamma 142.248602
_cell_volume 583.948047
_symmetry_space_group_name_H-M "P -1"
_symmetry_group_IT_number 2
_symmetry_cell_setting 'triclinic'
loop_
_space_group_symop_operation_xyz
x,y,z
-x,-y,-z
loop_
_atom_site_type_symbol
_atom_site_label
_atom_site_fract_x
_atom_site_fract_y
_atom_site_fract_z
Si Si1 0.718129 0.017003 0.287887
Si Si2 0.144423 0.491608 0.189083
Si Si3 0.012802 0.054540 0.069776
Si Si4 0.085310 0.177024 0.463132
Si Si5 0.449093 0.781776 0.154707
Si Si6 0.799356 0.553221 0.334027
Si Si7 0.788374 0.326953 0.448503
O O1 0.468521 0.872869 0.421009
O O2 0.781473 0.893960 0.429016
O O3 0.925203 0.156384 0.301265
O O4 0.680968 0.129390 0.027299
O O5 0.222167 0.378192 0.325039
O O6 0.949829 0.381611 0.343564
O O7 0.365227 0.678370 0.120180
O O8 0.000000 0.500000 0.000000
O O9 0.730437 0.942334 0.096026
O O10 0.071113 0.964262 0.319080
O O11 0.201138 0.276637 0.887001
O O12 0.000000 0.000000 0.000000
O O13 0.358189 0.622083 0.420944
O O14 0.764052 0.478497 0.280716
O O15 0.064767 0.660915 0.379543
#
# Coordination Sequence:
#
# PCOD9025730 Si02
#       7
#     2   2   2   2   2   2   2
#     4  11  24  46  72 102 137 190 235 280 351 414
#     4  11  24  46  70 100 143 183 232 287 351 417
#     4  12  26  44  69 107 145 179 234 295 348 409
#     4  11  27  43  68 105 145 176 230 302 344 404
#     4  11  24  45  76  98 138 194 232 278 349 420
#     4  10  23  41  70 105 134 179 241 285 333 415
#     4  10  22  40  71 101 132 181 241 273 339 419
#
# _framework density 23.974734999999999
#
# number of rings (size 3 to 8) (size 9 to 14) (size 15 to 20)
#    0.000    1.143    2.857    2.571    6.000    6.286 
#    0.000    1.429    0.000    0.000    0.000    0.000 
#    0.000    0.000    0.000    0.000    0.000    0.000 
#
# Total GULP energy -78225.648623 kJ/mol
# GULP energy per Si atom -5587.546330 kJ/mol
# Density = 2.392017 g / cm^3
# Si number density = 23.974735 Si / 1000 Ang^3
#
#
#
# Elastic Constant Matrix: (Units=GPa)
#
#
# Indices 1 2 3 4 5 6 
#
# 1 85.1934 42.8623 35.1693 -9.6500 0.1577 -15.0100
# 2 42.8623 106.3177 30.5000 -8.4920 -1.2945 -10.0742
# 3 35.1693 30.5000 105.1555 -9.3649 7.0232 2.7629
# 4 -9.6500 -8.4920 -9.3649 44.9729 -7.3104 -1.4609
# 5 0.1577 -1.2945 7.0232 -7.3104 33.9031 -10.1836
# 6 -15.0100 -10.0742 2.7629 -1.4609 -10.1836 37.4029
#
#
#
# Elastic Compliance Matrix: (Units=1/GPa)
#
#
# Indices 1 2 3 4 5 6 
#
# 1 0.017671 -0.004844 -0.004684 0.002694 0.003439 0.007174
# 2 -0.004844 0.012242 -0.001995 0.001211 0.001774 0.002031
# 3 -0.004684 -0.001995 0.012053 0.000376 -0.003767 -0.004318
# 4 0.002694 0.001211 0.000376 0.024296 0.006419 0.004076
# 5 0.003439 0.001774 -0.003767 0.006419 0.035318 0.012003
# 6 0.007174 0.002031 -0.004318 0.004076 0.012003 0.033908
#
#
# Mechanical properties :
#
#
# Convention : Reuss Voigt Hill
#
# Bulk Modulus (GPa) = 52.84798 57.08108 54.96453
# Shear Modulus (GPa) = 30.33253 35.79810 33.06532
#
# Velocity S-wave (km/s) = 3.56081 3.86833 3.71775
# Velocity P-wave (km/s) = 6.24474 6.61910 6.43465
#
# Compressibility (1/GPa) = 0.01892220
#
# Stress axis : x y z
#
# Youngs Moduli (GPa) = 56.58915 81.68887 82.96563
#
# Poissons Ratio (x) = 0.39568 0.38857
# Poissons Ratio (y) = 0.27410 0.16549
# Poissons Ratio (z) = 0.26504 0.16294
#
# Static dielectric constant tensor:
#      x y z
#    x 2.022050 -0.002610 0.098270 
#    y -0.002610 1.885600 -0.014060 
#    z 0.098270 -0.014060 2.018330 
# 
# From -- ./inp_files/402751.got.cif
#   From: 2010.05.17/outbox.cif.g08.bks.cpg/sg2_202_cif.got.tgz:402751.got - 2010.06.03 11:33:40.
