data_PCOD9025651
_publ_section_title
;
Structure prediction by ZEFSAII (Michael W. Deem and Ramdas Pophale) SiO2 
 PCOD9025651
Probable space group: P -1
;
_chemical_formula_sum "Si O2"
_cell_formula_units_Z 16
_cell_length_a 14.919613
_cell_length_b 29.380286
_cell_length_c 9.071549
_cell_angle_alpha 46.023260
_cell_angle_beta 37.617521
_cell_angle_gamma 19.680523
_cell_volume 791.377863
_symmetry_space_group_name_H-M "P -1"
_symmetry_group_IT_number 2
_symmetry_cell_setting 'triclinic'
loop_
_space_group_symop_operation_xyz
x,y,z
-x,-y,-z
loop_
_atom_site_type_symbol
_atom_site_label
_atom_site_fract_x
_atom_site_fract_y
_atom_site_fract_z
Si Si1 0.880680 0.563450 0.852389
Si Si2 0.214430 0.530529 0.286189
Si Si3 0.186226 0.870511 0.476102
Si Si4 0.875453 0.303928 0.805451
Si Si5 0.686446 0.126905 0.019860
Si Si6 0.639226 0.879962 0.649891
Si Si7 0.107247 0.401570 0.689477
Si Si8 0.330588 0.038704 0.987812
O O1 0.573532 0.727582 0.888589
O O2 0.149841 0.500794 0.556022
O O3 0.865757 0.504467 0.910470
O O4 0.000000 0.500000 0.000000
O O5 0.194576 0.600918 0.249517
O O6 0.948401 0.634885 0.267142
O O7 0.547688 0.392825 0.072645
O O8 0.531869 0.734725 0.412861
O O9 0.960876 0.896338 0.735075
O O10 0.234871 0.868036 0.246942
O O11 0.000000 0.000000 0.500000
O O12 0.998463 0.261162 0.573098
O O13 0.164026 0.160385 0.843330
O O14 0.538991 0.114330 0.196956
O O15 0.000000 0.000000 0.000000
O O16 0.500000 0.000000 0.500000
O O17 0.569198 0.911762 0.844812
O O18 0.000000 0.500000 0.500000
O O19 0.500000 0.000000 0.000000
#
# Coordination Sequence:
#
# PCOD9025651 Si02
#       8
#     2   2   2   2   2   2   2   2
#     4  11  22  42  64  96 137 173 223 291 344 402
#     4  10  22  40  70  92 130 182 231 276 343 412
#     4  12  26  43  69 104 140 171 235 291 344 416
#     4  10  22  42  64  94 131 180 233 271 335 419
#     4  12  27  42  71 103 135 183 232 288 348 408
#     4  10  23  44  66  96 138 179 230 284 338 415
#     4  10  23  41  68  97 135 181 222 282 350 404
#     4  11  25  42  67  97 140 180 218 284 353 407
#
# _framework density 20.217903
#
# number of rings (size 3 to 8) (size 9 to 14) (size 15 to 20)
#    0.000    1.250    3.750    1.500    8.750    2.000 
#    0.000    0.000    0.000    3.750    0.000    0.000 
#    0.000    0.000    0.000    0.000    0.000    0.000 
#
# Total GULP energy -89193.461567 kJ/mol
# GULP energy per Si atom -5574.591348 kJ/mol
# Density = 2.017189 g / cm^3
# Si number density = 20.217903 Si / 1000 Ang^3
#
#
#
# Elastic Constant Matrix: (Units=GPa)
#
#
# Indices 1 2 3 4 5 6 
#
# 1 97.1369 36.6188 47.1324 16.9657 19.5921 -13.1797
# 2 36.6188 105.6453 30.1980 21.4991 8.2844 -8.7245
# 3 47.1324 30.1980 130.8991 17.7124 23.3417 -8.0078
# 4 16.9657 21.4991 17.7124 34.6340 7.9829 5.8943
# 5 19.5921 8.2844 23.3417 7.9829 28.0087 -2.4675
# 6 -13.1797 -8.7245 -8.0078 5.8943 -2.4675 40.8014
#
#
#
# Elastic Compliance Matrix: (Units=1/GPa)
#
#
# Indices 1 2 3 4 5 6 
#
# 1 0.015170 -0.002930 -0.003047 -0.003336 -0.005920 0.003800
# 2 -0.002930 0.012147 -0.000971 -0.006321 0.001284 0.002451
# 3 -0.003047 -0.000971 0.010260 -0.002021 -0.005488 0.000782
# 4 -0.003336 -0.006321 -0.002021 0.038281 -0.005791 -0.008706
# 5 -0.005920 0.001284 -0.005488 -0.005791 0.045767 0.000889
# 6 0.003800 0.002451 0.000782 -0.008706 0.000889 0.027725
#
#
# Mechanical properties :
#
#
# Convention : Reuss Voigt Hill
#
# Bulk Modulus (GPa) = 42.22679 62.39775 52.31227
# Shear Modulus (GPa) = 29.21585 35.33763 32.27674
#
# Velocity S-wave (km/s) = 3.80550 4.18525 3.99989
# Velocity P-wave (km/s) = 6.34353 7.36782 6.87477
#
# Compressibility (1/GPa) = 0.02368165
#
# Stress axis : x y z
#
# Youngs Moduli (GPa) = 65.91944 82.32465 97.46418
#
# Poissons Ratio (x) = 0.24125 0.29694
# Poissons Ratio (y) = 0.19317 0.09461
# Poissons Ratio (z) = 0.20083 0.07991
#
# Static dielectric constant tensor:
#      x y z
#    x 1.824780 0.039550 -0.033030 
#    y 0.039550 1.722060 0.002320 
#    z -0.033030 0.002320 1.806100 
# 
# From -- ./inp_files/320948.got.cif
#   From: 2010.05.17/outbox.cif.g08.bks.cpg/sg2_161_cif.got.tgz:320948.got - 2010.06.03 11:33:40.
