data_PCOD9025017
_publ_section_title
;
Structure prediction by ZEFSAII (Michael W. Deem and Ramdas Pophale) SiO2 
 PCOD9025017
Probable space group: P -1
;
_chemical_formula_sum "Si O2"
_cell_formula_units_Z 16
_cell_length_a 9.655167
_cell_length_b 9.251261
_cell_length_c 13.279977
_cell_angle_alpha 60.035519
_cell_angle_beta 37.620297
_cell_angle_gamma 70.756266
_cell_volume 622.394182
_symmetry_space_group_name_H-M "P -1"
_symmetry_group_IT_number 2
_symmetry_cell_setting 'triclinic'
loop_
_space_group_symop_operation_xyz
x,y,z
-x,-y,-z
loop_
_atom_site_type_symbol
_atom_site_label
_atom_site_fract_x
_atom_site_fract_y
_atom_site_fract_z
Si Si1 0.465363 0.737888 0.027915
Si Si2 0.331992 0.315518 0.504429
Si Si3 0.903734 0.543084 0.212760
Si Si4 0.918466 0.076760 0.749792
Si Si5 0.801494 0.581961 0.765196
Si Si6 0.756627 0.152026 0.603799
Si Si7 0.262691 0.846317 0.606142
Si Si8 0.636773 0.659240 0.161573
O O1 0.295567 0.563972 0.202531
O O2 0.633553 0.740602 0.025485
O O3 0.297876 0.880319 0.074845
O O4 0.615240 0.703543 0.857574
O O5 0.493369 0.472675 0.310057
O O6 0.112971 0.239705 0.592059
O O7 0.491579 0.168577 0.482591
O O8 0.239770 0.380003 0.642163
O O9 0.814064 0.349765 0.306994
O O10 0.865598 0.641538 0.098379
O O11 0.148774 0.527674 0.125214
O O12 0.812063 0.053049 0.706676
O O13 0.067635 0.931005 0.746236
O O14 0.037145 0.693727 0.566476
O O15 0.740083 0.067333 0.533370
O O16 0.522105 0.229749 0.723083
#
# Coordination Sequence:
#
# PCOD9025017 Si02
#       8
#     2   2   2   2   2   2   2   2
#     4  10  21  32  49  78 104 127 169 208 244 292
#     4  11  17  32  53  79  98 130 164 210 248 288
#     4  10  18  33  55  72 102 131 167 202 252 289
#     4  11  21  31  51  80 103 127 167 208 242 294
#     4  10  19  34  51  74 100 138 164 201 254 291
#     4  10  18  33  52  73 103 131 164 202 254 292
#     4  10  19  32  49  79 102 132 159 207 252 295
#     4  10  17  31  54  77  97 127 169 211 242 289
#
# _framework density 25.707183000000001
#
# number of rings (size 3 to 8) (size 9 to 14) (size 15 to 20)
#    0.000    1.750    5.000    2.250    0.000    2.500 
#    0.000    2.500    0.000    0.000    3.250    8.750 
#    0.000    0.000    0.000    0.000    0.000    0.000 
#
# Total GULP energy -89408.134658 kJ/mol
# GULP energy per Si atom -5588.008416 kJ/mol
# Density = 2.564867 g / cm^3
# Si number density = 25.707183 Si / 1000 Ang^3
#
#
#
# Elastic Constant Matrix: (Units=GPa)
#
#
# Indices 1 2 3 4 5 6 
#
# 1 123.5444 25.9826 23.9164 2.2771 -21.3750 -30.0347
# 2 25.9826 130.1550 48.7577 36.5050 0.4860 -26.7961
# 3 23.9164 48.7577 52.6626 11.0752 -7.8566 -18.0183
# 4 2.2771 36.5050 11.0752 58.7334 -8.8377 -13.9944
# 5 -21.3750 0.4860 -7.8566 -8.8377 30.7014 3.5687
# 6 -30.0347 -26.7961 -18.0183 -13.9944 3.5687 30.6707
#
#
#
# Elastic Compliance Matrix: (Units=1/GPa)
#
#
# Indices 1 2 3 4 5 6 
#
# 1 0.012866 -0.001333 0.000027 0.004646 0.008866 0.012539
# 2 -0.001333 0.014999 -0.011969 -0.007509 -0.006636 0.002113
# 3 0.000027 -0.011969 0.034063 0.004953 0.009098 0.010782
# 4 0.004646 -0.007509 0.004953 0.024772 0.010476 0.010984
# 5 0.008866 -0.006636 0.009098 0.010476 0.043266 0.007974
# 6 0.012539 0.002113 0.010782 0.010984 0.007974 0.057147
#
#
# Mechanical properties :
#
#
# Convention : Reuss Voigt Hill
#
# Bulk Modulus (GPa) = 28.26730 55.96392 42.11561
# Shear Modulus (GPa) = 22.17728 37.86812 30.02270
#
# Velocity S-wave (km/s) = 2.94034 3.84220 3.42112
# Velocity P-wave (km/s) = 4.74839 6.44208 5.65896
#
# Compressibility (1/GPa) = 0.03537657
#
# Stress axis : x y z
#
# Youngs Moduli (GPa) = 77.72470 66.67160 29.35754
#
# Poissons Ratio (x) = 0.08890 -0.00079
# Poissons Ratio (y) = 0.10364 0.35139
# Poissons Ratio (z) = -0.00210 0.79800
#
# Static dielectric constant tensor:
#      x y z
#    x 2.057510 0.006960 0.034720 
#    y 0.006960 2.059700 -0.050290 
#    z 0.034720 -0.050290 2.046790 
# 
# From -- ./inp_files/499029.got.cif
#   From: 2010.05.17/outbox.cif.g08.bks.cpg/sg2_250_cif.got.tgz:499029.got - 2010.06.03 11:33:40.
