data_PCOD9025525
_publ_section_title
;
Structure prediction by ZEFSAII (Michael W. Deem and Ramdas Pophale) SiO2 
 PCOD9025525
Probable space group: P -1
;
_chemical_formula_sum "Si O2"
_cell_formula_units_Z 16
_cell_length_a 11.906297
_cell_length_b 9.066191
_cell_length_c 13.089462
_cell_angle_alpha 118.911350
_cell_angle_beta 92.498538
_cell_angle_gamma 129.279117
_cell_volume 820.076787
_symmetry_space_group_name_H-M "P -1"
_symmetry_group_IT_number 2
_symmetry_cell_setting 'triclinic'
loop_
_space_group_symop_operation_xyz
x,y,z
-x,-y,-z
loop_
_atom_site_type_symbol
_atom_site_label
_atom_site_fract_x
_atom_site_fract_y
_atom_site_fract_z
Si Si1 0.430664 0.909877 0.082577
Si Si2 0.939516 0.896668 0.848937
Si Si3 0.356528 0.182199 0.249856
Si Si4 0.255414 0.329624 0.621724
Si Si5 0.173427 0.916348 0.354531
Si Si6 0.774403 0.339421 0.360060
Si Si7 0.159165 0.329899 0.840723
Si Si8 0.886873 0.459089 0.633334
O O1 0.334728 0.976235 0.126450
O O2 0.592852 0.084120 0.221819
O O3 0.306464 0.612684 0.985212
O O4 0.500000 0.000000 0.000000
O O5 0.777921 0.832143 0.797263
O O6 0.895454 0.653426 0.746233
O O7 0.083489 0.116403 0.848024
O O8 0.000000 0.000000 0.000000
O O9 0.545118 0.452375 0.321984
O O10 0.322929 0.114014 0.345572
O O11 0.193814 0.433394 0.600543
O O12 0.224781 0.312262 0.735133
O O13 0.170707 0.071496 0.483132
O O14 0.187114 0.759913 0.364500
O O15 0.997687 0.728379 0.221666
O O16 0.785262 0.346440 0.484924
O O17 0.923654 0.391662 0.338000
#
# Coordination Sequence:
#
# PCOD9025525 Si02
#       8
#     2   2   2   2   2   2   2   2
#     4  11  21  42  70  99 124 167 228 270 316 378
#     4  11  28  44  64  93 142 175 208 267 333 394
#     4  10  24  43  67  93 132 171 215 272 320 391
#     4  11  21  43  68 100 122 168 226 270 319 376
#     4  11  23  39  71  97 130 172 218 268 324 392
#     4  10  22  40  69  94 137 163 214 286 311 376
#     4  11  23  41  70  95 126 173 225 263 313 402
#     4  11  24  42  63  99 133 172 215 264 334 379
#
# _framework density 19.510366999999999
#
# number of rings (size 3 to 8) (size 9 to 14) (size 15 to 20)
#    0.000    1.250    3.750    2.250    8.750    2.000 
#    2.250    4.375    0.000    0.000    0.000    0.000 
#    0.000    0.000    0.000    0.000    0.000    0.000 
#
# Total GULP energy -89474.205007 kJ/mol
# GULP energy per Si atom -5592.137813 kJ/mol
# Density = 1.946596 g / cm^3
# Si number density = 19.510367 Si / 1000 Ang^3
#
#
#
# Elastic Constant Matrix: (Units=GPa)
#
#
# Indices 1 2 3 4 5 6 
#
# 1 109.5360 52.7017 69.6698 -4.9926 -12.7032 -7.4498
# 2 52.7017 124.9310 70.9913 -16.9754 11.2042 -3.2019
# 3 69.6698 70.9913 123.3592 -1.0466 -5.1428 -20.2909
# 4 -4.9926 -16.9754 -1.0466 36.8518 0.7620 1.2775
# 5 -12.7032 11.2042 -5.1428 0.7620 28.2444 2.2628
# 6 -7.4498 -3.2019 -20.2909 1.2775 2.2628 31.7484
#
#
#
# Elastic Compliance Matrix: (Units=1/GPa)
#
#
# Indices 1 2 3 4 5 6 
#
# 1 0.016007 -0.003427 -0.007023 0.000294 0.007402 -0.001617
# 2 -0.003427 0.015679 -0.008067 0.006856 -0.009094 -0.004007
# 3 -0.007023 -0.008067 0.018310 -0.004525 0.002758 0.009226
# 4 0.000294 0.006856 -0.004525 0.030394 -0.003985 -0.003070
# 5 0.007402 -0.009094 0.002758 -0.003985 0.042977 -0.000320
# 6 -0.001617 -0.004007 0.009226 -0.003070 -0.000320 0.036757
#
#
# Mechanical properties :
#
#
# Convention : Reuss Voigt Hill
#
# Bulk Modulus (GPa) = 77.15812 82.72797 79.94304
# Shear Modulus (GPa) = 24.81654 30.33315 27.57485
#
# Velocity S-wave (km/s) = 3.57033 3.94727 3.76352
# Velocity P-wave (km/s) = 7.52526 7.95416 7.74268
#
# Compressibility (1/GPa) = 0.01296040
#
# Stress axis : x y z
#
# Youngs Moduli (GPa) = 62.47229 63.78047 54.61593
#
# Poissons Ratio (x) = 0.21858 0.38358
# Poissons Ratio (y) = 0.21410 0.44061
# Poissons Ratio (z) = 0.43875 0.51454
#
# Static dielectric constant tensor:
#      x y z
#    x 1.674410 0.021530 0.000200 
#    y 0.021530 1.674220 -0.004710 
#    z 0.000200 -0.004710 1.671350 
# 
# From -- ./inp_files/224053.got.cif
#   From: 2010.05.17/outbox.cif.g08.bks.cpg/sg2_113_cif.got.tgz:224053.got - 2010.06.03 11:33:40.
