data_PCOD9025316
_publ_section_title
;
Structure prediction by ZEFSAII (Michael W. Deem and Ramdas Pophale) SiO2 
 PCOD9025316
Probable space group: P -1
;
_chemical_formula_sum "Si O2"
_cell_formula_units_Z 16
_cell_length_a 16.501614
_cell_length_b 8.426299
_cell_length_c 9.240187
_cell_angle_alpha 99.007342
_cell_angle_beta 127.803480
_cell_angle_gamma 117.461594
_cell_volume 702.086912
_symmetry_space_group_name_H-M "P -1"
_symmetry_group_IT_number 2
_symmetry_cell_setting 'triclinic'
loop_
_space_group_symop_operation_xyz
x,y,z
-x,-y,-z
loop_
_atom_site_type_symbol
_atom_site_label
_atom_site_fract_x
_atom_site_fract_y
_atom_site_fract_z
Si Si1 0.136334 0.407687 0.393629
Si Si2 0.356538 0.861211 0.189771
Si Si3 0.394783 0.617076 0.512989
Si Si4 0.335524 0.882676 0.839382
Si Si5 0.727161 0.597168 0.931398
Si Si6 0.112431 0.750079 0.087887
Si Si7 0.413245 0.311558 0.002894
Si Si8 0.044419 0.976491 0.204040
O O1 0.239151 0.510035 0.379625
O O2 0.217595 0.630044 0.608867
O O3 0.127816 0.214171 0.410202
O O4 0.974777 0.278746 0.151216
O O5 0.339689 0.650764 0.137093
O O6 0.255520 0.825125 0.196799
O O7 0.511623 0.126074 0.403015
O O8 0.305352 0.854943 0.972650
O O9 0.357788 0.455408 0.318845
O O10 0.475609 0.629719 0.741242
O O11 0.500000 0.000000 0.000000
O O12 0.335700 0.067468 0.816774
O O13 0.695206 0.690762 0.032101
O O14 0.897671 0.772177 0.102247
O O15 0.134123 0.918977 0.249463
O O16 0.000000 0.500000 0.000000
O O17 0.500000 0.500000 0.000000
O O18 0.000000 0.000000 0.000000
#
# Coordination Sequence:
#
# PCOD9025316 Si02
#       8
#     2   2   2   2   2   2   2   2
#     4  11  23  43  71  90 138 182 226 268 352 397
#     4  11  24  41  73  99 142 173 227 284 337 408
#     4  11  23  43  73 102 130 184 226 286 344 398
#     4  11  23  47  68  94 138 182 225 280 345 407
#     4  12  23  44  68 107 136 178 231 284 339 402
#     4  11  22  44  65 103 135 175 224 281 342 396
#     4  11  26  43  68 101 138 177 224 286 341 404
#     4  10  22  40  68  92 142 173 220 279 337 400
#
# _framework density 22.789202
#
# number of rings (size 3 to 8) (size 9 to 14) (size 15 to 20)
#    0.000    1.000    6.250    1.500    7.000    1.500 
#    2.250    0.625    0.000    0.000    0.000    0.000 
#    0.000    0.000    0.000    0.000    0.000    0.000 
#
# Total GULP energy -89433.612336 kJ/mol
# GULP energy per Si atom -5589.600771 kJ/mol
# Density = 2.273733 g / cm^3
# Si number density = 22.789202 Si / 1000 Ang^3
#
#
#
# Elastic Constant Matrix: (Units=GPa)
#
#
# Indices 1 2 3 4 5 6 
#
# 1 141.9578 39.6233 26.0432 12.0236 -7.7054 -12.1311
# 2 39.6233 121.2184 24.9824 21.5221 -13.4931 -9.1181
# 3 26.0432 24.9824 67.9742 25.6806 -12.6114 -12.1607
# 4 12.0236 21.5221 25.6806 37.1429 -10.6127 -9.8336
# 5 -7.7054 -13.4931 -12.6114 -10.6127 37.1394 11.7647
# 6 -12.1311 -9.1181 -12.1607 -9.8336 11.7647 43.2531
#
#
#
# Elastic Compliance Matrix: (Units=1/GPa)
#
#
# Indices 1 2 3 4 5 6 
#
# 1 0.008141 -0.002199 -0.002306 0.000541 -0.000162 0.001339
# 2 -0.002199 0.010071 -0.001082 -0.003915 0.001770 -0.000169
# 3 -0.002306 -0.001082 0.021372 -0.012285 0.002335 0.001706
# 4 0.000541 -0.003915 -0.012285 0.039829 0.004748 0.003636
# 5 -0.000162 0.001770 0.002335 0.004748 0.031768 -0.006577
# 6 0.001339 -0.000169 0.001706 0.003636 -0.006577 0.026555
#
#
# Mechanical properties :
#
#
# Convention : Reuss Voigt Hill
#
# Bulk Modulus (GPa) = 35.19877 56.93867 46.06872
# Shear Modulus (GPa) = 31.56975 39.54052 35.55514
#
# Velocity S-wave (km/s) = 3.72599 4.16992 3.95419
# Velocity P-wave (km/s) = 5.83006 6.94431 6.41144
#
# Compressibility (1/GPa) = 0.02841008
#
# Stress axis : x y z
#
# Youngs Moduli (GPa) = 122.83511 99.29752 46.79022
#
# Poissons Ratio (x) = 0.21839 0.10790
# Poissons Ratio (y) = 0.27016 0.05060
# Poissons Ratio (z) = 0.28325 0.10739
#
# Static dielectric constant tensor:
#      x y z
#    x 1.834310 -0.049450 -0.015200 
#    y -0.049450 1.889130 -0.035450 
#    z -0.015200 -0.035450 1.927390 
# 
# From -- ./inp_files/298931.got.cif
#   From: 2010.05.17/outbox.cif.g08.bks.cpg/sg2_150_cif.got.tgz:298931.got - 2010.06.03 11:33:40.
