data_PCOD9025064
_publ_section_title
;
Structure prediction by ZEFSAII (Michael W. Deem and Ramdas Pophale) SiO2 
 PCOD9025064
Probable space group: P -1
;
_chemical_formula_sum "Si O2"
_cell_formula_units_Z 14
_cell_length_a 24.928524
_cell_length_b 9.493984
_cell_length_c 7.236147
_cell_angle_alpha 43.428692
_cell_angle_beta 48.820347
_cell_angle_gamma 32.785970
_cell_volume 632.225787
_symmetry_space_group_name_H-M "P -1"
_symmetry_group_IT_number 2
_symmetry_cell_setting 'triclinic'
loop_
_space_group_symop_operation_xyz
x,y,z
-x,-y,-z
loop_
_atom_site_type_symbol
_atom_site_label
_atom_site_fract_x
_atom_site_fract_y
_atom_site_fract_z
Si Si1 0.404604 0.151893 0.204472
Si Si2 0.582749 0.173209 0.182969
Si Si3 0.308411 0.231542 0.999364
Si Si4 0.828295 0.163902 0.389082
Si Si5 0.095062 0.274967 0.689475
Si Si6 0.260330 0.810769 0.052216
Si Si7 0.905011 0.435133 0.881663
O O1 0.337621 0.482105 0.108260
O O2 0.439013 0.946398 0.494239
O O3 0.333172 0.159953 0.224874
O O4 0.500000 0.000000 0.000000
O O5 0.500000 0.500000 0.000000
O O6 0.604702 0.003053 0.109974
O O7 0.674212 0.128558 0.088839
O O8 0.213809 0.290894 0.087218
O O9 0.272420 0.536095 0.757181
O O10 0.799154 0.162654 0.662599
O O11 0.867351 0.913124 0.403400
O O12 0.906806 0.193165 0.163095
O O13 0.081640 0.532145 0.397160
O O14 0.985970 0.395455 0.854717
O O15 0.176392 0.059052 0.862963
#
# Coordination Sequence:
#
# PCOD9025064 Si02
#       7
#     2   2   2   2   2   2   2
#     4  12  26  44  68  95 125 169 219 265 319 386
#     4  12  28  44  65  97 130 167 216 268 324 380
#     4  10  22  45  65  90 135 167 207 264 315 378
#     4  10  22  40  67  89 132 169 206 261 319 370
#     4  11  21  41  66  98 126 173 210 262 314 379
#     4  12  25  42  69  95 127 171 216 262 321 379
#     4   9  21  39  65  95 133 165 211 259 318 377
#
# _framework density 22.143988
#
# number of rings (size 3 to 8) (size 9 to 14) (size 15 to 20)
#    0.857    0.286    2.857    3.000    2.000    5.143 
#    0.000    7.857    0.000    0.000    0.000    0.000 
#    0.000    0.000    0.000    0.000    0.000    0.000 
#
# Total GULP energy -78062.425289 kJ/mol
# GULP energy per Si atom -5575.887521 kJ/mol
# Density = 2.209359 g / cm^3
# Si number density = 22.143988 Si / 1000 Ang^3
#
#
#
# Elastic Constant Matrix: (Units=GPa)
#
#
# Indices 1 2 3 4 5 6 
#
# 1 84.8442 16.1449 29.2279 3.5675 3.4362 -11.7777
# 2 16.1449 73.0770 8.1598 1.1608 4.5751 3.6953
# 3 29.2279 8.1598 118.2427 1.5666 -5.4377 -2.5305
# 4 3.5675 1.1608 1.5666 32.7745 -7.2630 12.2883
# 5 3.4362 4.5751 -5.4377 -7.2630 39.3315 -3.2957
# 6 -11.7777 3.6953 -2.5305 12.2883 -3.2957 28.8420
#
#
#
# Elastic Compliance Matrix: (Units=1/GPa)
#
#
# Indices 1 2 3 4 5 6 
#
# 1 0.014902 -0.003155 -0.003305 -0.004714 -0.001590 0.008026
# 2 -0.003155 0.014706 -0.000403 0.000894 -0.001642 -0.003776
# 3 -0.003305 -0.000403 0.009362 0.000482 0.001678 -0.000490
# 4 -0.004714 0.000894 0.000482 0.039043 0.006081 -0.017937
# 5 -0.001590 -0.001642 0.001678 0.006081 0.027128 0.000217
# 6 0.008026 -0.003776 -0.000490 -0.017937 0.000217 0.046057
#
#
# Mechanical properties :
#
#
# Convention : Reuss Voigt Hill
#
# Bulk Modulus (GPa) = 39.61254 42.58099 41.09677
# Shear Modulus (GPa) = 28.84549 35.03169 31.93859
#
# Velocity S-wave (km/s) = 3.61312 3.98175 3.80190
# Velocity P-wave (km/s) = 5.94421 6.35688 6.15401
#
# Compressibility (1/GPa) = 0.02524453
#
# Stress axis : x y z
#
# Youngs Moduli (GPa) = 67.10594 68.00058 106.81285
#
# Poissons Ratio (x) = 0.21452 0.35298
# Poissons Ratio (y) = 0.21170 0.04307
# Poissons Ratio (z) = 0.22176 0.02742
#
# Static dielectric constant tensor:
#      x y z
#    x 1.851770 -0.039630 -0.058060 
#    y -0.039630 1.873750 -0.053790 
#    z -0.058060 -0.053790 1.889660 
# 
# From -- ./inp_files/122751.got.cif
#   From: 2010.05.17/outbox.cif.g08.bks.cpg/sg2_62_cif.got.tgz:122751.got - 2010.06.03 11:33:40.
