data_PCOD9025964
_publ_section_title
;
Structure prediction by ZEFSAII (Michael W. Deem and Ramdas Pophale) SiO2 
 PCOD9025964
Probable space group: P -1
;
_chemical_formula_sum "Si O2"
_cell_formula_units_Z 14
_cell_length_a 9.491153
_cell_length_b 19.162718
_cell_length_c 10.347055
_cell_angle_alpha 57.145623
_cell_angle_beta 43.655759
_cell_angle_gamma 32.376502
_cell_volume 683.590749
_symmetry_space_group_name_H-M "P -1"
_symmetry_group_IT_number 2
_symmetry_cell_setting 'triclinic'
loop_
_space_group_symop_operation_xyz
x,y,z
-x,-y,-z
loop_
_atom_site_type_symbol
_atom_site_label
_atom_site_fract_x
_atom_site_fract_y
_atom_site_fract_z
Si Si1 0.626755 0.413832 0.629102
Si Si2 0.475243 0.728192 0.090168
Si Si3 0.508494 0.871244 0.353572
Si Si4 0.693203 0.774132 0.699996
Si Si5 0.962643 0.607902 0.448535
Si Si6 0.832168 0.939254 0.137617
Si Si7 0.834093 0.038423 0.769936
O O1 0.500000 0.500000 0.500000
O O2 0.426613 0.396310 0.817629
O O3 0.993328 0.267770 0.492132
O O4 0.709643 0.451359 0.653533
O O5 0.324136 0.825031 0.213803
O O6 0.184318 0.814949 0.090472
O O7 0.729313 0.709060 0.871829
O O8 0.795105 0.712477 0.339466
O O9 0.643517 0.912718 0.283402
O O10 0.397043 0.921620 0.230540
O O11 0.187615 0.942152 0.570767
O O12 0.717804 0.702282 0.637179
O O13 0.373555 0.930666 0.769815
O O14 0.000000 0.500000 0.500000
O O15 0.848027 0.974270 0.949353
#
# Coordination Sequence:
#
# PCOD9025964 Si02
#       7
#     2   2   2   2   2   2   2
#     4  10  23  39  59  84 113 156 204 237 275 339
#     4  11  20  37  65  87 114 152 193 242 292 345
#     4  11  21  38  57  89 122 155 184 235 298 345
#     4   9  21  37  63  87 115 148 191 245 286 343
#     4  10  22  41  60  79 119 158 193 240 283 336
#     4  11  19  38  63  91 116 146 196 235 298 349
#     4  10  23  33  61  92 122 148 181 241 299 354
#
# _framework density 20.480089
#
# number of rings (size 3 to 8) (size 9 to 14) (size 15 to 20)
#    0.857    0.857    1.429    4.714    2.000    2.286 
#    0.000    0.714    3.143    0.000    0.000    0.000 
#    0.000    0.000    0.000    0.000    0.000    0.000 
#
# Total GULP energy -78092.839451 kJ/mol
# GULP energy per Si atom -5578.059961 kJ/mol
# Density = 2.043348 g / cm^3
# Si number density = 20.480089 Si / 1000 Ang^3
#
#
#
# Elastic Constant Matrix: (Units=GPa)
#
#
# Indices 1 2 3 4 5 6 
#
# 1 64.2728 23.2345 -0.6500 -4.0208 1.8928 2.6509
# 2 23.2345 72.8966 13.4056 -20.4411 5.8058 13.9819
# 3 -0.6500 13.4056 40.1452 -8.3248 1.5797 1.2365
# 4 -4.0208 -20.4411 -8.3248 25.6317 5.2169 -5.6246
# 5 1.8928 5.8058 1.5797 5.2169 33.5915 -9.9544
# 6 2.6509 13.9819 1.2365 -5.6246 -9.9544 25.6870
#
#
#
# Elastic Compliance Matrix: (Units=1/GPa)
#
#
# Indices 1 2 3 4 5 6 
#
# 1 0.017914 -0.007077 0.002160 -0.001921 0.000959 0.001850
# 2 -0.007077 0.024555 -0.004137 0.016367 -0.009960 -0.012712
# 3 0.002160 -0.004137 0.027704 0.006658 -0.001249 0.001669
# 4 -0.001921 0.016367 0.006658 0.056084 -0.012179 -0.001470
# 5 0.000959 -0.009960 -0.001249 -0.012179 0.038628 0.017685
# 6 0.001850 -0.012712 0.001669 -0.001470 0.017685 0.052110
#
#
# Mechanical properties :
#
#
# Convention : Reuss Voigt Hill
#
# Bulk Modulus (GPa) = 19.20632 27.69941 23.45286
# Shear Modulus (GPa) = 19.80523 26.40367 23.10445
#
# Velocity S-wave (km/s) = 3.11311 3.59449 3.36243
# Velocity P-wave (km/s) = 4.72444 5.54811 5.15276
#
# Compressibility (1/GPa) = 0.05206621
#
# Stress axis : x y z
#
# Youngs Moduli (GPa) = 55.82183 40.72422 36.09527
#
# Poissons Ratio (x) = 0.28821 -0.07797
# Poissons Ratio (y) = 0.39506 0.14932
# Poissons Ratio (z) = -0.12058 0.16847
#
# Static dielectric constant tensor:
#      x y z
#    x 1.740940 -0.033000 -0.002950 
#    y -0.033000 1.721420 -0.006680 
#    z -0.002950 -0.006680 1.753480 
# 
# From -- ./inp_files/214641.got.cif
#   From: 2010.05.17/outbox.cif.g08.bks.cpg/sg2_108_cif.got.tgz:214641.got - 2010.06.03 11:33:40.
