data_PCOD9025888
_publ_section_title
;
Structure prediction by ZEFSAII (Michael W. Deem and Ramdas Pophale) SiO2 
 PCOD9025888
Probable space group: P -1
;
_chemical_formula_sum "Si O2"
_cell_formula_units_Z 16
_cell_length_a 5.400844
_cell_length_b 10.286683
_cell_length_c 14.920155
_cell_angle_alpha 90.848180
_cell_angle_beta 64.411529
_cell_angle_gamma 93.985357
_cell_volume 745.700630
_symmetry_space_group_name_H-M "P -1"
_symmetry_group_IT_number 2
_symmetry_cell_setting 'triclinic'
loop_
_space_group_symop_operation_xyz
x,y,z
-x,-y,-z
loop_
_atom_site_type_symbol
_atom_site_label
_atom_site_fract_x
_atom_site_fract_y
_atom_site_fract_z
Si Si1 0.376796 0.723919 0.792241
Si Si2 0.518564 0.830109 0.397162
Si Si3 0.216147 0.066539 0.035722
Si Si4 0.578306 0.485455 0.838144
Si Si5 0.780953 0.960490 0.771047
Si Si6 0.179604 0.356591 0.026666
Si Si7 0.695912 0.127386 0.373732
Si Si8 0.148902 0.755858 0.291463
O O1 0.552800 0.597459 0.769338
O O2 0.532349 0.853362 0.808273
O O3 0.305819 0.764638 0.702834
O O4 0.132250 0.684776 0.899060
O O5 0.428371 0.824367 0.514575
O O6 0.289680 0.759921 0.367742
O O7 0.820419 0.773600 0.340246
O O8 0.543750 0.985967 0.371295
O O9 0.075618 0.054213 0.155379
O O10 0.301663 0.216271 0.003532
O O11 0.500000 0.000000 0.000000
O O12 0.000000 0.000000 0.000000
O O13 0.710023 0.556923 0.905867
O O14 0.757865 0.370400 0.775488
O O15 0.279480 0.425086 0.919690
O O16 0.992378 0.914008 0.663291
O O17 0.721437 0.109292 0.770899
#
# Coordination Sequence:
#
# PCOD9025888 Si02
#       8
#     2   2   2   2   2   2   2   2
#     4  12  21  44  71  97 135 184 237 283 332 421
#     4  10  24  43  72 109 140 175 231 292 359 408
#     4  12  25  41  66 102 139 172 228 291 336 394
#     4  11  26  44  67  93 143 190 230 281 342 423
#     4  11  23  42  70 101 138 178 238 284 349 403
#     4  11  25  44  64  99 133 191 236 271 347 414
#     4  10  22  40  74 102 137 178 230 291 350 415
#     4  11  25  46  70 106 143 180 228 294 352 406
#
# _framework density 21.456330999999999
#
# number of rings (size 3 to 8) (size 9 to 14) (size 15 to 20)
#    0.000    1.000    3.750    1.875    3.500    3.500 
#    0.000    1.250    0.000    0.000    0.000    0.000 
#    0.000    0.000    0.000    0.000    0.000    0.000 
#
# Total GULP energy -89377.960157 kJ/mol
# GULP energy per Si atom -5586.122510 kJ/mol
# Density = 2.140750 g / cm^3
# Si number density = 21.456331 Si / 1000 Ang^3
#
#
#
# Elastic Constant Matrix: (Units=GPa)
#
#
# Indices 1 2 3 4 5 6 
#
# 1 85.9565 48.9064 31.5134 9.7991 1.1605 -6.9230
# 2 48.9064 147.1604 51.8380 17.1242 -4.6194 -34.1133
# 3 31.5134 51.8380 89.3119 7.5870 -7.4755 -14.3435
# 4 9.7991 17.1242 7.5870 21.9819 1.7815 7.8310
# 5 1.1605 -4.6194 -7.4755 1.7815 27.6959 -0.2940
# 6 -6.9230 -34.1133 -14.3435 7.8310 -0.2940 37.9232
#
#
#
# Elastic Compliance Matrix: (Units=1/GPa)
#
#
# Indices 1 2 3 4 5 6 
#
# 1 0.015320 -0.004306 -0.003295 -0.001433 -0.002179 -0.002044
# 2 -0.004306 0.013993 -0.003160 -0.012833 0.002628 0.013276
# 3 -0.003295 -0.003160 0.015212 -0.002667 0.003919 0.002891
# 4 -0.001433 -0.012833 -0.002667 0.067175 -0.007405 -0.026743
# 5 -0.002179 0.002628 0.003919 -0.007405 0.038226 0.005274
# 6 -0.002044 0.013276 0.002891 -0.026743 0.005274 0.044595
#
#
# Mechanical properties :
#
#
# Convention : Reuss Voigt Hill
#
# Bulk Modulus (GPa) = 43.47362 65.21605 54.34484
# Shear Modulus (GPa) = 22.35016 30.19826 26.27421
#
# Velocity S-wave (km/s) = 3.23097 3.75564 3.50314
# Velocity P-wave (km/s) = 5.85016 7.01906 6.46110
#
# Compressibility (1/GPa) = 0.02300245
#
# Stress axis : x y z
#
# Youngs Moduli (GPa) = 65.27392 71.46525 65.73553
#
# Poissons Ratio (x) = 0.30774 0.21662
# Poissons Ratio (y) = 0.28108 0.20772
# Poissons Ratio (z) = 0.21509 0.22583
#
# Static dielectric constant tensor:
#      x y z
#    x 1.877480 -0.048440 -0.042700 
#    y -0.048440 1.806890 0.007420 
#    z -0.042700 0.007420 1.840040 
# 
# From -- ./inp_files/369539.got.cif
#   From: 2010.05.17/outbox.cif.g08.bks.cpg/sg2_185_cif.got.tgz:369539.got - 2010.06.03 11:33:40.
