data_PCOD9025345
_publ_section_title
;
Structure prediction by ZEFSAII (Michael W. Deem and Ramdas Pophale) SiO2 
 PCOD9025345
Probable space group: P -1
;
_chemical_formula_sum "Si O2"
_cell_formula_units_Z 16
_cell_length_a 9.543641
_cell_length_b 20.005768
_cell_length_c 10.254727
_cell_angle_alpha 28.714429
_cell_angle_beta 98.592627
_cell_angle_gamma 114.604347
_cell_volume 743.670464
_symmetry_space_group_name_H-M "P -1"
_symmetry_group_IT_number 2
_symmetry_cell_setting 'triclinic'
loop_
_space_group_symop_operation_xyz
x,y,z
-x,-y,-z
loop_
_atom_site_type_symbol
_atom_site_label
_atom_site_fract_x
_atom_site_fract_y
_atom_site_fract_z
Si Si1 0.375257 0.791509 0.860349
Si Si2 0.871983 0.317010 0.221869
Si Si3 0.989306 0.876065 0.886183
Si Si4 0.592024 0.698392 0.210591
Si Si5 0.387375 0.625948 0.565881
Si Si6 0.545578 0.110802 0.687574
Si Si7 0.216396 0.764968 0.142601
Si Si8 0.892236 0.764255 0.764875
O O1 0.266085 0.695185 0.879065
O O2 0.500000 0.000000 0.500000
O O3 0.509396 0.758614 0.994510
O O4 0.223229 0.714649 0.082279
O O5 0.734500 0.174982 0.550493
O O6 0.982786 0.264153 0.253458
O O7 0.000000 0.500000 0.000000
O O8 0.970701 0.829960 0.808765
O O9 0.799992 0.808283 0.031147
O O10 0.113324 0.085168 0.554885
O O11 0.057271 0.774423 0.134922
O O12 0.500000 0.500000 0.500000
O O13 0.535214 0.704323 0.339763
O O14 0.446288 0.726718 0.538715
O O15 0.247039 0.654822 0.433414
O O16 0.292641 0.424011 0.920291
O O17 0.500000 0.000000 0.000000
O O18 0.387698 0.968939 0.816736
#
# Coordination Sequence:
#
# PCOD9025345 Si02
#       8
#     2   2   2   2   2   2   2   2
#     4  11  22  39  69 100 127 175 231 271 328 400
#     4  12  23  40  67 105 135 169 229 287 329 396
#     4  11  24  40  64  98 134 167 223 274 334 385
#     4  11  24  42  65  96 137 174 214 278 339 397
#     4  10  22  43  65  92 132 177 222 268 336 399
#     4  10  22  41  65  91 134 175 221 271 343 389
#     4  10  22  40  68  95 127 175 229 275 317 406
#     4  11  23  38  64  96 133 168 211 273 335 385
#
# _framework density 21.514906
#
# number of rings (size 3 to 8) (size 9 to 14) (size 15 to 20)
#    0.000    1.250    5.000    0.750    5.250    1.500 
#    0.000    2.500    0.000    0.000    0.000    0.000 
#    0.000    0.000    0.000    0.000    0.000    0.000 
#
# Total GULP energy -89363.083110 kJ/mol
# GULP energy per Si atom -5585.192694 kJ/mol
# Density = 2.146594 g / cm^3
# Si number density = 21.514906 Si / 1000 Ang^3
#
#
#
# Elastic Constant Matrix: (Units=GPa)
#
#
# Indices 1 2 3 4 5 6 
#
# 1 113.1688 8.3291 28.9324 12.7921 -8.8023 -10.1206
# 2 8.3291 67.1744 21.0093 -5.7499 -15.6742 -21.8556
# 3 28.9324 21.0093 99.6305 -7.1230 4.6872 -0.0102
# 4 12.7921 -5.7499 -7.1230 33.6558 -9.0920 -2.5488
# 5 -8.8023 -15.6742 4.6872 -9.0920 30.1010 -0.3446
# 6 -10.1206 -21.8556 -0.0102 -2.5488 -0.3446 27.7345
#
#
#
# Elastic Compliance Matrix: (Units=1/GPa)
#
#
# Indices 1 2 3 4 5 6 
#
# 1 0.010890 0.002584 -0.004123 -0.002958 0.004345 0.005791
# 2 0.002584 0.032097 -0.007781 0.010965 0.022308 0.027518
# 3 -0.004123 -0.007781 0.013252 0.000500 -0.007258 -0.007676
# 4 -0.002958 0.010965 0.000500 0.038101 0.016404 0.011267
# 5 0.004345 0.022308 -0.007258 0.016404 0.052437 0.021321
# 6 0.005791 0.027518 -0.007676 0.011267 0.021321 0.061152
#
#
# Mechanical properties :
#
#
# Convention : Reuss Voigt Hill
#
# Bulk Modulus (GPa) = 26.59710 44.05724 35.32717
# Shear Modulus (GPa) = 20.91159 33.07846 26.99502
#
# Velocity S-wave (km/s) = 3.12101 3.92531 3.54604
# Velocity P-wave (km/s) = 5.03752 6.40828 5.76379
#
# Compressibility (1/GPa) = 0.03759808
#
# Stress axis : x y z
#
# Youngs Moduli (GPa) = 91.82451 31.15571 75.46267
#
# Poissons Ratio (x) = -0.08049 0.31111
# Poissons Ratio (y) = -0.23724 0.58720
# Poissons Ratio (z) = 0.37856 0.24243
#
# Static dielectric constant tensor:
#      x y z
#    x 1.795690 -0.023550 -0.009820 
#    y -0.023550 1.847000 -0.028120 
#    z -0.009820 -0.028120 1.804660 
# 
# From -- ./inp_files/404532.got.cif
#   From: 2010.05.17/outbox.cif.g08.bks.cpg/sg2_203_cif.got.tgz:404532.got - 2010.06.03 11:33:40.
