data_PCOD9025531
_publ_section_title
;
Structure prediction by ZEFSAII (Michael W. Deem and Ramdas Pophale) SiO2 
 PCOD9025531
Probable space group: P -1
;
_chemical_formula_sum "Si O2"
_cell_formula_units_Z 16
_cell_length_a 9.679081
_cell_length_b 9.696225
_cell_length_c 16.934500
_cell_angle_alpha 118.858579
_cell_angle_beta 28.713925
_cell_angle_gamma 123.117139
_cell_volume 639.502976
_symmetry_space_group_name_H-M "P -1"
_symmetry_group_IT_number 2
_symmetry_cell_setting 'triclinic'
loop_
_space_group_symop_operation_xyz
x,y,z
-x,-y,-z
loop_
_atom_site_type_symbol
_atom_site_label
_atom_site_fract_x
_atom_site_fract_y
_atom_site_fract_z
Si Si1 0.147287 0.312758 0.096502
Si Si2 0.396182 0.883376 0.239209
Si Si3 0.800238 0.258865 0.545464
Si Si4 0.959972 0.608454 0.291545
Si Si5 0.813430 0.849983 0.806743
Si Si6 0.899834 0.228200 0.888518
Si Si7 0.682268 0.495720 0.556518
Si Si8 0.297114 0.744406 0.840811
O O1 0.205930 0.508789 0.128977
O O2 0.088966 0.237869 0.191920
O O3 0.871279 0.270374 0.161925
O O4 0.374787 0.222781 0.920852
O O5 0.358718 0.881899 0.351730
O O6 0.096522 0.782284 0.315421
O O7 0.511535 0.064565 0.195952
O O8 0.604853 0.329406 0.601072
O O9 0.033461 0.198968 0.359866
O O10 0.976805 0.408941 0.555962
O O11 0.895508 0.655442 0.247994
O O12 0.727282 0.496707 0.439771
O O13 0.922830 0.044780 0.820135
O O14 0.450993 0.791863 0.964333
O O15 0.926445 0.291231 0.982206
O O16 0.497510 0.621297 0.706409
#
# Coordination Sequence:
#
# PCOD9025531 Si02
#       8
#     2   2   2   2   2   2   2   2
#     4  12  25  44  67  94 139 172 215 269 332 384
#     4  11  24  42  69  99 127 175 222 266 323 387
#     4  10  22  40  69  95 128 171 224 272 312 386
#     4  11  24  41  70  98 124 174 225 273 306 392
#     4  11  21  43  66  97 131 172 220 268 322 379
#     4  11  23  39  68  98 130 170 220 271 315 391
#     4  10  23  41  64  99 135 169 214 272 332 375
#     4  12  26  44  64  98 141 172 204 276 338 386
#
# _framework density 25.01943
#
# number of rings (size 3 to 8) (size 9 to 14) (size 15 to 20)
#    0.000    1.000    5.000    1.500    3.500    2.000 
#    0.000    0.625    0.000    0.000    0.000    0.000 
#    0.000    0.000    0.000    0.000    0.000    0.000 
#
# Total GULP energy -89582.552319 kJ/mol
# GULP energy per Si atom -5598.909520 kJ/mol
# Density = 2.496248 g / cm^3
# Si number density = 25.019430 Si / 1000 Ang^3
#
#
#
# Elastic Constant Matrix: (Units=GPa)
#
#
# Indices 1 2 3 4 5 6 
#
# 1 113.6274 34.9043 24.4199 1.3897 27.4638 -26.8899
# 2 34.9043 121.4586 36.8773 0.8659 6.9673 -24.2277
# 3 24.4199 36.8773 105.8460 -8.5643 33.1569 -16.8353
# 4 1.3897 0.8659 -8.5643 39.3618 -12.4907 5.5933
# 5 27.4638 6.9673 33.1569 -12.4907 42.5139 -5.9922
# 6 -26.8899 -24.2277 -16.8353 5.5933 -5.9922 39.0049
#
#
#
# Elastic Compliance Matrix: (Units=1/GPa)
#
#
# Indices 1 2 3 4 5 6 
#
# 1 0.013326 -0.002207 0.001589 -0.004223 -0.009652 0.007625
# 2 -0.002207 0.010570 -0.003445 -0.000601 0.002777 0.004070
# 3 0.001589 -0.003445 0.014348 -0.000993 -0.011446 0.003533
# 4 -0.004223 -0.000601 -0.000993 0.029887 0.011503 -0.006232
# 5 -0.009652 0.002777 -0.011446 0.011503 0.040870 -0.005240
# 6 0.007625 0.004070 0.003533 -0.006232 -0.005240 0.035036
#
#
# Mechanical properties :
#
#
# Convention : Reuss Voigt Hill
#
# Bulk Modulus (GPa) = 33.20166 59.25943 46.23055
# Shear Modulus (GPa) = 30.82548 40.49150 35.65849
#
# Velocity S-wave (km/s) = 3.51388 4.02730 3.77932
# Velocity P-wave (km/s) = 5.45548 6.73516 6.12881
#
# Compressibility (1/GPa) = 0.03011898
#
# Stress axis : x y z
#
# Youngs Moduli (GPa) = 75.04026 94.60429 69.69408
#
# Poissons Ratio (x) = 0.20884 -0.11076
# Poissons Ratio (y) = 0.16565 0.24008
# Poissons Ratio (z) = -0.11926 0.32589
#
# Static dielectric constant tensor:
#      x y z
#    x 2.061080 0.044900 -0.018420 
#    y 0.044900 1.941020 -0.043790 
#    z -0.018420 -0.043790 1.972400 
# 
# From -- ./inp_files/208405.got.cif
#   From: 2010.05.17/outbox.cif.g08.bks.cpg/sg2_105_cif.got.tgz:208405.got - 2010.06.03 11:33:40.
