data_PCOD9025959
_publ_section_title
;
Structure prediction by ZEFSAII (Michael W. Deem and Ramdas Pophale) SiO2 
 PCOD9025959
Probable space group: P -1
;
_chemical_formula_sum "Si O2"
_cell_formula_units_Z 16
_cell_length_a 9.356168
_cell_length_b 13.692264
_cell_length_c 13.929470
_cell_angle_alpha 149.503876
_cell_angle_beta 101.166353
_cell_angle_gamma 99.257782
_cell_volume 668.783378
_symmetry_space_group_name_H-M "P -1"
_symmetry_group_IT_number 2
_symmetry_cell_setting 'triclinic'
loop_
_space_group_symop_operation_xyz
x,y,z
-x,-y,-z
loop_
_atom_site_type_symbol
_atom_site_label
_atom_site_fract_x
_atom_site_fract_y
_atom_site_fract_z
Si Si1 0.512285 0.780432 0.304424
Si Si2 0.868356 0.346927 0.261733
Si Si3 0.852732 0.876845 0.075571
Si Si4 0.079486 0.762608 0.468247
Si Si5 0.730568 0.873842 0.728147
Si Si6 0.631221 0.314766 0.597035
Si Si7 0.536627 0.341915 0.205979
Si Si8 0.688820 0.567817 0.198777
O O1 0.375604 0.610658 0.232759
O O2 0.694191 0.801590 0.373685
O O3 0.500000 0.000000 0.500000
O O4 0.443508 0.649048 0.081529
O O5 0.661404 0.266886 0.182338
O O6 0.000000 0.500000 0.500000
O O7 0.981916 0.557179 0.368984
O O8 0.817792 0.089490 0.001742
O O9 0.852658 0.971143 0.260442
O O10 0.764096 0.591527 0.799877
O O11 0.693765 0.877806 0.006309
O O12 0.077344 0.054119 0.231402
O O13 0.257471 0.789658 0.479078
O O14 0.896519 0.647928 0.281297
O O15 0.582209 0.867329 0.634139
O O16 0.604902 0.575920 0.480662
O O17 0.602906 0.459148 0.203645
#
# Coordination Sequence:
#
# PCOD9025959 Si02
#       8
#     2   2   2   2   2   2   2   2
#     4  11  24  38  64  96 134 168 217 275 317 368
#     4  11  24  42  67 101 132 163 214 273 325 386
#     4  11  20  40  68  92 124 171 226 252 315 397
#     4  11  23  40  69  91 127 179 213 262 329 384
#     4  11  21  42  69  91 128 169 217 261 320 390
#     4  11  24  41  66  98 122 179 219 260 321 386
#     4  10  22  42  68  92 128 181 210 260 328 382
#     4  10  22  41  59  94 131 168 219 260 319 376
#
# _framework density 23.924040000000002
#
# number of rings (size 3 to 8) (size 9 to 14) (size 15 to 20)
#    0.000    1.250    6.250    0.750    5.250    2.000 
#    0.000    4.375    0.000    0.000    0.000    0.000 
#    0.000    0.000    0.000    0.000    0.000    0.000 
#
# Total GULP energy -89251.725780 kJ/mol
# GULP energy per Si atom -5578.232861 kJ/mol
# Density = 2.386959 g / cm^3
# Si number density = 23.924040 Si / 1000 Ang^3
#
#
#
# Elastic Constant Matrix: (Units=GPa)
#
#
# Indices 1 2 3 4 5 6 
#
# 1 180.8912 22.4566 26.2135 -17.7491 12.1533 -1.6161
# 2 22.4566 -6.4361 -16.4016 -26.9269 6.9380 44.0548
# 3 26.2135 -16.4016 70.1861 -23.2901 0.3261 53.8218
# 4 -17.7491 -26.9269 -23.2901 21.4049 0.0764 6.0908
# 5 12.1533 6.9380 0.3261 0.0764 57.7496 -0.1301
# 6 -1.6161 44.0548 53.8218 6.0908 -0.1301 -14.9032
#
#
#
# Elastic Compliance Matrix: (Units=1/GPa)
#
#
# Indices 1 2 3 4 5 6 
#
# 1 0.006140 0.000145 -0.000528 0.004757 -0.001313 -0.000191
# 2 0.000145 0.023136 -0.012452 0.008079 -0.002690 0.026731
# 3 -0.000528 -0.012452 0.010516 -0.004489 0.001552 -0.000623
# 4 0.004757 0.008079 -0.004489 0.048292 -0.001950 0.026908
# 5 -0.001313 -0.002690 0.001552 -0.001950 0.017902 -0.003157
# 6 -0.000191 0.026731 -0.000623 0.026908 -0.003157 0.020714
#
#
# Mechanical properties :
#
#
# Convention : Reuss Voigt Hill
#
# Bulk Modulus (GPa) = 70.82124 34.35314 52.58719
# Shear Modulus (GPa) = 31.83084 27.00843 29.41964
#
# Velocity S-wave (km/s) = 3.65155 3.36359 3.51053
# Velocity P-wave (km/s) = 6.88805 5.42913 6.20164
#
# Compressibility (1/GPa) = 0.01412006
#
# Stress axis : x y z
#
# Youngs Moduli (GPa) = 162.86293 43.22210 95.09240
#
# Poissons Ratio (x) = -0.00625 0.05024
# Poissons Ratio (y) = -0.02354 1.18413
# Poissons Ratio (z) = 0.08605 0.53822
#
# Static dielectric constant tensor:
#      x y z
#    x 1.931590 -0.016950 0.008020 
#    y -0.016950 2.035790 0.006290 
#    z 0.008020 0.006290 1.876650 
# 
# From -- ./inp_files/505923.got.cif
#   From: 2010.05.17/outbox.cif.g08.bks.cpg/sg2_253_cif.got.tgz:505923.got - 2010.06.03 11:33:40.
