data_PCOD9025078
_publ_section_title
;
Structure prediction by ZEFSAII (Michael W. Deem and Ramdas Pophale) SiO2 
 PCOD9025078
Probable space group: P -1
;
_chemical_formula_sum "Si O2"
_cell_formula_units_Z 12
_cell_length_a 9.703074
_cell_length_b 11.618272
_cell_length_c 9.122343
_cell_angle_alpha 50.882616
_cell_angle_beta 46.363638
_cell_angle_gamma 39.113617
_cell_volume 459.154600
_symmetry_space_group_name_H-M "P -1"
_symmetry_group_IT_number 2
_symmetry_cell_setting 'triclinic'
loop_
_space_group_symop_operation_xyz
x,y,z
-x,-y,-z
loop_
_atom_site_type_symbol
_atom_site_label
_atom_site_fract_x
_atom_site_fract_y
_atom_site_fract_z
Si Si1 0.500942 0.765717 0.102477
Si Si2 0.443282 0.244819 0.251577
Si Si3 0.282678 0.982329 0.521796
Si Si4 0.885895 0.786568 0.960604
Si Si5 0.179719 0.700884 0.546643
Si Si6 0.775443 0.622876 0.396484
O O1 0.415410 0.671437 0.341547
O O2 0.292402 0.989940 0.070986
O O3 0.534677 0.691471 0.971911
O O4 0.738032 0.736716 0.009487
O O5 0.694303 0.110147 0.264137
O O6 0.256977 0.387481 0.397378
O O7 0.357404 0.117588 0.383643
O O8 0.504006 0.808207 0.411053
O O9 0.039931 0.098271 0.519814
O O10 0.118877 0.714364 0.751902
O O11 0.927329 0.686287 0.165719
O O12 0.159757 0.555264 0.592705
#
# Coordination Sequence:
#
# PCOD9025078 Si02
#       6
#     2   2   2   2   2   2
#     4  11  22  40  69  89 128 164 210 256 308 371
#     4   9  18  42  65  87 125 172 194 258 318 353
#     4   9  18  40  63  90 124 161 206 248 309 365
#     4  11  21  43  62  89 130 169 200 258 309 370
#     4  12  24  37  68 101 116 165 215 251 313 369
#     4  10  22  40  67  91 129 159 211 257 306 371
#
# _framework density 26.134988
#
# number of rings (size 3 to 8) (size 9 to 14) (size 15 to 20)
#    1.000    0.667    3.333    2.000    0.000    2.667 
#    0.000    1.667    0.000    0.000    0.000    0.000 
#    0.000    0.000    0.000    0.000    0.000    0.000 
#
# Total GULP energy -67173.114653 kJ/mol
# GULP energy per Si atom -5597.759554 kJ/mol
# Density = 2.607550 g / cm^3
# Si number density = 26.134988 Si / 1000 Ang^3
#
#
#
# Elastic Constant Matrix: (Units=GPa)
#
#
# Indices 1 2 3 4 5 6 
#
# 1 41.8943 20.1066 36.5139 5.5421 20.9734 -6.4864
# 2 20.1066 126.9420 43.3299 18.3761 3.9757 1.8595
# 3 36.5139 43.3299 208.7846 11.4541 26.1295 8.8539
# 4 5.5421 18.3761 11.4541 41.7098 6.2668 0.4626
# 5 20.9734 3.9757 26.1295 6.2668 43.9419 5.3604
# 6 -6.4864 1.8595 8.8539 0.4626 5.3604 37.2582
#
#
#
# Elastic Compliance Matrix: (Units=1/GPa)
#
#
# Indices 1 2 3 4 5 6 
#
# 1 0.040304 -0.004550 -0.004382 0.000376 -0.017592 0.010811
# 2 -0.004550 0.009487 -0.001262 -0.003626 0.002741 -0.001315
# 3 -0.004382 -0.001262 0.006059 -0.000337 -0.001108 -0.001976
# 4 0.000376 -0.003626 -0.000337 0.026126 -0.003437 0.000497
# 5 -0.017592 0.002741 -0.001108 -0.003437 0.032987 -0.007639
# 6 0.010811 -0.001315 -0.001976 0.000497 -0.007639 0.030350
#
#
# Mechanical properties :
#
#
# Convention : Reuss Voigt Hill
#
# Bulk Modulus (GPa) = 28.19840 64.16910 46.18375
# Shear Modulus (GPa) = 28.16579 43.09334 35.62957
#
# Velocity S-wave (km/s) = 3.28640 4.06504 3.69628
# Velocity P-wave (km/s) = 5.02131 6.82927 5.99385
#
# Compressibility (1/GPa) = 0.03546300
#
# Stress axis : x y z
#
# Youngs Moduli (GPa) = 24.81173 105.40505 165.05100
#
# Poissons Ratio (x) = 0.47958 0.72322
# Poissons Ratio (y) = 0.11289 0.20822
# Poissons Ratio (z) = 0.10872 0.13297
#
# Static dielectric constant tensor:
#      x y z
#    x 2.092030 -0.043400 0.048640 
#    y -0.043400 2.043980 -0.012260 
#    z 0.048640 -0.012260 2.100620 
# 
# From -- ./inp_files/251564.got.cif
#   From: 2010.05.17/outbox.cif.g08.bks.cpg/sg2_126_cif.got.tgz:251564.got - 2010.06.03 11:33:40.
