data_PCOD9025167
_publ_section_title
;
Structure prediction by ZEFSAII (Michael W. Deem and Ramdas Pophale) SiO2 
 PCOD9025167
Probable space group: P -1
;
_chemical_formula_sum "Si O2"
_cell_formula_units_Z 12
_cell_length_a 13.886870
_cell_length_b 9.970947
_cell_length_c 11.286198
_cell_angle_alpha 117.216467
_cell_angle_beta 148.802083
_cell_angle_gamma 41.230159
_cell_volume 447.442211
_symmetry_space_group_name_H-M "P -1"
_symmetry_group_IT_number 2
_symmetry_cell_setting 'triclinic'
loop_
_space_group_symop_operation_xyz
x,y,z
-x,-y,-z
loop_
_atom_site_type_symbol
_atom_site_label
_atom_site_fract_x
_atom_site_fract_y
_atom_site_fract_z
Si Si1 0.025998 0.049326 0.895468
Si Si2 0.534368 0.804244 0.606501
Si Si3 0.213464 0.939977 0.795904
Si Si4 0.260370 0.605623 0.903764
Si Si5 0.739849 0.795409 0.353950
Si Si6 0.968106 0.397922 0.099425
O O1 0.730395 0.147544 0.662214
O O2 0.019611 0.103144 0.772991
O O3 0.277846 0.758916 0.042464
O O4 0.057330 0.176843 0.056144
O O5 0.742117 0.685717 0.661831
O O6 0.414129 0.046032 0.621306
O O7 0.723641 0.624702 0.845761
O O8 0.454645 0.654014 0.956780
O O9 0.451478 0.928040 0.027417
O O10 0.000000 0.000000 0.500000
O O11 0.971947 0.787296 0.583959
O O12 0.172466 0.548561 0.899154
O O13 0.000000 0.500000 0.500000
#
# Coordination Sequence:
#
# PCOD9025167 Si02
#       6
#     2   2   2   2   2   2
#     4  11  22  41  68  94 139 172 224 277 329 399
#     4  10  22  40  67  96 139 174 222 271 335 390
#     4  11  22  42  68  97 133 174 228 279 330 394
#     4  10  23  42  67 100 133 179 220 272 340 396
#     4   9  20  42  66  92 134 170 219 273 324 394
#     4  11  22  42  67  99 138 173 222 273 335 403
#
# _framework density 26.819105
#
# number of rings (size 3 to 8) (size 9 to 14) (size 15 to 20)
#    0.000    1.667    1.667    2.500    0.000    2.667 
#    3.000   15.000    0.000    0.000    0.000    0.000 
#    0.000    0.000    0.000    0.000    0.000    0.000 
#
# Total GULP energy -66898.236079 kJ/mol
# GULP energy per Si atom -5574.853007 kJ/mol
# Density = 2.675806 g / cm^3
# Si number density = 26.819105 Si / 1000 Ang^3
#
#
#
# Elastic Constant Matrix: (Units=GPa)
#
#
# Indices 1 2 3 4 5 6 
#
# 1 117.6110 25.1444 33.0410 2.6507 8.9589 -8.0495
# 2 25.1444 62.1698 6.4282 9.8749 19.9112 -7.4262
# 3 33.0410 6.4282 151.3583 18.2265 19.2733 -8.2826
# 4 2.6507 9.8749 18.2265 49.0227 2.2862 -5.1320
# 5 8.9589 19.9112 19.2733 2.2862 33.8943 -7.0711
# 6 -8.0495 -7.4262 -8.2826 -5.1320 -7.0711 42.9924
#
#
#
# Elastic Compliance Matrix: (Units=1/GPa)
#
#
# Indices 1 2 3 4 5 6 
#
# 1 0.010000 -0.004294 -0.002254 0.001212 0.001300 0.001055
# 2 -0.004294 0.022523 0.002200 -0.004432 -0.012868 0.000865
# 3 -0.002254 0.002200 0.008024 -0.003038 -0.004988 0.000321
# 4 0.001212 -0.004432 -0.003038 0.022432 0.002922 0.002034
# 5 0.001300 -0.012868 -0.004988 0.002922 0.040197 0.004020
# 6 0.001055 0.000865 0.000321 0.002034 0.004020 0.024573
#
#
# Mechanical properties :
#
#
# Convention : Reuss Voigt Hill
#
# Bulk Modulus (GPa) = 31.39660 51.15183 41.27422
# Shear Modulus (GPa) = 33.99947 42.95024 38.47485
#
# Velocity S-wave (km/s) = 3.56439 4.00619 3.79173
# Velocity P-wave (km/s) = 5.35463 6.36504 5.88157
#
# Compressibility (1/GPa) = 0.03185058
#
# Stress axis : x y z
#
# Youngs Moduli (GPa) = 100.00161 44.39970 124.62555
#
# Poissons Ratio (x) = 0.19066 0.28094
# Poissons Ratio (y) = 0.42942 -0.27423
# Poissons Ratio (z) = 0.22543 -0.09770
#
# Static dielectric constant tensor:
#      x y z
#    x 2.253730 0.065990 0.028840 
#    y 0.065990 2.067800 0.021530 
#    z 0.028840 0.021530 2.271280 
# 
# From -- ./inp_files/183766.got.cif
#   From: 2010.05.17/outbox.cif.g08.bks.cpg/sg2_92_cif.got.tgz:183766.got - 2010.06.03 11:33:40.
