data_PCOD9025253
_publ_section_title
;
Structure prediction by ZEFSAII (Michael W. Deem and Ramdas Pophale) SiO2 
 PCOD9025253
Probable space group: P -1
;
_chemical_formula_sum "Si O2"
_cell_formula_units_Z 14
_cell_length_a 14.416333
_cell_length_b 13.948528
_cell_length_c 7.463229
_cell_angle_alpha 44.406835
_cell_angle_beta 124.699212
_cell_angle_gamma 150.484520
_cell_volume 511.352574
_symmetry_space_group_name_H-M "P -1"
_symmetry_group_IT_number 2
_symmetry_cell_setting 'triclinic'
loop_
_space_group_symop_operation_xyz
x,y,z
-x,-y,-z
loop_
_atom_site_type_symbol
_atom_site_label
_atom_site_fract_x
_atom_site_fract_y
_atom_site_fract_z
Si Si1 0.668696 0.397302 0.345800
Si Si2 0.239393 0.391171 0.174865
Si Si3 0.560338 0.898648 0.180556
Si Si4 0.971697 0.355657 0.016077
Si Si5 0.884679 0.886825 0.294113
Si Si6 0.091062 0.884464 0.284583
Si Si7 0.712603 0.130162 0.696366
O O1 0.562713 0.306474 0.540301
O O2 0.638870 0.212471 0.490058
O O3 0.889958 0.635552 0.316053
O O4 0.633576 0.467194 0.050476
O O5 0.277670 0.327163 0.466568
O O6 0.031574 0.131176 0.227761
O O7 0.168352 0.468049 0.067424
O O8 0.500000 0.000000 0.000000
O O9 0.778561 0.092524 0.219936
O O10 0.576674 0.901746 0.978637
O O11 0.895438 0.323091 0.777616
O O12 0.000000 0.500000 0.000000
O O13 0.015321 0.888251 0.370340
O O14 0.824453 0.911422 0.019940
O O15 0.228913 0.890789 0.391555
#
# Coordination Sequence:
#
# PCOD9025253 Si02
#       7
#     2   2   2   2   2   2   2
#     4  10  17  31  54  81 106 139 171 220 277 315
#     4  10  20  33  52  77 112 139 175 230 262 312
#     4   8  17  32  51  77 114 143 171 214 270 325
#     4  10  20  33  53  81 110 144 172 219 273 318
#     4   9  19  33  51  79 104 138 188 223 259 302
#     4  10  18  32  58  77  99 144 189 219 254 324
#     4   9  18  32  52  80 108 138 172 226 260 320
#
# _framework density 27.37837
#
# number of rings (size 3 to 8) (size 9 to 14) (size 15 to 20)
#    0.857    1.714    2.857    0.429    2.000    0.000 
#    0.000    0.714    0.000   29.143    0.000    0.000 
#    0.000    0.000    0.000    0.000    0.000    0.000 
#
# Total GULP energy -78183.064509 kJ/mol
# GULP energy per Si atom -5584.504608 kJ/mol
# Density = 2.731606 g / cm^3
# Si number density = 27.378370 Si / 1000 Ang^3
#
#
#
# Elastic Constant Matrix: (Units=GPa)
#
#
# Indices 1 2 3 4 5 6 
#
# 1 101.1534 41.6897 11.9364 -6.0579 -17.3541 -19.2542
# 2 41.6897 64.6443 10.4487 -14.8429 -4.8239 7.3982
# 3 11.9364 10.4487 232.9460 3.0014 -34.8104 7.7857
# 4 -6.0579 -14.8429 3.0014 13.6365 0.8603 -11.7240
# 5 -17.3541 -4.8239 -34.8104 0.8603 39.1441 5.8182
# 6 -19.2542 7.3982 7.7857 -11.7240 5.8182 44.8822
#
#
#
# Elastic Compliance Matrix: (Units=1/GPa)
#
#
# Indices 1 2 3 4 5 6 
#
# 1 0.017311 -0.011076 -0.000044 0.003576 0.004769 0.009575
# 2 -0.011076 0.028530 -0.001361 0.024494 -0.002777 -0.002460
# 3 -0.000044 -0.001361 0.005268 -0.005347 0.005025 -0.002756
# 4 0.003576 0.024494 -0.005347 0.132604 -0.008136 0.034117
# 5 0.004769 -0.002777 0.005025 -0.008136 0.032669 -0.004728
# 6 0.009575 -0.002460 -0.002756 0.034117 -0.004728 0.036797
#
#
# Mechanical properties :
#
#
# Convention : Reuss Voigt Hill
#
# Bulk Modulus (GPa) = 38.24213 58.54369 48.39291
# Shear Modulus (GPa) = 17.43038 41.84383 29.63711
#
# Velocity S-wave (km/s) = 2.52593 3.91366 3.29371
# Velocity P-wave (km/s) = 4.74399 6.46930 5.67262
#
# Compressibility (1/GPa) = 0.02614917
#
# Stress axis : x y z
#
# Youngs Moduli (GPa) = 57.76696 35.05032 189.82458
#
# Poissons Ratio (x) = 0.38821 0.00829
# Poissons Ratio (y) = 0.63982 0.25826
# Poissons Ratio (z) = 0.00252 0.04769
#
# Static dielectric constant tensor:
#      x y z
#    x 2.114190 -0.005490 0.025260 
#    y -0.005490 2.208740 0.006370 
#    z 0.025260 0.006370 2.258030 
# 
# From -- ./inp_files/254207.got.cif
#   From: 2010.05.17/outbox.cif.g08.bks.cpg/sg2_128_cif.got.tgz:254207.got - 2010.06.03 11:33:40.
