data_PCOD9025109
_publ_section_title
;
Structure prediction by ZEFSAII (Michael W. Deem and Ramdas Pophale) SiO2 
 PCOD9025109
Probable space group: P -1
;
_chemical_formula_sum "Si O2"
_cell_formula_units_Z 14
_cell_length_a 17.587710
_cell_length_b 12.934118
_cell_length_c 8.720336
_cell_angle_alpha 44.616119
_cell_angle_beta 149.348605
_cell_angle_gamma 143.830189
_cell_volume 595.871289
_symmetry_space_group_name_H-M "P -1"
_symmetry_group_IT_number 2
_symmetry_cell_setting 'triclinic'
loop_
_space_group_symop_operation_xyz
x,y,z
-x,-y,-z
loop_
_atom_site_type_symbol
_atom_site_label
_atom_site_fract_x
_atom_site_fract_y
_atom_site_fract_z
Si Si1 0.280018 0.236203 0.270796
Si Si2 0.653220 0.550455 0.333922
Si Si3 0.183990 0.654765 0.069899
Si Si4 0.169023 0.683011 0.650566
Si Si5 0.457226 0.637543 0.144489
Si Si6 0.961528 0.152235 0.269959
Si Si7 0.095908 0.930291 0.085502
O O1 0.310948 0.427891 0.115713
O O2 0.446542 0.277524 0.617600
O O3 0.242273 0.136250 0.149424
O O4 0.099570 0.109446 0.183672
O O5 0.668895 0.386363 0.580002
O O6 0.604491 0.638845 0.292637
O O7 0.856583 0.695133 0.495253
O O8 0.500000 0.500000 0.000000
O O9 0.182061 0.654494 0.883239
O O10 0.193850 0.833925 0.938471
O O11 0.000000 0.500000 0.000000
O O12 0.137868 0.833742 0.391182
O O13 0.000000 0.500000 0.500000
O O14 0.343386 0.719239 0.823546
O O15 0.923685 0.159558 0.016284
O O16 0.000000 0.000000 0.500000
#
# Coordination Sequence:
#
# PCOD9025109 Si02
#       7
#     2   2   2   2   2   2   2
#     4  10  22  40  67  93 133 173 226 286 337 398
#     4  11  25  43  70  99 135 184 231 280 345 406
#     4  10  24  43  65  99 140 174 229 277 335 416
#     4  12  24  40  71 102 133 183 230 285 346 409
#     4  11  23  42  69  97 136 173 237 287 339 402
#     4  11  26  46  69  99 141 184 226 280 343 417
#     4  11  24  42  68  99 134 178 233 275 345 411
#
# _framework density 23.495007000000001
#
# number of rings (size 3 to 8) (size 9 to 14) (size 15 to 20)
#    0.000    1.143    2.857    3.429   12.000    0.571 
#    0.000    2.143    0.000    0.000    0.000    0.000 
#    0.000    0.000    0.000    0.000    0.000    0.000 
#
# Total GULP energy -78036.132371 kJ/mol
# GULP energy per Si atom -5574.009455 kJ/mol
# Density = 2.344153 g / cm^3
# Si number density = 23.495007 Si / 1000 Ang^3
#
#
#
# Elastic Constant Matrix: (Units=GPa)
#
#
# Indices 1 2 3 4 5 6 
#
# 1 57.7316 -3.0458 44.5467 -6.3823 6.0185 -12.9398
# 2 -3.0458 87.0590 60.2234 1.2667 0.0686 -15.7914
# 3 44.5467 60.2234 174.6394 -20.2343 0.7642 -20.4261
# 4 -6.3823 1.2667 -20.2343 43.1464 -13.0561 4.0602
# 5 6.0185 0.0686 0.7642 -13.0561 42.0648 -2.5016
# 6 -12.9398 -15.7914 -20.4261 4.0602 -2.5016 26.3077
#
#
#
# Elastic Compliance Matrix: (Units=1/GPa)
#
#
# Indices 1 2 3 4 5 6 
#
# 1 0.027925 0.009740 -0.009354 -0.002922 -0.004011 0.012389
# 2 0.009740 0.019769 -0.008622 -0.004819 -0.002140 0.010503
# 3 -0.009354 -0.008622 0.011515 0.005211 0.002678 -0.001385
# 4 -0.002922 -0.004819 0.005211 0.028387 0.008915 -0.003817
# 5 -0.004011 -0.002140 0.002678 0.008915 0.027070 0.000020
# 6 0.012389 0.010503 -0.001385 -0.003817 0.000020 0.049925
#
#
# Mechanical properties :
#
#
# Convention : Reuss Voigt Hill
#
# Bulk Modulus (GPa) = 23.39854 58.09761 40.74808
# Shear Modulus (GPa) = 25.60055 36.81750 31.20903
#
# Velocity S-wave (km/s) = 3.30452 3.96287 3.64857
# Velocity P-wave (km/s) = 4.95382 6.76169 5.92709
#
# Compressibility (1/GPa) = 0.04273771
#
# Stress axis : x y z
#
# Youngs Moduli (GPa) = 35.81000 50.58531 86.84024
#
# Poissons Ratio (x) = -0.49273 0.81230
# Poissons Ratio (y) = -0.34881 0.74876
# Poissons Ratio (z) = 0.33497 0.43616
#
# Static dielectric constant tensor:
#      x y z
#    x 1.865390 -0.135900 -0.267770 
#    y -0.135900 1.782190 -0.339100 
#    z -0.267770 -0.339100 1.333220 
# 
# From -- ./inp_files/167008.got.cif
#   From: 2010.05.17/outbox.cif.g08.bks.cpg/sg2_84_cif.got.tgz:167008.got - 2010.06.03 11:33:40.
