data_PCOD9025308
_publ_section_title
;
Structure prediction by ZEFSAII (Michael W. Deem and Ramdas Pophale) SiO2 
 PCOD9025308
Probable space group: P -1
;
_chemical_formula_sum "Si O2"
_cell_formula_units_Z 12
_cell_length_a 11.965162
_cell_length_b 12.236712
_cell_length_c 8.313582
_cell_angle_alpha 54.471349
_cell_angle_beta 102.708988
_cell_angle_gamma 58.428405
_cell_volume 552.363553
_symmetry_space_group_name_H-M "P -1"
_symmetry_group_IT_number 2
_symmetry_cell_setting 'triclinic'
loop_
_space_group_symop_operation_xyz
x,y,z
-x,-y,-z
loop_
_atom_site_type_symbol
_atom_site_label
_atom_site_fract_x
_atom_site_fract_y
_atom_site_fract_z
Si Si1 0.666376 0.889502 0.519084
Si Si2 0.124732 0.019432 0.063588
Si Si3 0.335266 0.897346 0.914201
Si Si4 0.067534 0.789173 0.642327
Si Si5 0.065969 0.605846 0.075716
Si Si6 0.605653 0.420165 0.273172
O O1 0.849558 0.767961 0.796068
O O2 0.500000 0.000000 0.500000
O O3 0.566203 0.080789 0.184242
O O4 0.780571 0.664234 0.645016
O O5 0.291522 0.809412 0.424778
O O6 0.976186 0.268992 0.884873
O O7 0.249898 0.973350 0.002434
O O8 0.000000 0.000000 0.000000
O O9 0.458986 0.640890 0.153468
O O10 0.132381 0.085427 0.587409
O O11 0.212057 0.658940 0.649450
O O12 0.156858 0.623255 0.960538
O O13 0.000000 0.000000 0.500000
O O14 0.500000 0.500000 0.000000
#
# Coordination Sequence:
#
# PCOD9025308 Si02
#       6
#     2   2   2   2   2   2
#     4  10  22  45  67  93 123 174 239 270 305 381
#     4  12  24  43  63 102 143 169 203 271 351 396
#     4  11  23  39  62  94 132 171 216 269 331 388
#     4  11  18  38  61  94 125 167 218 264 323 387
#     4  10  22  40  68  91 129 174 219 269 320 390
#     4  12  22  37  65  93 131 174 220 261 316 394
#
# _framework density 21.724823000000001
#
# number of rings (size 3 to 8) (size 9 to 14) (size 15 to 20)
#    0.000    1.000    5.000    2.500    0.000    0.667 
#    3.000    0.833    0.000    0.000    0.000    0.000 
#    0.000    0.000    0.000    0.000    0.000    0.000 
#
# Total GULP energy -66864.404817 kJ/mol
# GULP energy per Si atom -5572.033735 kJ/mol
# Density = 2.167538 g / cm^3
# Si number density = 21.724823 Si / 1000 Ang^3
#
#
#
# Elastic Constant Matrix: (Units=GPa)
#
#
# Indices 1 2 3 4 5 6 
#
# 1 58.4543 22.9550 9.1509 3.4748 -12.9053 -21.9622
# 2 22.9550 131.6392 18.3049 -17.2608 -13.6074 -14.7035
# 3 9.1509 18.3049 64.6201 -3.8711 -12.3368 -1.4413
# 4 3.4748 -17.2608 -3.8711 29.6417 -7.0443 -8.4089
# 5 -12.9053 -13.6074 -12.3368 -7.0443 29.2352 1.1832
# 6 -21.9622 -14.7035 -1.4413 -8.4089 1.1832 41.6914
#
#
#
# Elastic Compliance Matrix: (Units=1/GPa)
#
#
# Indices 1 2 3 4 5 6 
#
# 1 0.024562 -0.001499 -0.000783 0.002023 0.009796 0.012514
# 2 -0.001499 0.010165 -0.001008 0.008500 0.005518 0.004318
# 3 -0.000783 -0.001008 0.017521 0.003666 0.007447 0.000366
# 4 0.002023 0.008500 0.003666 0.046721 0.017123 0.013128
# 5 0.009796 0.005518 0.007447 0.017123 0.047983 0.009455
# 6 0.012514 0.004318 0.000366 0.013128 0.009455 0.034493
#
#
# Mechanical properties :
#
#
# Convention : Reuss Voigt Hill
#
# Bulk Modulus (GPa) = 21.89711 39.50391 30.70051
# Shear Modulus (GPa) = 24.60036 33.73384 29.16710
#
# Velocity S-wave (km/s) = 3.36871 3.94481 3.66809
# Velocity P-wave (km/s) = 5.02316 6.24275 5.66586
#
# Compressibility (1/GPa) = 0.04566813
#
# Stress axis : x y z
#
# Youngs Moduli (GPa) = 40.71260 98.37421 57.07372
#
# Poissons Ratio (x) = 0.14743 0.04471
# Poissons Ratio (y) = 0.06101 0.05755
# Poissons Ratio (z) = 0.03189 0.09920
#
# Static dielectric constant tensor:
#      x y z
#    x 2.137990 -0.061280 0.029300 
#    y -0.061280 1.822330 0.006490 
#    z 0.029300 0.006490 1.813770 
# 
# From -- ./inp_files/164161.got.cif
#   From: 2010.05.17/outbox.cif.g08.bks.cpg/sg2_83_cif.got.tgz:164161.got - 2010.06.03 11:33:40.
