data_PCOD9025270
_publ_section_title
;
Structure prediction by ZEFSAII (Michael W. Deem and Ramdas Pophale) SiO2 
 PCOD9025270
Probable space group: P -1
;
_chemical_formula_sum "Si O2"
_cell_formula_units_Z 14
_cell_length_a 10.503027
_cell_length_b 18.844026
_cell_length_c 6.695844
_cell_angle_alpha 94.475732
_cell_angle_beta 66.582332
_cell_angle_gamma 145.262955
_cell_volume 609.633451
_symmetry_space_group_name_H-M "P -1"
_symmetry_group_IT_number 2
_symmetry_cell_setting 'triclinic'
loop_
_space_group_symop_operation_xyz
x,y,z
-x,-y,-z
loop_
_atom_site_type_symbol
_atom_site_label
_atom_site_fract_x
_atom_site_fract_y
_atom_site_fract_z
Si Si1 0.127887 0.211406 0.396574
Si Si2 0.296685 0.848808 0.847778
Si Si3 0.737574 0.961687 0.848846
Si Si4 0.556730 0.297834 0.192506
Si Si5 0.913474 0.502255 0.357836
Si Si6 0.659938 0.974196 0.312648
Si Si7 0.191114 0.382105 0.603948
O O1 0.435877 0.319392 0.194718
O O2 0.103646 0.283706 0.475664
O O3 0.919373 0.095051 0.327422
O O4 0.022833 0.124548 0.643719
O O5 0.506832 0.914121 0.899299
O O6 0.348447 0.953117 0.777192
O O7 0.388815 0.846490 0.591335
O O8 0.999443 0.708041 0.099227
O O9 0.679095 0.863898 0.743710
O O10 0.700208 0.936190 0.102405
O O11 0.658782 0.353833 0.366009
O O12 0.821018 0.386475 0.927796
O O13 0.842857 0.553603 0.442665
O O14 0.000000 0.500000 0.500000
O O15 0.500000 0.500000 0.500000
#
# Coordination Sequence:
#
# PCOD9025270 Si02
#       7
#     2   2   2   2   2   2   2
#     4  11  25  42  70 109 140 177 238 297 357 421
#     4  10  22  40  68 104 138 181 233 291 358 419
#     4  11  22  42  71  99 144 183 229 299 356 417
#     4  11  25  47  68 101 144 187 233 290 359 416
#     4  11  27  49  73 100 141 196 241 285 349 432
#     4  10  23  38  69 109 138 180 233 295 357 423
#     4  12  24  48  75 100 145 189 234 300 353 412
#
# _framework density 22.964618999999999
#
# number of rings (size 3 to 8) (size 9 to 14) (size 15 to 20)
#    0.000    1.143    4.286    0.857    4.000    6.286 
#    0.000    1.429    0.000    0.000    0.000    0.000 
#    0.000    0.000    0.000    0.000    0.000    0.000 
#
# Total GULP energy -78301.569978 kJ/mol
# GULP energy per Si atom -5592.969284 kJ/mol
# Density = 2.291235 g / cm^3
# Si number density = 22.964619 Si / 1000 Ang^3
#
#
#
# Elastic Constant Matrix: (Units=GPa)
#
#
# Indices 1 2 3 4 5 6 
#
# 1 136.8721 45.2800 57.6707 15.4018 -14.4512 -0.1393
# 2 45.2800 90.7664 43.5218 23.3693 -6.4407 0.8975
# 3 57.6707 43.5218 62.7554 18.4824 -3.1666 16.0477
# 4 15.4018 23.3693 18.4824 38.4091 6.6679 -10.2774
# 5 -14.4512 -6.4407 -3.1666 6.6679 35.4781 -0.0803
# 6 -0.1393 0.8975 16.0477 -10.2774 -0.0803 37.1480
#
#
#
# Elastic Compliance Matrix: (Units=1/GPa)
#
#
# Indices 1 2 3 4 5 6 
#
# 1 0.013851 -0.000258 -0.015311 0.003382 0.003610 0.007616
# 2 -0.000258 0.018168 -0.011486 -0.005137 0.003141 0.003107
# 3 -0.015311 -0.011486 0.049906 -0.017815 -0.000579 -0.026269
# 4 0.003382 -0.005137 -0.017815 0.043275 -0.009234 0.019785
# 5 0.003610 0.003141 -0.000579 -0.009234 0.031906 -0.002298
# 6 0.007616 0.003107 -0.026269 0.019785 -0.002298 0.043690
#
#
# Mechanical properties :
#
#
# Convention : Reuss Voigt Hill
#
# Bulk Modulus (GPa) = 35.95125 64.81543 50.38334
# Shear Modulus (GPa) = 18.92656 31.80181 25.36419
#
# Velocity S-wave (km/s) = 2.87394 3.72535 3.32699
# Velocity P-wave (km/s) = 5.16737 6.84029 6.06182
#
# Compressibility (1/GPa) = 0.02781545
#
# Stress axis : x y z
#
# Youngs Moduli (GPa) = 72.19584 55.04103 20.03748
#
# Poissons Ratio (x) = 0.01420 0.30680
# Poissons Ratio (y) = 0.01863 0.23015
# Poissons Ratio (z) = 1.10541 0.63220
#
# Static dielectric constant tensor:
#      x y z
#    x 1.873780 -0.026510 -0.038420 
#    y -0.026510 1.906130 -0.006450 
#    z -0.038420 -0.006450 1.893280 
# 
# From -- ./inp_files/83328.got.cif
#   From: 2010.05.17/outbox.cif.g08.bks.cpg/sg2_42_cif.got.tgz:83328.got - 2010.06.03 11:33:40.
