data_PCOD9025143
_publ_section_title
;
Structure prediction by ZEFSAII (Michael W. Deem and Ramdas Pophale) SiO2 
 PCOD9025143
Probable space group: P -1
;
_chemical_formula_sum "Si O2"
_cell_formula_units_Z 16
_cell_length_a 26.458516
_cell_length_b 12.221763
_cell_length_c 25.542299
_cell_angle_alpha 150.045345
_cell_angle_beta 10.850006
_cell_angle_gamma 149.058602
_cell_volume 774.310870
_symmetry_space_group_name_H-M "P -1"
_symmetry_group_IT_number 2
_symmetry_cell_setting 'triclinic'
loop_
_space_group_symop_operation_xyz
x,y,z
-x,-y,-z
loop_
_atom_site_type_symbol
_atom_site_label
_atom_site_fract_x
_atom_site_fract_y
_atom_site_fract_z
Si Si1 0.559597 0.645925 0.550481
Si Si2 0.936108 0.076987 0.811866
Si Si3 0.051409 0.259450 0.057687
Si Si4 0.259282 0.413848 0.171795
Si Si5 0.574256 0.478304 0.575018
Si Si6 0.008713 0.383305 0.654371
Si Si7 0.774957 0.111271 0.874032
Si Si8 0.541237 0.330018 0.028016
O O1 0.500000 0.500000 0.500000
O O2 0.640784 0.495486 0.453647
O O3 0.791849 0.845233 0.401800
O O4 0.276709 0.743433 0.889411
O O5 0.949463 0.069146 0.731311
O O6 0.803095 0.847192 0.872742
O O7 0.824534 0.396007 0.317448
O O8 0.072435 0.381086 0.143055
O O9 0.327960 0.305463 0.765007
O O10 0.000000 0.000000 0.000000
O O11 0.000000 0.500000 0.500000
O O12 0.500000 0.500000 0.000000
O O13 0.342108 0.509996 0.070524
O O14 0.444021 0.706372 0.817802
O O15 0.305488 0.410272 0.338877
O O16 0.964011 0.210422 0.676024
O O17 0.796230 0.294984 0.790349
O O18 0.602706 0.889240 0.941849
#
# Coordination Sequence:
#
# PCOD9025143 Si02
#       8
#     2   2   2   2   2   2   2   2
#     4  11  23  43  67 101 131 162 225 289 338 373
#     4  11  24  42  71  95 130 182 225 270 330 401
#     4  11  23  45  67  90 129 177 221 263 326 407
#     4  12  25  46  67  95 136 184 231 256 323 413
#     4  10  22  40  67  96 123 169 224 267 323 405
#     4  11  24  41  62 101 133 165 220 276 336 384
#     4  10  22  41  70  97 135 175 219 273 335 401
#     4  12  25  41  65  99 139 171 213 277 331 391
#
# _framework density 20.663537000000002
#
# number of rings (size 3 to 8) (size 9 to 14) (size 15 to 20)
#    0.000    1.000    1.250    6.750    1.750    3.000 
#    6.750    0.000    0.000    0.000    0.000    0.000 
#    0.000    0.000    0.000    0.000    0.000    0.000 
#
# Total GULP energy -89379.827209 kJ/mol
# GULP energy per Si atom -5586.239201 kJ/mol
# Density = 2.061651 g / cm^3
# Si number density = 20.663537 Si / 1000 Ang^3
#
#
#
# Elastic Constant Matrix: (Units=GPa)
#
#
# Indices 1 2 3 4 5 6 
#
# 1 135.2345 48.1864 27.6301 -15.1239 4.3532 -7.8702
# 2 48.1864 155.4359 11.2338 -20.4551 15.7667 -9.2355
# 3 27.6301 11.2338 91.7930 -28.0836 -1.5063 -8.3368
# 4 -15.1239 -20.4551 -28.0836 35.2569 -0.1598 2.9031
# 5 4.3532 15.7667 -1.5063 -0.1598 29.2658 -12.3902
# 6 -7.8702 -9.2355 -8.3368 2.9031 -12.3902 34.8689
#
#
#
# Elastic Compliance Matrix: (Units=1/GPa)
#
#
# Indices 1 2 3 4 5 6 
#
# 1 0.008813 -0.002478 -0.002074 0.000618 0.000298 0.000891
# 2 -0.002478 0.008112 0.001064 0.004466 -0.003884 0.000092
# 3 -0.002074 0.001064 0.015269 0.011637 0.001932 0.003182
# 4 0.000618 0.004466 0.011637 0.040468 -0.001609 0.000164
# 5 0.000298 -0.003884 0.001932 -0.001609 0.042555 0.014756
# 6 0.000891 0.000092 0.003182 0.000164 0.014756 0.034895
#
#
# Mechanical properties :
#
#
# Convention : Reuss Voigt Hill
#
# Bulk Modulus (GPa) = 39.65580 61.84043 50.74812
# Shear Modulus (GPa) = 30.21251 39.57252 34.89252
#
# Velocity S-wave (km/s) = 3.82791 4.38092 4.11372
# Velocity P-wave (km/s) = 6.22656 7.45535 6.86849
#
# Compressibility (1/GPa) = 0.02521699
#
# Stress axis : x y z
#
# Youngs Moduli (GPa) = 113.47174 123.27580 65.49136
#
# Poissons Ratio (x) = 0.30548 0.13586
# Poissons Ratio (y) = 0.28119 -0.06968
# Poissons Ratio (z) = 0.23539 -0.13117
#
# Static dielectric constant tensor:
#      x y z
#    x 1.837720 0.038090 0.018020 
#    y 0.038090 1.741050 0.013390 
#    z 0.018020 0.013390 1.736360 
# 
# From -- ./inp_files/621259.got.cif
#   From: 2010.05.17/outbox.cif.g08.bks.cpg/sg2_311_cif.got.tgz:621259.got - 2010.06.03 11:33:40.
