data_PCOD9025125
_publ_section_title
;
Structure prediction by ZEFSAII (Michael W. Deem and Ramdas Pophale) SiO2 
 PCOD9025125
Probable space group: P -1
;
_chemical_formula_sum "Si O2"
_cell_formula_units_Z 12
_cell_length_a 14.897530
_cell_length_b 23.603869
_cell_length_c 5.476902
_cell_angle_alpha 125.704039
_cell_angle_beta 115.139879
_cell_angle_gamma 21.050071
_cell_volume 512.139776
_symmetry_space_group_name_H-M "P -1"
_symmetry_group_IT_number 2
_symmetry_cell_setting 'triclinic'
loop_
_space_group_symop_operation_xyz
x,y,z
-x,-y,-z
loop_
_atom_site_type_symbol
_atom_site_label
_atom_site_fract_x
_atom_site_fract_y
_atom_site_fract_z
Si Si1 0.634467 0.333525 0.244197
Si Si2 0.698646 0.970786 0.124790
Si Si3 0.690410 0.674730 0.642898
Si Si4 0.301170 0.166299 0.500135
Si Si5 0.204854 0.733032 0.237941
Si Si6 0.296923 0.414847 0.052618
O O1 0.500000 0.500000 0.500000
O O2 0.816877 0.213008 0.395504
O O3 0.416512 0.414355 0.212207
O O4 0.791238 0.223799 0.893653
O O5 0.964092 0.835648 0.185872
O O6 0.540178 0.113735 0.083779
O O7 0.465155 0.118183 0.430158
O O8 0.775903 0.842030 0.810149
O O9 0.677788 0.641364 0.799583
O O10 0.000000 0.500000 0.500000
O O11 0.595766 0.691491 0.338491
O O12 0.027884 0.369083 0.821239
O O13 0.500000 0.000000 0.500000
O O14 0.500000 0.500000 0.000000
#
# Coordination Sequence:
#
# PCOD9025125 Si02
#       6
#     2   2   2   2   2   2
#     4  10  22  42  67  98 130 178 232 285 335 400
#     4  11  26  43  68 105 139 185 231 299 341 421
#     4  12  26  48  68 105 149 188 226 280 363 426
#     4  11  25  40  71 105 139 176 245 291 355 404
#     4  10  22  40  67  94 135 173 225 283 348 390
#     4  12  26  46  75 101 143 190 232 284 356 424
#
# _framework density 23.431101999999999
#
# number of rings (size 3 to 8) (size 9 to 14) (size 15 to 20)
#    0.000    1.000    1.667    4.500   11.667    0.000 
#    0.000    5.000    0.000    0.000    0.000    0.000 
#    0.000    0.000    0.000    0.000    0.000    0.000 
#
# Total GULP energy -67126.509329 kJ/mol
# GULP energy per Si atom -5593.875777 kJ/mol
# Density = 2.337777 g / cm^3
# Si number density = 23.431102 Si / 1000 Ang^3
#
#
#
# Elastic Constant Matrix: (Units=GPa)
#
#
# Indices 1 2 3 4 5 6 
#
# 1 154.5734 62.6475 42.6715 -27.6969 -7.9513 -11.8456
# 2 62.6475 115.7230 29.3098 -24.1731 -4.6751 -13.0325
# 3 42.6715 29.3098 86.7276 -28.3893 -6.5174 4.6764
# 4 -27.6969 -24.1731 -28.3893 42.2547 15.7154 -9.6573
# 5 -7.9513 -4.6751 -6.5174 15.7154 28.0717 -7.0318
# 6 -11.8456 -13.0325 4.6764 -9.6573 -7.0318 50.3938
#
#
#
# Elastic Compliance Matrix: (Units=1/GPa)
#
#
# Indices 1 2 3 4 5 6 
#
# 1 0.009279 -0.003577 -0.002584 0.002584 0.000502 0.002061
# 2 -0.003577 0.012219 -0.000923 0.005257 -0.001327 0.003227
# 3 -0.002584 -0.000923 0.016009 0.009292 -0.002600 -0.000914
# 4 0.002584 0.005257 0.009292 0.043099 -0.018670 0.006759
# 5 0.000502 -0.001327 -0.002600 -0.018670 0.046113 0.002873
# 6 0.002061 0.003227 -0.000914 0.006759 0.002873 0.022944
#
#
# Mechanical properties :
#
#
# Convention : Reuss Voigt Hill
#
# Bulk Modulus (GPa) = 42.84346 69.58684 56.21515
# Shear Modulus (GPa) = 29.13570 38.97038 34.05304
#
# Velocity S-wave (km/s) = 3.53010 4.08265 3.81639
# Velocity P-wave (km/s) = 5.91101 7.21020 6.59269
#
# Compressibility (1/GPa) = 0.02334078
#
# Stress axis : x y z
#
# Youngs Moduli (GPa) = 107.76688 81.83813 62.46356
#
# Poissons Ratio (x) = 0.29270 0.16143
# Poissons Ratio (y) = 0.38544 0.05763
# Poissons Ratio (z) = 0.27851 0.07550
#
# Static dielectric constant tensor:
#      x y z
#    x 1.892250 0.051690 0.000530 
#    y 0.051690 1.930540 -0.052970 
#    z 0.000530 -0.052970 1.959390 
# 
# From -- ./inp_files/19041.got.cif
#   From: 2010.05.17/outbox.cif.g08.bks.cpg/sg2_10_cif.got.tgz:19041.got - 2010.06.03 11:33:40.
