data_PCOD9025979
_publ_section_title
;
Structure prediction by ZEFSAII (Michael W. Deem and Ramdas Pophale) SiO2 
 PCOD9025979
Probable space group: P -1
;
_chemical_formula_sum "Si O2"
_cell_formula_units_Z 14
_cell_length_a 14.774212
_cell_length_b 10.687892
_cell_length_c 7.348083
_cell_angle_alpha 105.674929
_cell_angle_beta 107.634521
_cell_angle_gamma 137.112954
_cell_volume 490.138954
_symmetry_space_group_name_H-M "P -1"
_symmetry_group_IT_number 2
_symmetry_cell_setting 'triclinic'
loop_
_space_group_symop_operation_xyz
x,y,z
-x,-y,-z
loop_
_atom_site_type_symbol
_atom_site_label
_atom_site_fract_x
_atom_site_fract_y
_atom_site_fract_z
Si Si1 0.533026 0.701017 0.880965
Si Si2 0.181580 0.548695 0.228693
Si Si3 0.932133 0.813735 0.725328
Si Si4 0.648751 0.006401 0.612391
Si Si5 0.580211 0.491084 0.854892
Si Si6 0.790626 0.260721 0.169448
Si Si7 0.878730 0.638892 0.244270
O O1 0.301678 0.423957 0.557592
O O2 0.634927 0.691439 0.866737
O O3 0.527518 0.654066 0.070417
O O4 0.630592 0.960703 0.030318
O O5 0.088039 0.349092 0.250678
O O6 0.247310 0.778089 0.393773
O O7 0.417278 0.781206 0.424751
O O8 0.049756 0.355070 0.888540
O O9 0.997490 0.849518 0.567847
O O10 0.000000 0.000000 0.000000
O O11 0.592688 0.789582 0.479288
O O12 0.797657 0.214565 0.951287
O O13 0.772148 0.629935 0.070079
O O14 0.746399 0.361340 0.152908
O O15 0.000000 0.500000 0.500000
#
# Coordination Sequence:
#
# PCOD9025979 Si02
#       7
#     2   2   2   2   2   2   2
#     4  10  22  41  60  91 127 156 205 260 305 359
#     4   9  18  38  62  92 121 156 209 258 293 369
#     4  11  23  39  65  95 125 164 207 252 311 373
#     4   9  18  37  61  88 116 162 206 245 313 361
#     4   9  20  39  65  87 122 165 200 255 315 360
#     4  11  23  41  61  92 123 158 208 256 302 370
#     4   9  22  42  63  93 119 167 209 249 313 364
#
# _framework density 28.563330000000001
#
# number of rings (size 3 to 8) (size 9 to 14) (size 15 to 20)
#    0.000    2.286    1.429    0.857    2.000    3.429 
#   20.571    0.714    0.000    0.000    0.000    0.000 
#    0.000    0.000    0.000    0.000    0.000    0.000 
#
# Total GULP energy -78009.126307 kJ/mol
# GULP energy per Si atom -5572.080450 kJ/mol
# Density = 2.849832 g / cm^3
# Si number density = 28.563330 Si / 1000 Ang^3
#
#
#
# Elastic Constant Matrix: (Units=GPa)
#
#
# Indices 1 2 3 4 5 6 
#
# 1 47.0760 26.1411 36.3852 -9.6104 -7.7811 -17.6436
# 2 26.1411 129.3457 30.8130 5.0279 -13.7576 -36.6860
# 3 36.3852 30.8130 205.0481 18.7457 -27.2334 -12.2917
# 4 -9.6104 5.0279 18.7457 30.2065 5.9609 -6.6352
# 5 -7.7811 -13.7576 -27.2334 5.9609 48.2626 -7.1529
# 6 -17.6436 -36.6860 -12.2917 -6.6352 -7.1529 45.1007
#
#
#
# Elastic Compliance Matrix: (Units=1/GPa)
#
#
# Indices 1 2 3 4 5 6 
#
# 1 0.037440 -0.002712 -0.007104 0.019576 0.000841 0.013518
# 2 -0.002712 0.011192 0.000027 -0.001718 0.004236 0.008470
# 3 -0.007104 0.000027 0.007261 -0.007799 0.003725 -0.001335
# 4 0.019576 -0.001718 -0.007799 0.047914 -0.006139 0.010211
# 5 0.000841 0.004236 0.003725 -0.006139 0.026113 0.008028
# 6 0.013518 0.008470 -0.001335 0.010211 0.008028 0.036762
#
#
# Mechanical properties :
#
#
# Convention : Reuss Voigt Hill
#
# Bulk Modulus (GPa) = 27.53616 63.12761 45.33188
# Shear Modulus (GPa) = 25.20590 43.92266 34.56428
#
# Velocity S-wave (km/s) = 2.97384 3.92564 3.48241
# Velocity P-wave (km/s) = 4.63173 6.53425 5.66345
#
# Compressibility (1/GPa) = 0.03631589
#
# Stress axis : x y z
#
# Youngs Moduli (GPa) = 26.70906 89.34559 137.71916
#
# Poissons Ratio (x) = 0.24230 0.97833
# Poissons Ratio (y) = 0.07243 -0.00367
# Poissons Ratio (z) = 0.18974 -0.00238
#
# Static dielectric constant tensor:
#      x y z
#    x 3.548550 -0.069820 -0.112780 
#    y -0.069820 2.251230 0.053130 
#    z -0.112780 0.053130 2.203340 
# 
# From -- ./inp_files/329214.got.cif
#   From: 2010.05.17/outbox.cif.g08.bks.cpg/sg2_165_cif.got.tgz:329214.got - 2010.06.03 11:33:40.
