data_PCOD9025854
_publ_section_title
;
Structure prediction by ZEFSAII (Michael W. Deem and Ramdas Pophale) SiO2 
 PCOD9025854
Probable space group: P -1
;
_chemical_formula_sum "Si O2"
_cell_formula_units_Z 16
_cell_length_a 11.695830
_cell_length_b 6.800334
_cell_length_c 8.767390
_cell_angle_alpha 79.881663
_cell_angle_beta 98.010528
_cell_angle_gamma 119.862713
_cell_volume 594.224285
_symmetry_space_group_name_H-M "P -1"
_symmetry_group_IT_number 2
_symmetry_cell_setting 'triclinic'
loop_
_space_group_symop_operation_xyz
x,y,z
-x,-y,-z
loop_
_atom_site_type_symbol
_atom_site_label
_atom_site_fract_x
_atom_site_fract_y
_atom_site_fract_z
Si Si1 0.833045 0.813275 0.299936
Si Si2 0.869848 0.479627 0.549240
Si Si3 0.334020 0.224286 0.994003
Si Si4 0.305635 0.142442 0.486429
Si Si5 0.870315 0.481076 0.906902
Si Si6 0.410515 0.690775 0.093764
Si Si7 0.591224 0.308739 0.545691
Si Si8 0.113714 0.029450 0.184425
O O1 0.877274 0.715631 0.465971
O O2 0.710539 0.688763 0.176405
O O3 0.781151 0.967595 0.360125
O O4 0.959924 0.872285 0.209570
O O5 0.869942 0.433523 0.733642
O O6 0.718494 0.305625 0.495560
O O7 0.000000 0.500000 0.500000
O O8 0.451267 0.169601 0.986336
O O9 0.387325 0.430384 0.098407
O O10 0.198278 0.014726 0.060878
O O11 0.446205 0.159206 0.471865
O O12 0.362323 0.418243 0.487989
O O13 0.202859 0.047378 0.343109
O O14 0.728113 0.329730 0.979493
O O15 0.882442 0.730418 0.872577
O O16 0.000000 0.500000 0.000000
O O17 0.422629 0.743694 0.268562
#
# Coordination Sequence:
#
# PCOD9025854 Si02
#       8
#     2   2   2   2   2   2   2   2
#     4  11  21  34  57  80 110 141 177 219 268 316
#     4  10  22  35  54  81 107 138 179 221 264 315
#     4  10  19  31  52  83 107 137 176 226 269 298
#     4  10  17  31  55  79 102 135 178 224 272 299
#     4  10  21  37  54  77 109 144 175 214 269 320
#     4   9  17  32  53  76 109 135 177 224 262 308
#     4   9  16  32  53  78 106 132 178 225 266 307
#     4  11  21  36  53  83 111 141 176 220 263 321
#
# _framework density 26.925861000000001
#
# number of rings (size 3 to 8) (size 9 to 14) (size 15 to 20)
#    0.000    2.000    6.250    0.750    3.500    0.000 
#    0.000    0.000    0.000    3.000    0.000    0.000 
#    0.000    0.000    0.000    0.000    0.000    0.000 
#
# Total GULP energy -89280.836147 kJ/mol
# GULP energy per Si atom -5580.052259 kJ/mol
# Density = 2.686458 g / cm^3
# Si number density = 26.925861 Si / 1000 Ang^3
#
#
#
# Elastic Constant Matrix: (Units=GPa)
#
#
# Indices 1 2 3 4 5 6 
#
# 1 261.8739 48.3368 41.9355 3.2464 -13.6099 75.5385
# 2 48.3368 70.1657 7.3436 5.1693 4.4369 29.0990
# 3 41.9355 7.3436 92.6812 9.1584 -1.4407 23.5338
# 4 3.2464 5.1693 9.1584 30.0678 14.8785 1.8160
# 5 -13.6099 4.4369 -1.4407 14.8785 49.9786 -3.2738
# 6 75.5385 29.0990 23.5338 1.8160 -3.2738 60.5660
#
#
#
# Elastic Compliance Matrix: (Units=1/GPa)
#
#
# Indices 1 2 3 4 5 6 
#
# 1 0.006235 -0.001531 -0.000961 -0.000470 0.001516 -0.006572
# 2 -0.001531 0.018579 0.001313 -0.002020 -0.001923 -0.007571
# 3 -0.000961 0.001313 0.012603 -0.004184 0.000959 -0.004152
# 4 -0.000470 -0.002020 -0.004184 0.040864 -0.012149 0.001301
# 5 0.001516 -0.001923 0.000959 -0.012149 0.024259 0.000336
# 6 -0.006572 -0.007571 -0.004152 0.001301 0.000336 0.029937
#
#
# Mechanical properties :
#
#
# Convention : Reuss Voigt Hill
#
# Bulk Modulus (GPa) = 28.52330 68.88363 48.70346
# Shear Modulus (GPa) = 34.12447 49.92947 42.02697
#
# Velocity S-wave (km/s) = 3.56385 4.31087 3.95503
# Velocity P-wave (km/s) = 5.24890 7.10045 6.24369
#
# Compressibility (1/GPa) = 0.03505906
#
# Stress axis : x y z
#
# Youngs Moduli (GPa) = 160.37532 53.82364 79.34509
#
# Poissons Ratio (x) = 0.08238 0.07627
# Poissons Ratio (y) = 0.24547 -0.10414
# Poissons Ratio (z) = 0.15416 -0.07065
#
# Static dielectric constant tensor:
#      x y z
#    x 2.250210 -0.069620 -0.073610 
#    y -0.069620 2.315070 -0.092990 
#    z -0.073610 -0.092990 2.083150 
# 
# From -- ./inp_files/258109.got.cif
#   From: 2010.05.17/outbox.cif.g08.bks.cpg/sg2_130_cif.got.tgz:258109.got - 2010.06.03 11:33:40.
