data_PCOD9025411
_publ_section_title
;
Structure prediction by ZEFSAII (Michael W. Deem and Ramdas Pophale) SiO2 
 PCOD9025411
Probable space group: P -1
;
_chemical_formula_sum "Si O2"
_cell_formula_units_Z 16
_cell_length_a 14.390648
_cell_length_b 13.726913
_cell_length_c 14.017631
_cell_angle_alpha 34.804032
_cell_angle_beta 30.308584
_cell_angle_gamma 32.500083
_cell_volume 705.293671
_symmetry_space_group_name_H-M "P -1"
_symmetry_group_IT_number 2
_symmetry_cell_setting 'triclinic'
loop_
_space_group_symop_operation_xyz
x,y,z
-x,-y,-z
loop_
_atom_site_type_symbol
_atom_site_label
_atom_site_fract_x
_atom_site_fract_y
_atom_site_fract_z
Si Si1 0.973363 0.710556 0.377364
Si Si2 0.219466 0.992263 0.340982
Si Si3 0.338953 0.058252 0.684266
Si Si4 0.416835 0.659959 0.025963
Si Si5 0.313032 0.936740 0.527771
Si Si6 0.391366 0.605381 0.415843
Si Si7 0.279555 0.581590 0.891441
Si Si8 0.979643 0.575532 0.848786
O O1 0.196903 0.679969 0.238489
O O2 0.000000 0.500000 0.500000
O O3 0.883190 0.819761 0.267778
O O4 0.812106 0.846890 0.491387
O O5 0.270726 0.939651 0.449890
O O6 0.365194 0.819977 0.280607
O O7 0.000000 0.000000 0.500000
O O8 0.198815 0.201886 0.174061
O O9 0.442224 0.145800 0.597148
O O10 0.500000 0.000000 0.500000
O O11 0.362812 0.866730 0.866404
O O12 0.604353 0.568343 0.007417
O O13 0.500000 0.500000 0.000000
O O14 0.234145 0.802791 0.762816
O O15 0.500000 0.500000 0.500000
O O16 0.545192 0.496773 0.282624
O O17 0.177531 0.590380 0.618304
O O18 0.082476 0.559968 0.049739
O O19 0.000000 0.500000 0.000000
#
# Coordination Sequence:
#
# PCOD9025411 Si02
#       8
#     2   2   2   2   2   2   2   2
#     4  11  24  44  73  99 133 181 230 291 356 417
#     4  10  22  40  68  98 143 181 226 281 345 415
#     4  10  22  44  68  95 132 175 225 285 348 416
#     4  12  25  45  68 102 136 175 232 294 353 427
#     4  11  22  44  69 101 137 180 229 289 353 419
#     4  11  22  46  70 101 141 190 231 288 352 408
#     4  12  25  45  71 104 142 184 236 292 351 425
#     4  11  23  43  67 100 142 186 234 289 343 416
#
# _framework density 22.685586000000001
#
# number of rings (size 3 to 8) (size 9 to 14) (size 15 to 20)
#    0.000    1.000    2.500    5.625    3.500    0.500 
#    4.500    0.000    0.000    0.000    0.000    0.000 
#    0.000    0.000    0.000    0.000    0.000    0.000 
#
# Total GULP energy -89370.737226 kJ/mol
# GULP energy per Si atom -5585.671077 kJ/mol
# Density = 2.263395 g / cm^3
# Si number density = 22.685586 Si / 1000 Ang^3
#
#
#
# Elastic Constant Matrix: (Units=GPa)
#
#
# Indices 1 2 3 4 5 6 
#
# 1 126.4798 3.5840 12.1329 -7.9191 -5.7443 -18.4290
# 2 3.5840 71.9455 13.1015 -18.6425 -2.6331 6.3533
# 3 12.1329 13.1015 75.2126 -20.8099 -13.7138 3.1977
# 4 -7.9191 -18.6425 -20.8099 54.2531 -3.2702 2.7428
# 5 -5.7443 -2.6331 -13.7138 -3.2702 42.1828 -5.2746
# 6 -18.4290 6.3533 3.1977 2.7428 -5.2746 36.8751
#
#
#
# Elastic Compliance Matrix: (Units=1/GPa)
#
#
# Indices 1 2 3 4 5 6 
#
# 1 0.008820 -0.000460 -0.001132 0.000542 0.001440 0.004751
# 2 -0.000460 0.015740 -0.000998 0.005154 0.000601 -0.003152
# 3 -0.001132 -0.000998 0.016416 0.006191 0.005412 -0.001504
# 4 0.000542 0.005154 0.006191 0.023009 0.003903 -0.002307
# 5 0.001440 0.000601 0.005412 0.003903 0.026457 0.003641
# 6 0.004751 -0.003152 -0.001504 -0.002307 0.003641 0.030859
#
#
# Mechanical properties :
#
#
# Convention : Reuss Voigt Hill
#
# Bulk Modulus (GPa) = 27.93616 36.80831 32.37224
# Shear Modulus (GPa) = 36.12410 42.98351 39.55380
#
# Velocity S-wave (km/s) = 3.99479 4.35759 4.18013
# Velocity P-wave (km/s) = 5.79820 6.44816 6.13180
#
# Compressibility (1/GPa) = 0.03579590
#
# Stress axis : x y z
#
# Youngs Moduli (GPa) = 113.38388 63.53244 60.91725
#
# Poissons Ratio (x) = 0.02920 0.06897
# Poissons Ratio (y) = 0.05211 0.06079
# Poissons Ratio (z) = 0.12836 0.06340
#
# Static dielectric constant tensor:
#      x y z
#    x 1.860340 0.080890 -0.096330 
#    y 0.080890 2.380770 -0.277000 
#    z -0.096330 -0.277000 1.999350 
# 
# From -- ./inp_files/534055.got.cif
#   From: 2010.05.17/outbox.cif.g08.bks.cpg/sg2_268_cif.got.tgz:534055.got - 2010.06.03 11:33:40.
