data_PCOD9025933
_publ_section_title
;
Structure prediction by ZEFSAII (Michael W. Deem and Ramdas Pophale) SiO2 
 PCOD9025933
Probable space group: P -1
;
_chemical_formula_sum "Si O2"
_cell_formula_units_Z 16
_cell_length_a 14.082242
_cell_length_b 7.822407
_cell_length_c 14.042509
_cell_angle_alpha 113.444531
_cell_angle_beta 130.099881
_cell_angle_gamma 44.681354
_cell_volume 826.798981
_symmetry_space_group_name_H-M "P -1"
_symmetry_group_IT_number 2
_symmetry_cell_setting 'triclinic'
loop_
_space_group_symop_operation_xyz
x,y,z
-x,-y,-z
loop_
_atom_site_type_symbol
_atom_site_label
_atom_site_fract_x
_atom_site_fract_y
_atom_site_fract_z
Si Si1 0.004225 0.768530 0.364150
Si Si2 0.856775 0.239453 0.048006
Si Si3 0.099506 0.748749 0.214176
Si Si4 0.383423 0.450437 0.874384
Si Si5 0.955378 0.533832 0.129733
Si Si6 0.263856 0.684974 0.643959
Si Si7 0.610738 0.471293 0.776165
Si Si8 0.582534 0.915330 0.930597
O O1 0.058626 0.827095 0.315800
O O2 0.145346 0.657820 0.507399
O O3 0.981344 0.585640 0.265671
O O4 0.839144 0.022045 0.352559
O O5 0.749729 0.443359 0.105480
O O6 0.959320 0.307693 0.080910
O O7 0.729256 0.287300 0.898081
O O8 0.968899 0.981370 0.115663
O O9 0.276874 0.634753 0.267877
O O10 0.076533 0.545625 0.149011
O O11 0.301323 0.591410 0.755202
O O12 0.490752 0.162264 0.867124
O O13 0.500000 0.500000 0.000000
O O14 0.773482 0.771464 0.035001
O O15 0.439413 0.534456 0.674580
O O16 0.570235 0.722942 0.835809
O O17 0.500000 0.000000 0.000000
#
# Coordination Sequence:
#
# PCOD9025933 Si02
#       8
#     2   2   2   2   2   2   2   2
#     4   9  21  40  59  79 119 159 196 244 284 346
#     4  11  20  35  63  90 116 158 190 238 299 351
#     4  10  22  41  58  85 122 161 190 238 301 342
#     4  12  19  34  59  90 118 146 192 247 299 342
#     4   9  20  37  58  80 123 152 191 239 289 348
#     4  11  21  37  61  86 112 157 202 238 292 344
#     4  11  23  36  59  92 115 154 196 237 299 355
#     4  11  19  33  58  86 118 146 187 246 297 341
#
# _framework density 19.351742000000002
#
# number of rings (size 3 to 8) (size 9 to 14) (size 15 to 20)
#    0.750    0.750    5.000    2.625    0.000    2.500 
#    2.250    1.875    0.000    1.500    0.000    0.000 
#    0.000    0.000    0.000    0.000    0.000    0.000 
#
# Total GULP energy -89254.572565 kJ/mol
# GULP energy per Si atom -5578.410785 kJ/mol
# Density = 1.930770 g / cm^3
# Si number density = 19.351742 Si / 1000 Ang^3
#
#
#
# Elastic Constant Matrix: (Units=GPa)
#
#
# Indices 1 2 3 4 5 6 
#
# 1 74.6225 2.0657 14.7192 -16.6163 1.6222 -12.9932
# 2 2.0657 38.1511 17.3772 -5.6844 -3.8670 -0.9127
# 3 14.7192 17.3772 105.2536 -15.9606 4.8398 5.7941
# 4 -16.6163 -5.6844 -15.9606 19.9831 -0.9874 -2.8271
# 5 1.6222 -3.8670 4.8398 -0.9874 16.5863 -3.5767
# 6 -12.9932 -0.9127 5.7941 -2.8271 -3.5767 32.5744
#
#
#
# Elastic Compliance Matrix: (Units=1/GPa)
#
#
# Indices 1 2 3 4 5 6 
#
# 1 0.018958 0.002452 -0.001094 0.017041 0.002107 0.009535
# 2 0.002452 0.030582 -0.004880 0.007954 0.009750 0.004464
# 3 -0.001094 -0.004880 0.011808 0.006534 -0.004652 -0.002617
# 4 0.017041 0.007954 0.006534 0.073781 0.005446 0.012859
# 5 0.002107 0.009750 -0.004652 0.005446 0.066126 0.009675
# 6 0.009535 0.004464 -0.002617 0.012859 0.009675 0.037271
#
#
# Mechanical properties :
#
#
# Convention : Reuss Voigt Hill
#
# Bulk Modulus (GPa) = 18.41449 31.81684 25.11567
# Shear Modulus (GPa) = 18.96312 26.08644 22.52478
#
# Velocity S-wave (km/s) = 3.13376 3.67552 3.41540
# Velocity P-wave (km/s) = 4.75713 5.87278 5.34415
#
# Compressibility (1/GPa) = 0.05430506
#
# Stress axis : x y z
#
# Youngs Moduli (GPa) = 52.74937 32.69933 84.68691
#
# Poissons Ratio (x) = -0.08019 0.09263
# Poissons Ratio (y) = -0.12937 0.41326
# Poissons Ratio (z) = 0.05770 0.15957
#
# Static dielectric constant tensor:
#      x y z
#    x 1.723150 -0.010930 -0.001570 
#    y -0.010930 1.687530 0.014080 
#    z -0.001570 0.014080 1.659880 
# 
# From -- ./inp_files/285928.got.cif
#   From: 2010.05.17/outbox.cif.g08.bks.cpg/sg2_143_cif.got.tgz:285928.got - 2010.06.03 11:33:40.
