data_PCOD9025905
_publ_section_title
;
Structure prediction by ZEFSAII (Michael W. Deem and Ramdas Pophale) SiO2 
 PCOD9025905
Probable space group: P -1
;
_chemical_formula_sum "Si O2"
_cell_formula_units_Z 11
_cell_length_a 9.490710
_cell_length_b 8.061300
_cell_length_c 12.016754
_cell_angle_alpha 45.475050
_cell_angle_beta 140.609345
_cell_angle_gamma 119.724428
_cell_volume 413.793842
_symmetry_space_group_name_H-M "P -1"
_symmetry_group_IT_number 2
_symmetry_cell_setting 'triclinic'
loop_
_space_group_symop_operation_xyz
x,y,z
-x,-y,-z
loop_
_atom_site_type_symbol
_atom_site_label
_atom_site_fract_x
_atom_site_fract_y
_atom_site_fract_z
Si Si1 0.316897 0.883509 0.513979
Si Si2 0.965600 0.778582 0.657899
Si Si3 0.500000 0.500000 0.000000
Si Si4 0.259137 0.495581 0.522923
Si Si5 0.701395 0.876038 0.101147
Si Si6 0.224226 0.629107 0.066175
O O1 0.181917 0.748639 0.403147
O O2 0.500000 0.000000 0.500000
O O3 0.182188 0.095433 0.395439
O O4 0.399974 0.686076 0.749031
O O5 0.839487 0.580194 0.616957
O O6 0.000000 0.000000 0.500000
O O7 0.207059 0.667215 0.901661
O O8 0.630471 0.714937 0.034651
O O9 0.184327 0.300105 0.653750
O O10 0.530406 0.479731 0.698572
O O11 0.500000 0.000000 0.000000
O O12 0.801001 0.114351 0.014667
O O13 0.000000 0.500000 0.000000
#
# Coordination Sequence:
#
# PCOD9025905 Si02
#       6
#     2   2   1   2   2   2
#     4  11  25  44  70 108 147 188 246 307 367 442
#     4  12  26  45  74 108 142 192 251 300 366 445
#     4  10  22  40  74  98 138 202 234 288 382 428
#     4  10  23  46  72  98 149 196 237 303 372 436
#     4   9  18  38  64  96 133 184 235 284 356 436
#     4  11  23  41  71 107 143 187 243 304 367 439
#
# _framework density 26.583283000000002
#
# number of rings (size 3 to 8) (size 9 to 14) (size 15 to 20)
#    0.000    1.455    1.818    3.273    5.091    5.091 
#    0.000    1.818    0.000   24.000    0.000    0.000 
#    0.000    0.000    0.000    0.000    0.000    0.000 
#
# Total GULP energy -61277.990831 kJ/mol
# GULP energy per Si atom -5570.726439 kJ/mol
# Density = 2.652278 g / cm^3
# Si number density = 26.583283 Si / 1000 Ang^3
#
#
#
# Elastic Constant Matrix: (Units=GPa)
#
#
# Indices 1 2 3 4 5 6 
#
# 1 73.4810 49.3790 14.5735 3.4647 18.1967 9.1052
# 2 49.3790 290.3600 51.7880 20.7070 3.8151 -28.4040
# 3 14.5735 51.7880 109.1370 9.1978 13.2155 -15.2622
# 4 3.4647 20.7070 9.1978 62.7725 -5.9037 -11.0581
# 5 18.1967 3.8151 13.2155 -5.9037 32.1965 1.8409
# 6 9.1052 -28.4040 -15.2622 -11.0581 1.8409 65.0399
#
#
#
# Elastic Compliance Matrix: (Units=1/GPa)
#
#
# Indices 1 2 3 4 5 6 
#
# 1 0.019064 -0.003372 -0.000132 -0.001629 -0.010382 -0.004156
# 2 -0.003372 0.004505 -0.001592 -0.000558 0.001813 0.001920
# 3 -0.000132 -0.001592 0.010829 -0.001161 -0.004497 0.001794
# 4 -0.001629 -0.000558 -0.001161 0.017239 0.004481 0.002516
# 5 -0.010382 0.001813 -0.004497 0.004481 0.039332 0.000839
# 6 -0.004156 0.001920 0.001794 0.002516 0.000839 0.017621
#
#
# Mechanical properties :
#
#
# Convention : Reuss Voigt Hill
#
# Bulk Modulus (GPa) = 41.31192 78.27324 59.79258
# Shear Modulus (GPa) = 39.41640 55.81762 47.61701
#
# Velocity S-wave (km/s) = 3.85483 4.58725 4.23689
# Velocity P-wave (km/s) = 5.94872 7.58720 6.81736
#
# Compressibility (1/GPa) = 0.02420609
#
# Stress axis : x y z
#
# Youngs Moduli (GPa) = 52.45450 221.96710 92.34429
#
# Poissons Ratio (x) = 0.74858 0.01220
# Poissons Ratio (y) = 0.17690 0.14697
# Poissons Ratio (z) = 0.00693 0.35327
#
# Static dielectric constant tensor:
#      x y z
#    x 2.858130 -0.012190 0.006190 
#    y -0.012190 2.110870 -0.008150 
#    z 0.006190 -0.008150 2.300690 
# 
# From -- ./inp_files/512701.got.cif
#   From: 2010.05.17/outbox.cif.g08.bks.cpg/sg2_257_cif.got.tgz:512701.got - 2010.06.03 11:33:40.
