data_PCOD9025617
_publ_section_title
;
Structure prediction by ZEFSAII (Michael W. Deem and Ramdas Pophale) SiO2 
 PCOD9025617
Probable space group: P -1
;
_chemical_formula_sum "Si O2"
_cell_formula_units_Z 16
_cell_length_a 16.512884
_cell_length_b 9.393135
_cell_length_c 8.794414
_cell_angle_alpha 80.876334
_cell_angle_beta 41.014034
_cell_angle_gamma 104.367051
_cell_volume 727.666842
_symmetry_space_group_name_H-M "P -1"
_symmetry_group_IT_number 2
_symmetry_cell_setting 'triclinic'
loop_
_space_group_symop_operation_xyz
x,y,z
-x,-y,-z
loop_
_atom_site_type_symbol
_atom_site_label
_atom_site_fract_x
_atom_site_fract_y
_atom_site_fract_z
Si Si1 0.057300 0.663516 0.784097
Si Si2 0.716297 0.778290 0.238531
Si Si3 0.800317 0.559445 0.947725
Si Si4 0.560606 0.450133 0.723564
Si Si5 0.845890 0.975026 0.315796
Si Si6 0.752972 0.656900 0.683236
Si Si7 0.614133 0.051751 0.691947
Si Si8 0.462212 0.790324 0.467455
O O1 0.234723 0.765532 0.500109
O O2 0.048121 0.816565 0.848341
O O3 0.000000 0.500000 0.000000
O O4 0.954380 0.602931 0.792517
O O5 0.766052 0.691275 0.058896
O O6 0.598347 0.612373 0.537752
O O7 0.837484 0.913974 0.165673
O O8 0.625376 0.851342 0.284091
O O9 0.668247 0.358213 0.212490
O O10 0.812434 0.601294 0.745959
O O11 0.690886 0.526930 0.650177
O O12 0.559605 0.316243 0.637071
O O13 0.398527 0.368005 0.036648
O O14 0.859674 0.853205 0.435099
O O15 0.680515 0.935148 0.593836
O O16 0.558428 0.065813 0.600842
O O17 0.500000 0.000000 0.000000
#
# Coordination Sequence:
#
# PCOD9025617 Si02
#       8
#     2   2   2   2   2   2   2   2
#     4  10  22  42  60  84 118 165 201 242 304 361
#     4  10  19  32  56  96 119 149 198 252 290 355
#     4  11  19  34  62  89 120 159 194 241 302 359
#     4   9  17  29  51  87 125 149 187 236 303 351
#     4   9  22  37  54  89 120 155 202 239 304 350
#     4  10  17  31  54  87 124 150 188 249 291 352
#     4  10  22  39  61  82 115 162 205 244 293 355
#     4  11  18  34  59  87 118 155 201 240 294 353
#
# _framework density 21.988083
#
# number of rings (size 3 to 8) (size 9 to 14) (size 15 to 20)
#    0.750    1.250    3.750    1.500    0.000    1.500 
#    0.000    0.000    0.000    0.750    0.000    0.000 
#    0.000    0.000    0.000    0.000    0.000    0.000 
#
# Total GULP energy -89277.069807 kJ/mol
# GULP energy per Si atom -5579.816863 kJ/mol
# Density = 2.193804 g / cm^3
# Si number density = 21.988083 Si / 1000 Ang^3
#
#
#
# Elastic Constant Matrix: (Units=GPa)
#
#
# Indices 1 2 3 4 5 6 
#
# 1 159.2118 -2.7987 29.5402 -11.0095 24.5352 -14.5023
# 2 -2.7987 38.8059 12.4007 -3.5612 13.3151 -0.3828
# 3 29.5402 12.4007 91.3899 -8.3356 1.5656 -6.6407
# 4 -11.0095 -3.5612 -8.3356 25.2480 0.3314 -1.4360
# 5 24.5352 13.3151 1.5656 0.3314 28.9384 2.3559
# 6 -14.5023 -0.3828 -6.6407 -1.4360 2.3559 22.6653
#
#
#
# Elastic Compliance Matrix: (Units=1/GPa)
#
#
# Indices 1 2 3 4 5 6 
#
# 1 0.009606 0.005978 -0.002796 0.004651 -0.011359 0.006903
# 2 0.005978 0.036117 -0.005464 0.006499 -0.021915 0.005524
# 3 -0.002796 -0.005464 0.012844 0.002289 0.004032 0.001608
# 4 0.004651 0.006499 0.002289 0.043834 -0.008160 0.007381
# 5 -0.011359 -0.021915 0.004032 -0.008160 0.055180 -0.012709
# 6 0.006903 0.005524 0.001608 0.007381 -0.012709 0.050890
#
#
# Mechanical properties :
#
#
# Convention : Reuss Voigt Hill
#
# Bulk Modulus (GPa) = 18.51689 40.85468 29.68578
# Shear Modulus (GPa) = 21.64181 32.05471 26.84826
#
# Velocity S-wave (km/s) = 3.14068 3.82229 3.49812
# Velocity P-wave (km/s) = 4.64666 6.17256 5.46315
#
# Compressibility (1/GPa) = 0.05400475
#
# Stress axis : x y z
#
# Youngs Moduli (GPa) = 104.10621 27.68782 77.85933
#
# Poissons Ratio (x) = -0.16553 0.21767
# Poissons Ratio (y) = -0.62240 0.42539
# Poissons Ratio (z) = 0.29105 0.15127
#
# Static dielectric constant tensor:
#      x y z
#    x 1.861300 -0.018030 -0.029390 
#    y -0.018030 1.890650 0.011320 
#    z -0.029390 0.011320 1.815650 
# 
# From -- ./inp_files/254560.got.cif
#   From: 2010.05.17/outbox.cif.g08.bks.cpg/sg2_128_cif.got.tgz:254560.got - 2010.06.03 11:33:40.
