data_PCOD9025485
_publ_section_title
;
Structure prediction by ZEFSAII (Michael W. Deem and Ramdas Pophale) SiO2 
 PCOD9025485
Probable space group: P -1
;
_chemical_formula_sum "Si O2"
_cell_formula_units_Z 15
_cell_length_a 15.096558
_cell_length_b 9.730640
_cell_length_c 9.278447
_cell_angle_alpha 64.931282
_cell_angle_beta 144.212396
_cell_angle_gamma 116.630721
_cell_volume 707.775103
_symmetry_space_group_name_H-M "P -1"
_symmetry_group_IT_number 2
_symmetry_cell_setting 'triclinic'
loop_
_space_group_symop_operation_xyz
x,y,z
-x,-y,-z
loop_
_atom_site_type_symbol
_atom_site_label
_atom_site_fract_x
_atom_site_fract_y
_atom_site_fract_z
Si Si1 0.500000 0.500000 0.500000
Si Si2 0.144675 0.975306 0.105853
Si Si3 0.206919 0.379698 0.627461
Si Si4 0.234291 0.320398 0.029729
Si Si5 0.589364 0.764325 0.259750
Si Si6 0.929885 0.130234 0.267312
Si Si7 0.281551 0.885461 0.761512
Si Si8 0.880848 0.296142 0.619555
O O1 0.568632 0.659088 0.421392
O O2 0.629589 0.559682 0.770329
O O3 0.202759 0.838418 0.324807
O O4 0.087932 0.911602 0.903310
O O5 0.250695 0.143164 0.156306
O O6 0.000000 0.000000 0.000000
O O7 0.225624 0.340644 0.836914
O O8 0.337882 0.327523 0.726695
O O9 0.196833 0.557953 0.529227
O O10 0.047217 0.287658 0.387826
O O11 0.066478 0.337853 0.864631
O O12 0.695650 0.937181 0.340937
O O13 0.431866 0.811949 0.976453
O O14 0.765738 0.123965 0.129507
O O15 0.000000 0.000000 0.500000
O O16 0.146486 0.778368 0.541675
#
# Coordination Sequence:
#
# PCOD9025485 Si02
#       8
#     1   2   2   2   2   2   2   2
#     4  12  28  42  64  96 150 178 220 284 360 398
#     4  10  22  40  69 105 139 173 228 289 349 403
#     4  12  25  43  74 105 140 178 238 289 345 409
#     4  11  23  44  68 100 137 190 229 285 345 414
#     4  11  27  45  69 101 142 192 226 284 351 414
#     4  12  21  41  75 107 133 180 234 289 340 417
#     4  11  23  47  73  99 139 189 236 276 343 427
#     4  11  24  41  70 106 139 176 237 294 343 401
#
# _framework density 21.193173999999999
#
# number of rings (size 3 to 8) (size 9 to 14) (size 15 to 20)
#    0.000    0.800    4.000    2.800    5.600    3.733 
#    0.000    0.000    0.000    6.400    0.000    0.000 
#    0.000    0.000    0.000    0.000    0.000    0.000 
#
# Total GULP energy -83595.603204 kJ/mol
# GULP energy per Si atom -5573.040214 kJ/mol
# Density = 2.114494 g / cm^3
# Si number density = 21.193174 Si / 1000 Ang^3
#
#
#
# Elastic Constant Matrix: (Units=GPa)
#
#
# Indices 1 2 3 4 5 6 
#
# 1 98.0601 67.7644 43.3556 -16.9841 -3.2203 -7.9490
# 2 67.7644 143.0270 51.5890 -10.6579 -2.1024 -11.3637
# 3 43.3556 51.5890 41.1126 12.8831 -8.8107 -6.5965
# 4 -16.9841 -10.6579 12.8831 54.3744 4.7414 -5.1184
# 5 -3.2203 -2.1024 -8.8107 4.7414 22.9203 2.0052
# 6 -7.9490 -11.3637 -6.5965 -5.1184 2.0052 21.8300
#
#
#
# Elastic Compliance Matrix: (Units=1/GPa)
#
#
# Indices 1 2 3 4 5 6 
#
# 1 0.039354 0.007801 -0.065792 0.032530 -0.026525 0.008574
# 2 0.007801 0.020011 -0.041809 0.018409 -0.017521 0.006549
# 3 -0.065792 -0.041809 0.185300 -0.080771 0.076231 -0.015668
# 4 0.032530 0.018409 -0.080771 0.055847 -0.037529 0.013562
# 5 -0.026525 -0.017521 0.076231 -0.037529 0.076374 -0.011559
# 6 0.008574 0.006549 -0.015668 0.013562 -0.011559 0.051847
#
#
# Mechanical properties :
#
#
# Convention : Reuss Voigt Hill
#
# Bulk Modulus (GPa) = 22.18998 67.51308 44.85153
# Shear Modulus (GPa) = 7.77176 27.79097 17.78137
#
# Velocity S-wave (km/s) = 1.91705 3.62514 2.89972
# Velocity P-wave (km/s) = 3.92341 7.03188 5.69388
#
# Compressibility (1/GPa) = 0.04506538
#
# Stress axis : x y z
#
# Youngs Moduli (GPa) = 25.41033 49.97365 5.39664
#
# Poissons Ratio (x) = -0.38982 0.35506
# Poissons Ratio (y) = -0.19822 0.22563
# Poissons Ratio (z) = 1.67179 2.08933
#
# Static dielectric constant tensor:
#      x y z
#    x 1.806600 0.011770 0.005740 
#    y 0.011770 1.800040 -0.001370 
#    z 0.005740 -0.001370 1.771150 
# 
# From -- ./inp_files/259183.got.cif
#   From: 2010.05.17/outbox.cif.g08.bks.cpg/sg2_130_cif.got.tgz:259183.got - 2010.06.03 11:33:40.
