data_PCOD9025765
_publ_section_title
;
Structure prediction by ZEFSAII (Michael W. Deem and Ramdas Pophale) SiO2 
 PCOD9025765
Probable space group: P -1
;
_chemical_formula_sum "Si O2"
_cell_formula_units_Z 14
_cell_length_a 9.991809
_cell_length_b 7.742655
_cell_length_c 11.245257
_cell_angle_alpha 130.533067
_cell_angle_beta 100.497720
_cell_angle_gamma 100.884788
_cell_volume 592.648518
_symmetry_space_group_name_H-M "P -1"
_symmetry_group_IT_number 2
_symmetry_cell_setting 'triclinic'
loop_
_space_group_symop_operation_xyz
x,y,z
-x,-y,-z
loop_
_atom_site_type_symbol
_atom_site_label
_atom_site_fract_x
_atom_site_fract_y
_atom_site_fract_z
Si Si1 0.702504 0.959169 0.053701
Si Si2 0.856507 0.538200 0.067166
Si Si3 0.981720 0.705620 0.670603
Si Si4 0.833602 0.066301 0.752686
Si Si5 0.222987 0.442033 0.214901
Si Si6 0.388138 0.604737 0.856264
Si Si7 0.469292 0.322522 0.532071
O O1 0.855616 0.071529 0.199404
O O2 0.666197 0.190165 0.112399
O O3 0.734411 0.798036 0.882490
O O4 0.553326 0.765572 0.006475
O O5 0.850111 0.258476 0.948737
O O6 0.810191 0.541507 0.922301
O O7 0.732916 0.554076 0.139743
O O8 0.020679 0.748440 0.215049
O O9 0.000000 0.500000 0.500000
O O10 0.917192 0.602458 0.744075
O O11 0.868619 0.824468 0.665444
O O12 0.660947 0.949406 0.634485
O O13 0.370630 0.661426 0.390334
O O14 0.408425 0.441677 0.680653
O O15 0.500000 0.500000 0.500000
#
# Coordination Sequence:
#
# PCOD9025765 Si02
#       7
#     2   2   2   2   2   2   2
#     4  10  22  40  71  96 129 178 235 280 312 405
#     4  11  26  45  69  99 138 185 218 273 343 409
#     4  12  24  41  69 102 132 174 235 280 329 395
#     4  11  25  46  68  99 141 178 224 277 342 398
#     4  11  24  44  69  99 135 178 225 275 340 395
#     4  10  24  42  69 100 131 180 227 272 341 396
#     4  11  24  44  71 100 135 175 227 287 331 390
#
# _framework density 23.622769999999999
#
# number of rings (size 3 to 8) (size 9 to 14) (size 15 to 20)
#    0.000    1.143    2.857    2.143    8.000    3.429 
#    2.571    0.000    0.000    0.000    0.000    0.000 
#    0.000    0.000    0.000    0.000    0.000    0.000 
#
# Total GULP energy -78191.717564 kJ/mol
# GULP energy per Si atom -5585.122683 kJ/mol
# Density = 2.356900 g / cm^3
# Si number density = 23.622770 Si / 1000 Ang^3
#
#
#
# Elastic Constant Matrix: (Units=GPa)
#
#
# Indices 1 2 3 4 5 6 
#
# 1 52.3978 22.3657 13.8217 8.6031 2.4503 19.3295
# 2 22.3657 107.9026 32.7213 -0.5346 4.6705 30.9155
# 3 13.8217 32.7213 94.9616 25.5091 10.2314 27.2737
# 4 8.6031 -0.5346 25.5091 33.9466 18.3408 -0.2217
# 5 2.4503 4.6705 10.2314 18.3408 60.8448 4.8257
# 6 19.3295 30.9155 27.2737 -0.2217 4.8257 57.9547
#
#
#
# Elastic Compliance Matrix: (Units=1/GPa)
#
#
# Indices 1 2 3 4 5 6 
#
# 1 0.024169 -0.003676 0.001994 -0.008942 0.002245 -0.007260
# 2 -0.003676 0.012237 -0.003830 0.004677 -0.001289 -0.003374
# 3 0.001994 -0.003830 0.017329 -0.014903 0.002349 -0.007030
# 4 -0.008942 0.004677 -0.014903 0.050263 -0.013342 0.008804
# 5 0.002245 -0.001289 0.002349 -0.013342 0.020301 -0.002908
# 6 -0.007260 -0.003374 -0.007030 0.008804 -0.002908 0.025060
#
#
# Mechanical properties :
#
#
# Convention : Reuss Voigt Hill
#
# Bulk Modulus (GPa) = 23.41290 43.67551 33.54421
# Shear Modulus (GPa) = 28.63377 42.97274 35.80325
#
# Velocity S-wave (km/s) = 3.48534 4.26975 3.89733
# Velocity P-wave (km/s) = 5.11170 6.54496 5.87222
#
# Compressibility (1/GPa) = 0.04271149
#
# Stress axis : x y z
#
# Youngs Moduli (GPa) = 41.37523 81.72227 57.70616
#
# Poissons Ratio (x) = 0.30039 -0.11506
# Poissons Ratio (y) = 0.15209 0.22100
# Poissons Ratio (z) = -0.08250 0.31297
#
# Static dielectric constant tensor:
#      x y z
#    x 1.969310 -0.081620 0.023770 
#    y -0.081620 2.008020 0.032730 
#    z 0.023770 0.032730 1.881750 
# 
# From -- ./inp_files/383514.got.cif
#   From: 2010.05.17/outbox.cif.g08.bks.cpg/sg2_192_cif.got.tgz:383514.got - 2010.06.03 11:33:40.
