data_PCOD9025824
_publ_section_title
;
Structure prediction by ZEFSAII (Michael W. Deem and Ramdas Pophale) SiO2 
 PCOD9025824
Probable space group: P -1
;
_chemical_formula_sum "Si O2"
_cell_formula_units_Z 14
_cell_length_a 10.677748
_cell_length_b 11.564922
_cell_length_c 10.109438
_cell_angle_alpha 38.054094
_cell_angle_beta 60.579991
_cell_angle_gamma 87.590279
_cell_volume 513.856192
_symmetry_space_group_name_H-M "P -1"
_symmetry_group_IT_number 2
_symmetry_cell_setting 'triclinic'
loop_
_space_group_symop_operation_xyz
x,y,z
-x,-y,-z
loop_
_atom_site_type_symbol
_atom_site_label
_atom_site_fract_x
_atom_site_fract_y
_atom_site_fract_z
Si Si1 0.335046 0.336660 0.838923
Si Si2 0.524630 0.976745 0.663734
Si Si3 0.950011 0.608480 0.173228
Si Si4 0.962203 0.210193 0.524348
Si Si5 0.712441 0.790065 0.732741
Si Si6 0.788318 0.547303 0.574869
Si Si7 0.313879 0.139966 0.611566
O O1 0.500000 0.500000 0.500000
O O2 0.171322 0.350879 0.886312
O O3 0.378941 0.373352 0.940544
O O4 0.240389 0.052695 0.126454
O O5 0.715334 0.019858 0.550607
O O6 0.629831 0.729558 0.680304
O O7 0.500000 0.000000 0.500000
O O8 0.462205 0.125742 0.617992
O O9 0.821866 0.464935 0.498133
O O10 0.985948 0.436277 0.247863
O O11 0.133742 0.861585 0.912710
O O12 0.100275 0.174943 0.415402
O O13 0.039461 0.297635 0.554199
O O14 0.245088 0.262948 0.615827
O O15 0.371979 0.696572 0.042193
#
# Coordination Sequence:
#
# PCOD9025824 Si02
#       7
#     2   2   2   2   2   2   2
#     4  12  27  49  69  99 142 186 234 291 346 410
#     4  10  22  41  68 103 141 174 232 285 348 403
#     4  12  24  43  71 105 138 181 237 281 351 412
#     4  11  25  43  75 101 138 187 234 284 346 413
#     4  10  23  48  67 103 143 181 232 278 340 427
#     4  11  22  42  69 108 140 178 233 291 340 417
#     4  10  22  40  72 105 132 186 226 285 350 397
#
# _framework density 27.244976000000001
#
# number of rings (size 3 to 8) (size 9 to 14) (size 15 to 20)
#    0.000    1.143    4.286    2.143    0.000    6.286 
#    0.000    4.286    0.000    0.000    0.000    0.000 
#    0.000    0.000    0.000    0.000    0.000    0.000 
#
# Total GULP energy -78308.529072 kJ/mol
# GULP energy per Si atom -5593.466362 kJ/mol
# Density = 2.718297 g / cm^3
# Si number density = 27.244976 Si / 1000 Ang^3
#
#
#
# Elastic Constant Matrix: (Units=GPa)
#
#
# Indices 1 2 3 4 5 6 
#
# 1 111.6546 80.7531 32.8977 11.4226 16.2196 -28.5416
# 2 80.7531 130.8944 36.7631 -13.7919 -1.7690 -52.2564
# 3 32.8977 36.7631 131.1238 -10.9610 22.5000 -11.2078
# 4 11.4226 -13.7919 -10.9610 42.7989 1.8400 2.9076
# 5 16.2196 -1.7690 22.5000 1.8400 32.2535 4.8559
# 6 -28.5416 -52.2564 -11.2078 2.9076 4.8559 82.8815
#
#
#
# Elastic Compliance Matrix: (Units=1/GPa)
#
#
# Indices 1 2 3 4 5 6 
#
# 1 0.022938 -0.015743 -0.000376 -0.010732 -0.011368 -0.001035
# 2 -0.015743 0.022093 -0.002362 0.009828 0.009115 0.007310
# 3 -0.000376 -0.002362 0.009740 0.002127 -0.006860 0.000026
# 4 -0.010732 0.009828 0.002127 0.029724 0.002516 0.001598
# 5 -0.011368 0.009115 -0.006860 0.002516 0.042112 -0.001651
# 6 -0.001035 0.007310 0.000026 0.001598 -0.001651 0.016362
#
#
# Mechanical properties :
#
#
# Convention : Reuss Voigt Hill
#
# Bulk Modulus (GPa) = 56.15460 74.94449 65.54955
# Shear Modulus (GPa) = 26.90087 46.47071 36.68579
#
# Velocity S-wave (km/s) = 3.14565 4.13445 3.67347
# Velocity P-wave (km/s) = 5.81801 7.09640 6.48876
#
# Compressibility (1/GPa) = 0.01780798
#
# Stress axis : x y z
#
# Youngs Moduli (GPa) = 43.59597 45.26382 102.66807
#
# Poissons Ratio (x) = 0.71261 0.03859
# Poissons Ratio (y) = 0.68635 0.24251
# Poissons Ratio (z) = 0.01639 0.10692
#
# Static dielectric constant tensor:
#      x y z
#    x 2.159040 -0.026080 -0.070360 
#    y -0.026080 2.159670 0.036270 
#    z -0.070360 0.036270 2.185860 
# 
# From -- ./inp_files/398354.got.cif
#   From: 2010.05.17/outbox.cif.g08.bks.cpg/sg2_200_cif.got.tgz:398354.got - 2010.06.03 11:33:40.
