data_PCOD9025070
_publ_section_title
;
Structure prediction by ZEFSAII (Michael W. Deem and Ramdas Pophale) SiO2 
 PCOD9025070
Probable space group: P -1
;
_chemical_formula_sum "Si O2"
_cell_formula_units_Z 13
_cell_length_a 11.245657
_cell_length_b 9.089828
_cell_length_c 4.997881
_cell_angle_alpha 100.668798
_cell_angle_beta 103.012085
_cell_angle_gamma 78.638487
_cell_volume 482.687366
_symmetry_space_group_name_H-M "P -1"
_symmetry_group_IT_number 2
_symmetry_cell_setting 'triclinic'
loop_
_space_group_symop_operation_xyz
x,y,z
-x,-y,-z
loop_
_atom_site_type_symbol
_atom_site_label
_atom_site_fract_x
_atom_site_fract_y
_atom_site_fract_z
Si Si1 0.100958 0.291857 0.282613
Si Si2 0.186162 0.127433 0.785264
Si Si3 0.685548 0.159469 0.548557
Si Si4 0.000000 0.000000 0.000000
Si Si5 0.526728 0.164463 0.994611
Si Si6 0.633810 0.549911 0.059045
Si Si7 0.207897 0.567622 0.398931
O O1 0.131484 0.257940 0.595880
O O2 0.096602 0.470292 0.287865
O O3 0.997710 0.187661 0.133478
O O4 0.209235 0.206768 0.106902
O O5 0.272952 0.007180 0.604461
O O6 0.088947 0.022416 0.804929
O O7 0.631828 0.155436 0.816915
O O8 0.797026 0.255692 0.612009
O O9 0.576838 0.230232 0.314282
O O10 0.403824 0.269741 0.863517
O O11 0.500000 0.000000 0.000000
O O12 0.731627 0.469890 0.293678
O O13 0.500000 0.500000 0.000000
O O14 0.688688 0.505639 0.784231
#
# Coordination Sequence:
#
# PCOD9025070 Si02
#       7
#     2   2   2   1   2   2   2
#     4  10  22  40  67  95 121 160 214 250 315 390
#     4  10  22  40  67  90 127 159 200 264 313 376
#     4  12  24  43  59  95 130 162 209 271 309 361
#     4   8  22  42  68  94 122 158 208 252 324 382
#     4  12  27  40  61  91 127 171 217 260 310 358
#     4  12  23  43  62  86 130 176 210 260 301 373
#     4  12  24  40  66  93 126 171 215 254 317 365
#
# _framework density 26.932545000000001
#
# number of rings (size 3 to 8) (size 9 to 14) (size 15 to 20)
#    0.923    0.000    3.077    4.154    6.462    0.000 
#    0.000    0.769    0.000    1.846    0.000    0.000 
#    0.000    0.000    0.000    0.000    0.000    0.000 
#
# Total GULP energy -72415.010476 kJ/mol
# GULP energy per Si atom -5570.385421 kJ/mol
# Density = 2.687125 g / cm^3
# Si number density = 26.932545 Si / 1000 Ang^3
#
#
#
# Elastic Constant Matrix: (Units=GPa)
#
#
# Indices 1 2 3 4 5 6 
#
# 1 49.9291 26.5879 27.8124 -2.0827 -7.5668 9.5542
# 2 26.5879 164.8605 24.0899 20.5453 3.3136 49.4495
# 3 27.8124 24.0899 115.2546 -9.0208 -11.3636 11.3353
# 4 -2.0827 20.5453 -9.0208 34.1003 5.1967 0.4016
# 5 -7.5668 3.3136 -11.3636 5.1967 47.7616 6.5995
# 6 9.5542 49.4495 11.3353 0.4016 6.5995 50.8284
#
#
#
# Elastic Compliance Matrix: (Units=1/GPa)
#
#
# Indices 1 2 3 4 5 6 
#
# 1 0.025233 -0.003440 -0.004859 0.001883 0.002974 -0.000714
# 2 -0.003440 0.010335 -0.000891 -0.006644 0.000524 -0.009225
# 3 -0.004859 -0.000891 0.010488 0.002781 0.001593 -0.000787
# 4 0.001883 -0.006644 0.002781 0.034588 -0.003119 0.005621
# 5 0.002974 0.000524 0.001593 -0.003119 0.022691 -0.004345
# 6 -0.000714 -0.009225 -0.000787 0.005621 -0.004345 0.029478
#
#
# Mechanical properties :
#
#
# Convention : Reuss Voigt Hill
#
# Bulk Modulus (GPa) = 36.13366 54.11384 45.12375
# Shear Modulus (GPa) = 31.16860 43.30833 37.23847
#
# Velocity S-wave (km/s) = 3.40558 4.01437 3.72244
# Velocity P-wave (km/s) = 5.37675 6.45158 5.93853
#
# Compressibility (1/GPa) = 0.02767503
#
# Stress axis : x y z
#
# Youngs Moduli (GPa) = 39.63116 96.75723 95.35155
#
# Poissons Ratio (x) = 0.33281 0.46333
# Poissons Ratio (y) = 0.13632 0.08499
# Poissons Ratio (z) = 0.19258 0.08624
#
# Static dielectric constant tensor:
#      x y z
#    x 2.336430 0.001050 0.127680 
#    y 0.001050 2.234130 0.011970 
#    z 0.127680 0.011970 2.058950 
# 
# From -- ./inp_files/54674.got.cif
#   From: 2010.05.17/outbox.cif.g08.bks.cpg/sg2_28_cif.got.tgz:54674.got - 2010.06.03 11:33:40.
