data_PCOD9025293
_publ_section_title
;
Structure prediction by ZEFSAII (Michael W. Deem and Ramdas Pophale) SiO2 
 PCOD9025293
Probable space group: P -1
;
_chemical_formula_sum "Si O2"
_cell_formula_units_Z 14
_cell_length_a 8.908336
_cell_length_b 6.595839
_cell_length_c 14.156538
_cell_angle_alpha 117.035333
_cell_angle_beta 65.881768
_cell_angle_gamma 103.588551
_cell_volume 674.995469
_symmetry_space_group_name_H-M "P -1"
_symmetry_group_IT_number 2
_symmetry_cell_setting 'triclinic'
loop_
_space_group_symop_operation_xyz
x,y,z
-x,-y,-z
loop_
_atom_site_type_symbol
_atom_site_label
_atom_site_fract_x
_atom_site_fract_y
_atom_site_fract_z
Si Si1 0.694876 0.435748 0.832511
Si Si2 0.011681 0.631964 0.679663
Si Si3 0.313518 0.829917 0.756962
Si Si4 0.156487 0.233937 0.433419
Si Si5 0.596781 0.108527 0.632724
Si Si6 0.525537 0.467847 0.598094
Si Si7 0.467347 0.137795 0.944707
O O1 0.598574 0.337426 0.744495
O O2 0.643751 0.218857 0.868097
O O3 0.869620 0.526922 0.764118
O O4 0.623298 0.643261 0.950608
O O5 0.139568 0.788251 0.741920
O O6 0.086250 0.408585 0.564459
O O7 0.957762 0.779582 0.633083
O O8 0.368964 0.573727 0.708276
O O9 0.445837 0.946752 0.674248
O O10 0.349284 0.987593 0.872228
O O11 0.318562 0.368873 0.379694
O O12 0.231732 0.013729 0.417317
O O13 0.567350 0.215699 0.561530
O O14 0.500000 0.500000 0.500000
O O15 0.500000 0.000000 0.000000
#
# Coordination Sequence:
#
# PCOD9025293 Si02
#       7
#     2   2   2   2   2   2   2
#     4  10  22  40  68  88 123 165 218 263 316 392
#     4  11  22  44  60  99 137 163 211 269 326 375
#     4  10  23  40  65  96 128 166 214 274 316 375
#     4  10  23  40  64  90 139 175 206 260 317 389
#     4  10  22  41  66  92 123 182 218 246 318 389
#     4  11  20  41  62  92 131 174 216 259 296 397
#     4  10  22  43  69  91 118 170 219 270 320 385
#
# _framework density 20.740881000000002
#
# number of rings (size 3 to 8) (size 9 to 14) (size 15 to 20)
#    0.000    1.714    2.857    0.857    4.000    3.429 
#    2.571    0.714    0.000    0.000    0.000    0.000 
#    0.000    0.000    0.000    0.000    0.000    0.000 
#
# Total GULP energy -77960.478910 kJ/mol
# GULP energy per Si atom -5568.605636 kJ/mol
# Density = 2.069367 g / cm^3
# Si number density = 20.740881 Si / 1000 Ang^3
#
#
#
# Elastic Constant Matrix: (Units=GPa)
#
#
# Indices 1 2 3 4 5 6 
#
# 1 121.8835 68.4354 44.2737 -5.2021 26.4076 8.0427
# 2 68.4354 111.9618 45.2904 -7.8456 22.5499 -18.5316
# 3 44.2737 45.2904 101.8552 -2.5981 26.8386 1.8248
# 4 -5.2021 -7.8456 -2.5981 33.6653 11.0269 8.4480
# 5 26.4076 22.5499 26.8386 11.0269 31.7207 -0.7115
# 6 8.0427 -18.5316 1.8248 8.4480 -0.7115 39.8171
#
#
#
# Elastic Compliance Matrix: (Units=1/GPa)
#
#
# Indices 1 2 3 4 5 6 
#
# 1 0.016092 -0.008972 -0.000404 0.005420 -0.008757 -0.008714
# 2 -0.008972 0.018126 -0.003719 0.000739 -0.002298 0.010221
# 3 -0.000404 -0.003719 0.014811 0.004807 -0.011302 -0.003550
# 4 0.005420 0.000739 0.004807 0.041412 -0.023728 -0.010182
# 5 -0.008757 -0.002298 -0.011302 -0.023728 0.058423 0.007296
# 6 -0.008714 0.010221 -0.003550 -0.010182 0.007296 0.034085
#
#
# Mechanical properties :
#
#
# Convention : Reuss Voigt Hill
#
# Bulk Modulus (GPa) = 43.78142 72.41106 58.09624
# Shear Modulus (GPa) = 23.06775 32.88735 27.97755
#
# Velocity S-wave (km/s) = 3.33857 3.98632 3.67673
# Velocity P-wave (km/s) = 6.00133 7.49504 6.78939
#
# Compressibility (1/GPa) = 0.02284074
#
# Stress axis : x y z
#
# Youngs Moduli (GPa) = 62.14152 55.16881 67.51547
#
# Poissons Ratio (x) = 0.49496 0.02727
# Poissons Ratio (y) = 0.55752 0.25109
# Poissons Ratio (z) = 0.02510 0.20517
#
# Static dielectric constant tensor:
#      x y z
#    x 2.019110 -1.126390 -0.541330 
#    y -1.126390 6.825210 2.498400 
#    z -0.541330 2.498400 3.056050 
# 
# From -- ./inp_files/487880.got.cif
#   From: 2010.05.17/outbox.cif.g08.bks.cpg/sg2_244_cif.got.tgz:487880.got - 2010.06.03 11:33:40.
