data_PCOD9025640
_publ_section_title
;
Structure prediction by ZEFSAII (Michael W. Deem and Ramdas Pophale) SiO2 
 PCOD9025640
Probable space group: P -1
;
_chemical_formula_sum "Si O2"
_cell_formula_units_Z 16
_cell_length_a 11.173450
_cell_length_b 7.694158
_cell_length_c 8.068803
_cell_angle_alpha 79.040286
_cell_angle_beta 103.478632
_cell_angle_gamma 116.247597
_cell_volume 601.997069
_symmetry_space_group_name_H-M "P -1"
_symmetry_group_IT_number 2
_symmetry_cell_setting 'triclinic'
loop_
_space_group_symop_operation_xyz
x,y,z
-x,-y,-z
loop_
_atom_site_type_symbol
_atom_site_label
_atom_site_fract_x
_atom_site_fract_y
_atom_site_fract_z
Si Si1 0.228066 0.783620 0.344555
Si Si2 0.947883 0.605973 0.799382
Si Si3 0.204667 0.862492 0.676136
Si Si4 0.536828 0.519245 0.313929
Si Si5 0.847234 0.751734 0.416453
Si Si6 0.101663 0.209375 0.929188
Si Si7 0.654077 0.856077 0.873992
Si Si8 0.517541 0.120084 0.787196
O O1 0.126088 0.622310 0.220155
O O2 0.181166 0.738495 0.524162
O O3 0.380774 0.803741 0.354151
O O4 0.249209 0.000877 0.262196
O O5 0.895389 0.695948 0.613259
O O6 0.898577 0.647022 0.952180
O O7 0.110175 0.720968 0.811985
O O8 0.159222 0.039450 0.609151
O O9 0.366293 0.968658 0.724800
O O10 0.500000 0.500000 0.500000
O O11 0.696919 0.594112 0.357193
O O12 0.460180 0.324047 0.221389
O O13 0.492694 0.683658 0.192096
O O14 0.930379 0.757820 0.275508
O O15 0.249464 0.205334 0.973673
O O16 0.000000 0.000000 0.000000
O O17 0.593195 0.995353 0.916670
#
# Coordination Sequence:
#
# PCOD9025640 Si02
#       8
#     2   2   2   2   2   2   2   2
#     4  10  22  40  70 106 149 191 246 301 379 445
#     4  12  25  45  76 110 149 199 249 316 374 448
#     4  11  21  40  66 108 147 188 249 305 371 448
#     4  11  21  41  74 112 148 194 251 310 377 448
#     4  11  26  43  77 111 141 200 256 300 384 452
#     4  12  26  50  75 104 153 200 254 312 375 453
#     4  10  24  43  72 103 150 195 243 314 372 441
#     4   9  22  38  69 108 145 193 251 302 376 450
#
# _framework density 26.578199000000001
#
# number of rings (size 3 to 8) (size 9 to 14) (size 15 to 20)
#    0.750    0.500    1.250    5.625    5.250    0.500 
#    0.000    4.375    0.000    0.000    0.000    0.000 
#    0.000    0.000    0.000    0.000    0.000    0.000 
#
# Total GULP energy -89677.303113 kJ/mol
# GULP energy per Si atom -5604.831445 kJ/mol
# Density = 2.651771 g / cm^3
# Si number density = 26.578199 Si / 1000 Ang^3
#
#
#
# Elastic Constant Matrix: (Units=GPa)
#
#
# Indices 1 2 3 4 5 6 
#
# 1 149.3869 43.4393 52.7660 3.6854 -7.1245 7.2662
# 2 43.4393 156.9707 41.1665 12.6636 2.8596 3.7091
# 3 52.7660 41.1665 136.6844 -7.4091 -13.4152 -18.0844
# 4 3.6854 12.6636 -7.4091 43.3638 -5.4271 -5.9305
# 5 -7.1245 2.8596 -13.4152 -5.4271 41.3631 5.8918
# 6 7.2662 3.7091 -18.0844 -5.9305 5.8918 39.3121
#
#
#
# Elastic Compliance Matrix: (Units=1/GPa)
#
#
# Indices 1 2 3 4 5 6 
#
# 1 0.008467 -0.001316 -0.003295 -0.001247 0.000782 -0.003262
# 2 -0.001316 0.007666 -0.002359 -0.002979 -0.001661 -0.001766
# 3 -0.003295 -0.002359 0.010552 0.003912 0.002695 0.005872
# 4 -0.001247 -0.002979 0.003912 0.025961 0.003862 0.005649
# 5 0.000782 -0.001661 0.002695 0.003862 0.026102 -0.002078
# 6 -0.003262 -0.001766 0.005872 0.005649 -0.002078 0.030072
#
#
# Mechanical properties :
#
#
# Convention : Reuss Voigt Hill
#
# Bulk Modulus (GPa) = 78.45682 79.75397 79.10539
# Shear Modulus (GPa) = 39.36787 45.18582 42.27684
#
# Velocity S-wave (km/s) = 3.85282 4.12771 3.99263
# Velocity P-wave (km/s) = 7.02678 7.26566 7.14722
#
# Compressibility (1/GPa) = 0.01274586
#
# Stress axis : x y z
#
# Youngs Moduli (GPa) = 118.10464 130.45132 94.76886
#
# Poissons Ratio (x) = 0.17163 0.31224
# Poissons Ratio (y) = 0.15539 0.22356
# Poissons Ratio (z) = 0.38913 0.30773
#
# Static dielectric constant tensor:
#      x y z
#    x 2.173810 -0.020130 0.006880 
#    y -0.020130 2.037820 -0.078310 
#    z 0.006880 -0.078310 2.110900 
# 
# From -- ./inp_files/239204.got.cif
#   From: 2010.05.17/outbox.cif.g08.bks.cpg/sg2_120_cif.got.tgz:239204.got - 2010.06.03 11:33:40.
