data_PCOD9025134
_publ_section_title
;
Structure prediction by ZEFSAII (Michael W. Deem and Ramdas Pophale) SiO2 
 PCOD9025134
Probable space group: P -1
;
_chemical_formula_sum "Si O2"
_cell_formula_units_Z 14
_cell_length_a 14.084796
_cell_length_b 8.742119
_cell_length_c 11.142375
_cell_angle_alpha 105.172932
_cell_angle_beta 150.282401
_cell_angle_gamma 83.430877
_cell_volume 637.872238
_symmetry_space_group_name_H-M "P -1"
_symmetry_group_IT_number 2
_symmetry_cell_setting 'triclinic'
loop_
_space_group_symop_operation_xyz
x,y,z
-x,-y,-z
loop_
_atom_site_type_symbol
_atom_site_label
_atom_site_fract_x
_atom_site_fract_y
_atom_site_fract_z
Si Si1 0.038773 0.718005 0.143616
Si Si2 0.967313 0.544030 0.274942
Si Si3 0.326003 0.751033 0.250848
Si Si4 0.321495 0.396528 0.709820
Si Si5 0.732070 0.698020 0.623824
Si Si6 0.063757 0.163552 0.525568
Si Si7 0.079536 0.938117 0.899702
O O1 0.061605 0.641340 0.280209
O O2 0.228756 0.741650 0.273329
O O3 0.969120 0.886438 0.122792
O O4 0.854945 0.621075 0.839637
O O5 0.126453 0.468938 0.505346
O O6 0.916538 0.681380 0.333522
O O7 0.798148 0.398246 0.000968
O O8 0.552288 0.748635 0.500589
O O9 0.276346 0.911412 0.171215
O O10 0.370866 0.399361 0.624381
O O11 0.262555 0.218920 0.673543
O O12 0.500000 0.500000 0.000000
O O13 0.904630 0.831443 0.771237
O O14 0.913957 0.129705 0.241847
O O15 0.000000 0.000000 0.500000
#
# Coordination Sequence:
#
# PCOD9025134 Si02
#       7
#     2   2   2   2   2   2   2
#     4  11  23  42  63  98 135 165 216 269 327 388
#     4  12  23  41  69  92 130 174 214 273 329 388
#     4  11  22  40  69  94 127 174 215 266 331 387
#     4  11  24  43  67  98 132 170 223 274 327 393
#     4  10  22  40  67  95 130 168 218 268 322 389
#     4  11  22  43  67  94 126 176 219 265 334 386
#     4  10  22  42  65  94 132 171 214 273 325 391
#
# _framework density 21.947969000000001
#
# number of rings (size 3 to 8) (size 9 to 14) (size 15 to 20)
#    0.000    1.143    5.714    3.429    2.000    2.857 
#    2.571    2.143    0.000    0.000    0.000    0.000 
#    0.000    0.000    0.000    0.000    0.000    0.000 
#
# Total GULP energy -78018.655653 kJ/mol
# GULP energy per Si atom -5572.761118 kJ/mol
# Density = 2.189801 g / cm^3
# Si number density = 21.947969 Si / 1000 Ang^3
#
#
#
# Elastic Constant Matrix: (Units=GPa)
#
#
# Indices 1 2 3 4 5 6 
#
# 1 125.0187 25.6678 34.8292 -19.1224 -18.3121 -0.3486
# 2 25.6678 85.3573 1.3780 -0.1465 -6.5521 13.4418
# 3 34.8292 1.3780 66.6464 -13.0734 -5.4186 14.6754
# 4 -19.1224 -0.1465 -13.0734 27.1472 -13.5770 -13.6078
# 5 -18.3121 -6.5521 -5.4186 -13.5770 42.6930 -8.1080
# 6 -0.3486 13.4418 14.6754 -13.6078 -8.1080 45.0082
#
#
#
# Elastic Compliance Matrix: (Units=1/GPa)
#
#
# Indices 1 2 3 4 5 6 
#
# 1 0.016810 -0.005886 -0.005740 0.023874 0.015796 0.013823
# 2 -0.005886 0.014476 0.002441 -0.009818 -0.004825 -0.009002
# 3 -0.005740 0.002441 0.019814 0.002112 -0.000159 -0.006624
# 4 0.023874 -0.009818 0.002112 0.099557 0.048499 0.041265
# 5 0.015796 -0.004825 -0.000159 0.048499 0.049651 0.025223
# 6 0.013823 -0.009002 -0.006624 0.041265 0.025223 0.044194
#
#
# Mechanical properties :
#
#
# Convention : Reuss Voigt Hill
#
# Bulk Modulus (GPa) = 30.55223 44.53027 37.54125
# Shear Modulus (GPa) = 18.26271 37.31285 27.78778
#
# Velocity S-wave (km/s) = 2.88773 4.12765 3.56206
# Velocity P-wave (km/s) = 5.00691 6.56123 5.83605
#
# Compressibility (1/GPa) = 0.03273083
#
# Stress axis : x y z
#
# Youngs Moduli (GPa) = 59.48768 69.07812 50.47039
#
# Poissons Ratio (x) = 0.40657 0.28968
# Poissons Ratio (y) = 0.35012 -0.12318
# Poissons Ratio (z) = 0.34144 -0.16859
#
# Static dielectric constant tensor:
#      x y z
#    x 1.853680 -0.047520 -0.041810 
#    y -0.047520 1.881990 0.067470 
#    z -0.041810 0.067470 1.829450 
# 
# From -- ./inp_files/447703.got.cif
#   From: 2010.05.17/outbox.cif.g08.bks.cpg/sg2_224_cif.got.tgz:447703.got - 2010.06.03 11:33:40.
