data_PCOD9025787
_publ_section_title
;
Structure prediction by ZEFSAII (Michael W. Deem and Ramdas Pophale) SiO2 
 PCOD9025787
Probable space group: P -1
;
_chemical_formula_sum "Si O2"
_cell_formula_units_Z 16
_cell_length_a 14.377532
_cell_length_b 9.671880
_cell_length_c 19.498509
_cell_angle_alpha 141.294226
_cell_angle_beta 158.454437
_cell_angle_gamma 37.094025
_cell_volume 591.437215
_symmetry_space_group_name_H-M "P -1"
_symmetry_group_IT_number 2
_symmetry_cell_setting 'triclinic'
loop_
_space_group_symop_operation_xyz
x,y,z
-x,-y,-z
loop_
_atom_site_type_symbol
_atom_site_label
_atom_site_fract_x
_atom_site_fract_y
_atom_site_fract_z
Si Si1 0.177842 0.214961 0.474620
Si Si2 0.690372 0.841608 0.197405
Si Si3 0.745388 0.457338 0.892120
Si Si4 0.230945 0.073084 0.064956
Si Si5 0.440506 0.609393 0.112259
Si Si6 0.967926 0.846558 0.246363
Si Si7 0.434118 0.258041 0.407049
Si Si8 0.816446 0.486264 0.533228
O O1 0.274060 0.365215 0.657275
O O2 0.122853 0.335933 0.410362
O O3 0.962097 0.095201 0.306716
O O4 0.445082 0.990052 0.566527
O O5 0.462446 0.037844 0.154910
O O6 0.805656 0.892054 0.223708
O O7 0.937592 0.746601 0.382198
O O8 0.570161 0.628393 0.020577
O O9 0.707209 0.377405 0.911768
O O10 0.942406 0.229237 0.902063
O O11 0.458864 0.535389 0.691226
O O12 0.853905 0.674312 0.058573
O O13 0.282273 0.819752 0.035777
O O14 0.285472 0.218935 0.222710
O O15 0.286669 0.712930 0.416476
O O16 0.244618 0.422173 0.395694
#
# Coordination Sequence:
#
# PCOD9025787 Si02
#       8
#     2   2   2   2   2   2   2   2
#     4   8  19  40  68 100 135 172 233 290 347 396
#     4  11  24  40  70 102 140 178 233 281 353 409
#     4  10  22  40  71  99 137 175 239 284 347 406
#     4  11  22  41  67 103 136 184 231 286 337 423
#     4   9  19  42  66  99 129 185 231 286 326 427
#     4   9  21  44  69  98 136 188 230 284 340 428
#     4   9  20  39  68  94 139 172 238 272 351 389
#     4  11  22  41  68 105 135 178 228 296 343 412
#
# _framework density 27.052745999999999
#
# number of rings (size 3 to 8) (size 9 to 14) (size 15 to 20)
#    0.750    1.500    0.000    2.625    0.000    6.000 
#    0.000   10.625    0.000    3.000    0.000    0.000 
#    0.000    0.000    0.000    0.000    0.000    0.000 
#
# Total GULP energy -89740.404415 kJ/mol
# GULP energy per Si atom -5608.775276 kJ/mol
# Density = 2.699117 g / cm^3
# Si number density = 27.052746 Si / 1000 Ang^3
#
#
#
# Elastic Constant Matrix: (Units=GPa)
#
#
# Indices 1 2 3 4 5 6 
#
# 1 170.4158 83.9903 44.1395 9.5821 22.9634 5.6747
# 2 83.9903 112.6107 65.3898 -5.1535 13.1227 20.0213
# 3 44.1395 65.3898 156.0672 -0.2004 13.3087 8.3163
# 4 9.5821 -5.1535 -0.2004 56.4546 4.8684 12.5418
# 5 22.9634 13.1227 13.3087 4.8684 25.2392 4.1226
# 6 5.6747 20.0213 8.3163 12.5418 4.1226 51.6294
#
#
#
# Elastic Compliance Matrix: (Units=1/GPa)
#
#
# Indices 1 2 3 4 5 6 
#
# 1 0.010622 -0.008423 0.000843 -0.002764 -0.005701 0.003090
# 2 -0.008423 0.019812 -0.005583 0.004738 0.000545 -0.007052
# 3 0.000843 -0.005583 0.008664 -0.000637 -0.002478 0.001029
# 4 -0.002764 0.004738 -0.000637 0.020192 -0.002506 -0.006136
# 5 -0.005701 0.000545 -0.002478 -0.002506 0.046691 -0.002305
# 6 0.003090 -0.007052 0.001029 -0.006136 -0.002305 0.023273
#
#
# Mechanical properties :
#
#
# Convention : Reuss Voigt Hill
#
# Bulk Modulus (GPa) = 78.30361 91.79254 85.04808
# Shear Modulus (GPa) = 31.28207 43.03625 37.15916
#
# Velocity S-wave (km/s) = 3.40418 3.99284 3.71021
# Velocity P-wave (km/s) = 6.66775 7.43382 7.06118
#
# Compressibility (1/GPa) = 0.01277080
#
# Stress axis : x y z
#
# Youngs Moduli (GPa) = 94.14684 50.47541 115.42107
#
# Poissons Ratio (x) = 0.42516 -0.09731
# Poissons Ratio (y) = 0.79302 0.64441
# Poissons Ratio (z) = -0.07937 0.28181
#
# Static dielectric constant tensor:
#      x y z
#    x 2.035710 0.025090 0.013700 
#    y 0.025090 2.163620 0.014920 
#    z 0.013700 0.014920 2.125490 
# 
# From -- ./inp_files/566994.got.cif
#   From: 2010.05.17/outbox.cif.g08.bks.cpg/sg2_284_cif.got.tgz:566994.got - 2010.06.03 11:33:40.
