data_PCOD9025297
_publ_section_title
;
Structure prediction by ZEFSAII (Michael W. Deem and Ramdas Pophale) SiO2 
 PCOD9025297
Probable space group: P -1
;
_chemical_formula_sum "Si O2"
_cell_formula_units_Z 14
_cell_length_a 8.164297
_cell_length_b 8.007488
_cell_length_c 15.619371
_cell_angle_alpha 88.016779
_cell_angle_beta 54.356044
_cell_angle_gamma 52.085811
_cell_volume 565.233466
_symmetry_space_group_name_H-M "P -1"
_symmetry_group_IT_number 2
_symmetry_cell_setting 'triclinic'
loop_
_space_group_symop_operation_xyz
x,y,z
-x,-y,-z
loop_
_atom_site_type_symbol
_atom_site_label
_atom_site_fract_x
_atom_site_fract_y
_atom_site_fract_z
Si Si1 0.992383 0.857213 0.437412
Si Si2 0.552483 0.340818 0.250475
Si Si3 0.837953 0.436655 0.928798
Si Si4 0.604850 0.849610 0.124447
Si Si5 0.540776 0.295423 0.447712
Si Si6 0.877984 0.705802 0.633935
Si Si7 0.329594 0.817333 0.959470
O O1 0.902212 0.763885 0.530241
O O2 0.324186 0.630463 0.308071
O O3 0.762437 0.039123 0.431632
O O4 0.000000 0.000000 0.500000
O O5 0.653003 0.264899 0.318190
O O6 0.355740 0.297666 0.296213
O O7 0.751024 0.210682 0.109387
O O8 0.679690 0.587874 0.886095
O O9 0.173005 0.281372 0.858019
O O10 0.659316 0.654306 0.052093
O O11 0.806130 0.253302 0.941349
O O12 0.270117 0.074240 0.257885
O O13 0.694559 0.964944 0.041490
O O14 0.500000 0.500000 0.500000
O O15 0.203290 0.440289 0.557794
#
# Coordination Sequence:
#
# PCOD9025297 Si02
#       7
#     2   2   2   2   2   2   2
#     4  11  21  37  62  85 122 153 199 248 295 355
#     4  10  23  39  58  90 125 156 202 248 299 372
#     4  10  22  40  68  90 122 164 206 256 312 366
#     4  10  22  41  63  92 127 158 207 255 310 363
#     4  11  21  37  60  87 120 161 199 248 299 355
#     4  10  23  39  58  90 125 156 202 248 299 372
#     4  10  22  41  63  92 127 158 207 255 310 363
#
# _framework density 24.768529000000001
#
# number of rings (size 3 to 8) (size 9 to 14) (size 15 to 20)
#    0.000    1.714    2.857    2.571    2.000    6.857 
#    0.000    7.143    0.000    0.000    0.000    0.000 
#    0.000    0.000    0.000    0.000    0.000    0.000 
#
# Total GULP energy -78102.739664 kJ/mol
# GULP energy per Si atom -5578.767119 kJ/mol
# Density = 2.471215 g / cm^3
# Si number density = 24.768529 Si / 1000 Ang^3
#
#
#
# Elastic Constant Matrix: (Units=GPa)
#
#
# Indices 1 2 3 4 5 6 
#
# 1 58.0763 5.0419 4.6788 -0.5379 10.4990 -0.8995
# 2 5.0419 111.0247 11.9196 12.8256 3.5352 -23.4615
# 3 4.6788 11.9196 100.9636 23.0623 13.7355 0.5153
# 4 -0.5379 12.8256 23.0623 38.8360 7.1889 7.1288
# 5 10.4990 3.5352 13.7355 7.1889 30.0919 -0.4541
# 6 -0.8995 -23.4615 0.5153 7.1288 -0.4541 49.8473
#
#
#
# Elastic Compliance Matrix: (Units=1/GPa)
#
#
# Indices 1 2 3 4 5 6 
#
# 1 0.018552 -0.000932 -0.000307 0.002076 -0.006726 -0.000459
# 2 -0.000932 0.010800 -0.000273 -0.004532 0.000350 0.005721
# 3 -0.000307 -0.000273 0.011925 -0.006414 -0.003762 0.000625
# 4 0.002076 -0.004532 -0.006414 0.033326 -0.005329 -0.006844
# 5 -0.006726 0.000350 -0.003762 -0.005329 0.038546 0.001196
# 6 -0.000459 0.005721 0.000625 -0.006844 0.001196 0.023729
#
#
# Mechanical properties :
#
#
# Convention : Reuss Voigt Hill
#
# Bulk Modulus (GPa) = 26.14195 34.81613 30.47904
# Shear Modulus (GPa) = 32.75400 40.31666 36.53533
#
# Velocity S-wave (km/s) = 3.64043 4.03890 3.84483
# Velocity P-wave (km/s) = 5.31486 5.98643 5.66062
#
# Compressibility (1/GPa) = 0.03825269
#
# Stress axis : x y z
#
# Youngs Moduli (GPa) = 53.90114 92.59300 83.85946
#
# Poissons Ratio (x) = 0.08632 0.02570
# Poissons Ratio (y) = 0.05025 0.02293
# Poissons Ratio (z) = 0.01652 0.02532
#
# Static dielectric constant tensor:
#      x y z
#    x 2.017760 -0.048550 -0.073020 
#    y -0.048550 1.996200 0.074060 
#    z -0.073020 0.074060 2.092500 
# 
# From -- ./inp_files/197682.got.cif
#   From: 2010.05.17/outbox.cif.g08.bks.cpg/sg2_99_cif.got.tgz:197682.got - 2010.06.03 11:33:40.
