data_PCOD9025558
_publ_section_title
;
Structure prediction by ZEFSAII (Michael W. Deem and Ramdas Pophale) SiO2 
 PCOD9025558
Probable space group: P -1
;
_chemical_formula_sum "Si O2"
_cell_formula_units_Z 16
_cell_length_a 11.744673
_cell_length_b 7.779463
_cell_length_c 8.610621
_cell_angle_alpha 109.175528
_cell_angle_beta 67.812367
_cell_angle_gamma 74.409095
_cell_volume 614.750484
_symmetry_space_group_name_H-M "P -1"
_symmetry_group_IT_number 2
_symmetry_cell_setting 'triclinic'
loop_
_space_group_symop_operation_xyz
x,y,z
-x,-y,-z
loop_
_atom_site_type_symbol
_atom_site_label
_atom_site_fract_x
_atom_site_fract_y
_atom_site_fract_z
Si Si1 0.819632 0.965974 0.964860
Si Si2 0.706667 0.946192 0.468190
Si Si3 0.645828 0.348284 0.443309
Si Si4 0.946291 0.512844 0.702557
Si Si5 0.310142 0.523101 0.208193
Si Si6 0.184797 0.497179 0.793081
Si Si7 0.018989 0.132610 0.817892
Si Si8 0.408657 0.832079 0.095416
O O1 0.837576 0.742744 0.860337
O O2 0.668052 0.102208 0.012371
O O3 0.883173 0.944791 0.100252
O O4 0.928012 0.012718 0.821539
O O5 0.710886 0.743724 0.323301
O O6 0.866679 0.910119 0.384463
O O7 0.640640 0.144278 0.448924
O O8 0.640324 0.998491 0.690322
O O9 0.500000 0.500000 0.500000
O O10 0.680908 0.442261 0.604251
O O11 0.747802 0.362134 0.263291
O O12 0.849365 0.402247 0.723217
O O13 0.000000 0.500000 0.500000
O O14 0.076860 0.486046 0.726078
O O15 0.358217 0.670640 0.137582
O O16 0.426796 0.294366 0.042555
O O17 0.086541 0.631064 0.022060
#
# Coordination Sequence:
#
# PCOD9025558 Si02
#       8
#     2   2   2   2   2   2   2   2
#     4  10  22  40  69  97 136 184 230 285 357 415
#     4  11  24  46  69 104 136 185 238 284 352 418
#     4  11  25  45  73 100 145 188 228 293 351 423
#     4  11  21  40  67 104 137 175 231 299 349 412
#     4  10  24  44  65 100 144 178 237 290 350 412
#     4  11  24  45  69 105 139 178 238 292 351 418
#     4  10  23  41  67 103 142 179 231 286 357 422
#     4  10  24  43  67 100 134 188 234 285 346 422
#
# _framework density 26.026821999999999
#
# number of rings (size 3 to 8) (size 9 to 14) (size 15 to 20)
#    0.000    1.500    1.250    3.375    7.000    1.500 
#    0.000    0.000    0.000    0.000    0.000    0.000 
#    0.000    0.000    0.000    0.000    0.000    0.000 
#
# Total GULP energy -89389.315795 kJ/mol
# GULP energy per Si atom -5586.832237 kJ/mol
# Density = 2.596758 g / cm^3
# Si number density = 26.026822 Si / 1000 Ang^3
#
#
#
# Elastic Constant Matrix: (Units=GPa)
#
#
# Indices 1 2 3 4 5 6 
#
# 1 82.0195 27.6878 -9.6829 -11.2919 -6.9101 -16.7430
# 2 27.6878 90.8037 25.2460 20.9047 8.5121 -6.1498
# 3 -9.6829 25.2460 47.2814 9.0605 -2.9010 -18.0108
# 4 -11.2919 20.9047 9.0605 37.3805 -1.4910 1.6115
# 5 -6.9101 8.5121 -2.9010 -1.4910 31.8156 -6.8541
# 6 -16.7430 -6.1498 -18.0108 1.6115 -6.8541 42.2075
#
#
#
# Elastic Compliance Matrix: (Units=1/GPa)
#
#
# Indices 1 2 3 4 5 6 
#
# 1 0.028302 -0.018012 0.021706 0.013203 0.017931 0.020273
# 2 -0.018012 0.026576 -0.021599 -0.015109 -0.016856 -0.014650
# 3 0.021706 -0.021599 0.048388 0.006501 0.021535 0.029360
# 4 0.013203 -0.015109 0.006501 0.037774 0.010584 0.006086
# 5 0.017931 -0.016856 0.021535 0.010584 0.046829 0.021047
# 6 0.020273 -0.014650 0.029360 0.006086 0.021047 0.045314
#
#
# Mechanical properties :
#
#
# Convention : Reuss Voigt Hill
#
# Bulk Modulus (GPa) = 14.82425 34.06738 24.44581
# Shear Modulus (GPa) = 17.15396 34.07097 25.61247
#
# Velocity S-wave (km/s) = 2.57006 3.62203 3.14041
# Velocity P-wave (km/s) = 3.80986 5.53262 4.75000
#
# Compressibility (1/GPa) = 0.06745704
#
# Stress axis : x y z
#
# Youngs Moduli (GPa) = 35.33321 37.62725 20.66644
#
# Poissons Ratio (x) = 0.67775 -0.44859
# Poissons Ratio (y) = 0.63643 0.44637
# Poissons Ratio (z) = -0.76695 0.81270
#
# Static dielectric constant tensor:
#      x y z
#    x 1.931830 -0.020050 -0.031310 
#    y -0.020050 2.245810 0.041590 
#    z -0.031310 0.041590 2.145910 
# 
# From -- ./inp_files/244991.got.cif
#   From: 2010.05.17/outbox.cif.g08.bks.cpg/sg2_123_cif.got.tgz:244991.got - 2010.06.03 11:33:40.
