data_PCOD9025528
_publ_section_title
;
Structure prediction by ZEFSAII (Michael W. Deem and Ramdas Pophale) SiO2 
 PCOD9025528
Probable space group: P -1
;
_chemical_formula_sum "Si O2"
_cell_formula_units_Z 16
_cell_length_a 11.491980
_cell_length_b 8.568063
_cell_length_c 21.469836
_cell_angle_alpha 138.515145
_cell_angle_beta 41.718334
_cell_angle_gamma 106.942805
_cell_volume 740.300021
_symmetry_space_group_name_H-M "P -1"
_symmetry_group_IT_number 2
_symmetry_cell_setting 'triclinic'
loop_
_space_group_symop_operation_xyz
x,y,z
-x,-y,-z
loop_
_atom_site_type_symbol
_atom_site_label
_atom_site_fract_x
_atom_site_fract_y
_atom_site_fract_z
Si Si1 0.320371 0.640388 0.766040
Si Si2 0.252105 0.844768 0.332993
Si Si3 0.907621 0.708793 0.906776
Si Si4 0.955987 0.875247 0.274896
Si Si5 0.183853 0.144654 0.323787
Si Si6 0.411791 0.202916 0.035007
Si Si7 0.553693 0.126601 0.608113
Si Si8 0.376161 0.742062 0.567755
O O1 0.364354 0.449274 0.752283
O O2 0.543953 0.466691 0.586982
O O3 0.144940 0.641035 0.794490
O O4 0.241989 0.962510 0.908354
O O5 0.369412 0.841371 0.346929
O O6 0.246460 0.039796 0.338531
O O7 0.366944 0.513022 0.161870
O O8 0.000000 0.000000 0.500000
O O9 0.904505 0.478694 0.882036
O O10 0.816829 0.709462 0.875832
O O11 0.752182 0.975447 0.433025
O O12 0.878060 0.007280 0.275582
O O13 0.077088 0.993792 0.293504
O O14 0.000000 0.500000 0.500000
O O15 0.403511 0.997880 0.151316
O O16 0.500000 0.000000 0.000000
O O17 0.468722 0.931212 0.587968
O O18 0.500000 0.500000 0.500000
#
# Coordination Sequence:
#
# PCOD9025528 Si02
#       8
#     2   2   2   2   2   2   2   2
#     4  10  22  40  69  95 125 179 224 273 342 400
#     4  12  24  43  70 101 136 181 227 281 345 407
#     4  11  21  41  71  93 130 171 228 280 339 405
#     4  11  22  45  69  92 133 179 229 279 339 409
#     4  12  28  45  69 100 137 183 232 286 346 410
#     4  12  27  45  68 102 139 181 227 283 346 414
#     4  11  21  43  68  96 132 177 228 272 340 414
#     4  11  24  40  64  99 131 175 224 281 330 403
#
# _framework density 21.612859
#
# number of rings (size 3 to 8) (size 9 to 14) (size 15 to 20)
#    0.000    0.750    5.000    2.625    5.250    1.000 
#    0.000    0.625    0.000    0.000    0.000    0.000 
#    0.000    0.000    0.000    0.000    0.000    0.000 
#
# Total GULP energy -89363.121208 kJ/mol
# GULP energy per Si atom -5585.195076 kJ/mol
# Density = 2.156367 g / cm^3
# Si number density = 21.612859 Si / 1000 Ang^3
#
#
#
# Elastic Constant Matrix: (Units=GPa)
#
#
# Indices 1 2 3 4 5 6 
#
# 1 125.3678 33.1625 10.8096 17.5291 -2.1508 -26.2037
# 2 33.1625 110.1168 42.1803 32.3053 -4.9491 -36.7730
# 3 10.8096 42.1803 110.5732 34.6802 7.8353 -12.3588
# 4 17.5291 32.3053 34.6802 52.1327 0.8381 -2.4506
# 5 -2.1508 -4.9491 7.8353 0.8381 25.7067 6.1789
# 6 -26.2037 -36.7730 -12.3588 -2.4506 6.1789 51.4839
#
#
#
# Elastic Compliance Matrix: (Units=1/GPa)
#
#
# Indices 1 2 3 4 5 6 
#
# 1 0.009446 -0.000888 0.000880 -0.002999 -0.000588 0.004312
# 2 -0.000888 0.015819 -0.002709 -0.007276 0.001716 0.009644
# 3 0.000880 -0.002709 0.012669 -0.006889 -0.004510 0.001767
# 4 -0.002999 -0.007276 -0.006889 0.028926 0.001223 -0.007147
# 5 -0.000588 0.001716 -0.004510 0.001223 0.041744 -0.005108
# 6 0.004312 0.009644 0.001767 -0.007147 -0.005108 0.029204
#
#
# Mechanical properties :
#
#
# Convention : Reuss Voigt Hill
#
# Bulk Modulus (GPa) = 30.77119 57.59585 44.18352
# Shear Modulus (GPa) = 32.45143 43.19167 37.82155
#
# Velocity S-wave (km/s) = 3.87911 4.47522 4.18779
# Velocity P-wave (km/s) = 5.85932 7.30823 6.62351
#
# Compressibility (1/GPa) = 0.03249793
#
# Stress axis : x y z
#
# Youngs Moduli (GPa) = 105.86279 63.21595 78.93237
#
# Poissons Ratio (x) = 0.05616 -0.06942
# Poissons Ratio (y) = 0.09404 0.21385
# Poissons Ratio (z) = -0.09311 0.17127
#
# Static dielectric constant tensor:
#      x y z
#    x 1.808850 -0.024180 -0.062770 
#    y -0.024180 1.800890 0.012250 
#    z -0.062770 0.012250 1.823880 
# 
# From -- ./inp_files/594256.got.cif
#   From: 2010.05.17/outbox.cif.g08.bks.cpg/sg2_298_cif.got.tgz:594256.got - 2010.06.03 11:33:40.
