data_PCOD9025752
_publ_section_title
;
Structure prediction by ZEFSAII (Michael W. Deem and Ramdas Pophale) SiO2 
 PCOD9025752
Probable space group: P -1
;
_chemical_formula_sum "Si O2"
_cell_formula_units_Z 16
_cell_length_a 5.562416
_cell_length_b 8.740748
_cell_length_c 19.307674
_cell_angle_alpha 128.722493
_cell_angle_beta 118.192418
_cell_angle_gamma 71.517014
_cell_volume 645.184017
_symmetry_space_group_name_H-M "P -1"
_symmetry_group_IT_number 2
_symmetry_cell_setting 'triclinic'
loop_
_space_group_symop_operation_xyz
x,y,z
-x,-y,-z
loop_
_atom_site_type_symbol
_atom_site_label
_atom_site_fract_x
_atom_site_fract_y
_atom_site_fract_z
Si Si1 0.500044 0.382732 0.293724
Si Si2 0.235721 0.012454 0.126753
Si Si3 0.961769 0.584060 0.666207
Si Si4 0.279291 0.391017 0.984655
Si Si5 0.230385 0.722616 0.551302
Si Si6 0.336343 0.052610 0.422195
Si Si7 0.074699 0.941157 0.224106
Si Si8 0.681242 0.178363 0.055778
O O1 0.445966 0.180707 0.189727
O O2 0.212711 0.472772 0.306263
O O3 0.632505 0.323621 0.369246
O O4 0.723995 0.491717 0.311774
O O5 0.280386 0.914497 0.179328
O O6 0.951130 0.141158 0.125536
O O7 0.217110 0.857877 0.019720
O O8 0.826755 0.476784 0.553111
O O9 0.962441 0.818364 0.715429
O O10 0.500000 0.500000 0.000000
O O11 0.456718 0.350189 0.067245
O O12 0.174729 0.195232 0.873262
O O13 0.000000 0.500000 0.000000
O O14 0.438456 0.841156 0.565122
O O15 0.936642 0.828712 0.555001
O O16 0.500000 0.000000 0.500000
O O17 0.204200 0.900036 0.305387
O O18 0.500000 0.000000 0.000000
#
# Coordination Sequence:
#
# PCOD9025752 Si02
#       8
#     2   2   2   2   2   2   2   2
#     4  11  20  36  62 105 134 177 219 286 367 430
#     4  10  22  40  71 109 143 183 243 312 368 446
#     4  11  22  37  70 105 135 173 239 301 359 429
#     4  12  28  49  76 106 150 200 247 304 380 468
#     4  12  22  42  68 104 141 178 242 301 360 424
#     4  12  27  45  71 100 149 201 247 293 359 452
#     4  11  23  48  73 102 139 200 242 300 384 442
#     4  11  23  42  76 110 145 182 250 318 373 432
#
# _framework density 24.799126000000001
#
# number of rings (size 3 to 8) (size 9 to 14) (size 15 to 20)
#    0.000    0.750    5.000    3.375    3.500    2.000 
#    0.000    6.250    0.000    0.000    0.000    0.000 
#    0.000    0.000    0.000    0.000    0.000    0.000 
#
# Total GULP energy -89241.040643 kJ/mol
# GULP energy per Si atom -5577.565040 kJ/mol
# Density = 2.474268 g / cm^3
# Si number density = 24.799126 Si / 1000 Ang^3
#
#
#
# Elastic Constant Matrix: (Units=GPa)
#
#
# Indices 1 2 3 4 5 6 
#
# 1 196.4140 35.7332 19.2688 -0.5002 5.1388 -10.6277
# 2 35.7332 60.7793 18.0138 -17.0943 -2.8346 -11.1029
# 3 19.2688 18.0138 139.5170 -7.1716 3.6250 -1.5548
# 4 -0.5002 -17.0943 -7.1716 33.6502 7.6847 4.8891
# 5 5.1388 -2.8346 3.6250 7.6847 49.6732 -0.7601
# 6 -10.6277 -11.1029 -1.5548 4.8891 -0.7601 37.4808
#
#
#
# Elastic Compliance Matrix: (Units=1/GPa)
#
#
# Indices 1 2 3 4 5 6 
#
# 1 0.005861 -0.003743 -0.000403 -0.001902 -0.000484 0.000775
# 2 -0.003743 0.022965 -0.001866 0.010526 0.000271 0.004297
# 3 -0.000403 -0.001866 0.007524 0.000894 -0.000760 -0.000487
# 4 -0.001902 0.010526 0.000894 0.036694 -0.004979 -0.002271
# 5 -0.000484 0.000271 -0.000760 -0.004979 0.021038 0.000988
# 6 0.000775 0.004297 -0.000487 -0.002271 0.000988 0.028469
#
#
# Mechanical properties :
#
#
# Convention : Reuss Voigt Hill
#
# Bulk Modulus (GPa) = 41.10656 60.30465 50.70560
# Shear Modulus (GPa) = 35.04243 45.74047 40.39145
#
# Velocity S-wave (km/s) = 3.76313 4.29935 4.04015
# Velocity P-wave (km/s) = 5.95763 7.00114 6.50036
#
# Compressibility (1/GPa) = 0.02432702
#
# Stress axis : x y z
#
# Youngs Moduli (GPa) = 170.60617 43.54540 132.90029
#
# Poissons Ratio (x) = 0.16297 0.05354
# Poissons Ratio (y) = 0.63851 0.24803
# Poissons Ratio (z) = 0.06873 0.08127
#
# Static dielectric constant tensor:
#      x y z
#    x 1.718510 1.982450 -2.139620 
#    y 1.982450 -9.117400 11.542400 
#    z -2.139620 11.542400 -9.881960 
# 
# From -- ./inp_files/582626.got.cif
#   From: 2010.05.17/outbox.cif.g08.bks.cpg/sg2_292_cif.got.tgz:582626.got - 2010.06.03 11:33:40.
