data_PCOD9025123
_publ_section_title
;
Structure prediction by ZEFSAII (Michael W. Deem and Ramdas Pophale) SiO2 
 PCOD9025123
Probable space group: P -1
;
_chemical_formula_sum "Si O2"
_cell_formula_units_Z 14
_cell_length_a 21.808059
_cell_length_b 6.827577
_cell_length_c 9.626127
_cell_angle_alpha 131.844138
_cell_angle_beta 43.634012
_cell_angle_gamma 134.811962
_cell_volume 664.581835
_symmetry_space_group_name_H-M "P -1"
_symmetry_group_IT_number 2
_symmetry_cell_setting 'triclinic'
loop_
_space_group_symop_operation_xyz
x,y,z
-x,-y,-z
loop_
_atom_site_type_symbol
_atom_site_label
_atom_site_fract_x
_atom_site_fract_y
_atom_site_fract_z
Si Si1 0.192680 0.195486 0.977410
Si Si2 0.846234 0.277222 0.643365
Si Si3 0.524033 0.457426 0.098337
Si Si4 0.404038 0.264110 0.624593
Si Si5 0.087394 0.900503 0.283084
Si Si6 0.357050 0.910573 0.272015
Si Si7 0.039991 0.754254 0.823000
O O1 0.150838 0.437567 0.149381
O O2 0.164947 0.089535 0.130470
O O3 0.308080 0.329941 0.816344
O O4 0.134559 0.915627 0.843136
O O5 0.856728 0.080194 0.655025
O O6 0.928267 0.313420 0.412020
O O7 0.747078 0.165557 0.662893
O O8 0.561108 0.733638 0.272809
O O9 0.431655 0.193688 0.197673
O O10 0.500000 0.500000 0.000000
O O11 0.608160 0.343529 0.915395
O O12 0.500000 0.500000 0.500000
O O13 0.367364 0.985619 0.454006
O O14 0.035974 0.565646 0.154948
O O15 0.000000 0.000000 0.500000
O O16 0.000000 0.000000 0.000000
#
# Coordination Sequence:
#
# PCOD9025123 Si02
#       7
#     2   2   2   2   2   2   2
#     4  12  24  44  70 100 139 181 230 286 345 411
#     4  12  24  43  69  99 138 182 230 279 352 410
#     4  10  22  40  67  94 133 172 222 279 341 398
#     4  10  22  43  67  99 137 176 224 279 341 410
#     4  12  26  44  70 104 142 179 235 293 342 411
#     4  10  22  41  64  95 132 177 220 278 336 412
#     4  12  24  46  70  98 141 187 225 284 354 412
#
# _framework density 21.065878000000001
#
# number of rings (size 3 to 8) (size 9 to 14) (size 15 to 20)
#    0.000    0.857    5.714    1.714    2.000    0.571 
#    0.000    4.286    0.000    0.000    0.000    0.000 
#    0.000    0.000    0.000    0.000    0.000    0.000 
#
# Total GULP energy -78114.743534 kJ/mol
# GULP energy per Si atom -5579.624538 kJ/mol
# Density = 2.101793 g / cm^3
# Si number density = 21.065878 Si / 1000 Ang^3
#
#
#
# Elastic Constant Matrix: (Units=GPa)
#
#
# Indices 1 2 3 4 5 6 
#
# 1 130.0126 38.2442 28.3968 -8.1615 20.1339 9.3746
# 2 38.2442 52.1800 37.3734 0.2880 -11.5649 -1.7322
# 3 28.3968 37.3734 105.6174 -7.5821 2.8152 11.6846
# 4 -8.1615 0.2880 -7.5821 36.6892 8.3336 8.3186
# 5 20.1339 -11.5649 2.8152 8.3336 53.7916 -4.2915
# 6 9.3746 -1.7322 11.6846 8.3186 -4.2915 33.4714
#
#
#
# Elastic Compliance Matrix: (Units=1/GPa)
#
#
# Indices 1 2 3 4 5 6 
#
# 1 0.014843 -0.016726 0.004028 0.009216 -0.011605 -0.010207
# 2 -0.016726 0.049243 -0.016993 -0.017216 0.022021 0.020267
# 3 0.004028 -0.016993 0.016468 0.008805 -0.008265 -0.011004
# 4 0.009216 -0.017216 0.008805 0.038791 -0.015067 -0.018118
# 5 -0.011605 0.022021 -0.008265 -0.015067 0.031638 0.015076
# 6 -0.010207 0.020267 -0.011004 -0.018118 0.015076 0.044061
#
#
# Mechanical properties :
#
#
# Convention : Reuss Voigt Hill
#
# Bulk Modulus (GPa) = 47.23126 55.09318 51.16222
# Shear Modulus (GPa) = 19.12171 37.04348 28.08259
#
# Velocity S-wave (km/s) = 3.01609 4.19795 3.65510
# Velocity P-wave (km/s) = 5.88205 7.05029 6.49250
#
# Compressibility (1/GPa) = 0.02117242
#
# Stress axis : x y z
#
# Youngs Moduli (GPa) = 67.36977 20.30766 60.72365
#
# Poissons Ratio (x) = 0.33966 -0.24458
# Poissons Ratio (y) = 1.12681 1.03187
# Poissons Ratio (z) = -0.27135 0.34508
#
# Static dielectric constant tensor:
#      x y z
#    x 1.799740 0.043010 0.008010 
#    y 0.043010 1.781680 0.018240 
#    z 0.008010 0.018240 1.788910 
# 
# From -- ./inp_files/52303.got.cif
#   From: 2010.05.17/outbox.cif.g08.bks.cpg/sg2_27_cif.got.tgz:52303.got - 2010.06.03 11:33:40.
