data_PCOD9025381
_publ_section_title
;
Structure prediction by ZEFSAII (Michael W. Deem and Ramdas Pophale) SiO2 
 PCOD9025381
Probable space group: P -1
;
_chemical_formula_sum "Si O2"
_cell_formula_units_Z 16
_cell_length_a 12.056671
_cell_length_b 19.450637
_cell_length_c 8.174607
_cell_angle_alpha 49.139649
_cell_angle_beta 48.060780
_cell_angle_gamma 28.730578
_cell_volume 672.893147
_symmetry_space_group_name_H-M "P -1"
_symmetry_group_IT_number 2
_symmetry_cell_setting 'triclinic'
loop_
_space_group_symop_operation_xyz
x,y,z
-x,-y,-z
loop_
_atom_site_type_symbol
_atom_site_label
_atom_site_fract_x
_atom_site_fract_y
_atom_site_fract_z
Si Si1 0.151910 0.237343 0.455561
Si Si2 0.284142 0.805125 0.777019
Si Si3 0.699771 0.524315 0.331880
Si Si4 0.368776 0.281291 0.665209
Si Si5 0.818992 0.970622 0.852492
Si Si6 0.998663 0.686751 0.144107
Si Si7 0.496681 0.448582 0.844542
Si Si8 0.307439 0.959550 0.753451
O O1 0.023562 0.311506 0.641435
O O2 0.407116 0.163215 0.336726
O O3 0.976530 0.363182 0.299244
O O4 0.197752 0.109054 0.575386
O O5 0.540290 0.702153 0.602896
O O6 0.234111 0.913204 0.778558
O O7 0.084168 0.886834 0.707714
O O8 0.303634 0.702639 0.019201
O O9 0.675796 0.631362 0.276102
O O10 0.576118 0.505246 0.596360
O O11 0.578368 0.578823 0.191243
O O12 0.138684 0.332737 0.768124
O O13 0.600711 0.108900 0.744084
O O14 0.851419 0.847613 0.993216
O O15 0.761724 0.020638 0.020672
O O16 0.265732 0.570447 0.995960
#
# Coordination Sequence:
#
# PCOD9025381 Si02
#       8
#     2   2   2   2   2   2   2   2
#     4  10  22  42  66  99 133 174 214 272 327 385
#     4  12  24  44  70  98 135 174 223 270 326 398
#     4  11  26  45  68  98 133 171 224 273 330 394
#     4  12  26  42  68 101 133 176 223 269 325 398
#     4  11  25  43  67  98 136 175 219 274 329 383
#     4  11  24  44  68  98 136 174 216 274 328 394
#     4  11  26  45  68 100 131 175 217 277 334 385
#     4  10  22  40  68  97 131 174 219 266 327 390
#
# _framework density 23.777920000000002
#
# number of rings (size 3 to 8) (size 9 to 14) (size 15 to 20)
#    0.000    1.000    1.250    4.875    3.500    6.000 
#    0.000    0.000    0.000    0.000    0.000    0.000 
#    0.000    0.000    0.000    0.000    0.000    0.000 
#
# Total GULP energy -89683.108116 kJ/mol
# GULP energy per Si atom -5605.194257 kJ/mol
# Density = 2.372380 g / cm^3
# Si number density = 23.777920 Si / 1000 Ang^3
#
#
#
# Elastic Constant Matrix: (Units=GPa)
#
#
# Indices 1 2 3 4 5 6 
#
# 1 106.6654 25.7517 12.3810 -4.6185 -19.5973 12.0428
# 2 25.7517 64.5150 7.3745 8.4499 2.5322 -6.9568
# 3 12.3810 7.3745 43.3638 2.1727 -0.4185 -3.6406
# 4 -4.6185 8.4499 2.1727 37.6252 -11.2677 4.1372
# 5 -19.5973 2.5322 -0.4185 -11.2677 27.4741 -7.3632
# 6 12.0428 -6.9568 -3.6406 4.1372 -7.3632 43.2666
#
#
#
# Elastic Compliance Matrix: (Units=1/GPa)
#
#
# Indices 1 2 3 4 5 6 
#
# 1 0.014967 -0.007632 -0.003610 0.008294 0.013607 -0.004174
# 2 -0.007632 0.020672 -0.000596 -0.008989 -0.009815 0.004587
# 3 -0.003610 -0.000596 0.024544 -0.002796 -0.002540 0.002809
# 4 0.008294 -0.008989 -0.002796 0.036368 0.020553 -0.003969
# 5 0.013607 -0.009815 -0.002540 0.020553 0.055928 0.001973
# 6 -0.004174 0.004587 0.002809 -0.003969 0.001973 0.025964
#
#
# Mechanical properties :
#
#
# Convention : Reuss Voigt Hill
#
# Bulk Modulus (GPa) = 27.39151 33.95095 30.67123
# Shear Modulus (GPa) = 23.33310 32.94231 28.13770
#
# Velocity S-wave (km/s) = 3.13596 3.72616 3.44372
# Velocity P-wave (km/s) = 4.96559 5.72902 5.36091
#
# Compressibility (1/GPa) = 0.03650767
#
# Stress axis : x y z
#
# Youngs Moduli (GPa) = 66.81305 48.37468 40.74285
#
# Poissons Ratio (x) = 0.36920 0.14709
# Poissons Ratio (y) = 0.50992 0.02427
# Poissons Ratio (z) = 0.24120 0.02881
#
# Static dielectric constant tensor:
#      x y z
#    x 1.857080 -0.023340 -0.010270 
#    y -0.023340 1.891090 0.012680 
#    z -0.010270 0.012680 1.915930 
# 
# From -- ./inp_files/263448.got.cif
#   From: 2010.05.17/outbox.cif.g08.bks.cpg/sg2_132_cif.got.tgz:263448.got - 2010.06.03 11:33:40.
