data_PCOD9025021
_publ_section_title
;
Structure prediction by ZEFSAII (Michael W. Deem and Ramdas Pophale) SiO2 
 PCOD9025021
Probable space group: P -1
;
_chemical_formula_sum "Si O2"
_cell_formula_units_Z 16
_cell_length_a 5.384113
_cell_length_b 12.091144
_cell_length_c 10.970230
_cell_angle_alpha 109.723503
_cell_angle_beta 87.023928
_cell_angle_gamma 66.872103
_cell_volume 604.034172
_symmetry_space_group_name_H-M "P -1"
_symmetry_group_IT_number 2
_symmetry_cell_setting 'triclinic'
loop_
_space_group_symop_operation_xyz
x,y,z
-x,-y,-z
loop_
_atom_site_type_symbol
_atom_site_label
_atom_site_fract_x
_atom_site_fract_y
_atom_site_fract_z
Si Si1 0.735332 0.066327 0.621336
Si Si2 0.855636 0.453785 0.089734
Si Si3 0.240690 0.315496 0.672623
Si Si4 0.561402 0.623199 0.533946
Si Si5 0.736746 0.734525 0.797392
Si Si6 0.036722 0.833733 0.651581
Si Si7 0.902803 0.244575 0.850769
Si Si8 0.220375 0.992125 0.887868
O O1 0.454563 0.163152 0.602881
O O2 0.764472 0.161750 0.758968
O O3 0.752342 0.937521 0.639913
O O4 0.000000 0.000000 0.500000
O O5 0.108309 0.360261 0.133462
O O6 0.671528 0.582361 0.219840
O O7 0.736178 0.361421 0.993464
O O8 0.000000 0.500000 0.000000
O O9 0.199077 0.376266 0.560588
O O10 0.008636 0.305054 0.760161
O O11 0.500000 0.500000 0.500000
O O12 0.604200 0.668444 0.683274
O O13 0.277225 0.734220 0.524351
O O14 0.974466 0.749933 0.721286
O O15 0.516575 0.883538 0.886918
O O16 0.161290 0.920858 0.747134
O O17 0.148962 0.135155 0.887469
O O18 0.000000 0.000000 0.000000
#
# Coordination Sequence:
#
# PCOD9025021 Si02
#       8
#     2   2   2   2   2   2   2   2
#     4  11  23  41  68 100 136 179 220 278 341 392
#     4  10  24  44  64  97 131 177 232 273 338 404
#     4  11  24  43  68  97 139 181 229 281 334 411
#     4  11  25  41  65 100 133 175 232 280 332 404
#     4  11  24  44  70  93 137 182 220 285 344 399
#     4  10  22  41  62 101 133 169 228 270 337 404
#     4  10  24  43  67 102 138 177 226 281 340 408
#     4  10  22  40  67 101 133 172 225 280 330 404
#
# _framework density 26.488567
#
# number of rings (size 3 to 8) (size 9 to 14) (size 15 to 20)
#    0.000    1.500    1.250    2.250    1.750   12.000 
#    0.000    0.000    0.000    0.000    0.000    0.000 
#    0.000    0.000    0.000    0.000    0.000    0.000 
#
# Total GULP energy -89445.341439 kJ/mol
# GULP energy per Si atom -5590.333840 kJ/mol
# Density = 2.642828 g / cm^3
# Si number density = 26.488567 Si / 1000 Ang^3
#
#
#
# Elastic Constant Matrix: (Units=GPa)
#
#
# Indices 1 2 3 4 5 6 
#
# 1 52.3191 23.0859 16.5772 1.1484 -1.6328 1.1119
# 2 23.0859 166.4189 53.5149 -7.3040 7.0761 3.0245
# 3 16.5772 53.5149 120.8805 10.6742 12.6039 -5.5651
# 4 1.1484 -7.3040 10.6742 56.8899 8.6195 -10.6463
# 5 -1.6328 7.0761 12.6039 8.6195 43.2639 3.5475
# 6 1.1119 3.0245 -5.5651 -10.6463 3.5475 34.5759
#
#
#
# Elastic Compliance Matrix: (Units=1/GPa)
#
#
# Indices 1 2 3 4 5 6 
#
# 1 0.020902 -0.002354 -0.002017 -0.000894 0.002044 -0.001276
# 2 -0.002354 0.007426 -0.003056 0.001583 -0.000687 -0.000508
# 3 -0.002017 -0.003056 0.010378 -0.001603 -0.002424 0.001758
# 4 -0.000894 0.001583 -0.001603 0.019913 -0.004302 0.006205
# 5 0.002044 -0.000687 -0.002424 -0.004302 0.025220 -0.004308
# 6 -0.001276 -0.000508 0.001758 0.006205 -0.004308 0.031643
#
#
# Mechanical properties :
#
#
# Convention : Reuss Voigt Hill
#
# Bulk Modulus (GPa) = 41.92777 58.44162 50.18469
# Shear Modulus (GPa) = 36.15671 43.37529 39.76600
#
# Velocity S-wave (km/s) = 3.69859 4.05101 3.87880
# Velocity P-wave (km/s) = 5.83973 6.63263 6.24876
#
# Compressibility (1/GPa) = 0.02385054
#
# Stress axis : x y z
#
# Youngs Moduli (GPa) = 47.84267 134.65746 96.36112
#
# Poissons Ratio (x) = 0.31696 0.19439
# Poissons Ratio (y) = 0.11261 0.29452
# Poissons Ratio (z) = 0.09651 0.41158
#
# Static dielectric constant tensor:
#      x y z
#    x 2.153350 -0.096040 0.051140 
#    y -0.096040 2.120460 -0.020980 
#    z 0.051140 -0.020980 2.145020 
# 
# From -- ./inp_files/365022.got.cif
#   From: 2010.05.17/outbox.cif.g08.bks.cpg/sg2_183_cif.got.tgz:365022.got - 2010.06.03 11:33:40.
