data_PCOD9025772
_publ_section_title
;
Structure prediction by ZEFSAII (Michael W. Deem and Ramdas Pophale) SiO2 
 PCOD9025772
Probable space group: P -1
;
_chemical_formula_sum "Si O2"
_cell_formula_units_Z 16
_cell_length_a 18.071381
_cell_length_b 7.535756
_cell_length_c 17.990256
_cell_angle_alpha 123.709553
_cell_angle_beta 23.268057
_cell_angle_gamma 133.267547
_cell_volume 680.557760
_symmetry_space_group_name_H-M "P -1"
_symmetry_group_IT_number 2
_symmetry_cell_setting 'triclinic'
loop_
_space_group_symop_operation_xyz
x,y,z
-x,-y,-z
loop_
_atom_site_type_symbol
_atom_site_label
_atom_site_fract_x
_atom_site_fract_y
_atom_site_fract_z
Si Si1 0.210214 0.607365 0.117635
Si Si2 0.023726 0.960088 0.364877
Si Si3 0.921704 0.839311 0.130274
Si Si4 0.589072 0.910250 0.219783
Si Si5 0.774312 0.654630 0.389263
Si Si6 0.330267 0.624985 0.839612
Si Si7 0.639557 0.644315 0.761649
Si Si8 0.776785 0.199783 0.357870
O O1 0.296830 0.628340 0.958324
O O2 0.414803 0.640577 0.983173
O O3 0.148293 0.814717 0.237879
O O4 0.973945 0.342635 0.270987
O O5 0.954991 0.892290 0.327215
O O6 0.799018 0.832719 0.592043
O O7 0.194333 0.247824 0.296680
O O8 0.815557 0.710409 0.277572
O O9 0.873630 0.618655 0.067648
O O10 0.808827 0.989630 0.243435
O O11 0.179514 0.036920 0.951743
O O12 0.443123 0.634935 0.254616
O O13 0.452743 0.930980 0.417307
O O14 0.641513 0.125638 0.162887
O O15 0.540504 0.609911 0.619599
O O16 0.789107 0.418659 0.347265
#
# Coordination Sequence:
#
# PCOD9025772 Si02
#       8
#     2   2   2   2   2   2   2   2
#     4  11  21  45  65 101 134 176 220 283 338 398
#     4  10  22  40  71  97 133 175 222 277 345 398
#     4  12  27  48  68  97 144 183 225 284 338 396
#     4  12  23  44  68  99 138 176 230 285 328 405
#     4  11  23  48  68 101 140 178 226 287 336 401
#     4  12  26  45  69  99 141 184 223 279 346 398
#     4  11  21  41  70 100 128 176 227 277 335 406
#     4  11  24  43  71  98 135 180 231 275 337 398
#
# _framework density 23.510128999999999
#
# number of rings (size 3 to 8) (size 9 to 14) (size 15 to 20)
#    0.000    0.750    6.250    2.625    0.000    1.000 
#    2.250    3.125    0.000    0.000    0.000    0.000 
#    0.000    0.000    0.000    0.000    0.000    0.000 
#
# Total GULP energy -89658.587625 kJ/mol
# GULP energy per Si atom -5603.661727 kJ/mol
# Density = 2.345662 g / cm^3
# Si number density = 23.510129 Si / 1000 Ang^3
#
#
#
# Elastic Constant Matrix: (Units=GPa)
#
#
# Indices 1 2 3 4 5 6 
#
# 1 64.3214 14.9081 -0.7752 -12.3349 -0.6142 4.2671
# 2 14.9081 86.4796 13.5591 -22.4162 -22.9410 15.7204
# 3 -0.7752 13.5591 116.3555 10.0307 -11.5893 -1.0900
# 4 -12.3349 -22.4162 10.0307 25.7028 -5.5791 -7.6813
# 5 -0.6142 -22.9410 -11.5893 -5.5791 30.8155 0.3458
# 6 4.2671 15.7204 -1.0900 -7.6813 0.3458 28.9499
#
#
#
# Elastic Compliance Matrix: (Units=1/GPa)
#
#
# Indices 1 2 3 4 5 6 
#
# 1 0.017259 -0.000270 -0.000436 0.008494 0.001519 -0.000178
# 2 -0.000270 0.027044 -0.003215 0.027612 0.024004 -0.007727
# 3 -0.000436 -0.003215 0.009539 -0.006616 -0.000017 0.000414
# 4 0.008494 0.027612 -0.006616 0.077774 0.032276 0.003755
# 5 0.001519 0.024004 -0.000017 0.032276 0.056249 -0.005367
# 6 -0.000178 -0.007727 0.000414 0.003755 -0.005367 0.039841
#
#
# Mechanical properties :
#
#
# Convention : Reuss Voigt Hill
#
# Bulk Modulus (GPa) = 21.73937 35.83783 28.78860
# Shear Modulus (GPa) = 19.92974 33.05792 26.49383
#
# Velocity S-wave (km/s) = 2.91470 3.75389 3.36059
# Velocity P-wave (km/s) = 4.53808 5.83657 5.22780
#
# Compressibility (1/GPa) = 0.04599949
#
# Stress axis : x y z
#
# Youngs Moduli (GPa) = 57.93916 36.97712 104.83724
#
# Poissons Ratio (x) = 0.00998 0.04573
# Poissons Ratio (y) = 0.01563 0.33706
# Poissons Ratio (z) = 0.02527 0.11889
#
# Static dielectric constant tensor:
#      x y z
#    x 1.883550 0.015910 -0.024130 
#    y 0.015910 1.883720 -0.003430 
#    z -0.024130 -0.003430 1.911800 
# 
# From -- ./inp_files/601179.got.cif
#   From: 2010.05.17/outbox.cif.g08.bks.cpg/sg2_301_cif.got.tgz:601179.got - 2010.06.03 11:33:40.
