data_PCOD9025488
_publ_section_title
;
Structure prediction by ZEFSAII (Michael W. Deem and Ramdas Pophale) SiO2 
 PCOD9025488
Probable space group: P -1
;
_chemical_formula_sum "Si O2"
_cell_formula_units_Z 14
_cell_length_a 16.447026
_cell_length_b 5.919542
_cell_length_c 10.991839
_cell_angle_alpha 52.660920
_cell_angle_beta 122.868053
_cell_angle_gamma 82.854465
_cell_volume 524.513543
_symmetry_space_group_name_H-M "P -1"
_symmetry_group_IT_number 2
_symmetry_cell_setting 'triclinic'
loop_
_space_group_symop_operation_xyz
x,y,z
-x,-y,-z
loop_
_atom_site_type_symbol
_atom_site_label
_atom_site_fract_x
_atom_site_fract_y
_atom_site_fract_z
Si Si1 0.770225 0.666418 0.256674
Si Si2 0.390898 0.473897 0.919333
Si Si3 0.809991 0.278430 0.651520
Si Si4 0.378233 0.530771 0.397618
Si Si5 0.138816 0.276316 0.326514
Si Si6 0.695583 0.464609 0.913627
Si Si7 0.874867 0.543932 0.128680
O O1 0.635037 0.755557 0.107078
O O2 0.835835 0.434868 0.508341
O O3 0.864283 0.438075 0.290877
O O4 0.734144 0.063089 0.093959
O O5 0.262568 0.905691 0.624597
O O6 0.500000 0.500000 0.000000
O O7 0.388299 0.331463 0.097975
O O8 0.655954 0.551227 0.476478
O O9 0.860607 0.380436 0.771720
O O10 0.851815 0.895378 0.743763
O O11 0.500000 0.500000 0.500000
O O12 0.373754 0.352350 0.330898
O O13 0.242932 0.988582 0.128132
O O14 0.009283 0.417796 0.241351
O O15 0.825785 0.392314 0.051284
#
# Coordination Sequence:
#
# PCOD9025488 Si02
#       7
#     2   2   2   2   2   2   2
#     4   9  21  43  69 106 138 185 240 299 361 429
#     4  10  22  40  69 105 143 186 241 306 359 430
#     4  11  26  46  73 109 144 195 244 300 364 431
#     4  11  28  48  72 100 146 196 244 302 366 441
#     4  11  26  46  76 109 147 191 243 306 365 432
#     4  10  22  44  69 101 140 189 239 296 363 437
#     4  10  25  47  72 105 141 193 241 299 371 435
#
# _framework density 26.691400999999999
#
# number of rings (size 3 to 8) (size 9 to 14) (size 15 to 20)
#    0.000    1.714    1.429    0.000   10.000   11.429 
#    0.000    0.000    0.000    0.000    0.000    0.000 
#    0.000    0.000    0.000    0.000    0.000    0.000 
#
# Total GULP energy -78201.250029 kJ/mol
# GULP energy per Si atom -5585.803573 kJ/mol
# Density = 2.663065 g / cm^3
# Si number density = 26.691401 Si / 1000 Ang^3
#
#
#
# Elastic Constant Matrix: (Units=GPa)
#
#
# Indices 1 2 3 4 5 6 
#
# 1 173.1670 53.1548 44.9038 22.1048 36.8628 1.1121
# 2 53.1548 172.0323 28.8559 24.9196 16.5916 20.7411
# 3 44.9038 28.8559 84.7380 2.6435 18.3757 2.6861
# 4 22.1048 24.9196 2.6435 35.2393 -2.5638 1.7398
# 5 36.8628 16.5916 18.3757 -2.5638 63.9739 19.1990
# 6 1.1121 20.7411 2.6861 1.7398 19.1990 58.8091
#
#
#
# Elastic Compliance Matrix: (Units=1/GPa)
#
#
# Indices 1 2 3 4 5 6 
#
# 1 0.008472 -0.001254 -0.003010 -0.004628 -0.004484 0.002020
# 2 -0.001254 0.007377 -0.001598 -0.004211 -0.000206 -0.002313
# 3 -0.003010 -0.001598 0.014315 0.001765 -0.002069 0.000590
# 4 -0.004628 -0.004211 0.001765 0.034546 0.004984 -0.001157
# 5 -0.004484 -0.000206 -0.002069 0.004984 0.021098 -0.006783
# 6 0.002020 -0.002313 0.000590 -0.001157 -0.006783 0.020004
#
#
# Mechanical properties :
#
#
# Convention : Reuss Voigt Hill
#
# Bulk Modulus (GPa) = 54.22733 75.97403 65.10068
# Shear Modulus (GPa) = 40.42559 51.80598 46.11578
#
# Velocity S-wave (km/s) = 3.89595 4.41037 4.16112
# Velocity P-wave (km/s) = 6.37169 7.37976 6.89417
#
# Compressibility (1/GPa) = 0.01844089
#
# Stress axis : x y z
#
# Youngs Moduli (GPa) = 118.02926 135.55422 69.85468
#
# Poissons Ratio (x) = 0.16993 0.21027
# Poissons Ratio (y) = 0.14796 0.11165
# Poissons Ratio (z) = 0.35528 0.21667
#
# Static dielectric constant tensor:
#      x y z
#    x 2.111160 -0.040980 -0.072050 
#    y -0.040980 2.225440 -0.076700 
#    z -0.072050 -0.076700 2.178600 
# 
# From -- ./inp_files/43362.got.cif
#   From: 2010.05.17/outbox.cif.g08.bks.cpg/sg2_22_cif.got.tgz:43362.got - 2010.06.03 11:33:40.
