data_PCOD9025038
_publ_section_title
;
Structure prediction by ZEFSAII (Michael W. Deem and Ramdas Pophale) SiO2 
 PCOD9025038
Probable space group: P -1
;
_chemical_formula_sum "Si O2"
_cell_formula_units_Z 16
_cell_length_a 9.356671
_cell_length_b 7.798804
_cell_length_c 10.120286
_cell_angle_alpha 114.963612
_cell_angle_beta 91.582978
_cell_angle_gamma 101.721574
_cell_volume 650.164289
_symmetry_space_group_name_H-M "P -1"
_symmetry_group_IT_number 2
_symmetry_cell_setting 'triclinic'
loop_
_space_group_symop_operation_xyz
x,y,z
-x,-y,-z
loop_
_atom_site_type_symbol
_atom_site_label
_atom_site_fract_x
_atom_site_fract_y
_atom_site_fract_z
Si Si1 0.597557 0.091695 0.657408
Si Si2 0.630082 0.108111 0.233856
Si Si3 0.666400 0.534591 0.458357
Si Si4 0.908667 0.038644 0.320106
Si Si5 0.063814 0.751629 0.340031
Si Si6 0.886262 0.667791 0.752789
Si Si7 0.418799 0.399033 0.792286
Si Si8 0.649782 0.755621 0.971662
O O1 0.534995 0.952297 0.732978
O O2 0.769552 0.135174 0.654041
O O3 0.554011 0.294201 0.751855
O O4 0.500000 0.000000 0.500000
O O5 0.693328 0.332597 0.338335
O O6 0.643580 0.979668 0.064884
O O7 0.734754 0.015502 0.303963
O O8 0.500000 0.500000 0.500000
O O9 0.778068 0.610011 0.603892
O O10 0.673206 0.656273 0.362798
O O11 0.980686 0.157214 0.232453
O O12 0.966031 0.176949 0.491316
O O13 0.959558 0.839430 0.270745
O O14 0.057810 0.523414 0.267047
O O15 0.787800 0.732461 0.883667
O O16 0.497938 0.629643 0.863888
O O17 0.350134 0.347735 0.917969
#
# Coordination Sequence:
#
# PCOD9025038 Si02
#       8
#     2   2   2   2   2   2   2   2
#     4  11  19  38  70 100 133 173 235 294 339 414
#     4  11  25  43  66 102 143 182 233 294 349 427
#     4  12  23  41  70 111 136 178 241 291 361 412
#     4  11  26  43  68 104 146 189 236 290 360 421
#     4  11  23  43  69 105 141 185 234 298 360 409
#     4  12  24  47  72 103 144 186 240 297 345 436
#     4  10  22  40  67 102 145 180 223 294 364 419
#     4  10  23  45  66  96 149 186 230 288 361 422
#
# _framework density 24.609165000000001
#
# number of rings (size 3 to 8) (size 9 to 14) (size 15 to 20)
#    0.000    1.000    5.000    1.125    3.500    2.000 
#    2.250    0.625    0.000    0.000    0.000    0.000 
#    0.000    0.000    0.000    0.000    0.000    0.000 
#
# Total GULP energy -89539.434218 kJ/mol
# GULP energy per Si atom -5596.214639 kJ/mol
# Density = 2.455315 g / cm^3
# Si number density = 24.609165 Si / 1000 Ang^3
#
#
#
# Elastic Constant Matrix: (Units=GPa)
#
#
# Indices 1 2 3 4 5 6 
#
# 1 107.6965 40.4215 28.0975 -12.7913 -20.4836 2.4316
# 2 40.4215 76.6447 31.3980 -6.8016 -20.0137 -8.1511
# 3 28.0975 31.3980 115.3076 4.0425 -27.2732 -0.9659
# 4 -12.7913 -6.8016 4.0425 40.5020 2.3935 -6.5262
# 5 -20.4836 -20.0137 -27.2732 2.3935 43.5602 -6.4408
# 6 2.4316 -8.1511 -0.9659 -6.5262 -6.4408 41.0707
#
#
#
# Elastic Compliance Matrix: (Units=1/GPa)
#
#
# Indices 1 2 3 4 5 6 
#
# 1 0.012379 -0.005302 -0.001116 0.002830 0.002384 -0.000988
# 2 -0.005302 0.019079 -0.002706 0.002333 0.005223 0.005227
# 3 -0.001116 -0.002706 0.011010 -0.002174 0.005285 0.000271
# 4 0.002830 0.002333 -0.002174 0.026913 0.000237 0.004558
# 5 0.002384 0.005223 0.005285 0.000237 0.030640 0.005862
# 6 -0.000988 0.005227 0.000271 0.004558 0.005862 0.027094
#
#
# Mechanical properties :
#
#
# Convention : Reuss Voigt Hill
#
# Bulk Modulus (GPa) = 41.29050 55.49811 48.39430
# Shear Modulus (GPa) = 32.58694 38.34204 35.46449
#
# Velocity S-wave (km/s) = 3.64287 3.95148 3.80031
# Velocity P-wave (km/s) = 5.87443 6.58936 6.24214
#
# Compressibility (1/GPa) = 0.02421864
#
# Stress axis : x y z
#
# Youngs Moduli (GPa) = 80.78437 52.41437 90.82935
#
# Poissons Ratio (x) = 0.27792 0.10137
# Poissons Ratio (y) = 0.42835 0.24576
# Poissons Ratio (z) = 0.09016 0.14182
#
# Static dielectric constant tensor:
#      x y z
#    x 1.937650 -0.000900 0.050140 
#    y -0.000900 2.055240 0.012520 
#    z 0.050140 0.012520 1.981370 
# 
# From -- ./inp_files/383242.got.cif
#   From: 2010.05.17/outbox.cif.g08.bks.cpg/sg2_192_cif.got.tgz:383242.got - 2010.06.03 11:33:40.
