data_PCOD9025683
_publ_section_title
;
Structure prediction by ZEFSAII (Michael W. Deem and Ramdas Pophale) SiO2 
 PCOD9025683
Probable space group: P -1
;
_chemical_formula_sum "Si O2"
_cell_formula_units_Z 14
_cell_length_a 11.713795
_cell_length_b 13.951473
_cell_length_c 9.467135
_cell_angle_alpha 99.966412
_cell_angle_beta 55.348737
_cell_angle_gamma 53.264964
_cell_volume 640.358953
_symmetry_space_group_name_H-M "P -1"
_symmetry_group_IT_number 2
_symmetry_cell_setting 'triclinic'
loop_
_space_group_symop_operation_xyz
x,y,z
-x,-y,-z
loop_
_atom_site_type_symbol
_atom_site_label
_atom_site_fract_x
_atom_site_fract_y
_atom_site_fract_z
Si Si1 0.998015 0.310504 0.194877
Si Si2 0.385499 0.721647 0.252251
Si Si3 0.517779 0.501971 0.657207
Si Si4 0.761394 0.628652 0.312664
Si Si5 0.926767 0.152901 0.761359
Si Si6 0.291692 0.037965 0.664968
Si Si7 0.129790 0.431916 0.236967
O O1 0.821747 0.357744 0.442123
O O2 0.512568 0.577474 0.247942
O O3 0.188560 0.283506 0.109277
O O4 0.124826 0.162241 0.954619
O O5 0.774361 0.510706 0.322098
O O6 0.246394 0.740115 0.232551
O O7 0.613492 0.654477 0.001203
O O8 0.137135 0.936897 0.542198
O O9 0.500000 0.500000 0.500000
O O10 0.296116 0.713108 0.922586
O O11 0.875596 0.618016 0.364759
O O12 0.476958 0.832467 0.506566
O O13 0.000000 0.500000 0.000000
O O14 0.112674 0.130852 0.675900
O O15 0.500000 0.000000 0.500000
O O16 0.000000 0.500000 0.500000
#
# Coordination Sequence:
#
# PCOD9025683 Si02
#       7
#     2   2   2   2   2   2   2
#     4  10  24  42  65 105 131 175 235 283 338 413
#     4  11  26  48  70 104 144 189 227 289 359 419
#     4  12  26  44  71 106 146 183 236 287 351 422
#     4  10  22  40  70  96 135 179 223 289 343 400
#     4  11  26  44  71  99 143 187 232 285 358 416
#     4  12  22  40  69 103 132 180 239 286 343 411
#     4  10  23  47  75  97 139 182 232 286 350 418
#
# _framework density 21.862736999999999
#
# number of rings (size 3 to 8) (size 9 to 14) (size 15 to 20)
#    0.857    0.286    2.857    3.000    6.000    1.714 
#    2.571    0.714    0.000    0.000    0.000    0.000 
#    0.000    0.000    0.000    0.000    0.000    0.000 
#
# Total GULP energy -78009.563779 kJ/mol
# GULP energy per Si atom -5572.111698 kJ/mol
# Density = 2.181298 g / cm^3
# Si number density = 21.862737 Si / 1000 Ang^3
#
#
#
# Elastic Constant Matrix: (Units=GPa)
#
#
# Indices 1 2 3 4 5 6 
#
# 1 115.1853 36.7291 48.9711 -15.6743 -12.1902 -24.3312
# 2 36.7291 92.1629 47.0263 -13.0175 3.4249 -16.9170
# 3 48.9711 47.0263 139.7477 -9.4604 4.8486 2.1219
# 4 -15.6743 -13.0175 -9.4604 35.4243 0.2315 1.6007
# 5 -12.1902 3.4249 4.8486 0.2315 38.3367 -5.5823
# 6 -24.3312 -16.9170 2.1219 1.6007 -5.5823 42.2685
#
#
#
# Elastic Compliance Matrix: (Units=1/GPa)
#
#
# Indices 1 2 3 4 5 6 
#
# 1 0.014072 -0.001405 -0.004532 0.004076 0.006380 0.008454
# 2 -0.001405 0.015158 -0.004433 0.003529 -0.000493 0.005282
# 3 -0.004532 -0.004433 0.010384 -0.000602 -0.003126 -0.005294
# 4 0.004076 0.003529 -0.000602 0.031035 0.001275 0.002782
# 5 0.006380 -0.000493 -0.003126 0.001275 0.029637 0.007498
# 6 0.008454 0.005282 -0.005294 0.002782 0.007498 0.031789
#
#
# Mechanical properties :
#
#
# Convention : Reuss Voigt Hill
#
# Bulk Modulus (GPa) = 52.98231 68.06099 60.52165
# Shear Modulus (GPa) = 31.42544 37.49717 34.46131
#
# Velocity S-wave (km/s) = 3.79542 4.14589 3.97452
# Velocity P-wave (km/s) = 6.59497 7.35639 6.98606
#
# Compressibility (1/GPa) = 0.01887422
#
# Stress axis : x y z
#
# Youngs Moduli (GPa) = 71.06225 65.96972 96.30482
#
# Poissons Ratio (x) = 0.09270 0.43647
# Poissons Ratio (y) = 0.09985 0.42689
# Poissons Ratio (z) = 0.32207 0.29243
#
# Static dielectric constant tensor:
#      x y z
#    x 1.819260 0.305110 -0.001880 
#    y 0.305110 1.448620 0.152900 
#    z -0.001880 0.152900 1.883730 
# 
# From -- ./inp_files/278101.got.cif
#   From: 2010.05.17/outbox.cif.g08.bks.cpg/sg2_140_cif.got.tgz:278101.got - 2010.06.03 11:33:40.
