data_PCOD9025447
_publ_section_title
;
Structure prediction by ZEFSAII (Michael W. Deem and Ramdas Pophale) SiO2 
 PCOD9025447
Probable space group: P -1
;
_chemical_formula_sum "Si O2"
_cell_formula_units_Z 15
_cell_length_a 12.010201
_cell_length_b 9.371588
_cell_length_c 14.671466
_cell_angle_alpha 64.874437
_cell_angle_beta 128.974912
_cell_angle_gamma 72.016259
_cell_volume 668.454749
_symmetry_space_group_name_H-M "P -1"
_symmetry_group_IT_number 2
_symmetry_cell_setting 'triclinic'
loop_
_space_group_symop_operation_xyz
x,y,z
-x,-y,-z
loop_
_atom_site_type_symbol
_atom_site_label
_atom_site_fract_x
_atom_site_fract_y
_atom_site_fract_z
Si Si1 0.817545 0.965258 0.420944
Si Si2 0.344893 0.555075 0.824224
Si Si3 0.548509 0.080212 0.582119
Si Si4 0.834555 0.970507 0.212225
Si Si5 0.995557 0.863812 0.835450
Si Si6 0.005419 0.664975 0.207160
Si Si7 0.708914 0.714577 0.912828
Si Si8 0.000000 0.000000 0.000000
O O1 0.866335 0.909638 0.352095
O O2 0.086467 0.704242 0.676253
O O3 0.732462 0.220578 0.333214
O O4 0.583544 0.066082 0.292534
O O5 0.500000 0.500000 0.000000
O O6 0.538994 0.258707 0.962771
O O7 0.701311 0.090838 0.620582
O O8 0.725970 0.829861 0.811771
O O9 0.500000 0.000000 0.500000
O O10 0.291428 0.361562 0.419037
O O11 0.953243 0.740867 0.266157
O O12 0.945490 0.040789 0.223362
O O13 0.057160 0.849441 0.975556
O O14 0.144201 0.576385 0.957030
O O15 0.824066 0.695737 0.064760
O O16 0.965885 0.864336 0.078254
#
# Coordination Sequence:
#
# PCOD9025447 Si02
#       8
#     2   2   2   2   2   2   2   1
#     4  10  22  40  69 101 133 178 229 274 336 409
#     4   9  19  40  64  96 131 169 223 277 326 391
#     4  12  25  41  68 101 134 175 232 276 343 411
#     4  10  23  42  67  99 138 175 226 287 335 394
#     4  11  22  44  68  99 134 178 223 290 335 400
#     4  11  25  45  66 102 135 185 222 282 344 402
#     4  12  24  44  69  97 140 181 225 277 344 409
#     4  10  22  44  68  90 140 168 228 282 336 400
#
# _framework density 22.439813000000001
#
# number of rings (size 3 to 8) (size 9 to 14) (size 15 to 20)
#    0.000    1.333    4.000    1.200    0.000    9.067 
#    4.800    1.333    0.000    0.000    0.000    0.000 
#    0.000    0.000    0.000    0.000    0.000    0.000 
#
# Total GULP energy -83588.559514 kJ/mol
# GULP energy per Si atom -5572.570634 kJ/mol
# Density = 2.238874 g / cm^3
# Si number density = 22.439813 Si / 1000 Ang^3
#
#
#
# Elastic Constant Matrix: (Units=GPa)
#
#
# Indices 1 2 3 4 5 6 
#
# 1 72.2130 20.9600 26.3096 6.3866 12.4963 0.1702
# 2 20.9600 153.7565 41.3445 -7.1877 6.8941 -10.7658
# 3 26.3096 41.3445 100.8212 -6.5896 40.2897 1.7418
# 4 6.3866 -7.1877 -6.5896 21.4126 -11.0655 0.8028
# 5 12.4963 6.8941 40.2897 -11.0655 43.4842 0.2012
# 6 0.1702 -10.7658 1.7418 0.8028 0.2012 37.1319
#
#
#
# Elastic Compliance Matrix: (Units=1/GPa)
#
#
# Indices 1 2 3 4 5 6 
#
# 1 0.016815 -0.001883 -0.002354 -0.008723 -0.004571 -0.000299
# 2 -0.001883 0.008089 -0.004312 0.004069 0.004278 0.002445
# 3 -0.002354 -0.004312 0.018931 -0.003688 -0.017109 -0.001955
# 4 -0.008723 0.004069 -0.003688 0.060176 0.020592 -0.000020
# 5 -0.004571 0.004278 -0.017109 0.020592 0.044718 0.001376
# 6 -0.000299 0.002445 -0.001955 -0.000020 0.001376 0.027726
#
#
# Mechanical properties :
#
#
# Convention : Reuss Voigt Hill
#
# Bulk Modulus (GPa) = 37.39986 56.00211 46.70098
# Shear Modulus (GPa) = 24.69540 36.28417 30.48978
#
# Velocity S-wave (km/s) = 3.32100 4.02550 3.69010
# Velocity P-wave (km/s) = 5.60431 6.82766 6.24601
#
# Compressibility (1/GPa) = 0.02673807
#
# Stress axis : x y z
#
# Youngs Moduli (GPa) = 59.46957 123.61719 52.82360
#
# Poissons Ratio (x) = 0.23277 0.12436
# Poissons Ratio (y) = 0.11198 0.22776
# Poissons Ratio (z) = 0.14000 0.53299
#
# Static dielectric constant tensor:
#      x y z
#    x 1.846370 -0.001510 0.001380 
#    y -0.001510 1.831960 0.021480 
#    z 0.001380 0.021480 1.904880 
# 
# From -- ./inp_files/515412.got.cif
#   From: 2010.05.17/outbox.cif.g08.bks.cpg/sg2_258_cif.got.tgz:515412.got - 2010.06.03 11:33:40.
