data_PCOD9025980
_publ_section_title
;
Structure prediction by ZEFSAII (Michael W. Deem and Ramdas Pophale) SiO2 
 PCOD9025980
Probable space group: P -1
;
_chemical_formula_sum "Si O2"
_cell_formula_units_Z 14
_cell_length_a 20.706861
_cell_length_b 8.942033
_cell_length_c 17.767851
_cell_angle_alpha 137.024950
_cell_angle_beta 160.301607
_cell_angle_gamma 38.467391
_cell_volume 689.594275
_symmetry_space_group_name_H-M "P -1"
_symmetry_group_IT_number 2
_symmetry_cell_setting 'triclinic'
loop_
_space_group_symop_operation_xyz
x,y,z
-x,-y,-z
loop_
_atom_site_type_symbol
_atom_site_label
_atom_site_fract_x
_atom_site_fract_y
_atom_site_fract_z
Si Si1 0.114621 0.478146 0.917413
Si Si2 0.662516 0.726595 0.563974
Si Si3 0.014185 0.741960 0.448937
Si Si4 0.561189 0.986078 0.844556
Si Si5 0.633234 0.794537 0.130982
Si Si6 0.472180 0.405833 0.790546
Si Si7 0.473199 0.555185 0.578734
O O1 0.075359 0.390460 0.759992
O O2 0.900683 0.679524 0.787792
O O3 0.308779 0.550790 0.172275
O O4 0.205443 0.224272 0.968819
O O5 0.588167 0.625283 0.372054
O O6 0.668259 0.559529 0.579483
O O7 0.500000 0.000000 0.500000
O O8 0.868903 0.775476 0.374610
O O9 0.258416 0.573638 0.661302
O O10 0.000000 0.000000 0.500000
O O11 0.480860 0.127338 0.885798
O O12 0.554311 0.154827 0.830886
O O13 0.413826 0.839368 0.621527
O O14 0.622508 0.543871 0.007110
O O15 0.500000 0.000000 0.000000
O O16 0.500000 0.500000 0.500000
#
# Coordination Sequence:
#
# PCOD9025980 Si02
#       7
#     2   2   2   2   2   2   2
#     4   9  22  40  62  90 123 161 207 247 317 361
#     4  11  23  41  67  90 120 165 210 254 313 371
#     4  11  21  36  64  92 124 166 205 252 307 376
#     4  10  22  41  60  91 128 161 205 260 302 366
#     4  12  20  38  64  90 124 169 205 248 315 363
#     4  11  23  40  59  92 128 157 212 259 303 369
#     4  10  22  43  63  88 124 160 208 261 308 363
#
# _framework density 20.301793
#
# number of rings (size 3 to 8) (size 9 to 14) (size 15 to 20)
#    0.857    0.571    2.857    3.000    2.000    1.714 
#    2.571    0.000    0.000    0.000    0.000    0.000 
#    0.000    0.000    0.000    0.000    0.000    0.000 
#
# Total GULP energy -78036.233529 kJ/mol
# GULP energy per Si atom -5574.016681 kJ/mol
# Density = 2.025559 g / cm^3
# Si number density = 20.301793 Si / 1000 Ang^3
#
#
#
# Elastic Constant Matrix: (Units=GPa)
#
#
# Indices 1 2 3 4 5 6 
#
# 1 67.5016 3.8873 -1.3529 -1.4977 4.6875 4.6664
# 2 3.8873 72.6885 -6.8165 -4.7610 15.5709 -0.4803
# 3 -1.3529 -6.8165 41.5863 6.1567 12.8879 -10.7749
# 4 -1.4977 -4.7610 6.1567 27.9864 -4.6204 3.8279
# 5 4.6875 15.5709 12.8879 -4.6204 30.3163 -0.3271
# 6 4.6664 -0.4803 -10.7749 3.8279 -0.3271 38.1842
#
#
#
# Elastic Compliance Matrix: (Units=1/GPa)
#
#
# Indices 1 2 3 4 5 6 
#
# 1 0.015142 -0.000187 0.000731 0.000438 -0.002508 -0.001712
# 2 -0.000187 0.016925 0.007162 -0.000968 -0.011832 0.002252
# 3 0.000731 0.007162 0.036388 -0.011744 -0.020929 0.011267
# 4 0.000438 -0.000968 -0.011744 0.041102 0.011606 -0.007401
# 5 -0.002508 -0.011832 -0.020929 0.011606 0.050046 -0.006483
# 6 -0.001712 0.002252 0.011267 -0.007401 -0.006483 0.030292
#
#
# Mechanical properties :
#
#
# Convention : Reuss Voigt Hill
#
# Bulk Modulus (GPa) = 11.92373 19.24581 15.58477
# Shear Modulus (GPa) = 24.69876 31.70127 28.20001
#
# Velocity S-wave (km/s) = 3.49173 3.95587 3.73103
# Velocity P-wave (km/s) = 4.70556 5.51050 5.12386
#
# Compressibility (1/GPa) = 0.08386638
#
# Stress axis : x y z
#
# Youngs Moduli (GPa) = 66.04117 59.08437 27.48175
#
# Poissons Ratio (x) = 0.01103 -0.02008
# Poissons Ratio (y) = 0.01233 -0.19682
# Poissons Ratio (z) = -0.04826 -0.42314
#
# Static dielectric constant tensor:
#      x y z
#    x 1.718700 -0.025850 -0.020010 
#    y -0.025850 1.749400 0.000280 
#    z -0.020010 0.000280 1.768400 
# 
# From -- ./inp_files/447138.got.cif
#   From: 2010.05.17/outbox.cif.g08.bks.cpg/sg2_224_cif.got.tgz:447138.got - 2010.06.03 11:33:40.
