data_PCOD9025305
_publ_section_title
;
Structure prediction by ZEFSAII (Michael W. Deem and Ramdas Pophale) SiO2 
 PCOD9025305
Probable space group: P -1
;
_chemical_formula_sum "Si O2"
_cell_formula_units_Z 16
_cell_length_a 6.655331
_cell_length_b 16.939081
_cell_length_c 9.221136
_cell_angle_alpha 50.676979
_cell_angle_beta 99.629260
_cell_angle_gamma 82.900552
_cell_volume 756.071667
_symmetry_space_group_name_H-M "P -1"
_symmetry_group_IT_number 2
_symmetry_cell_setting 'triclinic'
loop_
_space_group_symop_operation_xyz
x,y,z
-x,-y,-z
loop_
_atom_site_type_symbol
_atom_site_label
_atom_site_fract_x
_atom_site_fract_y
_atom_site_fract_z
Si Si1 0.570749 0.642262 0.349245
Si Si2 0.522801 0.072781 0.710328
Si Si3 0.805950 0.043703 0.231203
Si Si4 0.561381 0.475074 0.787523
Si Si5 0.230429 0.865910 0.573240
Si Si6 0.773071 0.369228 0.215165
Si Si7 0.825742 0.158993 0.829930
Si Si8 0.140587 0.255793 0.584301
O O1 0.619295 0.546693 0.584925
O O2 0.532706 0.603430 0.229617
O O3 0.356808 0.732181 0.273482
O O4 0.764250 0.691600 0.334961
O O5 0.609308 0.082039 0.549930
O O6 0.717475 0.080248 0.825313
O O7 0.336010 0.178330 0.610820
O O8 0.410321 0.980440 0.818719
O O9 0.746232 0.122662 0.267235
O O10 0.909495 0.098455 0.058105
O O11 0.985342 0.935077 0.427813
O O12 0.385939 0.551808 0.783549
O O13 0.743872 0.415629 0.994237
O O14 0.276235 0.744440 0.669071
O O15 0.002113 0.340206 0.353946
O O16 0.995823 0.189924 0.715078
#
# Coordination Sequence:
#
# PCOD9025305 Si02
#       8
#     2   2   2   2   2   2   2   2
#     4  10  22  42  63  95 127 166 207 267 314 373
#     4  11  21  40  64  92 126 169 208 259 311 374
#     4  11  24  39  65  94 123 171 210 255 320 372
#     4  10  22  40  68  91 125 165 214 262 319 371
#     4  11  23  42  62  92 131 160 211 269 308 375
#     4  11  20  42  65  90 126 168 207 266 314 374
#     4  11  22  41  65  91 132 164 210 259 308 381
#     4  11  22  40  69  93 131 169 209 259 321 374
#
# _framework density 21.162016000000001
#
# number of rings (size 3 to 8) (size 9 to 14) (size 15 to 20)
#    0.000    1.250    3.750    2.250    0.000    5.000 
#    0.000    2.500    2.750    0.000    0.000    0.000 
#    0.000    0.000    0.000    0.000    0.000    0.000 
#
# Total GULP energy -89367.315045 kJ/mol
# GULP energy per Si atom -5585.457190 kJ/mol
# Density = 2.111385 g / cm^3
# Si number density = 21.162016 Si / 1000 Ang^3
#
#
#
# Elastic Constant Matrix: (Units=GPa)
#
#
# Indices 1 2 3 4 5 6 
#
# 1 74.1844 40.4015 11.6819 13.5610 -5.3155 6.5700
# 2 40.4015 118.6183 24.2533 27.8376 1.6550 8.0126
# 3 11.6819 24.2533 75.7024 23.7001 0.7314 -6.5090
# 4 13.5610 27.8376 23.7001 29.5402 3.4029 -3.1041
# 5 -5.3155 1.6550 0.7314 3.4029 9.8537 6.3186
# 6 6.5700 8.0126 -6.5090 -3.1041 6.3186 25.8240
#
#
#
# Elastic Compliance Matrix: (Units=1/GPa)
#
#
# Indices 1 2 3 4 5 6 
#
# 1 0.019703 -0.004405 -0.000094 -0.008179 0.020381 -0.009640
# 2 -0.004405 0.012751 -0.000631 -0.010226 0.002098 -0.004737
# 3 -0.000094 -0.000631 0.017913 -0.013652 0.001727 0.002671
# 4 -0.008179 -0.010226 -0.013652 0.064206 -0.035541 0.018226
# 5 0.020381 0.002098 0.001727 -0.035541 0.154755 -0.047538
# 6 -0.009640 -0.004737 0.002671 0.018226 -0.047538 0.057142
#
#
# Mechanical properties :
#
#
# Convention : Reuss Voigt Hill
#
# Bulk Modulus (GPa) = 24.93445 46.79763 35.86604
# Shear Modulus (GPa) = 14.28162 25.85483 20.06823
#
# Velocity S-wave (km/s) = 2.60065 3.49916 3.08281
# Velocity P-wave (km/s) = 4.56355 6.20382 5.44580
#
# Compressibility (1/GPa) = 0.04010516
#
# Stress axis : x y z
#
# Youngs Moduli (GPa) = 50.75335 78.42755 55.82403
#
# Poissons Ratio (x) = 0.34551 0.00527
# Poissons Ratio (y) = 0.22359 0.03524
# Poissons Ratio (z) = 0.00479 0.04950
#
# Static dielectric constant tensor:
#      x y z
#    x 1.748760 0.028770 0.028160 
#    y 0.028770 1.775710 -0.004600 
#    z 0.028160 -0.004600 1.791240 
# 
# From -- ./inp_files/138544.got.cif
#   From: 2010.05.17/outbox.cif.g08.bks.cpg/sg2_70_cif.got.tgz:138544.got - 2010.06.03 11:33:40.
