data_PCOD9025199
_publ_section_title
;
Structure prediction by ZEFSAII (Michael W. Deem and Ramdas Pophale) SiO2 
 PCOD9025199
Probable space group: P -1
;
_chemical_formula_sum "Si O2"
_cell_formula_units_Z 15
_cell_length_a 9.827285
_cell_length_b 21.141160
_cell_length_c 7.821317
_cell_angle_alpha 75.246708
_cell_angle_beta 74.960882
_cell_angle_gamma 139.645425
_cell_volume 701.536967
_symmetry_space_group_name_H-M "P -1"
_symmetry_group_IT_number 2
_symmetry_cell_setting 'triclinic'
loop_
_space_group_symop_operation_xyz
x,y,z
-x,-y,-z
loop_
_atom_site_type_symbol
_atom_site_label
_atom_site_fract_x
_atom_site_fract_y
_atom_site_fract_z
Si Si1 0.199776 0.813664 0.291789
Si Si2 0.830781 0.734970 0.023724
Si Si3 0.164496 0.207475 0.648260
Si Si4 0.156210 0.497152 0.902184
Si Si5 0.000000 0.000000 0.000000
Si Si6 0.620033 0.947592 0.381986
Si Si7 0.303379 0.474282 0.172677
Si Si8 0.177431 0.748546 0.981055
O O1 0.417018 0.893637 0.329435
O O2 0.084191 0.840898 0.296692
O O3 0.904096 0.647363 0.539733
O O4 0.307807 0.828630 0.064134
O O5 0.922549 0.697556 0.048354
O O6 0.747691 0.731502 0.233464
O O7 0.543868 0.622400 0.073549
O O8 0.129935 0.895609 0.753752
O O9 0.481493 0.343532 0.349012
O O10 0.042451 0.084412 0.805007
O O11 0.106370 0.429399 0.127078
O O12 0.000000 0.500000 0.000000
O O13 0.992487 0.391563 0.871841
O O14 0.203590 0.040476 0.768964
O O15 0.428063 0.851897 0.678677
O O16 0.500000 0.500000 0.000000
#
# Coordination Sequence:
#
# PCOD9025199 Si02
#       8
#     2   2   2   2   1   2   2   2
#     4  11  23  42  76 103 128 180 235 282 333 395
#     4  10  22  40  67  98 131 176 227 286 328 394
#     4  10  22  41  67  97 135 174 231 274 340 397
#     4  12  24  41  67 100 142 180 221 281 346 408
#     4  10  24  44  66  90 146 184 208 276 342 412
#     4  11  23  46  68  98 144 179 222 279 341 401
#     4  12  21  42  71 101 136 175 229 286 335 393
#     4  11  22  41  69 102 134 173 232 283 331 398
#
# _framework density 21.381625
#
# number of rings (size 3 to 8) (size 9 to 14) (size 15 to 20)
#    0.000    1.067    4.000    2.000    0.000    6.933 
#    9.600    2.000    0.000    0.000    0.000    0.000 
#    0.000    0.000    0.000    0.000    0.000    0.000 
#
# Total GULP energy -83551.856597 kJ/mol
# GULP energy per Si atom -5570.123773 kJ/mol
# Density = 2.133296 g / cm^3
# Si number density = 21.381625 Si / 1000 Ang^3
#
#
#
# Elastic Constant Matrix: (Units=GPa)
#
#
# Indices 1 2 3 4 5 6 
#
# 1 118.0124 46.0365 31.3291 0.0724 11.7940 -36.7697
# 2 46.0365 81.1243 39.1214 -16.6004 0.5724 3.0002
# 3 31.3291 39.1214 121.9889 6.6110 8.6814 -1.2061
# 4 0.0724 -16.6004 6.6110 33.9485 -5.5811 -2.4254
# 5 11.7940 0.5724 8.6814 -5.5811 24.2954 -0.7609
# 6 -36.7697 3.0002 -1.2061 -2.4254 -0.7609 25.5942
#
#
#
# Elastic Compliance Matrix: (Units=1/GPa)
#
#
# Indices 1 2 3 4 5 6 
#
# 1 0.037777 -0.026639 0.001454 -0.012597 -0.019380 0.055693
# 2 -0.026639 0.036442 -0.007577 0.019411 0.017971 -0.040526
# 3 0.001454 -0.007577 0.011062 -0.006643 -0.005922 0.002692
# 4 -0.012597 0.019411 -0.006643 0.041932 0.017157 -0.016202
# 5 -0.019380 0.017971 -0.005922 0.017157 0.055358 -0.026956
# 6 0.055693 -0.040526 0.002692 -0.016202 -0.026956 0.121623
#
#
# Mechanical properties :
#
#
# Convention : Reuss Voigt Hill
#
# Bulk Modulus (GPa) = 50.61727 61.56660 56.09193
# Shear Modulus (GPa) = 13.28714 30.41018 21.84866
#
# Velocity S-wave (km/s) = 2.49555 3.77537 3.20010
# Velocity P-wave (km/s) = 5.65936 6.91818 6.32019
#
# Compressibility (1/GPa) = 0.01975610
#
# Stress axis : x y z
#
# Youngs Moduli (GPa) = 26.47122 27.44092 90.39935
#
# Poissons Ratio (x) = 0.73101 -0.13142
# Poissons Ratio (y) = 0.70518 0.68494
# Poissons Ratio (z) = -0.03848 0.20791
#
# Static dielectric constant tensor:
#      x y z
#    x 1.736410 0.001020 0.014520 
#    y 0.001020 2.019390 -0.098880 
#    z 0.014520 -0.098880 1.828340 
# 
# From -- ./inp_files/223431.got.cif
#   From: 2010.05.17/outbox.cif.g08.bks.cpg/sg2_112_cif.got.tgz:223431.got - 2010.06.03 11:33:40.
