data_PCOD9025267
_publ_section_title
;
Structure prediction by ZEFSAII (Michael W. Deem and Ramdas Pophale) SiO2 
 PCOD9025267
Probable space group: P -1
;
_chemical_formula_sum "Si O2"
_cell_formula_units_Z 16
_cell_length_a 17.406315
_cell_length_b 14.210542
_cell_length_c 23.085916
_cell_angle_alpha 159.268717
_cell_angle_beta 157.076427
_cell_angle_gamma 34.597563
_cell_volume 756.468048
_symmetry_space_group_name_H-M "P -1"
_symmetry_group_IT_number 2
_symmetry_cell_setting 'triclinic'
loop_
_space_group_symop_operation_xyz
x,y,z
-x,-y,-z
loop_
_atom_site_type_symbol
_atom_site_label
_atom_site_fract_x
_atom_site_fract_y
_atom_site_fract_z
Si Si1 0.474181 0.188235 0.156981
Si Si2 0.201774 0.851134 0.460810
Si Si3 0.899056 0.769297 0.915277
Si Si4 0.185205 0.771724 0.795548
Si Si5 0.379237 0.934265 0.315869
Si Si6 0.587098 0.630006 0.017886
Si Si7 0.247624 0.147285 0.861311
Si Si8 0.441300 0.237049 0.415973
O O1 0.477018 0.431472 0.342400
O O2 0.699282 0.140618 0.282319
O O3 0.396765 0.253793 0.079333
O O4 0.305699 0.912688 0.902853
O O5 0.177194 0.556235 0.306640
O O6 0.384342 0.880657 0.558957
O O7 0.980399 0.847573 0.279633
O O8 0.261168 0.123843 0.699271
O O9 0.766267 0.835181 0.807372
O O10 0.138370 0.836226 0.105811
O O11 0.878937 0.985898 0.075896
O O12 0.365855 0.681934 0.902115
O O13 0.000000 0.500000 0.500000
O O14 0.432345 0.691120 0.174785
O O15 0.500000 0.000000 0.500000
O O16 0.413260 0.170966 0.426615
O O17 0.673404 0.676616 0.039238
#
# Coordination Sequence:
#
# PCOD9025267 Si02
#       8
#     2   2   2   2   2   2   2   2
#     4  10  23  43  69 102 139 176 241 284 350 416
#     4  12  24  43  76 100 137 183 240 288 345 414
#     4  12  24  47  71 105 139 186 235 287 352 415
#     4  11  23  43  70  97 139 185 225 286 350 414
#     4  12  28  47  70 101 147 186 232 293 352 415
#     4  11  23  44  67 101 136 180 234 282 351 408
#     4  10  22  40  68 104 132 180 228 293 340 414
#     4  12  26  46  71 105 139 186 236 292 346 417
#
# _framework density 21.150926999999999
#
# number of rings (size 3 to 8) (size 9 to 14) (size 15 to 20)
#    0.000    0.750    3.750    4.125    1.750    5.000 
#    2.250    0.000    0.000    0.000    0.000    0.000 
#    0.000    0.000    0.000    0.000    0.000    0.000 
#
# Total GULP energy -89245.995368 kJ/mol
# GULP energy per Si atom -5577.874711 kJ/mol
# Density = 2.110279 g / cm^3
# Si number density = 21.150927 Si / 1000 Ang^3
#
#
#
# Elastic Constant Matrix: (Units=GPa)
#
#
# Indices 1 2 3 4 5 6 
#
# 1 82.7359 31.8036 34.0294 -5.0428 3.6169 1.8011
# 2 31.8036 109.7004 41.5549 -11.7598 -10.5717 -15.3349
# 3 34.0294 41.5549 87.0084 14.5238 5.7353 6.0976
# 4 -5.0428 -11.7598 14.5238 34.5836 -19.2099 -7.4054
# 5 3.6169 -10.5717 5.7353 -19.2099 11.3881 -1.0698
# 6 1.8011 -15.3349 6.0976 -7.4054 -1.0698 29.4845
#
#
#
# Elastic Compliance Matrix: (Units=1/GPa)
#
#
# Indices 1 2 3 4 5 6 
#
# 1 0.015349 -0.002842 -0.004716 0.001768 -0.002257 -0.001078
# 2 -0.002842 0.003429 0.004270 -0.016593 -0.026436 -0.004053
# 3 -0.004716 0.004270 0.006368 0.015510 0.028994 0.006140
# 4 0.001768 -0.016593 0.015510 -0.018968 -0.057537 -0.018797
# 5 -0.002257 -0.026436 0.028994 -0.057537 -0.051044 -0.035911
# 6 -0.001078 -0.004053 0.006140 -0.018797 -0.035911 0.024580
#
#
# Mechanical properties :
#
#
# Convention : Reuss Voigt Hill
#
# Bulk Modulus (GPa) = 53.85174 54.91339 54.38256
# Shear Modulus (GPa) = -664.94805 26.56169 -319.19318
#
# Velocity S-wave (km/s) = -17.75007 3.54759 -12.29796
# Velocity P-wave (km/s) = 19.86380 6.54214 13.26218
#
# Compressibility (1/GPa) = 0.01856950
#
# Stress axis : x y z
#
# Youngs Moduli (GPa) = 65.15132 291.61575 157.03671
#
# Poissons Ratio (x) = 0.82877 0.74065
# Poissons Ratio (y) = 0.18516 -0.67058
# Poissons Ratio (z) = 0.30728 -1.24525
#
# Static dielectric constant tensor:
#      x y z
#    x 1.751640 0.003320 -0.016810 
#    y 0.003320 1.839630 0.070530 
#    z -0.016810 0.070530 1.808070 
# 
# From -- ./inp_files/185257.got.cif
#   From: 2010.05.17/outbox.cif.g08.bks.cpg/sg2_93_cif.got.tgz:185257.got - 2010.06.03 11:33:40.
