data_PCOD9025302
_publ_section_title
;
Structure prediction by ZEFSAII (Michael W. Deem and Ramdas Pophale) SiO2 
 PCOD9025302
Probable space group: P -1
;
_chemical_formula_sum "Si O2"
_cell_formula_units_Z 16
_cell_length_a 9.695008
_cell_length_b 16.203013
_cell_length_c 8.272245
_cell_angle_alpha 78.854553
_cell_angle_beta 103.273700
_cell_angle_gamma 146.985557
_cell_volume 689.102661
_symmetry_space_group_name_H-M "P -1"
_symmetry_group_IT_number 2
_symmetry_cell_setting 'triclinic'
loop_
_space_group_symop_operation_xyz
x,y,z
-x,-y,-z
loop_
_atom_site_type_symbol
_atom_site_label
_atom_site_fract_x
_atom_site_fract_y
_atom_site_fract_z
Si Si1 0.754603 0.683296 0.480766
Si Si2 0.401726 0.621812 0.214556
Si Si3 0.148771 0.666076 0.193300
Si Si4 0.239827 0.818013 0.468866
Si Si5 0.105245 0.876204 0.810646
Si Si6 0.734584 0.905530 0.015539
Si Si7 0.343606 0.825540 0.831346
Si Si8 0.763184 0.586973 0.996377
O O1 0.500000 0.500000 0.500000
O O2 0.633097 0.705294 0.356683
O O3 0.898866 0.777703 0.649954
O O4 0.982229 0.748137 0.419275
O O5 0.214064 0.599796 0.244551
O O6 0.536641 0.733297 0.056091
O O7 0.261462 0.471103 0.162342
O O8 0.265792 0.772422 0.336620
O O9 0.862280 0.562528 0.150150
O O10 0.239112 0.736928 0.007707
O O11 0.210002 0.748049 0.651857
O O12 0.500000 0.000000 0.500000
O O13 0.322532 0.915077 0.815987
O O14 0.962295 0.761739 0.966846
O O15 0.221710 0.022159 0.833466
O O16 0.617496 0.917020 0.859944
O O17 0.000000 0.000000 0.000000
O O18 0.500000 0.500000 0.000000
#
# Coordination Sequence:
#
# PCOD9025302 Si02
#       8
#     2   2   2   2   2   2   2   2
#     4  11  24  46  70  99 145 186 241 295 350 430
#     4  11  24  42  67  99 143 186 230 300 370 415
#     4  10  24  43  67 103 142 181 232 301 361 411
#     4  11  26  42  74 108 134 192 251 285 353 441
#     4  10  22  40  68  90 131 190 228 276 357 411
#     4  11  24  39  64 101 135 176 231 295 361 412
#     4   9  23  42  67  94 144 177 231 289 351 414
#     4  11  21  40  71  96 132 188 241 277 346 443
#
# _framework density 23.218601
#
# number of rings (size 3 to 8) (size 9 to 14) (size 15 to 20)
#    0.000    1.500    1.250    2.250   12.250    1.500 
#    0.000    0.625    0.000    0.000    0.000    0.000 
#    0.000    0.000    0.000    0.000    0.000    0.000 
#
# Total GULP energy -89286.739303 kJ/mol
# GULP energy per Si atom -5580.421206 kJ/mol
# Density = 2.316575 g / cm^3
# Si number density = 23.218601 Si / 1000 Ang^3
#
#
#
# Elastic Constant Matrix: (Units=GPa)
#
#
# Indices 1 2 3 4 5 6 
#
# 1 183.0977 26.7904 61.1204 6.4818 32.0163 15.9619
# 2 26.7904 81.1556 21.3074 3.0184 1.9771 1.6205
# 3 61.1204 21.3074 123.0458 17.9998 18.4586 -12.4276
# 4 6.4818 3.0184 17.9998 24.7073 16.2312 -3.8696
# 5 32.0163 1.9771 18.4586 16.2312 29.3665 6.1169
# 6 15.9619 1.6205 -12.4276 -3.8696 6.1169 31.7847
#
#
#
# Elastic Compliance Matrix: (Units=1/GPa)
#
#
# Indices 1 2 3 4 5 6 
#
# 1 0.008844 -0.001859 -0.003850 0.007057 -0.010373 -0.002996
# 2 -0.001859 0.013436 -0.001769 -0.002820 0.004121 -0.001580
# 3 -0.003850 -0.001769 0.012022 -0.005567 -0.001482 0.006332
# 4 0.007057 -0.002820 -0.005567 0.077903 -0.049876 0.013506
# 5 -0.010373 0.004121 -0.001482 -0.049876 0.077014 -0.016473
# 6 -0.002996 -0.001580 0.006332 0.013506 -0.016473 0.040337
#
#
# Mechanical properties :
#
#
# Convention : Reuss Voigt Hill
#
# Bulk Modulus (GPa) = 51.68717 67.30396 59.49557
# Shear Modulus (GPa) = 19.92353 35.71042 27.81697
#
# Velocity S-wave (km/s) = 2.93249 3.92600 3.46504
# Velocity P-wave (km/s) = 5.81166 7.04282 6.45665
#
# Compressibility (1/GPa) = 0.01934716
#
# Stress axis : x y z
#
# Youngs Moduli (GPa) = 113.07169 74.42719 83.18135
#
# Poissons Ratio (x) = 0.13833 0.32025
# Poissons Ratio (y) = 0.21015 0.14712
# Poissons Ratio (z) = 0.43533 0.13164
#
# Static dielectric constant tensor:
#      x y z
#    x 1.911020 0.067720 -0.003780 
#    y 0.067720 1.915220 -0.035830 
#    z -0.003780 -0.035830 1.935560 
# 
# From -- ./inp_files/207104.got.cif
#   From: 2010.05.17/outbox.cif.g08.bks.cpg/sg2_104_cif.got.tgz:207104.got - 2010.06.03 11:33:40.
