data_PCOD9025948
_publ_section_title
;
Structure prediction by ZEFSAII (Michael W. Deem and Ramdas Pophale) SiO2 
 PCOD9025948
Probable space group: P -1
;
_chemical_formula_sum "Si O2"
_cell_formula_units_Z 16
_cell_length_a 20.366398
_cell_length_b 15.531949
_cell_length_c 12.670794
_cell_angle_alpha 27.136707
_cell_angle_beta 28.503489
_cell_angle_gamma 35.922324
_cell_volume 865.303989
_symmetry_space_group_name_H-M "P -1"
_symmetry_group_IT_number 2
_symmetry_cell_setting 'triclinic'
loop_
_space_group_symop_operation_xyz
x,y,z
-x,-y,-z
loop_
_atom_site_type_symbol
_atom_site_label
_atom_site_fract_x
_atom_site_fract_y
_atom_site_fract_z
Si Si1 0.542451 0.483823 0.282780
Si Si2 0.338611 0.298414 0.642704
Si Si3 0.777717 0.911040 0.144558
Si Si4 0.330617 0.665264 0.111528
Si Si5 0.109157 0.367742 0.061788
Si Si6 0.953797 0.025015 0.415950
Si Si7 0.290063 0.648963 0.601856
Si Si8 0.352293 0.375517 0.224489
O O1 0.481178 0.324548 0.471159
O O2 0.408523 0.612433 0.383474
O O3 0.633291 0.393661 0.349236
O O4 0.626098 0.599992 0.956666
O O5 0.327457 0.138057 0.746439
O O6 0.298375 0.500608 0.418411
O O7 0.227981 0.278219 0.911234
O O8 0.745965 0.774871 0.433716
O O9 0.931418 0.873905 0.918877
O O10 0.749257 0.130077 0.977102
O O11 0.306391 0.576765 0.128132
O O12 0.493536 0.682564 0.880645
O O13 0.047644 0.188378 0.392516
O O14 0.183348 0.496817 0.895775
O O15 0.000000 0.500000 0.000000
O O16 0.804034 0.148990 0.488218
O O17 0.000000 0.000000 0.500000
#
# Coordination Sequence:
#
# PCOD9025948 Si02
#       8
#     2   2   2   2   2   2   2   2
#     4   9  20  40  62  79 117 156 184 236 284 342
#     4   9  18  31  53  81 112 143 184 224 282 330
#     4  11  20  33  55  88 117 146 185 235 284 331
#     4   9  18  32  52  84 115 144 186 236 278 333
#     4  11  19  33  55  83 111 148 182 230 284 330
#     4  12  23  35  58  88 115 149 188 237 284 337
#     4  10  22  41  59  85 115 149 192 232 289 342
#     4   9  19  34  54  82 111 149 191 229 278 331
#
# _framework density 18.490611999999999
#
# number of rings (size 3 to 8) (size 9 to 14) (size 15 to 20)
#    0.000    2.000    2.500    1.875    3.500    1.000 
#    0.000   10.000    0.000    1.500    0.000    0.000 
#    0.000    0.000    0.000    0.000    0.000    0.000 
#
# Total GULP energy -89240.452110 kJ/mol
# GULP energy per Si atom -5577.528257 kJ/mol
# Density = 1.844853 g / cm^3
# Si number density = 18.490612 Si / 1000 Ang^3
#
#
#
# Elastic Constant Matrix: (Units=GPa)
#
#
# Indices 1 2 3 4 5 6 
#
# 1 86.8823 38.0664 30.7514 -2.3869 4.6783 1.4792
# 2 38.0664 96.0652 31.0004 -11.3541 1.5352 -3.7530
# 3 30.7514 31.0004 121.0083 5.8694 8.8937 3.2729
# 4 -2.3869 -11.3541 5.8694 25.5193 8.2538 -3.1737
# 5 4.6783 1.5352 8.8937 8.2538 19.7355 3.1046
# 6 1.4792 -3.7530 3.2729 -3.1737 3.1046 22.9639
#
#
#
# Elastic Compliance Matrix: (Units=1/GPa)
#
#
# Indices 1 2 3 4 5 6 
#
# 1 0.014663 -0.005086 -0.002255 0.000102 -0.001921 -0.001180
# 2 -0.005086 0.014481 -0.002728 0.008064 -0.002784 0.004574
# 3 -0.002255 -0.002728 0.009896 -0.003273 -0.002047 -0.001887
# 4 0.000102 0.008064 -0.003273 0.052500 -0.023044 0.012149
# 5 -0.001921 -0.002784 -0.002047 -0.023044 0.063765 -0.011845
# 6 -0.001180 0.004574 -0.001887 0.012149 -0.011845 0.047919
#
#
# Mechanical properties :
#
#
# Convention : Reuss Voigt Hill
#
# Bulk Modulus (GPa) = 52.90232 55.95470 54.42851
# Shear Modulus (GPa) = 21.77098 27.25293 24.51196
#
# Velocity S-wave (km/s) = 3.43506 3.84328 3.64489
# Velocity P-wave (km/s) = 6.66373 7.07257 6.87119
#
# Compressibility (1/GPa) = 0.01890276
#
# Stress axis : x y z
#
# Youngs Moduli (GPa) = 68.20071 69.05419 101.05078
#
# Poissons Ratio (x) = 0.35120 0.22788
# Poissons Ratio (y) = 0.34686 0.27564
# Poissons Ratio (z) = 0.15380 0.18836
#
# Static dielectric constant tensor:
#      x y z
#    x 1.618450 0.025610 -0.012660 
#    y 0.025610 1.656150 0.008020 
#    z -0.012660 0.008020 1.684950 
# 
# From -- ./inp_files/471201.got.cif
#   From: 2010.05.17/outbox.cif.g08.bks.cpg/sg2_236_cif.got.tgz:471201.got - 2010.06.03 11:33:40.
