data_PCOD9025306
_publ_section_title
;
Structure prediction by ZEFSAII (Michael W. Deem and Ramdas Pophale) SiO2 
 PCOD9025306
Probable space group: P -1
;
_chemical_formula_sum "Si O2"
_cell_formula_units_Z 16
_cell_length_a 13.331350
_cell_length_b 19.431990
_cell_length_c 8.678699
_cell_angle_alpha 49.907216
_cell_angle_beta 135.044853
_cell_angle_gamma 151.286146
_cell_volume 761.364581
_symmetry_space_group_name_H-M "P -1"
_symmetry_group_IT_number 2
_symmetry_cell_setting 'triclinic'
loop_
_space_group_symop_operation_xyz
x,y,z
-x,-y,-z
loop_
_atom_site_type_symbol
_atom_site_label
_atom_site_fract_x
_atom_site_fract_y
_atom_site_fract_z
Si Si1 0.311287 0.350618 0.102728
Si Si2 0.495318 0.007290 0.690043
Si Si3 0.412041 0.803286 0.725103
Si Si4 0.852973 0.473124 0.008465
Si Si5 0.922867 0.106913 0.470294
Si Si6 0.785038 0.881059 0.828665
Si Si7 0.426106 0.364490 0.564021
Si Si8 0.092187 0.762987 0.004913
O O1 0.251487 0.237585 0.092613
O O2 0.392028 0.354560 0.355154
O O3 0.086266 0.298427 0.967132
O O4 0.500000 0.500000 0.000000
O O5 0.619318 0.124631 0.519876
O O6 0.507010 0.905101 0.830031
O O7 0.233127 0.908287 0.564678
O O8 0.647357 0.117987 0.835912
O O9 0.583062 0.824380 0.788776
O O10 0.206392 0.636870 0.780593
O O11 0.620139 0.393550 0.792747
O O12 0.985561 0.623074 0.009123
O O13 0.000000 0.500000 0.000000
O O14 0.903478 0.148720 0.228953
O O15 0.193622 0.231137 0.597055
O O16 0.820524 0.958658 0.602045
O O17 0.000000 0.000000 0.000000
O O18 0.500000 0.500000 0.500000
#
# Coordination Sequence:
#
# PCOD9025306 Si02
#       8
#     2   2   2   2   2   2   2   2
#     4  11  25  41  67  97 134 182 228 270 341 399
#     4  10  22  42  65  93 130 179 213 281 341 397
#     4  10  23  40  61  93 133 170 226 268 333 400
#     4  12  25  41  68  99 131 176 224 276 336 395
#     4  10  22  40  68  91 128 172 230 267 340 397
#     4  11  23  38  64  96 130 172 220 285 334 392
#     4  11  24  45  69  96 134 178 224 277 331 406
#     4  11  23  41  64  96 132 171 223 277 334 402
#
# _framework density 21.014897999999999
#
# number of rings (size 3 to 8) (size 9 to 14) (size 15 to 20)
#    0.000    1.250    2.500    3.375    1.750    6.500 
#    0.000    0.000    0.000    0.000    0.000    0.000 
#    0.000    0.000    0.000    0.000    0.000    0.000 
#
# Total GULP energy -89215.352122 kJ/mol
# GULP energy per Si atom -5575.959508 kJ/mol
# Density = 2.096707 g / cm^3
# Si number density = 21.014898 Si / 1000 Ang^3
#
#
#
# Elastic Constant Matrix: (Units=GPa)
#
#
# Indices 1 2 3 4 5 6 
#
# 1 141.0636 80.7517 21.9035 -9.4990 17.3396 2.5699
# 2 80.7517 127.1491 36.2027 -17.1284 1.5692 -6.2914
# 3 21.9035 36.2027 49.2024 -14.3689 2.4217 -6.0013
# 4 -9.4990 -17.1284 -14.3689 36.8637 4.0032 -8.9727
# 5 17.3396 1.5692 2.4217 4.0032 28.0904 -4.9430
# 6 2.5699 -6.2914 -6.0013 -8.9727 -4.9430 45.3686
#
#
#
# Elastic Compliance Matrix: (Units=1/GPa)
#
#
# Indices 1 2 3 4 5 6 
#
# 1 0.012787 -0.008304 0.000415 -0.000205 -0.007915 -0.002724
# 2 -0.008304 0.015514 -0.006896 0.002509 0.004979 0.002748
# 3 0.000415 -0.006896 0.028648 0.009448 -0.002920 0.004360
# 4 -0.000205 0.002509 0.009448 0.034321 -0.004325 0.007926
# 5 -0.007915 0.004979 -0.002920 -0.004325 0.041859 0.004458
# 6 -0.002724 0.002748 0.004360 0.007926 0.004458 0.025207
#
#
# Mechanical properties :
#
#
# Convention : Reuss Voigt Hill
#
# Bulk Modulus (GPa) = 36.52312 66.12568 51.32440
# Shear Modulus (GPa) = 25.37650 33.96837 29.67243
#
# Velocity S-wave (km/s) = 3.47875 4.02480 3.76170
# Velocity P-wave (km/s) = 5.79249 7.28925 6.58354
#
# Compressibility (1/GPa) = 0.02737992
#
# Stress axis : x y z
#
# Youngs Moduli (GPa) = 78.20635 64.45638 34.90640
#
# Poissons Ratio (x) = 0.53522 -0.01448
# Poissons Ratio (y) = 0.64940 0.24071
# Poissons Ratio (z) = -0.03245 0.44448
#
# Static dielectric constant tensor:
#      x y z
#    x 1.783290 -0.035470 -0.056250 
#    y -0.035470 1.665690 0.100570 
#    z -0.056250 0.100570 1.818810 
# 
# From -- ./inp_files/279117.got.cif
#   From: 2010.05.17/outbox.cif.g08.bks.cpg/sg2_140_cif.got.tgz:279117.got - 2010.06.03 11:33:40.
