data_PCOD9025702
_publ_section_title
;
Structure prediction by ZEFSAII (Michael W. Deem and Ramdas Pophale) SiO2 
 PCOD9025702
Probable space group: P -1
;
_chemical_formula_sum "Si O2"
_cell_formula_units_Z 16
_cell_length_a 6.328676
_cell_length_b 16.797428
_cell_length_c 19.247142
_cell_angle_alpha 29.930102
_cell_angle_beta 121.289806
_cell_angle_gamma 131.264704
_cell_volume 759.889688
_symmetry_space_group_name_H-M "P -1"
_symmetry_group_IT_number 2
_symmetry_cell_setting 'triclinic'
loop_
_space_group_symop_operation_xyz
x,y,z
-x,-y,-z
loop_
_atom_site_type_symbol
_atom_site_label
_atom_site_fract_x
_atom_site_fract_y
_atom_site_fract_z
Si Si1 0.306706 0.710695 0.879062
Si Si2 0.976983 0.629980 0.007785
Si Si3 0.898792 0.731356 0.563317
Si Si4 0.080038 0.013973 0.271109
Si Si5 0.238283 0.487404 0.636541
Si Si6 0.113938 0.205162 0.336149
Si Si7 0.775114 0.471047 0.245367
Si Si8 0.812065 0.647267 0.414918
O O1 0.256265 0.656295 0.992923
O O2 0.071128 0.766037 0.774699
O O3 0.603481 0.882128 0.782647
O O4 0.256176 0.538819 0.951954
O O5 0.006114 0.829961 0.858786
O O6 0.901595 0.578243 0.114586
O O7 0.563667 0.648115 0.560016
O O8 0.940785 0.710545 0.667112
O O9 0.059911 0.932891 0.406062
O O10 0.033094 0.621268 0.633521
O O11 0.902360 0.837119 0.326089
O O12 0.217075 0.425674 0.759887
O O13 0.189040 0.343092 0.676596
O O14 0.029675 0.570666 0.525034
O O15 0.449160 0.312843 0.297085
O O16 0.000000 0.000000 0.500000
O O17 0.500000 0.500000 0.500000
#
# Coordination Sequence:
#
# PCOD9025702 Si02
#       8
#     2   2   2   2   2   2   2   2
#     4  11  26  42  61  93 137 183 221 259 318 388
#     4  11  27  42  62  91 139 182 218 261 320 388
#     4  11  22  40  64  98 129 167 215 269 326 383
#     4  12  25  40  69  96 130 172 224 269 323 393
#     4  10  22  40  70  98 131 160 212 269 342 382
#     4  11  24  36  63  96 131 171 223 270 319 385
#     4  11  23  42  63  93 132 177 210 268 329 382
#     4  11  22  42  71 103 129 163 211 282 339 381
#
# _framework density 21.055689999999998
#
# number of rings (size 3 to 8) (size 9 to 14) (size 15 to 20)
#    0.000    1.000    3.750    1.875   10.500    1.000 
#    0.000    0.625    0.000    3.750    0.000    0.000 
#    0.000    0.000    0.000    0.000    0.000    0.000 
#
# Total GULP energy -89262.250210 kJ/mol
# GULP energy per Si atom -5578.890638 kJ/mol
# Density = 2.100777 g / cm^3
# Si number density = 21.055690 Si / 1000 Ang^3
#
#
#
# Elastic Constant Matrix: (Units=GPa)
#
#
# Indices 1 2 3 4 5 6 
#
# 1 118.4780 50.8086 39.0926 -5.4540 -17.4807 -14.1726
# 2 50.8086 92.8046 33.4422 -13.7532 -8.4141 -18.3212
# 3 39.0926 33.4422 102.2859 -14.4052 -18.1292 -24.4424
# 4 -5.4540 -13.7532 -14.4052 23.3001 -7.4353 -15.2466
# 5 -17.4807 -8.4141 -18.1292 -7.4353 43.7206 3.9053
# 6 -14.1726 -18.3212 -24.4424 -15.2466 3.9053 41.2920
#
#
#
# Elastic Compliance Matrix: (Units=1/GPa)
#
#
# Indices 1 2 3 4 5 6 
#
# 1 0.012023 -0.006172 -0.003226 -0.003542 0.001858 -0.002005
# 2 -0.006172 0.022127 0.007136 0.034290 0.008457 0.023785
# 3 -0.003226 0.007136 0.025661 0.045643 0.015572 0.032630
# 4 -0.003542 0.034290 0.045643 0.169739 0.044086 0.099521
# 5 0.001858 0.008457 0.015572 0.044086 0.036839 0.026402
# 6 -0.002005 0.023785 0.032630 0.099521 0.026402 0.087648
#
#
# Mechanical properties :
#
#
# Convention : Reuss Voigt Hill
#
# Bulk Modulus (GPa) = 18.08701 62.25058 40.16879
# Shear Modulus (GPa) = 13.26297 34.34423 23.80360
#
# Velocity S-wave (km/s) = 2.51250 4.04309 3.36595
# Velocity P-wave (km/s) = 4.12621 7.17107 5.85021
#
# Compressibility (1/GPa) = 0.05528831
#
# Stress axis : x y z
#
# Youngs Moduli (GPa) = 83.17459 45.19407 38.96909
#
# Poissons Ratio (x) = 0.27895 0.12570
# Poissons Ratio (y) = 0.51337 -0.27810
# Poissons Ratio (z) = 0.26829 -0.32252
#
# Static dielectric constant tensor:
#      x y z
#    x 1.800030 -0.041220 0.005460 
#    y -0.041220 1.794580 0.029810 
#    z 0.005460 0.029810 1.771640 
# 
# From -- ./inp_files/583966.got.cif
#   From: 2010.05.17/outbox.cif.g08.bks.cpg/sg2_292_cif.got.tgz:583966.got - 2010.06.03 11:33:40.
