data_PCOD9025044
_publ_section_title
;
Structure prediction by ZEFSAII (Michael W. Deem and Ramdas Pophale) SiO2 
 PCOD9025044
Probable space group: P -1
;
_chemical_formula_sum "Si O2"
_cell_formula_units_Z 16
_cell_length_a 5.244193
_cell_length_b 15.466600
_cell_length_c 14.353516
_cell_angle_alpha 141.491776
_cell_angle_beta 63.609224
_cell_angle_gamma 109.563662
_cell_volume 649.150334
_symmetry_space_group_name_H-M "P -1"
_symmetry_group_IT_number 2
_symmetry_cell_setting 'triclinic'
loop_
_space_group_symop_operation_xyz
x,y,z
-x,-y,-z
loop_
_atom_site_type_symbol
_atom_site_label
_atom_site_fract_x
_atom_site_fract_y
_atom_site_fract_z
Si Si1 0.756013 0.867219 0.244014
Si Si2 0.205203 0.345576 0.609713
Si Si3 0.826285 0.532574 0.461000
Si Si4 0.876838 0.014756 0.869184
Si Si5 0.365438 0.421855 0.224407
Si Si6 0.735763 0.859058 0.930877
Si Si7 0.278203 0.441886 0.059044
Si Si8 0.715662 0.926531 0.511847
O O1 0.646130 0.867155 0.369750
O O2 0.995871 0.961493 0.234792
O O3 0.486770 0.950200 0.312895
O O4 0.838311 0.707386 0.076869
O O5 0.152482 0.333087 0.496408
O O6 0.486918 0.438772 0.649936
O O7 0.252827 0.200837 0.530778
O O8 0.952347 0.435147 0.777050
O O9 0.500000 0.500000 0.500000
O O10 0.000000 0.500000 0.500000
O O11 0.021005 0.431248 0.279513
O O12 0.896894 0.884185 0.828296
O O13 0.538002 0.038547 0.932296
O O14 0.052907 0.119932 0.997962
O O15 0.409770 0.290156 0.170343
O O16 0.462243 0.402690 0.087790
O O17 0.500000 0.500000 0.000000
O O18 0.000000 0.000000 0.500000
#
# Coordination Sequence:
#
# PCOD9025044 Si02
#       8
#     2   2   2   2   2   2   2   2
#     4  11  24  44  70 100 143 193 244 302 370 438
#     4  11  25  45  73 109 144 193 250 309 370 447
#     4  11  24  46  71 104 146 193 241 300 370 441
#     4  10  22  41  66 100 140 185 229 289 362 437
#     4  11  23  41  73 103 145 179 244 309 367 437
#     4  10  22  40  67 103 142 174 235 294 362 433
#     4  11  23  40  70 107 139 185 243 311 377 429
#     4  11  27  47  67 100 148 195 254 300 367 452
#
# _framework density 24.647601999999999
#
# number of rings (size 3 to 8) (size 9 to 14) (size 15 to 20)
#    0.000    1.250    2.500    2.250    3.500    8.000 
#    2.250    0.000    0.000    0.000    0.000    0.000 
#    0.000    0.000    0.000    0.000    0.000    0.000 
#
# Total GULP energy -89097.525002 kJ/mol
# GULP energy per Si atom -5568.595313 kJ/mol
# Density = 2.459150 g / cm^3
# Si number density = 24.647602 Si / 1000 Ang^3
#
#
#
# Elastic Constant Matrix: (Units=GPa)
#
#
# Indices 1 2 3 4 5 6 
#
# 1 101.8963 39.7261 22.5200 -1.3159 -6.6839 0.1452
# 2 39.7261 230.8215 27.2101 -0.8976 -10.3753 -9.9462
# 3 22.5200 27.2101 49.8878 0.0800 -3.9056 0.2276
# 4 -1.3159 -0.8976 0.0800 40.5190 5.3959 -5.6792
# 5 -6.6839 -10.3753 -3.9056 5.3959 31.8370 -5.6718
# 6 0.1452 -9.9462 0.2276 -5.6792 -5.6718 40.5510
#
#
#
# Elastic Compliance Matrix: (Units=1/GPa)
#
#
# Indices 1 2 3 4 5 6 
#
# 1 0.011396 -0.001402 -0.004273 0.000145 0.001360 -0.000150
# 2 -0.001402 0.004925 -0.001957 0.000092 0.001308 0.001420
# 3 -0.004273 -0.001957 0.023146 -0.000468 0.001299 -0.000479
# 4 0.000145 0.000092 -0.000468 0.025624 -0.003790 0.003083
# 5 0.001360 0.001308 0.001299 -0.003790 0.033724 0.004495
# 6 -0.000150 0.001420 -0.000479 0.003083 0.004495 0.026072
#
#
# Mechanical properties :
#
#
# Convention : Reuss Voigt Hill
#
# Bulk Modulus (GPa) = 41.31846 62.39087 51.85467
# Shear Modulus (GPa) = 33.73375 42.12470 37.92923
#
# Velocity S-wave (km/s) = 3.70353 4.13859 3.92709
# Velocity P-wave (km/s) = 5.92353 6.94300 6.45343
#
# Compressibility (1/GPa) = 0.02420226
#
# Stress axis : x y z
#
# Youngs Moduli (GPa) = 87.74814 203.05498 43.20443
#
# Poissons Ratio (x) = 0.28478 0.18459
# Poissons Ratio (y) = 0.12307 0.08456
# Poissons Ratio (z) = 0.37491 0.39743
#
# Static dielectric constant tensor:
#      x y z
#    x 2.024900 -0.023720 0.024630 
#    y -0.023720 1.906430 0.017100 
#    z 0.024630 0.017100 2.020680 
# 
# From -- ./inp_files/484421.got.cif
#   From: 2010.05.17/outbox.cif.g08.bks.cpg/sg2_243_cif.got.tgz:484421.got - 2010.06.03 11:33:40.
