data_PCOD9025753
_publ_section_title
;
Structure prediction by ZEFSAII (Michael W. Deem and Ramdas Pophale) SiO2 
 PCOD9025753
Probable space group: P -1
;
_chemical_formula_sum "Si O2"
_cell_formula_units_Z 16
_cell_length_a 9.413400
_cell_length_b 7.858572
_cell_length_c 16.517041
_cell_angle_alpha 104.838474
_cell_angle_beta 37.748641
_cell_angle_gamma 111.033106
_cell_volume 697.363660
_symmetry_space_group_name_H-M "P -1"
_symmetry_group_IT_number 2
_symmetry_cell_setting 'triclinic'
loop_
_space_group_symop_operation_xyz
x,y,z
-x,-y,-z
loop_
_atom_site_type_symbol
_atom_site_label
_atom_site_fract_x
_atom_site_fract_y
_atom_site_fract_z
Si Si1 0.182517 0.174786 0.980676
Si Si2 0.754902 0.909835 0.737887
Si Si3 0.865169 0.539101 0.842024
Si Si4 0.542267 0.785085 0.980715
Si Si5 0.808677 0.644360 0.549727
Si Si6 0.353964 0.809883 0.312421
Si Si7 0.298366 0.072174 0.502598
Si Si8 0.643076 0.378176 0.467759
O O1 0.412025 0.249295 0.827889
O O2 0.084195 0.340038 0.082729
O O3 0.300285 0.118433 0.002569
O O4 0.000000 0.000000 0.000000
O O5 0.595354 0.893597 0.887313
O O6 0.729616 0.721566 0.677273
O O7 0.695388 0.052274 0.718614
O O8 0.036022 0.974264 0.643192
O O9 0.672732 0.619050 0.889437
O O10 0.100268 0.576845 0.686414
O O11 0.732565 0.326289 0.891166
O O12 0.757096 0.784532 0.521452
O O13 0.671449 0.446972 0.555057
O O14 0.094729 0.666566 0.420947
O O15 0.398065 0.932689 0.387594
O O16 0.487335 0.177101 0.495087
O O17 0.500000 0.500000 0.500000
#
# Coordination Sequence:
#
# PCOD9025753 Si02
#       8
#     2   2   2   2   2   2   2   2
#     4  10  19  32  53  74  99 138 176 209 251 309
#     4   9  17  34  52  79 108 130 170 216 258 296
#     4   9  20  36  53  75  99 139 180 203 257 307
#     4   9  20  36  54  73 108 139 169 211 259 303
#     4   8  16  28  52  77  99 132 174 208 250 300
#     4   9  16  30  54  78  98 137 177 206 249 306
#     4   8  16  29  51  79 105 130 163 217 256 298
#     4  10  17  31  55  77 100 131 176 214 250 302
#
# _framework density 22.943550999999999
#
# number of rings (size 3 to 8) (size 9 to 14) (size 15 to 20)
#    0.750    2.250    0.000    3.000    0.000    0.500 
#    0.000    2.500    0.000   10.500    0.000    0.000 
#    0.000    0.000    0.000    0.000    0.000    0.000 
#
# Total GULP energy -89298.538967 kJ/mol
# GULP energy per Si atom -5581.158685 kJ/mol
# Density = 2.289133 g / cm^3
# Si number density = 22.943551 Si / 1000 Ang^3
#
#
#
# Elastic Constant Matrix: (Units=GPa)
#
#
# Indices 1 2 3 4 5 6 
#
# 1 64.7110 51.1530 24.3421 -6.9933 12.9392 19.2380
# 2 51.1530 128.9862 28.4619 0.3948 17.7680 51.8828
# 3 24.3421 28.4619 83.2661 15.1347 0.4619 21.4215
# 4 -6.9933 0.3948 15.1347 26.9003 -2.3280 5.2788
# 5 12.9392 17.7680 0.4619 -2.3280 26.1679 5.6962
# 6 19.2380 51.8828 21.4215 5.2788 5.6962 51.0098
#
#
#
# Elastic Compliance Matrix: (Units=1/GPa)
#
#
# Indices 1 2 3 4 5 6 
#
# 1 0.027197 -0.008925 -0.007125 0.010342 -0.006666 0.001487
# 2 -0.008925 0.017460 0.000341 -0.000405 -0.004437 -0.013999
# 3 -0.007125 0.000341 0.016863 -0.010304 0.002949 -0.004004
# 4 0.010342 -0.000405 -0.010304 0.046483 0.000352 -0.004011
# 5 -0.006666 -0.004437 0.002949 0.000352 0.044328 0.000802
# 6 0.001487 -0.013999 -0.004004 -0.004011 0.000802 0.035288
#
#
# Mechanical properties :
#
#
# Convention : Reuss Voigt Hill
#
# Bulk Modulus (GPa) = 33.22210 53.87526 43.54868
# Shear Modulus (GPa) = 21.82699 32.34935 27.08817
#
# Velocity S-wave (km/s) = 3.08772 3.75901 3.43978
# Velocity P-wave (km/s) = 5.21760 6.50944 5.89899
#
# Compressibility (1/GPa) = 0.03010044
#
# Stress axis : x y z
#
# Youngs Moduli (GPa) = 36.76845 57.27253 59.30193
#
# Poissons Ratio (x) = 0.51116 0.42255
# Poissons Ratio (y) = 0.32816 -0.02019
# Poissons Ratio (z) = 0.26199 -0.01950
#
# Static dielectric constant tensor:
#      x y z
#    x 1.861110 0.004730 -0.008270 
#    y 0.004730 1.609520 0.107600 
#    z -0.008270 0.107600 1.821010 
# 
# From -- ./inp_files/463951.got.cif
#   From: 2010.05.17/outbox.cif.g08.bks.cpg/sg2_232_cif.got.tgz:463951.got - 2010.06.03 11:33:40.
