data_PCOD9025712
_publ_section_title
;
Structure prediction by ZEFSAII (Michael W. Deem and Ramdas Pophale) SiO2 
 PCOD9025712
Probable space group: P -1
;
_chemical_formula_sum "Si O2"
_cell_formula_units_Z 13
_cell_length_a 12.866160
_cell_length_b 13.056841
_cell_length_c 6.993911
_cell_angle_alpha 123.278486
_cell_angle_beta 119.146271
_cell_angle_gamma 32.197767
_cell_volume 522.702468
_symmetry_space_group_name_H-M "P -1"
_symmetry_group_IT_number 2
_symmetry_cell_setting 'triclinic'
loop_
_space_group_symop_operation_xyz
x,y,z
-x,-y,-z
loop_
_atom_site_type_symbol
_atom_site_label
_atom_site_fract_x
_atom_site_fract_y
_atom_site_fract_z
Si Si1 0.304300 0.714549 0.137427
Si Si2 0.000000 0.500000 0.500000
Si Si3 0.582828 0.840905 0.563263
Si Si4 0.545453 0.246533 0.378905
Si Si5 0.048053 0.137324 0.180667
Si Si6 0.918531 0.393975 0.668620
Si Si7 0.213819 0.135123 0.011378
O O1 0.363421 0.706470 0.397553
O O2 0.212026 0.900771 0.117812
O O3 0.500000 0.500000 0.000000
O O4 0.123497 0.768733 0.015903
O O5 0.773650 0.631375 0.418377
O O6 0.004599 0.552549 0.332018
O O7 0.436968 0.860162 0.531969
O O8 0.500000 0.000000 0.500000
O O9 0.642655 0.869574 0.834317
O O10 0.313691 0.428969 0.318901
O O11 0.669375 0.084109 0.155798
O O12 0.964432 0.240401 0.416326
O O13 0.122622 0.202027 0.212851
O O14 0.049346 0.282383 0.858651
#
# Coordination Sequence:
#
# PCOD9025712 Si02
#       7
#     2   1   2   2   2   2   2
#     4  11  23  45  74  95 134 182 231 281 342 399
#     4  10  22  40  70  98 136 180 222 264 334 416
#     4  11  23  41  69  97 137 178 221 276 347 405
#     4  11  24  41  66 102 134 174 228 279 334 407
#     4  11  24  45  71  95 135 186 221 283 347 394
#     4  11  23  45  67 102 140 179 224 277 341 405
#     4  12  25  44  70 104 137 177 226 286 337 407
#
# _framework density 24.870747000000001
#
# number of rings (size 3 to 8) (size 9 to 14) (size 15 to 20)
#    0.000    0.923    4.615    2.308    0.000    5.538 
#    0.000    1.538    0.000    0.000    0.000    0.000 
#    0.000    0.000    0.000    0.000    0.000    0.000 
#
# Total GULP energy -72462.888535 kJ/mol
# GULP energy per Si atom -5574.068349 kJ/mol
# Density = 2.481414 g / cm^3
# Si number density = 24.870747 Si / 1000 Ang^3
#
#
#
# Elastic Constant Matrix: (Units=GPa)
#
#
# Indices 1 2 3 4 5 6 
#
# 1 44.0295 -2.4973 10.8506 -25.2456 7.3404 -9.1518
# 2 -2.4973 127.4829 54.8630 -3.6838 -11.7552 -15.6704
# 3 10.8506 54.8630 137.4247 -4.0437 20.9315 -31.3595
# 4 -25.2456 -3.6838 -4.0437 38.5835 -7.1139 0.9236
# 5 7.3404 -11.7552 20.9315 -7.1139 47.9143 -6.8816
# 6 -9.1518 -15.6704 -31.3595 0.9236 -6.8816 30.8339
#
#
#
# Elastic Compliance Matrix: (Units=1/GPa)
#
#
# Indices 1 2 3 4 5 6 
#
# 1 0.041092 0.003730 -0.001307 0.026989 0.000945 0.012165
# 2 0.003730 0.010849 -0.004616 0.003863 0.005104 0.002949
# 3 -0.001307 -0.004616 0.011836 -0.001193 -0.005102 0.008201
# 4 0.026989 0.003863 -0.001193 0.044571 0.005184 0.008583
# 5 0.000945 0.005104 -0.005102 0.005184 0.025437 0.003207
# 6 0.012165 0.002949 0.008201 0.008583 0.003207 0.046341
#
#
# Mechanical properties :
#
#
# Convention : Reuss Voigt Hill
#
# Bulk Modulus (GPa) = 16.83810 48.37441 32.60626
# Shear Modulus (GPa) = 24.47269 39.84774 32.16022
#
# Velocity S-wave (km/s) = 3.14027 4.00708 3.59986
# Velocity P-wave (km/s) = 4.46468 6.39543 5.51520
#
# Compressibility (1/GPa) = 0.05938912
#
# Stress axis : x y z
#
# Youngs Moduli (GPa) = 24.33586 92.17732 84.48588
#
# Poissons Ratio (x) = -0.34382 0.11046
# Poissons Ratio (y) = -0.09077 0.39001
# Poissons Ratio (z) = 0.03182 0.42552
#
# Static dielectric constant tensor:
#      x y z
#    x 1.912050 0.016540 -0.017430 
#    y 0.016540 2.040070 -0.053190 
#    z -0.017430 -0.053190 1.901670 
# 
# From -- ./inp_files/97401.got.cif
#   From: 2010.05.17/outbox.cif.g08.bks.cpg/sg2_49_cif.got.tgz:97401.got - 2010.06.03 11:33:40.
