data_PCOD9025930
_publ_section_title
;
Structure prediction by ZEFSAII (Michael W. Deem and Ramdas Pophale) SiO2 
 PCOD9025930
Probable space group: P -1
;
_chemical_formula_sum "Si O2"
_cell_formula_units_Z 16
_cell_length_a 11.698677
_cell_length_b 9.499685
_cell_length_c 18.079382
_cell_angle_alpha 114.767127
_cell_angle_beta 22.580382
_cell_angle_gamma 111.327094
_cell_volume 698.995437
_symmetry_space_group_name_H-M "P -1"
_symmetry_group_IT_number 2
_symmetry_cell_setting 'triclinic'
loop_
_space_group_symop_operation_xyz
x,y,z
-x,-y,-z
loop_
_atom_site_type_symbol
_atom_site_label
_atom_site_fract_x
_atom_site_fract_y
_atom_site_fract_z
Si Si1 0.881059 0.678049 0.831404
Si Si2 0.509259 0.154266 0.478588
Si Si3 0.371304 0.890207 0.115764
Si Si4 0.653690 0.039186 0.204079
Si Si5 0.890962 0.142192 0.519818
Si Si6 0.029015 0.372807 0.751240
Si Si7 0.115377 0.586686 0.521105
Si Si8 0.667499 0.682941 0.600172
O O1 0.895867 0.590184 0.723366
O O2 0.186662 0.763260 0.671845
O O3 0.888586 0.550944 0.865466
O O4 0.619004 0.809883 0.004194
O O5 0.520670 0.087946 0.374110
O O6 0.244101 0.293094 0.668532
O O7 0.500000 0.000000 0.500000
O O8 0.224781 0.746699 0.132648
O O9 0.115869 0.994453 0.334176
O O10 0.500000 0.000000 0.000000
O O11 0.598821 0.186845 0.215812
O O12 0.435453 0.910992 0.279217
O O13 0.000000 0.000000 0.000000
O O14 0.850081 0.242505 0.491196
O O15 0.060830 0.240941 0.501336
O O16 0.231316 0.359218 0.552710
O O17 0.000000 0.500000 0.500000
O O18 0.395463 0.476410 0.356702
#
# Coordination Sequence:
#
# PCOD9025930 Si02
#       8
#     2   2   2   2   2   2   2   2
#     4  11  22  36  62  92 124 163 208 250 311 373
#     4  11  22  41  64  89 125 166 208 258 309 369
#     4  12  22  36  60  94 126 155 209 254 305 366
#     4  11  24  40  61  92 124 161 212 252 304 370
#     4  11  20  39  63  89 123 159 200 257 306 358
#     4  10  22  41  57  89 125 160 203 255 308 365
#     4   9  19  38  62  90 121 157 200 252 313 363
#     4   9  20  38  65  85 118 159 198 251 313 360
#
# _framework density 22.889991999999999
#
# number of rings (size 3 to 8) (size 9 to 14) (size 15 to 20)
#    0.000    1.500    3.750    2.625    1.750    0.000 
#    0.000    1.875    0.000    0.000    0.000    0.000 
#    0.000    0.000    0.000    0.000    0.000    0.000 
#
# Total GULP energy -89273.859402 kJ/mol
# GULP energy per Si atom -5579.616213 kJ/mol
# Density = 2.283789 g / cm^3
# Si number density = 22.889992 Si / 1000 Ang^3
#
#
#
# Elastic Constant Matrix: (Units=GPa)
#
#
# Indices 1 2 3 4 5 6 
#
# 1 73.9683 35.1568 16.7850 14.2343 -14.2320 -17.9268
# 2 35.1568 167.4925 55.4398 22.4067 -29.5737 -57.0103
# 3 16.7850 55.4398 86.7062 16.9589 -44.7112 -21.5668
# 4 14.2343 22.4067 16.9589 28.3741 -7.0803 -17.4559
# 5 -14.2320 -29.5737 -44.7112 -7.0803 41.7681 12.6723
# 6 -17.9268 -57.0103 -21.5668 -17.4559 12.6723 58.0749
#
#
#
# Elastic Compliance Matrix: (Units=1/GPa)
#
#
# Indices 1 2 3 4 5 6 
#
# 1 0.016412 -0.002205 0.002328 -0.006087 0.005251 0.000791
# 2 -0.002205 0.010650 -0.004840 0.000492 -0.000828 0.008305
# 3 0.002328 -0.004840 0.030523 -0.009512 0.028999 -0.001885
# 4 -0.006087 0.000492 -0.009512 0.048765 -0.007061 0.011270
# 5 0.005251 -0.000828 0.028999 -0.007061 0.055817 -0.002725
# 6 0.000791 0.008305 -0.001885 0.011270 -0.002725 0.028898
#
#
# Mechanical properties :
#
#
# Convention : Reuss Voigt Hill
#
# Bulk Modulus (GPa) = 20.76828 60.32556 40.54692
# Shear Modulus (GPa) = 23.08923 40.36246 31.72584
#
# Velocity S-wave (km/s) = 3.17946 4.20375 3.72696
# Velocity P-wave (km/s) = 4.75093 7.06921 6.02267
#
# Compressibility (1/GPa) = 0.04815035
#
# Stress axis : x y z
#
# Youngs Moduli (GPa) = 60.92959 93.89384 32.76228
#
# Poissons Ratio (x) = 0.20701 -0.07626
# Poissons Ratio (y) = 0.13433 0.15858
# Poissons Ratio (z) = -0.14182 0.45449
#
# Static dielectric constant tensor:
#      x y z
#    x 1.945170 0.009870 0.006500 
#    y 0.009870 1.948960 0.065070 
#    z 0.006500 0.065070 1.899250 
# 
# From -- ./inp_files/336831.got.cif
#   From: 2010.05.17/outbox.cif.g08.bks.cpg/sg2_169_cif.got.tgz:336831.got - 2010.06.03 11:33:40.
