data_PCOD9025181
_publ_section_title
;
Structure prediction by ZEFSAII (Michael W. Deem and Ramdas Pophale) SiO2 
 PCOD9025181
Probable space group: P -1
;
_chemical_formula_sum "Si O2"
_cell_formula_units_Z 16
_cell_length_a 6.694394
_cell_length_b 18.728064
_cell_length_c 7.644660
_cell_angle_alpha 125.952009
_cell_angle_beta 61.031557
_cell_angle_gamma 119.415019
_cell_volume 649.214486
_symmetry_space_group_name_H-M "P -1"
_symmetry_group_IT_number 2
_symmetry_cell_setting 'triclinic'
loop_
_space_group_symop_operation_xyz
x,y,z
-x,-y,-z
loop_
_atom_site_type_symbol
_atom_site_label
_atom_site_fract_x
_atom_site_fract_y
_atom_site_fract_z
Si Si1 0.739974 0.988082 0.461928
Si Si2 0.697012 0.292694 0.103630
Si Si3 0.268975 0.366674 0.489556
Si Si4 0.062469 0.775318 0.794593
Si Si5 0.463435 0.595486 0.221111
Si Si6 0.583702 0.775181 0.193805
Si Si7 0.213158 0.967948 0.109002
Si Si8 0.969138 0.489139 0.209634
O O1 0.661924 0.877949 0.388810
O O2 0.980263 0.008615 0.267738
O O3 0.500000 0.000000 0.500000
O O4 0.795965 0.049007 0.701422
O O5 0.482826 0.338717 0.269580
O O6 0.735547 0.246244 0.201359
O O7 0.922073 0.381897 0.111557
O O8 0.609791 0.226675 0.880418
O O9 0.342806 0.368912 0.661593
O O10 0.238565 0.464803 0.594040
O O11 0.027670 0.289140 0.425235
O O12 0.137499 0.883120 0.885231
O O13 0.830213 0.762414 0.996589
O O14 0.479653 0.682574 0.216450
O O15 0.185612 0.552554 0.323381
O O16 0.500000 0.500000 0.000000
O O17 0.500000 0.000000 0.000000
O O18 0.000000 0.500000 0.000000
#
# Coordination Sequence:
#
# PCOD9025181 Si02
#       8
#     2   2   2   2   2   2   2   2
#     4  10  22  44  72 103 137 181 231 287 358 425
#     4  11  22  42  64  88 130 173 216 278 327 397
#     4  11  25  40  61  91 128 171 225 268 329 400
#     4  10  23  43  66  94 128 174 222 269 344 412
#     4  12  23  40  62  93 131 171 222 275 324 391
#     4  10  22  40  67  97 130 174 224 274 336 409
#     4  10  23  45  69 101 140 175 226 291 352 427
#     4  12  23  39  60  92 128 169 221 268 334 390
#
# _framework density 24.645168000000002
#
# number of rings (size 3 to 8) (size 9 to 14) (size 15 to 20)
#    0.000    1.250    2.500    2.625    0.000    6.500 
#    0.000    5.000    0.000    0.000    0.000    0.000 
#    0.000    0.000    0.000    0.000    0.000    0.000 
#
# Total GULP energy -89192.982363 kJ/mol
# GULP energy per Si atom -5574.561398 kJ/mol
# Density = 2.458907 g / cm^3
# Si number density = 24.645168 Si / 1000 Ang^3
#
#
#
# Elastic Constant Matrix: (Units=GPa)
#
#
# Indices 1 2 3 4 5 6 
#
# 1 154.3996 27.1735 29.6028 9.3711 0.1956 13.0816
# 2 27.1735 64.0575 29.2076 6.2888 -3.0635 17.1662
# 3 29.6028 29.2076 66.5806 16.0736 0.9976 13.3893
# 4 9.3711 6.2888 16.0736 27.9610 18.5138 -3.5799
# 5 0.1956 -3.0635 0.9976 18.5138 59.7712 1.3387
# 6 13.0816 17.1662 13.3893 -3.5799 1.3387 40.1502
#
#
#
# Elastic Compliance Matrix: (Units=1/GPa)
#
#
# Indices 1 2 3 4 5 6 
#
# 1 0.007337 -0.001783 -0.001946 -0.001312 0.000348 -0.001108
# 2 -0.001783 0.021605 -0.006699 -0.002749 0.002227 -0.006742
# 3 -0.001946 -0.006699 0.023470 -0.014687 0.003950 -0.005770
# 4 -0.001312 -0.002749 -0.014687 0.059079 -0.018468 0.012384
# 5 0.000348 0.002227 0.003950 -0.018468 0.022605 -0.004783
# 6 -0.001108 -0.006742 -0.005770 0.012384 -0.004783 0.031338
#
#
# Mechanical properties :
#
#
# Convention : Reuss Voigt Hill
#
# Bulk Modulus (GPa) = 31.68912 50.77841 41.23376
# Shear Modulus (GPa) = 25.40569 38.84672 32.12620
#
# Velocity S-wave (km/s) = 3.21418 3.97450 3.61439
# Velocity P-wave (km/s) = 5.16340 6.45838 5.84685
#
# Compressibility (1/GPa) = 0.03155658
#
# Stress axis : x y z
#
# Youngs Moduli (GPa) = 136.30420 46.28627 42.60755
#
# Poissons Ratio (x) = 0.08252 0.08290
# Poissons Ratio (y) = 0.24299 0.28543
# Poissons Ratio (z) = 0.26519 0.31007
#
# Static dielectric constant tensor:
#      x y z
#    x 2.200300 -0.404190 -0.011530 
#    y -0.404190 3.246270 -0.122750 
#    z -0.011530 -0.122750 2.053840 
# 
# From -- ./inp_files/141576.got.cif
#   From: 2010.05.17/outbox.cif.g08.bks.cpg/sg2_71_cif.got.tgz:141576.got - 2010.06.03 11:33:40.
