data_PCOD9025878
_publ_section_title
;
Structure prediction by ZEFSAII (Michael W. Deem and Ramdas Pophale) SiO2 
 PCOD9025878
Probable space group: P -1
;
_chemical_formula_sum "Si O2"
_cell_formula_units_Z 10
_cell_length_a 9.378695
_cell_length_b 4.984214
_cell_length_c 9.795904
_cell_angle_alpha 57.931726
_cell_angle_beta 70.689130
_cell_angle_gamma 81.112874
_cell_volume 366.084067
_symmetry_space_group_name_H-M "P -1"
_symmetry_group_IT_number 2
_symmetry_cell_setting 'triclinic'
loop_
_space_group_symop_operation_xyz
x,y,z
-x,-y,-z
loop_
_atom_site_type_symbol
_atom_site_label
_atom_site_fract_x
_atom_site_fract_y
_atom_site_fract_z
Si Si1 0.379932 0.348530 0.867797
Si Si2 0.105718 0.796616 0.345680
Si Si3 0.839290 0.156849 0.271019
Si Si4 0.240686 0.718162 0.027888
Si Si5 0.368258 0.463874 0.441781
O O1 0.373726 0.985432 0.927764
O O2 0.539102 0.513045 0.736270
O O3 0.252800 0.524180 0.767902
O O4 0.316825 0.410731 0.022402
O O5 0.155968 0.731521 0.192606
O O6 0.253732 0.754805 0.401165
O O7 0.000000 0.500000 0.500000
O O8 0.000179 0.099811 0.304444
O O9 0.726220 0.862179 0.421343
O O10 0.863311 0.170163 0.095650
O O11 0.500000 0.500000 0.500000
#
# Coordination Sequence:
#
# PCOD9025878 Si02
#       5
#     2   2   2   2   2
#     4  10  22  40  73  96 135 172 219 270 337 387
#     4  10  23  43  67  98 133 175 225 273 330 394
#     4   9  21  41  69  94 134 172 220 266 330 391
#     4  10  22  43  71  96 134 171 225 271 332 389
#     4  11  20  42  68  98 137 174 219 271 332 392
#
# _framework density 27.316127000000002
#
# number of rings (size 3 to 8) (size 9 to 14) (size 15 to 20)
#    1.200    0.800    2.000    1.200    0.000    2.400 
#    0.000    6.000    0.000    0.000    0.000    0.000 
#    0.000    0.000    0.000    0.000    0.000    0.000 
#
# Total GULP energy -55989.104627 kJ/mol
# GULP energy per Si atom -5598.910463 kJ/mol
# Density = 2.725395 g / cm^3
# Si number density = 27.316127 Si / 1000 Ang^3
#
#
#
# Elastic Constant Matrix: (Units=GPa)
#
#
# Indices 1 2 3 4 5 6 
#
# 1 124.4708 50.0338 24.7142 -1.8041 12.3441 -35.9191
# 2 50.0338 108.8334 5.2786 -0.2897 1.5963 -14.2773
# 3 24.7142 5.2786 129.8200 8.3454 -8.7413 -7.1334
# 4 -1.8041 -0.2897 8.3454 32.6244 -9.2963 0.6681
# 5 12.3441 1.5963 -8.7413 -9.2963 33.0442 2.4698
# 6 -35.9191 -14.2773 -7.1334 0.6681 2.4698 52.7885
#
#
#
# Elastic Compliance Matrix: (Units=1/GPa)
#
#
# Indices 1 2 3 4 5 6 
#
# 1 0.013262 -0.004891 -0.002272 -0.000615 -0.006066 0.007685
# 2 -0.004891 0.011356 0.000547 0.000116 0.001475 -0.000253
# 3 -0.002272 0.000547 0.008367 -0.001501 0.002641 -0.000372
# 4 -0.000615 0.000116 -0.001501 0.033717 0.009422 -0.001457
# 5 -0.006066 0.001475 0.002641 0.009422 0.036194 -0.005185
# 6 0.007685 -0.000253 -0.000372 -0.001457 -0.005185 0.024315
#
#
# Mechanical properties :
#
#
# Convention : Reuss Voigt Hill
#
# Bulk Modulus (GPa) = 50.62653 58.13083 54.37868
# Shear Modulus (GPa) = 34.00708 42.56461 38.28584
#
# Velocity S-wave (km/s) = 3.53221 3.95172 3.74783
# Velocity P-wave (km/s) = 5.93373 6.49218 6.21922
#
# Compressibility (1/GPa) = 0.01975249
#
# Stress axis : x y z
#
# Youngs Moduli (GPa) = 75.40426 88.06048 119.51389
#
# Poissons Ratio (x) = 0.43071 0.27159
# Poissons Ratio (y) = 0.36881 -0.06541
# Poissons Ratio (z) = 0.17135 -0.04820
#
# Static dielectric constant tensor:
#      x y z
#    x 2.105550 -0.055800 0.075540 
#    y -0.055800 2.052190 -0.017140 
#    z 0.075540 -0.017140 2.193850 
# 
# From -- ./inp_files/21427.got.cif
#   From: 2010.05.17/outbox.cif.g08.bks.cpg/sg2_11_cif.got.tgz:21427.got - 2010.06.03 11:33:40.
