data_PCOD9025885
_publ_section_title
;
Structure prediction by ZEFSAII (Michael W. Deem and Ramdas Pophale) SiO2 
 PCOD9025885
Probable space group: P -1
;
_chemical_formula_sum "Si O2"
_cell_formula_units_Z 14
_cell_length_a 19.505093
_cell_length_b 11.525768
_cell_length_c 13.590493
_cell_angle_alpha 33.144230
_cell_angle_beta 155.457976
_cell_angle_gamma 148.688099
_cell_volume 633.415457
_symmetry_space_group_name_H-M "P -1"
_symmetry_group_IT_number 2
_symmetry_cell_setting 'triclinic'
loop_
_space_group_symop_operation_xyz
x,y,z
-x,-y,-z
loop_
_atom_site_type_symbol
_atom_site_label
_atom_site_fract_x
_atom_site_fract_y
_atom_site_fract_z
Si Si1 0.190507 0.482516 0.771380
Si Si2 0.654209 0.463540 0.668989
Si Si3 0.945451 0.224154 0.996963
Si Si4 0.754734 0.777480 0.166426
Si Si5 0.467357 0.939918 0.751175
Si Si6 0.283755 0.114894 0.230166
Si Si7 0.317629 0.529102 0.518417
O O1 0.234745 0.382264 0.797061
O O2 0.000000 0.500000 0.500000
O O3 0.352999 0.733257 0.821464
O O4 0.196609 0.302308 0.989322
O O5 0.500000 0.500000 0.500000
O O6 0.603867 0.187005 0.795655
O O7 0.651271 0.552344 0.490449
O O8 0.848034 0.610317 0.863427
O O9 0.833134 0.374190 0.768920
O O10 0.843712 0.079879 0.871193
O O11 0.917751 0.027270 0.182854
O O12 0.746699 0.651005 0.348781
O O13 0.579694 0.840604 0.897349
O O14 0.319957 0.999622 0.456318
O O15 0.488063 0.262226 0.350885
#
# Coordination Sequence:
#
# PCOD9025885 Si02
#       7
#     2   2   2   2   2   2   2
#     4  11  25  40  65 109 146 172 226 283 352 403
#     4  11  27  48  67  97 144 187 227 283 348 413
#     4  11  23  42  70 101 137 178 235 280 338 415
#     4  11  23  41  74 103 137 175 233 288 337 409
#     4  11  23  45  73  96 139 181 230 286 340 404
#     4  10  22  40  74 102 132 173 228 287 344 392
#     4  11  22  44  71 104 132 179 235 281 349 402
#
# _framework density 22.102397
#
# number of rings (size 3 to 8) (size 9 to 14) (size 15 to 20)
#    0.000    1.143    4.286    2.143    8.000    1.143 
#    7.714    0.714    0.000    0.000    0.000    0.000 
#    0.000    0.000    0.000    0.000    0.000    0.000 
#
# Total GULP energy -78249.234348 kJ/mol
# GULP energy per Si atom -5589.231025 kJ/mol
# Density = 2.205209 g / cm^3
# Si number density = 22.102397 Si / 1000 Ang^3
#
#
#
# Elastic Constant Matrix: (Units=GPa)
#
#
# Indices 1 2 3 4 5 6 
#
# 1 52.0338 47.4313 42.0517 1.1104 -1.6837 -1.0137
# 2 47.4313 109.0927 57.1956 18.1364 12.2297 6.7060
# 3 42.0517 57.1956 104.7897 4.2887 23.4070 -0.8850
# 4 1.1104 18.1364 4.2887 49.7880 12.5333 -2.0879
# 5 -1.6837 12.2297 23.4070 12.5333 32.7856 -1.3978
# 6 -1.0137 6.7060 -0.8850 -2.0879 -1.3978 12.3020
#
#
#
# Elastic Compliance Matrix: (Units=1/GPa)
#
#
# Indices 1 2 3 4 5 6 
#
# 1 0.045284 -0.015791 -0.013459 0.002039 0.017630 0.013721
# 2 -0.015791 0.020379 -0.003777 -0.006363 -0.003889 -0.014204
# 3 -0.013459 -0.003777 0.020241 0.003797 -0.015127 0.001331
# 4 0.002039 -0.006363 0.003797 0.024684 -0.009369 0.007034
# 5 0.017630 -0.003889 -0.015127 -0.009369 0.047507 0.006293
# 6 0.013721 -0.014204 0.001331 0.007034 0.006293 0.092165
#
#
# Mechanical properties :
#
#
# Convention : Reuss Voigt Hill
#
# Bulk Modulus (GPa) = 50.37967 62.14149 56.26058
# Shear Modulus (GPa) = 15.48319 26.92431 21.20375
#
# Velocity S-wave (km/s) = 2.64961 3.49401 3.10068
# Velocity P-wave (km/s) = 5.67484 6.66736 6.19102
#
# Compressibility (1/GPa) = 0.01984928
#
# Stress axis : x y z
#
# Youngs Moduli (GPa) = 22.08297 49.06917 49.40584
#
# Poissons Ratio (x) = 0.77485 0.66495
# Poissons Ratio (y) = 0.34871 0.18662
# Poissons Ratio (z) = 0.29721 0.18535
#
# Static dielectric constant tensor:
#      x y z
#    x 1.836610 -0.007010 -0.006890 
#    y -0.007010 1.833460 -0.020730 
#    z -0.006890 -0.020730 1.802560 
# 
# From -- ./inp_files/244544.got.cif
#   From: 2010.05.17/outbox.cif.g08.bks.cpg/sg2_123_cif.got.tgz:244544.got - 2010.06.03 11:33:40.
