data_PCOD9025117
_publ_section_title
;
Structure prediction by ZEFSAII (Michael W. Deem and Ramdas Pophale) SiO2 
 PCOD9025117
Probable space group: P -1
;
_chemical_formula_sum "Si O2"
_cell_formula_units_Z 16
_cell_length_a 20.143334
_cell_length_b 8.204765
_cell_length_c 22.778305
_cell_angle_alpha 143.864570
_cell_angle_beta 159.050403
_cell_angle_gamma 34.991599
_cell_volume 755.084117
_symmetry_space_group_name_H-M "P -1"
_symmetry_group_IT_number 2
_symmetry_cell_setting 'triclinic'
loop_
_space_group_symop_operation_xyz
x,y,z
-x,-y,-z
loop_
_atom_site_type_symbol
_atom_site_label
_atom_site_fract_x
_atom_site_fract_y
_atom_site_fract_z
Si Si1 0.821217 0.286292 0.426958
Si Si2 0.582498 0.235217 0.605065
Si Si3 0.597942 0.210400 0.107295
Si Si4 0.281271 0.796559 0.561726
Si Si5 0.858622 0.566457 0.958755
Si Si6 0.953106 0.857418 0.228602
Si Si7 0.744985 0.913070 0.528038
Si Si8 0.513318 0.144917 0.807534
O O1 0.739166 0.278564 0.292575
O O2 0.672712 0.284120 0.356193
O O3 0.855222 0.594453 0.551408
O O4 0.000000 0.000000 0.500000
O O5 0.415186 0.545111 0.557643
O O6 0.755656 0.316111 0.804696
O O7 0.500000 0.000000 0.500000
O O8 0.660622 0.129153 0.574399
O O9 0.465666 0.535462 0.075134
O O10 0.733508 0.048303 0.118597
O O11 0.500000 0.000000 0.000000
O O12 0.066311 0.791398 0.365100
O O13 0.332544 0.093386 0.679953
O O14 0.700019 0.881056 0.904490
O O15 0.949032 0.602631 0.106769
O O16 0.000000 0.500000 0.000000
O O17 0.093325 0.007238 0.353936
O O18 0.560400 0.898609 0.331853
#
# Coordination Sequence:
#
# PCOD9025117 Si02
#       8
#     2   2   2   2   2   2   2   2
#     4  11  22  40  65  94 125 163 216 262 315 385
#     4  11  22  41  66  95 131 169 215 265 325 385
#     4  11  26  43  63  93 134 168 211 271 328 382
#     4  10  22  40  67  94 127 169 214 263 320 385
#     4  11  24  42  64  95 131 167 217 271 321 380
#     4  11  24  42  64  94 126 167 218 267 321 382
#     4  10  22  40  68  93 126 169 219 261 321 389
#     4   9  24  41  65  92 126 173 214 258 325 384
#
# _framework density 21.189692999999998
#
# number of rings (size 3 to 8) (size 9 to 14) (size 15 to 20)
#    0.000    1.500    3.750    0.000    7.000    4.500 
#    2.250    0.625    0.000    0.000    0.000    0.000 
#    0.000    0.000    0.000    0.000    0.000    0.000 
#
# Total GULP energy -89190.057674 kJ/mol
# GULP energy per Si atom -5574.378605 kJ/mol
# Density = 2.114146 g / cm^3
# Si number density = 21.189693 Si / 1000 Ang^3
#
#
#
# Elastic Constant Matrix: (Units=GPa)
#
#
# Indices 1 2 3 4 5 6 
#
# 1 98.7886 22.1816 12.4615 15.9880 4.4721 -18.9385
# 2 22.1816 70.1377 9.3510 13.8940 11.6362 -7.6236
# 3 12.4615 9.3510 50.8127 14.0230 14.6179 -4.7921
# 4 15.9880 13.8940 14.0230 29.6989 6.0111 2.0066
# 5 4.4721 11.6362 14.6179 6.0111 31.0973 5.2117
# 6 -18.9385 -7.6236 -4.7921 2.0066 5.2117 38.6125
#
#
#
# Elastic Compliance Matrix: (Units=1/GPa)
#
#
# Indices 1 2 3 4 5 6 
#
# 1 0.012838 -0.001987 -0.000254 -0.006114 -0.000858 0.006307
# 2 -0.001987 0.017491 0.001264 -0.006714 -0.006196 0.003821
# 3 -0.000254 0.001264 0.026407 -0.010937 -0.011665 0.005545
# 4 -0.006114 -0.006714 -0.010937 0.045601 0.001092 -0.008199
# 5 -0.000858 -0.006196 -0.011665 0.001092 0.041334 -0.008728
# 6 0.006307 0.003821 0.005545 -0.008199 -0.008728 0.032038
#
#
# Mechanical properties :
#
#
# Convention : Reuss Voigt Hill
#
# Bulk Modulus (GPa) = 18.25407 34.19191 26.22299
# Shear Modulus (GPa) = 25.52020 31.59806 28.55913
#
# Velocity S-wave (km/s) = 3.47417 3.86579 3.67520
# Velocity P-wave (km/s) = 4.97257 6.00807 5.51468
#
# Compressibility (1/GPa) = 0.05478230
#
# Stress axis : x y z
#
# Youngs Moduli (GPa) = 77.89215 57.17283 37.86908
#
# Poissons Ratio (x) = 0.11362 0.00961
# Poissons Ratio (y) = 0.15479 -0.04787
# Poissons Ratio (z) = 0.01976 -0.07228
#
# Static dielectric constant tensor:
#      x y z
#    x 1.808630 0.012370 -0.003930 
#    y 0.012370 1.810910 -0.028210 
#    z -0.003930 -0.028210 1.830140 
# 
# From -- ./inp_files/199439.got.cif
#   From: 2010.05.17/outbox.cif.g08.bks.cpg/sg2_100_cif.got.tgz:199439.got - 2010.06.03 11:33:40.
