data_PCOD9025029
_publ_section_title
;
Structure prediction by ZEFSAII (Michael W. Deem and Ramdas Pophale) SiO2 
 PCOD9025029
Probable space group: P -1
;
_chemical_formula_sum "Si O2"
_cell_formula_units_Z 16
_cell_length_a 13.661675
_cell_length_b 8.138017
_cell_length_c 12.803730
_cell_angle_alpha 137.162062
_cell_angle_beta 43.767631
_cell_angle_gamma 131.321304
_cell_volume 643.128775
_symmetry_space_group_name_H-M "P -1"
_symmetry_group_IT_number 2
_symmetry_cell_setting 'triclinic'
loop_
_space_group_symop_operation_xyz
x,y,z
-x,-y,-z
loop_
_atom_site_type_symbol
_atom_site_label
_atom_site_fract_x
_atom_site_fract_y
_atom_site_fract_z
Si Si1 0.484163 0.177561 0.688720
Si Si2 0.013817 0.337946 0.269308
Si Si3 0.664188 0.553033 0.852619
Si Si4 0.692518 0.710552 0.491414
Si Si5 0.590213 0.444478 0.231342
Si Si6 0.201638 0.780994 0.802407
Si Si7 0.970668 0.118775 0.428161
Si Si8 0.790914 0.091543 0.912950
O O1 0.637976 0.299446 0.685627
O O2 0.442371 0.408785 0.774274
O O3 0.500000 0.000000 0.500000
O O4 0.349778 0.011302 0.783244
O O5 0.192470 0.404577 0.164671
O O6 0.976004 0.602170 0.437925
O O7 0.923585 0.211655 0.179815
O O8 0.965193 0.168747 0.331108
O O9 0.500000 0.500000 0.000000
O O10 0.698884 0.803635 0.872181
O O11 0.655244 0.647099 0.368093
O O12 0.555210 0.717800 0.672136
O O13 0.746496 0.469570 0.371429
O O14 0.817222 0.966687 0.521655
O O15 0.692165 0.269383 0.039456
O O16 0.147686 0.792799 0.967427
O O17 0.078793 0.941149 0.275148
#
# Coordination Sequence:
#
# PCOD9025029 Si02
#       8
#     2   2   2   2   2   2   2   2
#     4  12  25  43  75 104 136 180 241 285 337 419
#     4  10  25  43  71  99 138 185 233 280 347 407
#     4  11  25  46  69 105 139 179 224 297 345 404
#     4  10  22  40  67 101 141 181 232 281 343 410
#     4  10  23  40  69 104 136 186 225 290 347 403
#     4  11  23  44  68 104 137 180 235 283 340 420
#     4  10  23  42  66  96 138 185 225 283 339 410
#     4  10  24  46  67 101 147 174 229 285 351 409
#
# _framework density 24.878377
#
# number of rings (size 3 to 8) (size 9 to 14) (size 15 to 20)
#    0.000    1.500    2.500    0.750    8.750    5.000 
#    4.500    0.000    0.000    0.000    0.000    0.000 
#    0.000    0.000    0.000    0.000    0.000    0.000 
#
# Total GULP energy -89612.424372 kJ/mol
# GULP energy per Si atom -5600.776523 kJ/mol
# Density = 2.482175 g / cm^3
# Si number density = 24.878377 Si / 1000 Ang^3
#
#
#
# Elastic Constant Matrix: (Units=GPa)
#
#
# Indices 1 2 3 4 5 6 
#
# 1 113.7558 37.0354 4.9258 5.9023 -9.8224 9.8468
# 2 37.0354 68.9019 -3.8347 7.3292 -3.1827 11.8085
# 3 4.9258 -3.8347 84.9173 18.6368 -25.1781 -9.5898
# 4 5.9023 7.3292 18.6368 26.1507 -5.9343 -2.4640
# 5 -9.8224 -3.1827 -25.1781 -5.9343 21.6999 5.2503
# 6 9.8468 11.8085 -9.5898 -2.4640 5.2503 23.4922
#
#
#
# Elastic Compliance Matrix: (Units=1/GPa)
#
#
# Indices 1 2 3 4 5 6 
#
# 1 0.011228 -0.005148 0.000512 -0.000496 0.005561 -0.003205
# 2 -0.005148 0.019690 0.002864 -0.006224 0.004151 -0.008151
# 3 0.000512 0.002864 0.020712 -0.010708 0.021547 0.000862
# 4 -0.000496 -0.006224 -0.010708 0.047785 -0.001540 0.004321
# 5 0.005561 0.004151 0.021547 -0.001540 0.076928 -0.012976
# 6 -0.003205 -0.008151 0.000862 0.004321 -0.012976 0.051713
#
#
# Mechanical properties :
#
#
# Convention : Reuss Voigt Hill
#
# Bulk Modulus (GPa) = 20.79553 38.20311 29.49932
# Shear Modulus (GPa) = 20.19151 29.56513 24.87832
#
# Velocity S-wave (km/s) = 2.85197 3.45104 3.16570
# Velocity P-wave (km/s) = 4.38429 5.59185 5.02448
#
# Compressibility (1/GPa) = 0.04808726
#
# Stress axis : x y z
#
# Youngs Moduli (GPa) = 89.06427 50.78597 48.28138
#
# Poissons Ratio (x) = 0.26143 -0.02473
# Poissons Ratio (y) = 0.45848 -0.13828
# Poissons Ratio (z) = -0.04562 -0.14545
#
# Static dielectric constant tensor:
#      x y z
#    x 2.040200 0.018720 0.028660 
#    y 0.018720 1.904510 -0.002270 
#    z 0.028660 -0.002270 2.046330 
# 
# From -- ./inp_files/529116.got.cif
#   From: 2010.05.17/outbox.cif.g08.bks.cpg/sg2_265_cif.got.tgz:529116.got - 2010.06.03 11:33:40.
