data_PCOD9025990
_publ_section_title
;
Structure prediction by ZEFSAII (Michael W. Deem and Ramdas Pophale) SiO2 
 PCOD9025990
Probable space group: P -1
;
_chemical_formula_sum "Si O2"
_cell_formula_units_Z 16
_cell_length_a 10.948412
_cell_length_b 5.774902
_cell_length_c 16.007827
_cell_angle_alpha 45.819335
_cell_angle_beta 65.876583
_cell_angle_gamma 68.972297
_cell_volume 658.196579
_symmetry_space_group_name_H-M "P -1"
_symmetry_group_IT_number 2
_symmetry_cell_setting 'triclinic'
loop_
_space_group_symop_operation_xyz
x,y,z
-x,-y,-z
loop_
_atom_site_type_symbol
_atom_site_label
_atom_site_fract_x
_atom_site_fract_y
_atom_site_fract_z
Si Si1 0.128689 0.185937 0.202567
Si Si2 0.071821 0.296469 0.868831
Si Si3 0.355875 0.083859 0.289741
Si Si4 0.079273 0.261559 0.605672
Si Si5 0.391465 0.794915 0.039337
Si Si6 0.852041 0.142438 0.468446
Si Si7 0.788504 0.584383 0.047108
Si Si8 0.361072 0.956656 0.818422
O O1 0.258147 0.018009 0.256563
O O2 0.176269 0.414223 0.059695
O O3 0.032982 0.454367 0.216157
O O4 0.036906 0.909943 0.272439
O O5 0.217999 0.174634 0.819259
O O6 0.102041 0.501883 0.891726
O O7 0.000000 0.000000 0.000000
O O8 0.375601 0.462410 0.173839
O O9 0.507319 0.900932 0.289244
O O10 0.267882 0.012952 0.411517
O O11 0.158046 0.481480 0.590140
O O12 0.000000 0.500000 0.500000
O O13 0.156235 0.981519 0.594339
O O14 0.255611 0.036771 0.023688
O O15 0.411948 0.797555 0.933264
O O16 0.500000 0.000000 0.000000
O O17 0.000000 0.000000 0.500000
O O18 0.677121 0.342126 0.151627
#
# Coordination Sequence:
#
# PCOD9025990 Si02
#       8
#     2   2   2   2   2   2   2   2
#     4  12  22  38  69  92 124 175 213 267 335 379
#     4  11  24  42  59  91 132 174 214 257 310 403
#     4  12  22  38  65  93 124 172 208 272 339 379
#     4  10  22  41  62  98 130 161 222 285 328 386
#     4  11  21  33  57  92 131 161 212 258 314 400
#     4  10  22  41  60  94 132 160 214 281 335 382
#     4  11  22  38  58  91 132 170 208 259 312 399
#     4  11  23  40  56  89 134 165 209 257 321 396
#
# _framework density 24.308848000000001
#
# number of rings (size 3 to 8) (size 9 to 14) (size 15 to 20)
#    0.000    1.000    6.250    2.250    3.500    2.000 
#    0.000    0.000    0.000    1.500    0.000    0.000 
#    0.000    0.000    0.000    0.000    0.000    0.000 
#
# Total GULP energy -89272.700795 kJ/mol
# GULP energy per Si atom -5579.543800 kJ/mol
# Density = 2.425352 g / cm^3
# Si number density = 24.308848 Si / 1000 Ang^3
#
#
#
# Elastic Constant Matrix: (Units=GPa)
#
#
# Indices 1 2 3 4 5 6 
#
# 1 95.1332 24.4978 33.3326 10.7722 -25.9666 1.3349
# 2 24.4978 92.1285 22.9083 5.9616 -16.9252 12.0614
# 3 33.3326 22.9083 97.7379 7.2323 -32.4706 6.7499
# 4 10.7722 5.9616 7.2323 36.0760 -2.5722 -8.2069
# 5 -25.9666 -16.9252 -32.4706 -2.5722 44.0905 1.7379
# 6 1.3349 12.0614 6.7499 -8.2069 1.7379 55.9916
#
#
#
# Elastic Compliance Matrix: (Units=1/GPa)
#
#
# Indices 1 2 3 4 5 6 
#
# 1 0.013590 -0.001832 -0.002108 -0.003000 0.005584 -0.000288
# 2 -0.001832 0.012647 -0.000990 -0.001791 0.003058 -0.002919
# 3 -0.002108 -0.000990 0.014453 -0.001928 0.008990 -0.002040
# 4 -0.003000 -0.001791 -0.001928 0.030317 -0.002310 0.005205
# 5 0.005584 0.003058 0.008990 -0.002310 0.033758 -0.003262
# 6 -0.000288 -0.002919 -0.002040 0.005205 -0.003262 0.019606
#
#
# Mechanical properties :
#
#
# Convention : Reuss Voigt Hill
#
# Bulk Modulus (GPa) = 32.43529 49.60859 41.02194
# Shear Modulus (GPa) = 34.60056 40.84901 37.72479
#
# Velocity S-wave (km/s) = 3.77685 4.10374 3.94368
# Velocity P-wave (km/s) = 5.69135 6.55028 6.13586
#
# Compressibility (1/GPa) = 0.03083062
#
# Stress axis : x y z
#
# Youngs Moduli (GPa) = 73.58404 79.06798 69.19124
#
# Poissons Ratio (x) = 0.14483 0.14588
# Poissons Ratio (y) = 0.13478 0.06848
# Poissons Ratio (z) = 0.15514 0.07825
#
# Static dielectric constant tensor:
#      x y z
#    x 2.051200 -0.017950 0.013440 
#    y -0.017950 2.086690 0.041250 
#    z 0.013440 0.041250 1.978390 
# 
# From -- ./inp_files/367086.got.cif
#   From: 2010.05.17/outbox.cif.g08.bks.cpg/sg2_184_cif.got.tgz:367086.got - 2010.06.03 11:33:40.
