data_PCOD9025693
_publ_section_title
;
Structure prediction by ZEFSAII (Michael W. Deem and Ramdas Pophale) SiO2 
 PCOD9025693
Probable space group: P -1
;
_chemical_formula_sum "Si O2"
_cell_formula_units_Z 14
_cell_length_a 6.773490
_cell_length_b 11.992067
_cell_length_c 8.439003
_cell_angle_alpha 59.216742
_cell_angle_beta 85.635857
_cell_angle_gamma 63.007881
_cell_volume 513.717588
_symmetry_space_group_name_H-M "P -1"
_symmetry_group_IT_number 2
_symmetry_cell_setting 'triclinic'
loop_
_space_group_symop_operation_xyz
x,y,z
-x,-y,-z
loop_
_atom_site_type_symbol
_atom_site_label
_atom_site_fract_x
_atom_site_fract_y
_atom_site_fract_z
Si Si1 0.811385 0.611716 0.803485
Si Si2 0.985820 0.185477 0.417766
Si Si3 0.364854 0.874551 0.056036
Si Si4 0.630077 0.328074 0.570749
Si Si5 0.980766 0.842491 0.940002
Si Si6 0.061568 0.600691 0.311852
Si Si7 0.581193 0.077070 0.305775
O O1 0.930482 0.693871 0.646254
O O2 0.762581 0.518716 0.739799
O O3 0.581600 0.746310 0.788836
O O4 0.000000 0.500000 0.000000
O O5 0.017982 0.169437 0.238927
O O6 0.730821 0.253937 0.449907
O O7 0.149945 0.027148 0.602806
O O8 0.494341 0.745721 0.270696
O O9 0.183288 0.001339 0.086231
O O10 0.450719 0.944353 0.863840
O O11 0.232312 0.810777 0.999404
O O12 0.500000 0.500000 0.500000
O O13 0.865631 0.298945 0.660712
O O14 0.908584 0.726254 0.103284
O O15 0.000000 0.500000 0.500000
O O16 0.500000 0.000000 0.500000
#
# Coordination Sequence:
#
# PCOD9025693 Si02
#       7
#     2   2   2   2   2   2   2
#     4  11  23  41  67  99 134 180 229 283 334 401
#     4  11  22  43  66  97 137 176 233 275 341 412
#     4  10  23  42  63  97 138 172 227 280 342 408
#     4  11  26  43  70 104 138 182 229 286 347 407
#     4  10  22  40  70  97 132 182 222 282 344 406
#     4  11  22  40  68  98 138 182 228 285 340 400
#     4  10  24  42  67  97 135 180 223 280 340 406
#
# _framework density 27.252327999999999
#
# number of rings (size 3 to 8) (size 9 to 14) (size 15 to 20)
#    0.000    1.429    2.857    2.571    4.000    4.571 
#    0.000    5.714    0.000    0.000    0.000    0.000 
#    0.000    0.000    0.000    0.000    0.000    0.000 
#
# Total GULP energy -78095.196675 kJ/mol
# GULP energy per Si atom -5578.228334 kJ/mol
# Density = 2.719030 g / cm^3
# Si number density = 27.252328 Si / 1000 Ang^3
#
#
#
# Elastic Constant Matrix: (Units=GPa)
#
#
# Indices 1 2 3 4 5 6 
#
# 1 70.5215 16.4752 27.6038 3.5756 -2.3101 -3.6899
# 2 16.4752 172.4287 77.3649 13.0087 4.8676 -29.6818
# 3 27.6038 77.3649 199.4007 2.2331 -19.7886 -33.9370
# 4 3.5756 13.0087 2.2331 67.3567 0.6605 1.2316
# 5 -2.3101 4.8676 -19.7886 0.6605 41.0706 -6.7812
# 6 -3.6899 -29.6818 -33.9370 1.2316 -6.7812 48.7088
#
#
#
# Elastic Compliance Matrix: (Units=1/GPa)
#
#
# Indices 1 2 3 4 5 6 
#
# 1 0.015085 -0.000619 -0.001953 -0.000605 -0.000108 -0.000595
# 2 -0.000619 0.007618 -0.002586 -0.001383 -0.001734 0.002587
# 3 -0.001953 -0.002586 0.007417 0.000240 0.004436 0.004055
# 4 -0.000605 -0.001383 0.000240 0.015160 -0.000185 -0.001131
# 5 -0.000108 -0.001734 0.004436 -0.000185 0.027659 0.005881
# 6 -0.000595 0.002587 0.004055 -0.001131 0.005881 0.025734
#
#
# Mechanical properties :
#
#
# Convention : Reuss Voigt Hill
#
# Bulk Modulus (GPa) = 50.49867 76.13762 63.31814
# Shear Modulus (GPa) = 43.25643 52.82101 48.03872
#
# Velocity S-wave (km/s) = 3.98836 4.40730 4.20305
# Velocity P-wave (km/s) = 6.30711 7.34151 6.84388
#
# Compressibility (1/GPa) = 0.01980250
#
# Stress axis : x y z
#
# Youngs Moduli (GPa) = 66.29002 131.27546 134.83398
#
# Poissons Ratio (x) = 0.08121 0.26340
# Poissons Ratio (y) = 0.04101 0.34872
# Poissons Ratio (z) = 0.12950 0.33952
#
# Static dielectric constant tensor:
#      x y z
#    x 2.459500 -0.056840 0.095190 
#    y -0.056840 2.101600 -0.009900 
#    z 0.095190 -0.009900 2.413860 
# 
# From -- ./inp_files/184888.got.cif
#   From: 2010.05.17/outbox.cif.g08.bks.cpg/sg2_93_cif.got.tgz:184888.got - 2010.06.03 11:33:40.
