data_PCOD9025710
_publ_section_title
;
Structure prediction by ZEFSAII (Michael W. Deem and Ramdas Pophale) SiO2 
 PCOD9025710
Probable space group: P -1
;
_chemical_formula_sum "Si O2"
_cell_formula_units_Z 11
_cell_length_a 14.179024
_cell_length_b 7.598355
_cell_length_c 12.715253
_cell_angle_alpha 47.992544
_cell_angle_beta 40.668135
_cell_angle_gamma 29.809480
_cell_volume 443.534546
_symmetry_space_group_name_H-M "P -1"
_symmetry_group_IT_number 2
_symmetry_cell_setting 'triclinic'
loop_
_space_group_symop_operation_xyz
x,y,z
-x,-y,-z
loop_
_atom_site_type_symbol
_atom_site_label
_atom_site_fract_x
_atom_site_fract_y
_atom_site_fract_z
Si Si1 0.500000 0.000000 0.000000
Si Si2 0.460687 0.859527 0.496767
Si Si3 0.959322 0.821198 0.178486
Si Si4 0.724785 0.816203 0.693919
Si Si5 0.896615 0.722797 0.892480
Si Si6 0.080668 0.944221 0.571547
O O1 0.654571 0.940755 0.982376
O O2 0.579970 0.090837 0.803569
O O3 0.398239 0.064626 0.358434
O O4 0.677395 0.447418 0.460727
O O5 0.500000 0.000000 0.500000
O O6 0.262158 0.930077 0.670485
O O7 0.970632 0.575694 0.192445
O O8 0.833126 0.466954 0.805869
O O9 0.000000 0.000000 0.000000
O O10 0.908770 0.789569 0.527741
O O11 0.931455 0.959937 0.762307
O O12 0.000000 0.500000 0.000000
O O13 0.000000 0.000000 0.500000
#
# Coordination Sequence:
#
# PCOD9025710 Si02
#       6
#     1   2   2   2   2   2
#     4  10  22  40  70  98 134 176 244 282 348 404
#     4  12  25  46  69 104 146 186 237 294 371 421
#     4  11  26  45  67 103 144 182 236 298 364 418
#     4  11  25  46  72 103 140 193 238 297 347 443
#     4  11  24  44  69 101 140 184 236 291 351 430
#     4  12  23  45  71 101 136 188 243 286 348 436
#
# _framework density 24.800773
#
# number of rings (size 3 to 8) (size 9 to 14) (size 15 to 20)
#    0.000    0.727    5.455    2.182    7.636    0.000 
#    0.000    0.909    0.000    0.000    0.000    0.000 
#    0.000    0.000    0.000    0.000    0.000    0.000 
#
# Total GULP energy -61328.003442 kJ/mol
# GULP energy per Si atom -5575.273040 kJ/mol
# Density = 2.474433 g / cm^3
# Si number density = 24.800773 Si / 1000 Ang^3
#
#
#
# Elastic Constant Matrix: (Units=GPa)
#
#
# Indices 1 2 3 4 5 6 
#
# 1 154.4243 36.6446 61.3202 -25.9026 47.3944 -26.9554
# 2 36.6446 82.0467 20.7808 -22.6667 17.1019 -20.8788
# 3 61.3202 20.7808 148.9334 -46.0071 20.8313 -25.5259
# 4 -25.9026 -22.6667 -46.0071 44.3595 -7.9832 3.3520
# 5 47.3944 17.1019 20.8313 -7.9832 53.1251 -9.2571
# 6 -26.9554 -20.8788 -25.5259 3.3520 -9.2571 53.7837
#
#
#
# Elastic Compliance Matrix: (Units=1/GPa)
#
#
# Indices 1 2 3 4 5 6 
#
# 1 0.010734 -0.001645 -0.002270 0.001547 -0.007528 0.002272
# 2 -0.001645 0.016933 0.002632 0.009513 -0.002547 0.005967
# 3 -0.002270 0.002632 0.011839 0.011789 -0.000889 0.004615
# 4 0.001547 0.009513 0.011789 0.039654 -0.001838 0.007276
# 5 -0.007528 -0.002547 -0.000889 -0.001838 0.026338 -0.000536
# 6 0.002272 0.005967 0.004615 0.007276 -0.000536 0.023693
#
#
# Mechanical properties :
#
#
# Convention : Reuss Voigt Hill
#
# Bulk Modulus (GPa) = 27.07004 69.21060 48.14032
# Shear Modulus (GPa) = 34.70555 48.03092 41.36824
#
# Velocity S-wave (km/s) = 3.74488 4.40554 4.08857
# Velocity P-wave (km/s) = 5.44404 7.33795 6.46077
#
# Compressibility (1/GPa) = 0.03694120
#
# Stress axis : x y z
#
# Youngs Moduli (GPa) = 93.16504 59.05467 84.46750
#
# Poissons Ratio (x) = 0.09712 0.19172
# Poissons Ratio (y) = 0.15321 -0.22231
# Poissons Ratio (z) = 0.21146 -0.15542
#
# Static dielectric constant tensor:
#      x y z
#    x 1.985930 0.126660 0.056560 
#    y 0.126660 2.326690 0.240300 
#    z 0.056560 0.240300 2.076880 
# 
# From -- ./inp_files/442494.got.cif
#   From: 2010.05.17/outbox.cif.g08.bks.cpg/sg2_222_cif.got.tgz:442494.got - 2010.06.03 11:33:40.
