data_PCOD9025351
_publ_section_title
;
Structure prediction by ZEFSAII (Michael W. Deem and Ramdas Pophale) SiO2 
 PCOD9025351
Probable space group: P -1
;
_chemical_formula_sum "Si O2"
_cell_formula_units_Z 12
_cell_length_a 5.276459
_cell_length_b 10.155728
_cell_length_c 15.842147
_cell_angle_alpha 48.767860
_cell_angle_beta 96.162818
_cell_angle_gamma 65.413676
_cell_volume 481.764546
_symmetry_space_group_name_H-M "P -1"
_symmetry_group_IT_number 2
_symmetry_cell_setting 'triclinic'
loop_
_space_group_symop_operation_xyz
x,y,z
-x,-y,-z
loop_
_atom_site_type_symbol
_atom_site_label
_atom_site_fract_x
_atom_site_fract_y
_atom_site_fract_z
Si Si1 0.624529 0.986569 0.602725
Si Si2 0.081051 0.042350 0.639567
Si Si3 0.833317 0.675906 0.997648
Si Si4 0.862002 0.762934 0.139899
Si Si5 0.020572 0.441774 0.428216
Si Si6 0.957495 0.022508 0.146019
O O1 0.999313 0.886294 0.667921
O O2 0.417836 0.256087 0.502689
O O3 0.474602 0.913654 0.693420
O O4 0.500000 0.000000 0.500000
O O5 0.927352 0.278716 0.485870
O O6 0.977341 0.092353 0.712072
O O7 0.450123 0.779569 0.951335
O O8 0.865343 0.869664 0.897231
O O9 0.992356 0.603002 0.129304
O O10 0.000000 0.500000 0.000000
O O11 0.844212 0.642281 0.270009
O O12 0.054382 0.847010 0.148211
O O13 0.500000 0.000000 0.000000
O O14 0.000000 0.500000 0.500000
#
# Coordination Sequence:
#
# PCOD9025351 Si02
#       6
#     2   2   2   2   2   2
#     4  10  22  41  61  97 136 172 218 269 339 400
#     4  10  22  40  68  95 130 171 219 276 336 390
#     4  11  25  44  66  99 133 180 227 278 334 405
#     4  10  22  45  68 100 134 181 226 280 332 403
#     4  10  22  42  66 102 131 174 226 276 332 397
#     4  11  22  44  69  94 132 177 227 277 336 396
#
# _framework density 24.908432999999999
#
# number of rings (size 3 to 8) (size 9 to 14) (size 15 to 20)
#    1.000    0.667    1.667    2.500    0.000    3.333 
#   12.000    0.000    0.000    0.000    0.000    0.000 
#    0.000    0.000    0.000    0.000    0.000    0.000 
#
# Total GULP energy -66957.707191 kJ/mol
# GULP energy per Si atom -5579.808933 kJ/mol
# Density = 2.485174 g / cm^3
# Si number density = 24.908433 Si / 1000 Ang^3
#
#
#
# Elastic Constant Matrix: (Units=GPa)
#
#
# Indices 1 2 3 4 5 6 
#
# 1 130.4768 23.5644 18.1436 3.3337 -15.4877 30.1591
# 2 23.5644 158.3935 38.2637 37.5750 0.4368 -0.8525
# 3 18.1436 38.2637 139.1210 24.5194 -27.8847 -1.3894
# 4 3.3337 37.5750 24.5194 38.2048 -2.0363 3.9896
# 5 -15.4877 0.4368 -27.8847 -2.0363 35.5832 1.2898
# 6 30.1591 -0.8525 -1.3894 3.9896 1.2898 34.9211
#
#
#
# Elastic Compliance Matrix: (Units=1/GPa)
#
#
# Indices 1 2 3 4 5 6 
#
# 1 0.010984 -0.002285 -0.000403 0.002867 0.005022 -0.010071
# 2 -0.002285 0.008933 -0.001192 -0.008295 -0.002629 0.003189
# 3 -0.000403 -0.001192 0.009893 -0.004858 0.007278 0.000999
# 4 0.002867 -0.008295 -0.004858 0.037952 -0.000024 -0.007207
# 5 0.005022 -0.002629 0.007278 -0.000024 0.036220 -0.005446
# 6 -0.010071 0.003189 0.000999 -0.007207 -0.005446 0.038475
#
#
# Mechanical properties :
#
#
# Convention : Reuss Voigt Hill
#
# Bulk Modulus (GPa) = 45.35184 65.32608 55.33896
# Shear Modulus (GPa) = 31.73225 44.94312 38.33769
#
# Velocity S-wave (km/s) = 3.57312 4.25235 3.92745
# Velocity P-wave (km/s) = 5.93885 7.09883 6.54459
#
# Compressibility (1/GPa) = 0.02204982
#
# Stress axis : x y z
#
# Youngs Moduli (GPa) = 91.04558 111.93896 101.07721
#
# Poissons Ratio (x) = 0.25575 0.04077
# Poissons Ratio (y) = 0.20801 0.12050
# Poissons Ratio (z) = 0.03672 0.13345
#
# Static dielectric constant tensor:
#      x y z
#    x 2.125430 0.036010 0.070630 
#    y 0.036010 2.081110 0.016660 
#    z 0.070630 0.016660 1.970210 
# 
# From -- ./inp_files/479633.got.cif
#   From: 2010.05.17/outbox.cif.g08.bks.cpg/sg2_240_cif.got.tgz:479633.got - 2010.06.03 11:33:40.
