data_PCOD9025689
_publ_section_title
;
Structure prediction by ZEFSAII (Michael W. Deem and Ramdas Pophale) SiO2 
 PCOD9025689
Probable space group: P -1
;
_chemical_formula_sum "Si O2"
_cell_formula_units_Z 14
_cell_length_a 14.251758
_cell_length_b 8.337082
_cell_length_c 8.027950
_cell_angle_alpha 105.687199
_cell_angle_beta 36.809364
_cell_angle_gamma 115.264962
_cell_volume 512.346112
_symmetry_space_group_name_H-M "P -1"
_symmetry_group_IT_number 2
_symmetry_cell_setting 'triclinic'
loop_
_space_group_symop_operation_xyz
x,y,z
-x,-y,-z
loop_
_atom_site_type_symbol
_atom_site_label
_atom_site_fract_x
_atom_site_fract_y
_atom_site_fract_z
Si Si1 0.674250 0.513577 0.451115
Si Si2 0.135266 0.684054 0.059569
Si Si3 0.992169 0.094766 0.359591
Si Si4 0.788685 0.457062 0.590591
Si Si5 0.148260 0.870422 0.776745
Si Si6 0.343789 0.230767 0.741245
Si Si7 0.646163 0.156739 0.933279
O O1 0.714053 0.563085 0.600253
O O2 0.511953 0.332575 0.629663
O O3 0.647240 0.655254 0.406842
O O4 0.825889 0.471954 0.135082
O O5 0.315975 0.805258 0.913779
O O6 0.982266 0.586004 0.376657
O O7 0.069974 0.792685 0.047864
O O8 0.946902 0.065129 0.214697
O O9 0.819540 0.127051 0.646158
O O10 0.000000 0.000000 0.500000
O O11 0.187623 0.219219 0.081708
O O12 0.800901 0.288259 0.419317
O O13 0.672732 0.353900 0.877439
O O14 0.306783 0.036186 0.662677
O O15 0.500000 0.000000 0.000000
#
# Coordination Sequence:
#
# PCOD9025689 Si02
#       7
#     2   2   2   2   2   2   2
#     4  10  23  39  68  98 140 168 226 283 333 401
#     4  11  22  43  71  97 133 179 228 280 332 389
#     4  11  24  41  64  97 140 169 220 276 339 395
#     4  10  22  41  67  98 136 172 233 271 339 390
#     4  10  22  40  70  97 127 177 231 265 328 408
#     4  11  23  41  63 102 136 179 218 276 344 398
#     4  11  26  42  68 100 135 179 233 278 328 403
#
# _framework density 27.325277
#
# number of rings (size 3 to 8) (size 9 to 14) (size 15 to 20)
#    0.000    1.429    0.000    6.000    8.000    2.286 
#    0.000    0.000    0.000    4.286    0.000    0.000 
#    0.000    0.000    0.000    0.000    0.000    0.000 
#
# Total GULP energy -78033.834633 kJ/mol
# GULP energy per Si atom -5573.845331 kJ/mol
# Density = 2.726308 g / cm^3
# Si number density = 27.325277 Si / 1000 Ang^3
#
#
#
# Elastic Constant Matrix: (Units=GPa)
#
#
# Indices 1 2 3 4 5 6 
#
# 1 178.4661 48.0545 32.6571 -31.4502 17.2252 4.9793
# 2 48.0545 73.5274 25.0587 -34.5662 -10.7855 21.4942
# 3 32.6571 25.0587 109.1251 -25.1563 -12.2143 16.7831
# 4 -31.4502 -34.5662 -25.1563 45.8623 9.7130 -7.4824
# 5 17.2252 -10.7855 -12.2143 9.7130 53.7614 -19.2645
# 6 4.9793 21.4942 16.7831 -7.4824 -19.2645 40.9958
#
#
#
# Elastic Compliance Matrix: (Units=1/GPa)
#
#
# Indices 1 2 3 4 5 6 
#
# 1 0.007754 -0.004226 -0.001318 0.002301 -0.003904 0.000399
# 2 -0.004226 0.026784 0.000411 0.015732 0.000119 -0.010771
# 3 -0.001318 0.000411 0.011187 0.004793 0.001001 -0.003289
# 4 0.002301 0.015732 0.004793 0.038043 -0.005575 -0.006166
# 5 -0.003904 0.000119 0.001001 -0.005575 0.024947 0.010707
# 6 0.000399 -0.010771 -0.003289 -0.006166 0.010707 0.035244
#
#
# Mechanical properties :
#
#
# Convention : Reuss Voigt Hill
#
# Bulk Modulus (GPa) = 28.20197 63.62878 45.91538
# Shear Modulus (GPa) = 30.11239 45.14711 37.62975
#
# Velocity S-wave (km/s) = 3.32324 4.06915 3.71496
# Velocity P-wave (km/s) = 5.00684 6.73896 5.93641
#
# Compressibility (1/GPa) = 0.03545851
#
# Stress axis : x y z
#
# Youngs Moduli (GPa) = 128.97389 37.33562 89.39072
#
# Poissons Ratio (x) = 0.15777 0.11780
# Poissons Ratio (y) = 0.54500 -0.03670
# Poissons Ratio (z) = 0.16996 -0.01533
#
# Static dielectric constant tensor:
#      x y z
#    x 2.211910 0.054710 0.193250 
#    y 0.054710 2.454050 0.191750 
#    z 0.193250 0.191750 2.357490 
# 
# From -- ./inp_files/298676.got.cif
#   From: 2010.05.17/outbox.cif.g08.bks.cpg/sg2_150_cif.got.tgz:298676.got - 2010.06.03 11:33:40.
