data_PCOD9025664
_publ_section_title
;
Structure prediction by ZEFSAII (Michael W. Deem and Ramdas Pophale) SiO2 
 PCOD9025664
Probable space group: P -1
;
_chemical_formula_sum "Si O2"
_cell_formula_units_Z 14
_cell_length_a 5.118945
_cell_length_b 14.741854
_cell_length_c 9.654171
_cell_angle_alpha 103.296003
_cell_angle_beta 76.038938
_cell_angle_gamma 74.876033
_cell_volume 648.299415
_symmetry_space_group_name_H-M "P -1"
_symmetry_group_IT_number 2
_symmetry_cell_setting 'triclinic'
loop_
_space_group_symop_operation_xyz
x,y,z
-x,-y,-z
loop_
_atom_site_type_symbol
_atom_site_label
_atom_site_fract_x
_atom_site_fract_y
_atom_site_fract_z
Si Si1 0.943464 0.379355 0.736369
Si Si2 0.244469 0.030116 0.392877
Si Si3 0.603760 0.523757 0.346673
Si Si4 0.510881 0.237847 0.905623
Si Si5 0.774117 0.020743 0.915223
Si Si6 0.864840 0.360548 0.032710
Si Si7 0.656371 0.831658 0.357384
O O1 0.663815 0.418480 0.694736
O O2 0.188789 0.411680 0.644455
O O3 0.054742 0.261381 0.706194
O O4 0.901737 0.421440 0.913153
O O5 0.328830 0.119958 0.477694
O O6 0.129545 0.045373 0.257876
O O7 0.543857 0.936635 0.325668
O O8 0.000000 0.000000 0.500000
O O9 0.500000 0.500000 0.500000
O O10 0.769241 0.425336 0.203918
O O11 0.685036 0.133622 0.914931
O O12 0.528715 0.220832 0.729320
O O13 0.625601 0.316973 0.991892
O O14 0.169319 0.274622 0.988095
O O15 0.500000 0.000000 0.000000
O O16 0.000000 0.000000 0.000000
#
# Coordination Sequence:
#
# PCOD9025664 Si02
#       7
#     2   2   2   2   2   2   2
#     4  11  23  42  71  94 125 168 226 264 315 395
#     4  10  23  40  70  92 136 172 216 273 324 372
#     4  12  26  45  63  96 137 169 205 275 335 385
#     4  10  22  40  70  94 132 168 222 272 316 385
#     4  11  25  43  61  96 138 175 216 261 327 388
#     4  11  22  43  70  97 119 173 224 266 323 380
#     4   9  22  39  65 100 126 164 225 270 320 363
#
# _framework density 21.594961999999999
#
# number of rings (size 3 to 8) (size 9 to 14) (size 15 to 20)
#    0.000    1.429    0.000    4.714   16.000    0.000 
#    7.714    0.000    0.000    0.000    0.000    0.000 
#    0.000    0.000    0.000    0.000    0.000    0.000 
#
# Total GULP energy -77974.506603 kJ/mol
# GULP energy per Si atom -5569.607615 kJ/mol
# Density = 2.154581 g / cm^3
# Si number density = 21.594962 Si / 1000 Ang^3
#
#
#
# Elastic Constant Matrix: (Units=GPa)
#
#
# Indices 1 2 3 4 5 6 
#
# 1 134.2083 29.8363 43.0320 6.1694 23.3921 -10.9058
# 2 29.8363 59.6525 37.7337 14.0245 10.6032 -20.0595
# 3 43.0320 37.7337 145.6028 -0.7274 16.4850 -2.6951
# 4 6.1694 14.0245 -0.7274 35.6035 3.6370 2.0864
# 5 23.3921 10.6032 16.4850 3.6370 34.6732 -13.6125
# 6 -10.9058 -20.0595 -2.6951 2.0864 -13.6125 32.2695
#
#
#
# Elastic Compliance Matrix: (Units=1/GPa)
#
#
# Indices 1 2 3 4 5 6 
#
# 1 0.009435 -0.003465 -0.001322 0.000312 -0.005219 -0.001297
# 2 -0.003465 0.033530 -0.008038 -0.014745 0.006335 0.022626
# 3 -0.001322 -0.008038 0.009737 0.004441 -0.004405 -0.006775
# 4 0.000312 -0.014745 0.004441 0.035464 -0.007005 -0.013937
# 5 -0.005219 0.006335 -0.004405 -0.007005 0.040917 0.019519
# 6 -0.001297 0.022626 -0.006775 -0.013937 0.019519 0.053185
#
#
# Mechanical properties :
#
#
# Convention : Reuss Voigt Hill
#
# Bulk Modulus (GPa) = 36.96358 62.29640 49.62999
# Shear Modulus (GPa) = 23.04832 35.76669 29.40751
#
# Velocity S-wave (km/s) = 3.27050 4.07412 3.69423
# Velocity P-wave (km/s) = 5.60495 7.14434 6.42094
#
# Compressibility (1/GPa) = 0.02705365
#
# Stress axis : x y z
#
# Youngs Moduli (GPa) = 105.98551 29.82393 102.69808
#
# Poissons Ratio (x) = 0.10333 0.13578
# Poissons Ratio (y) = 0.36722 0.82544
# Poissons Ratio (z) = 0.14013 0.23971
#
# Static dielectric constant tensor:
#      x y z
#    x 1.857280 0.004170 -0.086480 
#    y 0.004170 1.812940 0.062460 
#    z -0.086480 0.062460 1.917660 
# 
# From -- ./inp_files/134354.got.cif
#   From: 2010.05.17/outbox.cif.g08.bks.cpg/sg2_68_cif.got.tgz:134354.got - 2010.06.03 11:33:40.
