data_PCOD9025433
_publ_section_title
;
Structure prediction by ZEFSAII (Michael W. Deem and Ramdas Pophale) SiO2 
 PCOD9025433
Probable space group: P -1
;
_chemical_formula_sum "Si O2"
_cell_formula_units_Z 16
_cell_length_a 14.505058
_cell_length_b 25.637109
_cell_length_c 8.847023
_cell_angle_alpha 133.980445
_cell_angle_beta 126.645095
_cell_angle_gamma 20.205413
_cell_volume 797.511802
_symmetry_space_group_name_H-M "P -1"
_symmetry_group_IT_number 2
_symmetry_cell_setting 'triclinic'
loop_
_space_group_symop_operation_xyz
x,y,z
-x,-y,-z
loop_
_atom_site_type_symbol
_atom_site_label
_atom_site_fract_x
_atom_site_fract_y
_atom_site_fract_z
Si Si1 0.214286 0.690788 0.167999
Si Si2 0.794599 0.831693 0.871595
Si Si3 0.917992 0.170220 0.353963
Si Si4 0.632190 0.990494 0.704756
Si Si5 0.711527 0.201275 0.664066
Si Si6 0.698580 0.184808 0.956875
Si Si7 0.858121 0.514670 0.480067
Si Si8 0.728414 0.662477 0.963355
O O1 0.185286 0.777056 0.210176
O O2 0.200557 0.724138 0.397843
O O3 0.500000 0.500000 0.000000
O O4 0.982909 0.767976 0.045492
O O5 0.936273 0.671396 0.678660
O O6 0.754267 0.891261 0.784812
O O7 0.500000 0.000000 0.000000
O O8 0.731674 0.245079 0.186750
O O9 0.135862 0.100511 0.350933
O O10 0.044404 0.018456 0.217416
O O11 0.500000 0.000000 0.500000
O O12 0.394413 0.187488 0.888344
O O13 0.441069 0.338659 0.578617
O O14 0.608530 0.245811 0.821064
O O15 0.000000 0.000000 0.500000
O O16 0.498204 0.252791 0.998564
O O17 0.793661 0.584379 0.718128
O O18 0.000000 0.500000 0.500000
O O19 0.000000 0.500000 0.000000
#
# Coordination Sequence:
#
# PCOD9025433 Si02
#       8
#     2   2   2   2   2   2   2   2
#     4  12  25  46  68 103 146 182 232 288 355 413
#     4  12  27  46  71  99 141 188 235 289 354 422
#     4  10  22  42  68  98 134 177 226 281 336 413
#     4  11  24  44  70  99 136 186 229 281 356 418
#     4  12  25  43  75 104 140 187 233 288 347 419
#     4  10  22  40  69 100 131 175 231 277 340 403
#     4  12  27  46  70 104 139 182 240 292 349 421
#     4  11  24  43  70 100 140 177 232 293 344 414
#
# _framework density 20.062398000000002
#
# number of rings (size 3 to 8) (size 9 to 14) (size 15 to 20)
#    0.000    0.750    2.500    4.500    7.000    2.000 
#    4.500    1.250    0.000    0.000    0.000    0.000 
#    0.000    0.000    0.000    0.000    0.000    0.000 
#
# Total GULP energy -89183.839022 kJ/mol
# GULP energy per Si atom -5573.989939 kJ/mol
# Density = 2.001674 g / cm^3
# Si number density = 20.062398 Si / 1000 Ang^3
#
#
#
# Elastic Constant Matrix: (Units=GPa)
#
#
# Indices 1 2 3 4 5 6 
#
# 1 97.1006 28.8683 66.1411 6.0659 3.1852 7.5829
# 2 28.8683 114.3628 80.4097 4.5978 0.6399 -2.3194
# 3 66.1411 80.4097 198.7258 2.8596 -2.1137 8.2611
# 4 6.0659 4.5978 2.8596 45.6644 7.1480 0.3242
# 5 3.1852 0.6399 -2.1137 7.1480 46.6519 -3.6345
# 6 7.5829 -2.3194 8.2611 0.3242 -3.6345 38.8999
#
#
#
# Elastic Compliance Matrix: (Units=1/GPa)
#
#
# Indices 1 2 3 4 5 6 
#
# 1 0.013593 -0.000403 -0.004276 -0.001318 -0.001059 -0.001854
# 2 -0.000403 0.012399 -0.004949 -0.000885 -0.000086 0.001868
# 3 -0.004276 -0.004949 0.008508 0.000451 0.000581 -0.001218
# 4 -0.001318 -0.000885 0.000451 0.022667 -0.003381 -0.000396
# 5 -0.001059 -0.000086 0.000581 -0.003381 0.022223 0.002182
# 6 -0.001854 0.001868 -0.001218 -0.000396 0.002182 0.026646
#
#
# Mechanical properties :
#
#
# Convention : Reuss Voigt Hill
#
# Bulk Modulus (GPa) = 65.59949 84.55861 75.07905
# Shear Modulus (GPa) = 38.35122 41.89459 40.12290
#
# Velocity S-wave (km/s) = 4.37692 4.57466 4.47688
# Velocity P-wave (km/s) = 7.63623 8.37512 8.01419
#
# Compressibility (1/GPa) = 0.01524402
#
# Stress axis : x y z
#
# Youngs Moduli (GPa) = 73.56665 80.64945 117.53673
#
# Poissons Ratio (x) = 0.03253 0.50261
# Poissons Ratio (y) = 0.02967 0.58166
# Poissons Ratio (z) = 0.31458 0.39911
#
# Static dielectric constant tensor:
#      x y z
#    x 1.662540 -0.031090 -0.012010 
#    y -0.031090 1.638620 -0.036290 
#    z -0.012010 -0.036290 1.666330 
# 
# From -- ./inp_files/320758.got.cif
#   From: 2010.05.17/outbox.cif.g08.bks.cpg/sg2_161_cif.got.tgz:320758.got - 2010.06.03 11:33:40.
