data_PCOD9025971
_publ_section_title
;
Structure prediction by ZEFSAII (Michael W. Deem and Ramdas Pophale) SiO2 
 PCOD9025971
Probable space group: P -1
;
_chemical_formula_sum "Si O2"
_cell_formula_units_Z 12
_cell_length_a 7.745795
_cell_length_b 5.403030
_cell_length_c 16.235779
_cell_angle_alpha 68.965874
_cell_angle_beta 79.725643
_cell_angle_gamma 115.907980
_cell_volume 523.028483
_symmetry_space_group_name_H-M "P -1"
_symmetry_group_IT_number 2
_symmetry_cell_setting 'triclinic'
loop_
_space_group_symop_operation_xyz
x,y,z
-x,-y,-z
loop_
_atom_site_type_symbol
_atom_site_label
_atom_site_fract_x
_atom_site_fract_y
_atom_site_fract_z
Si Si1 0.605479 0.003065 0.882612
Si Si2 0.084144 0.297513 0.398692
Si Si3 0.837707 0.409787 0.952859
Si Si4 0.314481 0.741993 0.607726
Si Si5 0.468481 0.330465 0.612659
Si Si6 0.240109 0.298360 0.211495
O O1 0.781771 0.130131 0.924993
O O2 0.600011 0.319160 0.833957
O O3 0.664712 0.892303 0.809168
O O4 0.387614 0.721022 0.970470
O O5 0.306762 0.561977 0.384530
O O6 0.119307 0.191473 0.319689
O O7 0.911643 0.385896 0.396493
O O8 0.000000 0.000000 0.500000
O O9 0.896233 0.698777 0.852900
O O10 0.000000 0.500000 0.000000
O O11 0.361099 0.477372 0.655051
O O12 0.500000 0.000000 0.500000
O O13 0.334888 0.957721 0.656480
O O14 0.500000 0.500000 0.500000
#
# Coordination Sequence:
#
# PCOD9025971 Si02
#       6
#     2   2   2   2   2   2
#     4   9  21  44  64  94 136 156 210 273 319 396
#     4  12  24  44  68  91 139 185 218 283 320 380
#     4   9  20  42  72  97 127 167 205 267 335 390
#     4  10  22  41  60  88 117 162 232 265 318 376
#     4  10  22  41  60  89 112 170 225 264 324 372
#     4  10  23  43  60 101 130 168 219 260 327 391
#
# _framework density 22.943303
#
# number of rings (size 3 to 8) (size 9 to 14) (size 15 to 20)
#    1.000    1.000    3.333    0.500    0.000    7.333 
#    6.000    0.000    0.000    0.000    0.000    0.000 
#    0.000    0.000    0.000    0.000    0.000    0.000 
#
# Total GULP energy -66939.900865 kJ/mol
# GULP energy per Si atom -5578.325072 kJ/mol
# Density = 2.289108 g / cm^3
# Si number density = 22.943303 Si / 1000 Ang^3
#
#
#
# Elastic Constant Matrix: (Units=GPa)
#
#
# Indices 1 2 3 4 5 6 
#
# 1 134.7699 66.1521 18.8964 9.1694 1.3464 18.8156
# 2 66.1521 114.7271 17.6575 14.2725 0.7555 -13.1027
# 3 18.8964 17.6575 118.6476 6.1939 -10.8161 -1.7269
# 4 9.1694 14.2725 6.1939 14.8358 -8.2193 -1.0657
# 5 1.3464 0.7555 -10.8161 -8.2193 25.0001 14.7605
# 6 18.8156 -13.1027 -1.7269 -1.0657 14.7605 41.4052
#
#
#
# Elastic Compliance Matrix: (Units=1/GPa)
#
#
# Indices 1 2 3 4 5 6 
#
# 1 0.013540 -0.009769 -0.000393 0.004800 0.008067 -0.012013
# 2 -0.009769 0.018899 -0.001504 -0.019448 -0.016350 0.015686
# 3 -0.000393 -0.001504 0.009136 0.000683 0.005299 -0.001788
# 4 0.004800 -0.019448 0.000683 0.109054 0.050316 -0.023437
# 5 0.008067 -0.016350 0.005299 0.050316 0.080072 -0.035869
# 6 -0.012013 0.015686 -0.001788 -0.023437 -0.035869 0.046684
#
#
# Mechanical properties :
#
#
# Convention : Reuss Voigt Hill
#
# Bulk Modulus (GPa) = 54.81128 63.72851 59.26990
# Shear Modulus (GPa) = 16.29734 33.94413 25.12073
#
# Velocity S-wave (km/s) = 2.66810 3.85057 3.31252
# Velocity P-wave (km/s) = 5.78216 6.89971 6.36551
#
# Compressibility (1/GPa) = 0.01824442
#
# Stress axis : x y z
#
# Youngs Moduli (GPa) = 73.85279 52.91213 109.45607
#
# Poissons Ratio (x) = 0.51692 0.04298
# Poissons Ratio (y) = 0.72149 0.16459
# Poissons Ratio (z) = 0.02900 0.07957
#
# Static dielectric constant tensor:
#      x y z
#    x 1.889050 -0.041320 -0.000600 
#    y -0.041320 1.935540 0.010140 
#    z -0.000600 0.010140 1.894280 
# 
# From -- ./inp_files/486982.got.cif
#   From: 2010.05.17/outbox.cif.g08.bks.cpg/sg2_244_cif.got.tgz:486982.got - 2010.06.03 11:33:40.
