data_PCOD9025614
_publ_section_title
;
Structure prediction by ZEFSAII (Michael W. Deem and Ramdas Pophale) SiO2 
 PCOD9025614
Probable space group: P -1
;
_chemical_formula_sum "Si O2"
_cell_formula_units_Z 14
_cell_length_a 5.357552
_cell_length_b 13.885071
_cell_length_c 8.083633
_cell_angle_alpha 73.247775
_cell_angle_beta 96.703087
_cell_angle_gamma 65.708243
_cell_volume 505.405783
_symmetry_space_group_name_H-M "P -1"
_symmetry_group_IT_number 2
_symmetry_cell_setting 'triclinic'
loop_
_space_group_symop_operation_xyz
x,y,z
-x,-y,-z
loop_
_atom_site_type_symbol
_atom_site_label
_atom_site_fract_x
_atom_site_fract_y
_atom_site_fract_z
Si Si1 0.757411 0.623907 0.987678
Si Si2 0.320745 0.057038 0.688206
Si Si3 0.988188 0.247341 0.841249
Si Si4 0.011246 0.058920 0.143828
Si Si5 0.808700 0.742989 0.632966
Si Si6 0.371595 0.526136 0.753832
Si Si7 0.609518 0.611438 0.462479
O O1 0.659825 0.718725 0.790216
O O2 0.545069 0.577344 0.062200
O O3 0.000000 0.500000 0.000000
O O4 0.869751 0.678846 0.110481
O O5 0.225724 0.135597 0.478384
O O6 0.202599 0.143012 0.794294
O O7 0.659538 0.995061 0.754871
O O8 0.179543 0.973398 0.733566
O O9 0.709994 0.318524 0.672497
O O10 0.911508 0.188602 0.019009
O O11 0.000000 0.000000 0.000000
O O12 0.701347 0.702942 0.482555
O O13 0.133191 0.648974 0.727341
O O14 0.600359 0.546909 0.660888
O O15 0.235642 0.482109 0.619297
#
# Coordination Sequence:
#
# PCOD9025614 Si02
#       7
#     2   2   2   2   2   2   2
#     4  10  25  42  61  91 142 176 215 268 340 410
#     4  11  22  41  72 101 129 174 234 286 339 398
#     4  11  22  43  66  99 131 172 222 281 337 397
#     4  10  22  40  70 102 132 165 231 296 340 391
#     4  11  22  42  61  91 136 173 219 274 338 400
#     4  10  23  38  61  92 128 170 228 270 331 390
#     4  11  23  37  68  93 124 175 232 276 330 396
#
# _framework density 27.700513000000001
#
# number of rings (size 3 to 8) (size 9 to 14) (size 15 to 20)
#    0.000    1.429    1.429    4.714    8.000    1.714 
#    2.571    1.429    0.000    0.000    0.000    1.000 
#    0.000    0.000    0.000    0.000    0.000    0.000 
#
# Total GULP energy -78434.471081 kJ/mol
# GULP energy per Si atom -5602.462220 kJ/mol
# Density = 2.763747 g / cm^3
# Si number density = 27.700513 Si / 1000 Ang^3
#
#
#
# Elastic Constant Matrix: (Units=GPa)
#
#
# Indices 1 2 3 4 5 6 
#
# 1 130.8702 61.2471 80.5663 -29.2055 -5.3758 27.0793
# 2 61.2471 147.2311 59.3498 -12.6206 1.2944 11.5666
# 3 80.5663 59.3498 173.7358 -51.4589 -20.7392 12.4542
# 4 -29.2055 -12.6206 -51.4589 68.5135 26.9945 -9.2855
# 5 -5.3758 1.2944 -20.7392 26.9945 63.2698 -15.3963
# 6 27.0793 11.5666 12.4542 -9.2855 -15.3963 47.8126
#
#
#
# Elastic Compliance Matrix: (Units=1/GPa)
#
#
# Indices 1 2 3 4 5 6 
#
# 1 0.013458 -0.003127 -0.004446 0.002015 -0.002607 -0.006156
# 2 -0.003127 0.008808 -0.001886 -0.000864 -0.000764 -0.000282
# 3 -0.004446 -0.001886 0.009962 0.004996 0.001219 0.001742
# 4 0.002015 -0.000864 0.004996 0.022011 -0.007669 -0.000428
# 5 -0.002607 -0.000764 0.001219 -0.007669 0.020871 0.006576
# 6 -0.006156 -0.000282 0.001742 -0.000428 0.006576 0.026050
#
#
# Mechanical properties :
#
#
# Convention : Reuss Voigt Hill
#
# Bulk Modulus (GPa) = 75.12790 94.90705 85.01748
# Shear Modulus (GPa) = 40.15630 52.63077 46.39354
#
# Velocity S-wave (km/s) = 3.81157 4.36362 4.09690
# Velocity P-wave (km/s) = 6.82284 7.72816 7.28957
#
# Compressibility (1/GPa) = 0.01331063
#
# Stress axis : x y z
#
# Youngs Moduli (GPa) = 74.30668 113.53587 100.38207
#
# Poissons Ratio (x) = 0.35502 0.44628
# Poissons Ratio (y) = 0.23235 0.18928
# Poissons Ratio (z) = 0.33035 0.21409
#
# Static dielectric constant tensor:
#      x y z
#    x 2.226880 -0.032800 -0.063160 
#    y -0.032800 2.119720 0.067570 
#    z -0.063160 0.067570 2.246090 
# 
# From -- ./inp_files/134089.got.cif
#   From: 2010.05.17/outbox.cif.g08.bks.cpg/sg2_68_cif.got.tgz:134089.got - 2010.06.03 11:33:40.
