data_PCOD9025578
_publ_section_title
;
Structure prediction by ZEFSAII (Michael W. Deem and Ramdas Pophale) SiO2 
 PCOD9025578
Probable space group: P -1
;
_chemical_formula_sum "Si O2"
_cell_formula_units_Z 16
_cell_length_a 11.877508
_cell_length_b 10.805576
_cell_length_c 8.331396
_cell_angle_alpha 72.240029
_cell_angle_beta 92.655964
_cell_angle_gamma 131.638952
_cell_volume 742.451948
_symmetry_space_group_name_H-M "P -1"
_symmetry_group_IT_number 2
_symmetry_cell_setting 'triclinic'
loop_
_space_group_symop_operation_xyz
x,y,z
-x,-y,-z
loop_
_atom_site_type_symbol
_atom_site_label
_atom_site_fract_x
_atom_site_fract_y
_atom_site_fract_z
Si Si1 0.510080 0.335529 0.229192
Si Si2 0.159785 0.932753 0.878677
Si Si3 0.405098 0.306555 0.873934
Si Si4 0.704503 0.435028 0.684078
Si Si5 0.033483 0.171822 0.383657
Si Si6 0.068657 0.596600 0.139599
Si Si7 0.744144 0.346515 0.376146
Si Si8 0.720661 0.036679 0.461028
O O1 0.566466 0.519003 0.226438
O O2 0.657393 0.355854 0.225287
O O3 0.386639 0.159481 0.397157
O O4 0.435209 0.304372 0.064446
O O5 0.239403 0.120574 0.885575
O O6 0.271591 0.967714 0.729762
O O7 0.005306 0.842914 0.802253
O O8 0.130631 0.791804 0.052037
O O9 0.534955 0.327117 0.780794
O O10 0.801032 0.643449 0.635119
O O11 0.799262 0.398952 0.800154
O O12 0.708660 0.396067 0.515611
O O13 0.900284 0.151166 0.470693
O O14 0.000000 0.000000 0.500000
O O15 0.924740 0.479643 0.297243
O O16 0.000000 0.500000 0.000000
O O17 0.681130 0.150590 0.464418
#
# Coordination Sequence:
#
# PCOD9025578 Si02
#       8
#     2   2   2   2   2   2   2   2
#     4  11  26  45  68  93 142 172 224 282 328 402
#     4  10  24  42  70  97 133 176 223 271 330 399
#     4  11  27  46  66 100 130 183 223 272 343 385
#     4  12  25  42  72  97 135 180 221 274 335 398
#     4  10  22  40  69  99 132 176 222 271 327 398
#     4  12  21  45  66  99 138 169 218 280 330 391
#     4  12  25  41  69 103 133 176 225 272 336 392
#     4  10  22  43  64  99 136 169 225 268 333 393
#
# _framework density 21.550215000000001
#
# number of rings (size 3 to 8) (size 9 to 14) (size 15 to 20)
#    0.750    0.250    3.750    3.000    3.500    1.500 
#    0.000    0.625    0.000    0.000    0.000    0.000 
#    0.000    0.000    0.000    0.000    0.000    0.000 
#
# Total GULP energy -89429.417717 kJ/mol
# GULP energy per Si atom -5589.338607 kJ/mol
# Density = 2.150117 g / cm^3
# Si number density = 21.550215 Si / 1000 Ang^3
#
#
#
# Elastic Constant Matrix: (Units=GPa)
#
#
# Indices 1 2 3 4 5 6 
#
# 1 37.2012 -16.7779 5.1933 -7.4227 8.0833 -0.1625
# 2 -16.7779 103.7399 25.8710 -13.5303 -0.7651 -9.8474
# 3 5.1933 25.8710 73.6866 -23.9886 8.3431 -14.9059
# 4 -7.4227 -13.5303 -23.9886 40.4676 -4.1221 2.0861
# 5 8.0833 -0.7651 8.3431 -4.1221 33.0104 -5.9489
# 6 -0.1625 -9.8474 -14.9059 2.0861 -5.9489 22.2418
#
#
#
# Elastic Compliance Matrix: (Units=1/GPa)
#
#
# Indices 1 2 3 4 5 6 
#
# 1 0.032815 0.006510 -0.001844 0.006446 -0.006706 -0.000512
# 2 0.006510 0.012198 -0.003056 0.003342 0.000457 0.003209
# 3 -0.001844 -0.003056 0.020434 0.010029 -0.001554 0.010972
# 4 0.006446 0.003342 0.010029 0.032781 0.001040 0.005452
# 5 -0.006706 0.000457 -0.001554 0.001040 0.033926 0.008088
# 6 -0.000512 0.003209 0.010972 0.005452 0.008088 0.055382
#
#
# Mechanical properties :
#
#
# Convention : Reuss Voigt Hill
#
# Bulk Modulus (GPa) = 14.56315 27.02229 20.79272
# Shear Modulus (GPa) = 24.13035 32.50003 28.31519
#
# Velocity S-wave (km/s) = 3.34986 3.88765 3.62873
# Velocity P-wave (km/s) = 4.66203 5.71998 5.21789
#
# Compressibility (1/GPa) = 0.06866647
#
# Stress axis : x y z
#
# Youngs Moduli (GPa) = 30.47369 81.97852 48.93702
#
# Poissons Ratio (x) = -0.53366 0.09025
# Poissons Ratio (y) = -0.19838 0.14956
# Poissons Ratio (z) = 0.05620 0.25054
#
# Static dielectric constant tensor:
#      x y z
#    x 1.782920 0.010740 0.003540 
#    y 0.010740 1.776200 0.015370 
#    z 0.003540 0.015370 1.769200 
# 
# From -- ./inp_files/262111.got.cif
#   From: 2010.05.17/outbox.cif.g08.bks.cpg/sg2_132_cif.got.tgz:262111.got - 2010.06.03 11:33:40.
