data_PCOD9025262
_publ_section_title
;
Structure prediction by ZEFSAII (Michael W. Deem and Ramdas Pophale) SiO2 
 PCOD9025262
Probable space group: P -1
;
_chemical_formula_sum "Si O2"
_cell_formula_units_Z 16
_cell_length_a 21.323498
_cell_length_b 9.058364
_cell_length_c 9.159141
_cell_angle_alpha 60.805612
_cell_angle_beta 151.413898
_cell_angle_gamma 115.340251
_cell_volume 738.966672
_symmetry_space_group_name_H-M "P -1"
_symmetry_group_IT_number 2
_symmetry_cell_setting 'triclinic'
loop_
_space_group_symop_operation_xyz
x,y,z
-x,-y,-z
loop_
_atom_site_type_symbol
_atom_site_label
_atom_site_fract_x
_atom_site_fract_y
_atom_site_fract_z
Si Si1 0.863948 0.040952 0.779152
Si Si2 0.291935 0.416953 0.871506
Si Si3 0.397757 0.000753 0.921999
Si Si4 0.896171 0.738121 0.200761
Si Si5 0.857856 0.404917 0.094306
Si Si6 0.609398 0.354235 0.797924
Si Si7 0.494436 0.689309 0.832368
Si Si8 0.201833 0.641063 0.329195
O O1 0.745679 0.018529 0.433121
O O2 0.865997 0.224252 0.769320
O O3 0.850771 0.906430 0.948018
O O4 0.000000 0.000000 0.000000
O O5 0.199451 0.308402 0.838601
O O6 0.229074 0.474781 0.562349
O O7 0.315934 0.589652 0.927279
O O8 0.430394 0.327730 0.159822
O O9 0.430208 0.838635 0.167016
O O10 0.500000 0.000000 0.000000
O O11 0.422479 0.174573 0.973456
O O12 0.891002 0.587081 0.143636
O O13 0.043503 0.731163 0.567507
O O14 0.710739 0.370844 0.864781
O O15 0.869727 0.402509 0.946244
O O16 0.500000 0.500000 0.500000
O O17 0.340574 0.726052 0.520147
O O18 0.500000 0.500000 0.000000
#
# Coordination Sequence:
#
# PCOD9025262 Si02
#       8
#     2   2   2   2   2   2   2   2
#     4  12  27  45  70 102 144 187 234 289 357 424
#     4  10  22  42  66 100 137 177 233 290 341 422
#     4  12  24  43  70 104 141 189 237 292 355 424
#     4  10  25  44  68  99 136 183 242 277 352 427
#     4  10  24  43  69  96 141 183 231 292 348 419
#     4  11  23  42  69 101 141 186 229 285 362 412
#     4  10  22  40  68 103 141 177 235 293 351 418
#     4  11  23  44  66  98 141 177 232 293 350 412
#
# _framework density 21.651855999999999
#
# number of rings (size 3 to 8) (size 9 to 14) (size 15 to 20)
#    0.000    1.250    2.500    2.250   10.500    3.000 
#    0.000    1.875    0.000    0.000    0.000    0.000 
#    0.000    0.000    0.000    0.000    0.000    0.000 
#
# Total GULP energy -89418.515802 kJ/mol
# GULP energy per Si atom -5588.657238 kJ/mol
# Density = 2.160258 g / cm^3
# Si number density = 21.651856 Si / 1000 Ang^3
#
#
#
# Elastic Constant Matrix: (Units=GPa)
#
#
# Indices 1 2 3 4 5 6 
#
# 1 124.3519 39.0566 40.1555 6.8326 10.2695 -18.3018
# 2 39.0566 89.2546 32.6883 -14.8897 -5.8292 8.5314
# 3 40.1555 32.6883 99.8866 -9.7757 0.1598 7.6503
# 4 6.8326 -14.8897 -9.7757 29.0873 -0.0509 -3.6692
# 5 10.2695 -5.8292 0.1598 -0.0509 47.7327 -2.8187
# 6 -18.3018 8.5314 7.6503 -3.6692 -2.8187 26.2593
#
#
#
# Elastic Compliance Matrix: (Units=1/GPa)
#
#
# Indices 1 2 3 4 5 6 
#
# 1 0.014393 -0.007005 -0.005141 -0.007128 -0.003206 0.012465
# 2 -0.007005 0.017264 -0.001308 0.008974 0.003126 -0.008521
# 3 -0.005141 -0.001308 0.013411 0.004237 0.000527 -0.006417
# 4 -0.007128 0.008974 0.004237 0.041694 0.002481 -0.003026
# 5 -0.003206 0.003126 0.000527 0.002481 0.021981 -0.000698
# 6 0.012465 -0.008521 -0.006417 -0.003026 -0.000698 0.050910
#
#
# Mechanical properties :
#
#
# Convention : Reuss Voigt Hill
#
# Bulk Modulus (GPa) = 55.06391 59.69932 57.38162
# Shear Modulus (GPa) = 25.95862 34.05538 30.00700
#
# Velocity S-wave (km/s) = 3.46628 3.97023 3.72679
# Velocity P-wave (km/s) = 6.44258 6.97490 6.71402
#
# Compressibility (1/GPa) = 0.01816071
#
# Stress axis : x y z
#
# Youngs Moduli (GPa) = 69.47798 57.92388 74.56474
#
# Poissons Ratio (x) = 0.40578 0.38332
# Poissons Ratio (y) = 0.48673 0.09750
# Poissons Ratio (z) = 0.35717 0.07574
#
# Static dielectric constant tensor:
#      x y z
#    x 1.870310 -0.058990 -0.013790 
#    y -0.058990 1.832420 0.008080 
#    z -0.013790 0.008080 1.893060 
# 
# From -- ./inp_files/343475.got.cif
#   From: 2010.05.17/outbox.cif.g08.bks.cpg/sg2_172_cif.got.tgz:343475.got - 2010.06.03 11:33:40.
