data_PCOD9025424
_publ_section_title
;
Structure prediction by ZEFSAII (Michael W. Deem and Ramdas Pophale) SiO2 
 PCOD9025424
Probable space group: P -1
;
_chemical_formula_sum "Si O2"
_cell_formula_units_Z 16
_cell_length_a 9.484160
_cell_length_b 11.411062
_cell_length_c 6.610405
_cell_angle_alpha 87.365080
_cell_angle_beta 83.207367
_cell_angle_gamma 66.409287
_cell_volume 651.015759
_symmetry_space_group_name_H-M "P -1"
_symmetry_group_IT_number 2
_symmetry_cell_setting 'triclinic'
loop_
_space_group_symop_operation_xyz
x,y,z
-x,-y,-z
loop_
_atom_site_type_symbol
_atom_site_label
_atom_site_fract_x
_atom_site_fract_y
_atom_site_fract_z
Si Si1 0.846850 0.925406 0.491648
Si Si2 0.606618 0.621390 0.301312
Si Si3 0.529992 0.128582 0.431877
Si Si4 0.921230 0.681535 0.682282
Si Si5 0.210479 0.529705 0.373706
Si Si6 0.179185 0.605094 0.923162
Si Si7 0.913706 0.071573 0.816587
Si Si8 0.607286 0.266139 0.045781
O O1 0.801952 0.814600 0.600042
O O2 0.976799 0.866738 0.305371
O O3 0.716745 0.058008 0.430510
O O4 0.920167 0.963729 0.667951
O O5 0.552753 0.763064 0.393511
O O6 0.635876 0.534809 0.509639
O O7 0.771619 0.535927 0.174229
O O8 0.500156 0.640570 0.117788
O O9 0.518545 0.200952 0.210763
O O10 0.500000 0.000000 0.500000
O O11 0.076893 0.630350 0.524242
O O12 0.000468 0.682388 0.885270
O O13 0.844953 0.581687 0.671744
O O14 0.214431 0.591574 0.155195
O O15 0.299560 0.669507 0.835774
O O16 0.741209 0.159012 0.901722
O O17 0.000000 0.000000 0.000000
#
# Coordination Sequence:
#
# PCOD9025424 Si02
#       8
#     2   2   2   2   2   2   2   2
#     4  11  23  41  67  98 136 175 225 280 339 404
#     4  11  25  45  67  98 137 182 228 280 343 418
#     4  12  27  47  67  98 142 187 231 282 345 416
#     4  10  22  40  68  99 133 180 229 288 345 405
#     4  10  22  44  66  99 137 179 231 285 348 406
#     4  11  24  42  70 101 135 178 232 291 343 411
#     4  11  22  41  65  98 131 172 224 280 336 399
#     4  12  25  44  69 105 137 182 235 285 350 414
#
# _framework density 24.576978
#
# number of rings (size 3 to 8) (size 9 to 14) (size 15 to 20)
#    0.000    1.000    2.500    3.750    1.750    3.500 
#    2.250    0.000    0.000    0.000    0.000    0.000 
#    0.000    0.000    0.000    0.000    0.000    0.000 
#
# Total GULP energy -89169.676746 kJ/mol
# GULP energy per Si atom -5573.104797 kJ/mol
# Density = 2.452104 g / cm^3
# Si number density = 24.576978 Si / 1000 Ang^3
#
#
#
# Elastic Constant Matrix: (Units=GPa)
#
#
# Indices 1 2 3 4 5 6 
#
# 1 60.6074 15.7820 36.0483 -12.1126 8.5124 2.3430
# 2 15.7820 97.6696 33.0796 -9.3790 1.9463 -6.8662
# 3 36.0483 33.0796 128.8353 -15.0088 12.4163 0.8152
# 4 -12.1126 -9.3790 -15.0088 45.4521 -13.1378 4.4045
# 5 8.5124 1.9463 12.4163 -13.1378 40.6111 -5.5647
# 6 2.3430 -6.8662 0.8152 4.4045 -5.5647 39.2483
#
#
#
# Elastic Compliance Matrix: (Units=1/GPa)
#
#
# Indices 1 2 3 4 5 6 
#
# 1 0.020786 -0.001512 -0.004841 0.003239 -0.002039 -0.002057
# 2 -0.001512 0.011598 -0.002538 0.001303 0.001261 0.002204
# 3 -0.004841 -0.002538 0.010062 0.001092 -0.001686 -0.000726
# 4 0.003239 0.001303 0.001092 0.025693 0.006979 -0.001882
# 5 -0.002039 0.001261 -0.001686 0.006979 0.028257 0.003600
# 6 -0.002057 0.002204 -0.000726 -0.001882 0.003600 0.026724
#
#
# Mechanical properties :
#
#
# Convention : Reuss Voigt Hill
#
# Bulk Modulus (GPa) = 40.54647 50.77025 45.65836
# Shear Modulus (GPa) = 33.52912 38.54246 36.03579
#
# Velocity S-wave (km/s) = 3.69758 3.96439 3.83331
# Velocity P-wave (km/s) = 5.89602 6.45428 6.18145
#
# Compressibility (1/GPa) = 0.02466306
#
# Stress axis : x y z
#
# Youngs Moduli (GPa) = 48.10975 86.22464 99.38011
#
# Poissons Ratio (x) = 0.13038 0.48109
# Poissons Ratio (y) = 0.07275 0.25226
# Poissons Ratio (z) = 0.23289 0.21887
#
# Static dielectric constant tensor:
#      x y z
#    x 2.255470 -0.009800 -0.130600 
#    y -0.009800 1.970770 -0.034700 
#    z -0.130600 -0.034700 2.028910 
# 
# From -- ./inp_files/70540.got.cif
#   From: 2010.05.17/outbox.cif.g08.bks.cpg/sg2_36_cif.got.tgz:70540.got - 2010.06.03 11:33:40.
