data_PCOD9025793
_publ_section_title
;
Structure prediction by ZEFSAII (Michael W. Deem and Ramdas Pophale) SiO2 
 PCOD9025793
Probable space group: P -1
;
_chemical_formula_sum "Si O2"
_cell_formula_units_Z 13
_cell_length_a 10.933312
_cell_length_b 13.566308
_cell_length_c 9.957464
_cell_angle_alpha 110.828810
_cell_angle_beta 40.835478
_cell_angle_gamma 134.460945
_cell_volume 639.375731
_symmetry_space_group_name_H-M "P -1"
_symmetry_group_IT_number 2
_symmetry_cell_setting 'triclinic'
loop_
_space_group_symop_operation_xyz
x,y,z
-x,-y,-z
loop_
_atom_site_type_symbol
_atom_site_label
_atom_site_fract_x
_atom_site_fract_y
_atom_site_fract_z
Si Si1 0.000000 0.000000 0.000000
Si Si2 0.740485 0.838704 0.578512
Si Si3 0.856177 0.751767 0.177670
Si Si4 0.571994 0.074666 0.120798
Si Si5 0.889977 0.564878 0.683809
Si Si6 0.479683 0.439553 0.197670
Si Si7 0.558154 0.113466 0.612481
O O1 0.063861 0.146079 0.967161
O O2 0.322054 0.104086 0.801995
O O3 0.778078 0.804466 0.383294
O O4 0.529348 0.847326 0.747513
O O5 0.655160 0.710377 0.684977
O O6 0.000000 0.000000 0.500000
O O7 0.639498 0.580009 0.233593
O O8 0.119235 0.804002 0.043682
O O9 0.434413 0.941727 0.277012
O O10 0.500000 0.000000 0.000000
O O11 0.735650 0.574797 0.707688
O O12 0.000000 0.500000 0.500000
O O13 0.157846 0.728435 0.583939
O O14 0.686339 0.475842 0.933780
O O15 0.500000 0.000000 0.500000
#
# Coordination Sequence:
#
# PCOD9025793 Si02
#       7
#     1   2   2   2   2   2   2
#     4  10  22  40  72 100 132 174 232 278 342 412
#     4  12  25  43  70  96 136 185 230 289 356 414
#     4  11  24  44  69 101 141 182 230 289 352 416
#     4  11  24  41  67 103 135 176 240 287 351 421
#     4  11  25  43  70  99 139 184 228 288 352 410
#     4  11  27  45  65 105 143 182 239 287 348 428
#     4  11  23  43  70  98 134 177 233 288 345 417
#
# _framework density 20.332331
#
# number of rings (size 3 to 8) (size 9 to 14) (size 15 to 20)
#    0.000    0.923    1.538    5.077    2.154    5.538 
#    0.000    0.000    0.000    0.000    0.000    0.000 
#    0.000    0.000    0.000    0.000    0.000    0.000 
#
# Total GULP energy -72442.344217 kJ/mol
# GULP energy per Si atom -5572.488017 kJ/mol
# Density = 2.028605 g / cm^3
# Si number density = 20.332331 Si / 1000 Ang^3
#
#
#
# Elastic Constant Matrix: (Units=GPa)
#
#
# Indices 1 2 3 4 5 6 
#
# 1 90.8780 48.6916 20.5741 3.3972 -27.6072 -11.8737
# 2 48.6916 138.7778 49.8015 -4.3100 -29.9949 7.8874
# 3 20.5741 49.8015 65.9054 7.4761 -19.4486 -7.5530
# 4 3.3972 -4.3100 7.4761 47.1691 -1.2620 -7.4505
# 5 -27.6072 -29.9949 -19.4486 -1.2620 26.6738 6.5517
# 6 -11.8737 7.8874 -7.5530 -7.4505 6.5517 25.0802
#
#
#
# Elastic Compliance Matrix: (Units=1/GPa)
#
#
# Indices 1 2 3 4 5 6 
#
# 1 0.018036 -0.004912 0.002976 -0.000715 0.013502 0.007240
# 2 -0.004912 0.014242 -0.008418 0.001474 0.007533 -0.010869
# 3 0.002976 -0.008418 0.024712 -0.003381 0.009504 0.008012
# 4 -0.000715 0.001474 -0.003381 0.022727 -0.001798 0.005401
# 5 0.013502 0.007533 0.009504 -0.001798 0.069691 -0.011854
# 6 0.007240 -0.010869 0.008012 0.005401 -0.011854 0.053832
#
#
# Mechanical properties :
#
#
# Convention : Reuss Voigt Hill
#
# Bulk Modulus (GPa) = 27.56193 59.29950 43.43072
# Shear Modulus (GPa) = 21.18270 31.55090 26.36680
#
# Velocity S-wave (km/s) = 3.23123 3.94351 3.60501
# Velocity P-wave (km/s) = 5.24464 7.06849 6.22374
#
# Compressibility (1/GPa) = 0.03628193
#
# Stress axis : x y z
#
# Youngs Moduli (GPa) = 55.44512 70.21618 40.46644
#
# Poissons Ratio (x) = 0.34487 -0.12044
# Poissons Ratio (y) = 0.27232 0.34066
# Poissons Ratio (z) = -0.16502 0.59111
#
# Static dielectric constant tensor:
#      x y z
#    x 1.698540 0.012180 0.006190 
#    y 0.012180 1.707900 0.006650 
#    z 0.006190 0.006650 1.751180 
# 
# From -- ./inp_files/27965.got.cif
#   From: 2010.05.17/outbox.cif.g08.bks.cpg/sg2_14_cif.got.tgz:27965.got - 2010.06.03 11:33:40.
