data_PCOD9025235
_publ_section_title
;
Structure prediction by ZEFSAII (Michael W. Deem and Ramdas Pophale) SiO2 
 PCOD9025235
Probable space group: P -1
;
_chemical_formula_sum "Si O2"
_cell_formula_units_Z 13
_cell_length_a 22.087994
_cell_length_b 8.741802
_cell_length_c 17.616586
_cell_angle_alpha 40.492875
_cell_angle_beta 160.255214
_cell_angle_gamma 149.836266
_cell_volume 548.246110
_symmetry_space_group_name_H-M "P -1"
_symmetry_group_IT_number 2
_symmetry_cell_setting 'triclinic'
loop_
_space_group_symop_operation_xyz
x,y,z
-x,-y,-z
loop_
_atom_site_type_symbol
_atom_site_label
_atom_site_fract_x
_atom_site_fract_y
_atom_site_fract_z
Si Si1 0.894604 0.906440 0.517867
Si Si2 0.984931 0.163573 0.990820
Si Si3 0.500000 0.000000 0.500000
Si Si4 0.005558 0.984073 0.239525
Si Si5 0.766078 0.286685 0.171901
Si Si6 0.500065 0.796114 0.739560
Si Si7 0.268766 0.831895 0.995688
O O1 0.683292 0.581869 0.346695
O O2 0.133302 0.958395 0.771952
O O3 0.918617 0.189305 0.408611
O O4 0.831282 0.855531 0.552808
O O5 0.106748 0.517407 0.976129
O O6 0.707880 0.977646 0.756099
O O7 0.108123 0.172306 0.209963
O O8 0.000000 0.000000 0.000000
O O9 0.456093 0.931615 0.566816
O O10 0.899302 0.630540 0.233935
O O11 0.773478 0.939125 0.003352
O O12 0.721280 0.279388 0.032269
O O13 0.500000 0.000000 0.000000
O O14 0.489436 0.905028 0.769058
#
# Coordination Sequence:
#
# PCOD9025235 Si02
#       7
#     2   2   1   2   2   2   2
#     4  11  23  44  68  95 133 183 221 276 341 412
#     4  11  22  44  72 101 143 173 231 291 341 419
#     4  10  22  40  68 100 142 178 220 276 350 408
#     4  10  23  42  68 100 132 176 224 280 346 397
#     4  12  24  46  66  97 138 175 230 284 334 405
#     4  10  22  41  67 103 132 178 224 274 345 412
#     4  11  25  44  69 100 133 179 227 282 341 408
#
# _framework density 23.711977000000001
#
# number of rings (size 3 to 8) (size 9 to 14) (size 15 to 20)
#    0.000    1.231    4.615    0.923    2.154    2.462 
#    8.308    0.769    0.000    0.000    0.000    0.000 
#    0.000    0.000    0.000    0.000    0.000    0.000 
#
# Total GULP energy -72468.476780 kJ/mol
# GULP energy per Si atom -5574.498214 kJ/mol
# Density = 2.365801 g / cm^3
# Si number density = 23.711977 Si / 1000 Ang^3
#
#
#
# Elastic Constant Matrix: (Units=GPa)
#
#
# Indices 1 2 3 4 5 6 
#
# 1 98.9401 19.6657 22.6738 12.3465 -24.8309 -8.9883
# 2 19.6657 78.8500 45.6295 -4.9394 -17.1893 -13.0970
# 3 22.6738 45.6295 44.5404 -4.1949 -15.7337 -6.1932
# 4 12.3465 -4.9394 -4.1949 29.3963 -2.2487 -11.2898
# 5 -24.8309 -17.1893 -15.7337 -2.2487 34.1517 1.5250
# 6 -8.9883 -13.0970 -6.1932 -11.2898 1.5250 36.8588
#
#
#
# Elastic Compliance Matrix: (Units=1/GPa)
#
#
# Indices 1 2 3 4 5 6 
#
# 1 0.013963 0.001883 -0.006759 -0.005581 0.007578 0.000915
# 2 0.001883 0.033135 -0.032480 0.003313 0.002959 0.007668
# 3 -0.006759 -0.032480 0.062457 0.006509 0.007986 -0.001032
# 4 -0.005581 0.003313 0.006509 0.043484 0.002841 0.014111
# 5 0.007578 0.002959 0.007986 0.002841 0.039992 0.003457
# 6 0.000915 0.007668 -0.001032 0.014111 0.003457 0.034084
#
#
# Mechanical properties :
#
#
# Convention : Reuss Voigt Hill
#
# Bulk Modulus (GPa) = 28.69974 44.25203 36.47588
# Shear Modulus (GPa) = 15.95191 29.03879 22.49535
#
# Velocity S-wave (km/s) = 2.59653 3.50329 3.08343
# Velocity P-wave (km/s) = 4.59555 5.92173 5.30028
#
# Compressibility (1/GPa) = 0.03484353
#
# Stress axis : x y z
#
# Youngs Moduli (GPa) = 71.61668 30.17993 16.01095
#
# Poissons Ratio (x) = -0.05683 0.10822
# Poissons Ratio (y) = -0.13487 0.52004
# Poissons Ratio (z) = 0.48404 0.98025
#
# Static dielectric constant tensor:
#      x y z
#    x 1.985390 0.015000 -0.010230 
#    y 0.015000 1.871880 0.007590 
#    z -0.010230 0.007590 1.894690 
# 
# From -- ./inp_files/24405.got.cif
#   From: 2010.05.17/outbox.cif.g08.bks.cpg/sg2_13_cif.got.tgz:24405.got - 2010.06.03 11:33:40.
