data_PCOD9025719
_publ_section_title
;
Structure prediction by ZEFSAII (Michael W. Deem and Ramdas Pophale) SiO2 
 PCOD9025719
Probable space group: P -1
;
_chemical_formula_sum "Si O2"
_cell_formula_units_Z 16
_cell_length_a 15.431548
_cell_length_b 8.892668
_cell_length_c 10.585539
_cell_angle_alpha 123.326836
_cell_angle_beta 107.711759
_cell_angle_gamma 117.544908
_cell_volume 707.390054
_symmetry_space_group_name_H-M "P -1"
_symmetry_group_IT_number 2
_symmetry_cell_setting 'triclinic'
loop_
_space_group_symop_operation_xyz
x,y,z
-x,-y,-z
loop_
_atom_site_type_symbol
_atom_site_label
_atom_site_fract_x
_atom_site_fract_y
_atom_site_fract_z
Si Si1 0.360308 0.159596 0.318876
Si Si2 0.060751 0.798862 0.895955
Si Si3 0.852299 0.670221 0.910395
Si Si4 0.467783 0.259103 0.941601
Si Si5 0.853594 0.168023 0.420374
Si Si6 0.534220 0.079458 0.404507
Si Si7 0.258419 0.202298 0.541926
Si Si8 0.021606 0.009953 0.663583
O O1 0.500000 0.500000 0.500000
O O2 0.422182 0.055658 0.296499
O O3 0.306437 0.142313 0.425107
O O4 0.221137 0.972516 0.080102
O O5 0.963451 0.687139 0.926695
O O6 0.963959 0.504821 0.642003
O O7 0.081774 0.030071 0.954059
O O8 0.704559 0.414950 0.644721
O O9 0.846473 0.672007 0.061275
O O10 0.298080 0.008628 0.796914
O O11 0.475740 0.112263 0.775062
O O12 0.500000 0.500000 0.000000
O O13 0.597437 0.456976 0.193881
O O14 0.934395 0.128797 0.371538
O O15 0.802384 0.009541 0.463083
O O16 0.500000 0.000000 0.500000
O O17 0.130076 0.143023 0.418790
O O18 0.000000 0.000000 0.500000
#
# Coordination Sequence:
#
# PCOD9025719 Si02
#       8
#     2   2   2   2   2   2   2   2
#     4  12  26  46  70 102 146 184 236 292 363 415
#     4  11  24  45  69  97 141 184 238 290 348 417
#     4  11  24  45  70  96 140 187 233 294 346 420
#     4  10  22  42  64  99 140 174 226 289 344 408
#     4  10  22  40  70  99 130 182 231 278 347 414
#     4  12  26  41  73 106 134 188 239 285 353 422
#     4  10  23  43  64 100 140 177 222 296 344 413
#     4  10  23  41  67 100 138 176 225 285 354 408
#
# _framework density 22.618355000000001
#
# number of rings (size 3 to 8) (size 9 to 14) (size 15 to 20)
#    0.000    1.250    3.750    1.500    8.750    2.000 
#    0.000    0.625    0.000    0.000    0.000    0.000 
#    0.000    0.000    0.000    0.000    0.000    0.000 
#
# Total GULP energy -89415.348516 kJ/mol
# GULP energy per Si atom -5588.459282 kJ/mol
# Density = 2.256687 g / cm^3
# Si number density = 22.618355 Si / 1000 Ang^3
#
#
#
# Elastic Constant Matrix: (Units=GPa)
#
#
# Indices 1 2 3 4 5 6 
#
# 1 181.1917 26.2769 76.5850 1.9027 -0.9235 -25.1996
# 2 26.2769 39.6565 9.8849 6.7009 -0.5763 1.7916
# 3 76.5850 9.8849 163.2313 8.8461 3.2274 -10.6782
# 4 1.9027 6.7009 8.8461 30.6232 -0.3324 -2.4185
# 5 -0.9235 -0.5763 3.2274 -0.3324 54.6652 -7.2705
# 6 -25.1996 1.7916 -10.6782 -2.4185 -7.2705 27.3782
#
#
#
# Elastic Compliance Matrix: (Units=1/GPa)
#
#
# Indices 1 2 3 4 5 6 
#
# 1 0.008877 -0.005744 -0.003462 0.002333 0.001340 0.007758
# 2 -0.005744 0.030384 0.000746 -0.007138 -0.000909 -0.007856
# 3 -0.003462 0.000746 0.007803 -0.002252 -0.000598 -0.000550
# 4 0.002333 -0.007138 -0.002252 0.035136 0.000989 0.005102
# 5 0.001340 -0.000909 -0.000598 0.000989 0.019177 0.006240
# 6 0.007758 -0.007856 -0.000550 0.005102 0.006240 0.046073
#
#
# Mechanical properties :
#
#
# Convention : Reuss Voigt Hill
#
# Bulk Modulus (GPa) = 33.17454 67.73034 50.45244
# Shear Modulus (GPa) = 28.66637 40.62218 34.64428
#
# Velocity S-wave (km/s) = 3.56391 4.24250 3.91793
# Velocity P-wave (km/s) = 5.62443 7.34903 6.54379
#
# Compressibility (1/GPa) = 0.03014360
#
# Stress axis : x y z
#
# Youngs Moduli (GPa) = 112.65403 32.91154 128.14769
#
# Poissons Ratio (x) = 0.18904 0.44370
# Poissons Ratio (y) = 0.64708 -0.09557
# Poissons Ratio (z) = 0.39005 -0.02455
#
# Static dielectric constant tensor:
#      x y z
#    x 1.822300 0.021970 0.045180 
#    y 0.021970 1.910270 -0.031750 
#    z 0.045180 -0.031750 1.857390 
# 
# From -- ./inp_files/448222.got.cif
#   From: 2010.05.17/outbox.cif.g08.bks.cpg/sg2_225_cif.got.tgz:448222.got - 2010.06.03 11:33:40.
