data_PCOD9025208
_publ_section_title
;
Structure prediction by ZEFSAII (Michael W. Deem and Ramdas Pophale) SiO2 
 PCOD9025208
Probable space group: P -1
;
_chemical_formula_sum "Si O2"
_cell_formula_units_Z 14
_cell_length_a 12.989707
_cell_length_b 18.021341
_cell_length_c 9.605815
_cell_angle_alpha 135.042873
_cell_angle_beta 146.050377
_cell_angle_gamma 28.615659
_cell_volume 599.654948
_symmetry_space_group_name_H-M "P -1"
_symmetry_group_IT_number 2
_symmetry_cell_setting 'triclinic'
loop_
_space_group_symop_operation_xyz
x,y,z
-x,-y,-z
loop_
_atom_site_type_symbol
_atom_site_label
_atom_site_fract_x
_atom_site_fract_y
_atom_site_fract_z
Si Si1 0.283403 0.676113 0.433032
Si Si2 0.178613 0.574563 0.701768
Si Si3 0.711987 0.901304 0.237497
Si Si4 0.298727 0.361758 0.793107
Si Si5 0.743211 0.078026 0.716528
Si Si6 0.236086 0.719612 0.140043
Si Si7 0.299954 0.341430 0.069149
O O1 0.500000 0.500000 0.500000
O O2 0.143006 0.715225 0.176957
O O3 0.463102 0.704060 0.634860
O O4 0.024640 0.791799 0.396259
O O5 0.219035 0.492492 0.781298
O O6 0.456983 0.453049 0.768443
O O7 0.960395 0.599980 0.409443
O O8 0.087928 0.727103 0.851328
O O9 0.682936 0.993562 0.458145
O O10 0.684494 0.790094 0.096696
O O11 0.500000 0.000000 0.000000
O O12 0.493106 0.211983 0.715114
O O13 0.394662 0.350437 0.038112
O O14 0.764996 0.156695 0.723675
O O15 0.000000 0.000000 0.000000
O O16 0.000000 0.500000 0.000000
#
# Coordination Sequence:
#
# PCOD9025208 Si02
#       7
#     2   2   2   2   2   2   2
#     4  12  25  46  75 105 144 196 247 307 371 443
#     4   9  20  38  66 100 127 174 229 298 353 422
#     4  12  30  48  73 111 155 197 249 307 379 453
#     4  10  22  40  67  98 137 176 237 291 362 425
#     4  11  26  47  69 101 148 195 247 300 367 456
#     4  10  22  40  69  97 140 178 238 297 365 420
#     4  12  25  45  75 108 143 193 251 308 368 440
#
# _framework density 23.346761000000001
#
# number of rings (size 3 to 8) (size 9 to 14) (size 15 to 20)
#    0.000    1.143    1.429    3.429    4.000    6.286 
#    0.000    0.000    0.000    0.000    0.000    0.000 
#    0.000    0.000    0.000    0.000    0.000    0.000 
#
# Total GULP energy -78108.304481 kJ/mol
# GULP energy per Si atom -5579.164606 kJ/mol
# Density = 2.329362 g / cm^3
# Si number density = 23.346761 Si / 1000 Ang^3
#
#
#
# Elastic Constant Matrix: (Units=GPa)
#
#
# Indices 1 2 3 4 5 6 
#
# 1 73.0189 26.6108 10.9422 3.7896 -14.1166 10.0020
# 2 26.6108 83.1588 49.7400 21.7563 -3.7421 10.5546
# 3 10.9422 49.7400 114.5243 19.7273 10.3942 8.7996
# 4 3.7896 21.7563 19.7273 48.1045 2.3782 5.1745
# 5 -14.1166 -3.7421 10.3942 2.3782 53.4961 -0.5689
# 6 10.0020 10.5546 8.7996 5.1745 -0.5689 32.4049
#
#
#
# Elastic Compliance Matrix: (Units=1/GPa)
#
#
# Indices 1 2 3 4 5 6 
#
# 1 0.016744 -0.005256 0.000426 0.001087 0.003881 -0.003677
# 2 -0.005256 0.019709 -0.007112 -0.005450 0.001595 -0.001967
# 3 0.000426 -0.007112 0.012387 -0.001658 -0.002728 -0.000962
# 4 0.001087 -0.005450 -0.001658 0.024103 -0.000865 -0.001974
# 5 0.003881 0.001595 -0.002728 -0.000865 0.020392 -0.000480
# 6 -0.003677 -0.001967 -0.000962 -0.001974 -0.000480 0.033203
#
#
# Mechanical properties :
#
#
# Convention : Reuss Voigt Hill
#
# Bulk Modulus (GPa) = 40.07142 49.47643 44.77393
# Shear Modulus (GPa) = 31.49779 39.02838 35.26308
#
# Velocity S-wave (km/s) = 3.67703 4.09306 3.89061
# Velocity P-wave (km/s) = 5.93534 6.60117 6.27709
#
# Compressibility (1/GPa) = 0.02495544
#
# Stress axis : x y z
#
# Youngs Moduli (GPa) = 59.72190 50.73928 80.72777
#
# Poissons Ratio (x) = 0.26669 -0.03440
# Poissons Ratio (y) = 0.31390 0.57417
# Poissons Ratio (z) = -0.02545 0.36088
#
# Static dielectric constant tensor:
#      x y z
#    x 1.881370 -0.040430 0.009970 
#    y -0.040430 1.960330 -0.001470 
#    z 0.009970 -0.001470 2.103120 
# 
# From -- ./inp_files/279998.got.cif
#   From: 2010.05.17/outbox.cif.g08.bks.cpg/sg2_140_cif.got.tgz:279998.got - 2010.06.03 11:33:40.
