data_PCOD9025605
_publ_section_title
;
Structure prediction by ZEFSAII (Michael W. Deem and Ramdas Pophale) SiO2 
 PCOD9025605
Probable space group: P -1
;
_chemical_formula_sum "Si O2"
_cell_formula_units_Z 16
_cell_length_a 11.800194
_cell_length_b 12.626487
_cell_length_c 8.496766
_cell_angle_alpha 108.413020
_cell_angle_beta 56.427111
_cell_angle_gamma 135.533156
_cell_volume 732.113293
_symmetry_space_group_name_H-M "P -1"
_symmetry_group_IT_number 2
_symmetry_cell_setting 'triclinic'
loop_
_space_group_symop_operation_xyz
x,y,z
-x,-y,-z
loop_
_atom_site_type_symbol
_atom_site_label
_atom_site_fract_x
_atom_site_fract_y
_atom_site_fract_z
Si Si1 0.686827 0.660209 0.756097
Si Si2 0.050823 0.946542 0.795962
Si Si3 0.212053 0.100869 0.429281
Si Si4 0.023088 0.625783 0.939249
Si Si5 0.616963 0.171369 0.785985
Si Si6 0.720785 0.142658 0.382519
Si Si7 0.751797 0.096361 0.913063
Si Si8 0.309009 0.533089 0.132181
O O1 0.691845 0.730948 0.621441
O O2 0.480686 0.568572 0.932736
O O3 0.853496 0.810777 0.799514
O O4 0.728270 0.554262 0.717307
O O5 0.149002 0.890954 0.757909
O O6 0.200109 0.073869 0.611802
O O7 0.000000 0.000000 0.000000
O O8 0.261926 0.017844 0.248360
O O9 0.000000 0.000000 0.500000
O O10 0.209896 0.727270 0.734920
O O11 0.056682 0.753428 0.086220
O O12 0.000000 0.500000 0.000000
O O13 0.859061 0.552319 0.904004
O O14 0.754068 0.197034 0.563561
O O15 0.688908 0.169520 0.897642
O O16 0.622804 0.304531 0.814313
O O17 0.401737 0.012983 0.886146
O O18 0.500000 0.000000 0.500000
#
# Coordination Sequence:
#
# PCOD9025605 Si02
#       8
#     2   2   2   2   2   2   2   2
#     4  10  23  43  69  99 142 191 235 287 354 443
#     4  11  25  44  70 103 141 186 238 301 356 425
#     4  10  22  40  70 101 129 180 246 283 347 429
#     4  12  26  45  67 106 149 186 233 305 364 420
#     4  11  23  42  73 100 142 188 235 298 358 428
#     4  12  26  44  70 110 144 184 246 296 359 435
#     4  11  22  43  71 104 135 188 235 297 361 422
#     4  11  23  43  72 100 146 191 235 289 365 426
#
# _framework density 21.854541999999999
#
# number of rings (size 3 to 8) (size 9 to 14) (size 15 to 20)
#    0.000    1.000    6.250    0.000    5.250    1.500 
#    4.500    0.000    0.000    4.500    0.000    0.000 
#    0.000    0.000    0.000    0.000    0.000    0.000 
#
# Total GULP energy -89133.991718 kJ/mol
# GULP energy per Si atom -5570.874482 kJ/mol
# Density = 2.180480 g / cm^3
# Si number density = 21.854542 Si / 1000 Ang^3
#
#
#
# Elastic Constant Matrix: (Units=GPa)
#
#
# Indices 1 2 3 4 5 6 
#
# 1 74.8778 42.4158 18.8718 -10.0903 5.3339 -21.6686
# 2 42.4158 116.0893 43.4068 -25.7909 15.8921 -35.0980
# 3 18.8718 43.4068 107.9742 -13.9611 11.4195 -23.6126
# 4 -10.0903 -25.7909 -13.9611 32.9602 -8.9192 1.7144
# 5 5.3339 15.8921 11.4195 -8.9192 31.7429 -15.6323
# 6 -21.6686 -35.0980 -23.6126 1.7144 -15.6323 48.6644
#
#
#
# Elastic Compliance Matrix: (Units=1/GPa)
#
#
# Indices 1 2 3 4 5 6 
#
# 1 0.017654 -0.004763 -0.000045 0.002082 0.002556 0.005151
# 2 -0.004763 0.015711 -0.002613 0.009414 0.000318 0.007713
# 3 -0.000045 -0.002613 0.011435 0.002496 -0.000410 0.003424
# 4 0.002082 0.009414 0.002496 0.041870 0.011254 0.011067
# 5 0.002556 0.000318 -0.000410 0.011254 0.041107 0.013977
# 6 0.005151 0.007713 0.003424 0.011067 0.013977 0.034166
#
#
# Mechanical properties :
#
#
# Convention : Reuss Voigt Hill
#
# Bulk Modulus (GPa) = 33.38240 56.48112 44.93176
# Shear Modulus (GPa) = 26.77050 35.62330 31.19690
#
# Velocity S-wave (km/s) = 3.50371 4.04173 3.78230
# Velocity P-wave (km/s) = 5.62814 6.90514 6.29908
#
# Compressibility (1/GPa) = 0.02995590
#
# Stress axis : x y z
#
# Youngs Moduli (GPa) = 56.64469 63.64835 87.45272
#
# Poissons Ratio (x) = 0.30318 0.00397
# Poissons Ratio (y) = 0.26982 0.22854
# Poissons Ratio (z) = 0.00257 0.16633
#
# Static dielectric constant tensor:
#      x y z
#    x 1.906610 0.006620 0.037400 
#    y 0.006620 1.871510 -0.058040 
#    z 0.037400 -0.058040 1.783820 
# 
# From -- ./inp_files/262768.got.cif
#   From: 2010.05.17/outbox.cif.g08.bks.cpg/sg2_132_cif.got.tgz:262768.got - 2010.06.03 11:33:40.
