data_PCOD9025018
_publ_section_title
;
Structure prediction by ZEFSAII (Michael W. Deem and Ramdas Pophale) SiO2 
 PCOD9025018
Probable space group: P -1
;
_chemical_formula_sum "Si O2"
_cell_formula_units_Z 16
_cell_length_a 17.701269
_cell_length_b 8.091933
_cell_length_c 13.264717
_cell_angle_alpha 119.764205
_cell_angle_beta 153.079237
_cell_angle_gamma 52.294163
_cell_volume 674.219024
_symmetry_space_group_name_H-M "P -1"
_symmetry_group_IT_number 2
_symmetry_cell_setting 'triclinic'
loop_
_space_group_symop_operation_xyz
x,y,z
-x,-y,-z
loop_
_atom_site_type_symbol
_atom_site_label
_atom_site_fract_x
_atom_site_fract_y
_atom_site_fract_z
Si Si1 0.895356 0.904045 0.917915
Si Si2 0.641205 0.904324 0.450835
Si Si3 0.219135 0.481896 0.627983
Si Si4 0.873691 0.875521 0.309758
Si Si5 0.243047 0.057188 0.037685
Si Si6 0.236306 0.489429 0.206663
Si Si7 0.472524 0.649532 0.657346
Si Si8 0.544800 0.277164 0.107967
O O1 0.707086 0.943901 0.649437
O O2 0.871212 0.997392 0.030447
O O3 0.027297 0.656303 0.001327
O O4 0.000000 0.000000 0.000000
O O5 0.785577 0.693757 0.506752
O O6 0.449700 0.880635 0.217958
O O7 0.603016 0.112435 0.403438
O O8 0.329145 0.607405 0.746782
O O9 0.008797 0.650913 0.449370
O O10 0.355628 0.359677 0.844652
O O11 0.678542 0.027899 0.174102
O O12 0.838491 0.863346 0.144882
O O13 0.000000 0.000000 0.500000
O O14 0.262543 0.253041 0.172424
O O15 0.326065 0.558894 0.427015
O O16 0.347671 0.490433 0.237550
O O17 0.501246 0.662473 0.812679
#
# Coordination Sequence:
#
# PCOD9025018 Si02
#       8
#     2   2   2   2   2   2   2   2
#     4  12  25  40  65 104 137 171 229 284 337 404
#     4  11  23  44  65 102 142 176 230 279 347 408
#     4  10  22  40  67 101 130 180 238 277 332 422
#     4  10  22  42  67 101 136 175 236 276 339 409
#     4  11  24  43  71  95 138 188 220 282 342 411
#     4  10  23  44  63  99 130 184 232 269 348 411
#     4  10  23  43  68  93 144 181 215 296 349 389
#     4  10  22  43  67  99 138 179 226 286 346 394
#
# _framework density 23.731161
#
# number of rings (size 3 to 8) (size 9 to 14) (size 15 to 20)
#    0.000    1.500    2.500    1.500    5.250    1.500 
#    2.250    0.625    0.000    0.000    0.000    0.000 
#    0.000    0.000    0.000    0.000    0.000    0.000 
#
# Total GULP energy -89496.956762 kJ/mol
# GULP energy per Si atom -5593.559798 kJ/mol
# Density = 2.367715 g / cm^3
# Si number density = 23.731161 Si / 1000 Ang^3
#
#
#
# Elastic Constant Matrix: (Units=GPa)
#
#
# Indices 1 2 3 4 5 6 
#
# 1 71.8189 14.4297 45.5872 -5.2142 -22.2128 -15.5873
# 2 14.4297 96.9869 24.2212 -14.3007 -1.4143 -23.5173
# 3 45.5872 24.2212 118.5297 -19.3840 -17.8022 -20.6086
# 4 -5.2142 -14.3007 -19.3840 40.5385 -5.0986 6.5952
# 5 -22.2128 -1.4143 -17.8022 -5.0986 33.6609 5.3625
# 6 -15.5873 -23.5173 -20.6086 6.5952 5.3625 27.8890
#
#
#
# Elastic Compliance Matrix: (Units=1/GPa)
#
#
# Indices 1 2 3 4 5 6 
#
# 1 0.022285 -0.000241 -0.005837 0.000402 0.010749 0.005777
# 2 -0.000241 0.013356 -0.000600 0.002571 -0.001167 0.010301
# 3 -0.005837 -0.000600 0.012725 0.004858 0.002965 0.003916
# 4 0.000402 0.002571 0.004858 0.029325 0.007774 -0.002447
# 5 0.010749 -0.001167 0.002965 0.007774 0.039863 -0.002289
# 6 0.005777 0.010301 0.003916 -0.002447 -0.002289 0.051683
#
#
# Mechanical properties :
#
#
# Convention : Reuss Voigt Hill
#
# Bulk Modulus (GPa) = 28.56407 50.64577 39.60492
# Shear Modulus (GPa) = 25.73814 33.95750 29.84782
#
# Velocity S-wave (km/s) = 3.29686 3.78686 3.55032
# Velocity P-wave (km/s) = 5.15315 6.36461 5.79065
#
# Compressibility (1/GPa) = 0.03500902
#
# Stress axis : x y z
#
# Youngs Moduli (GPa) = 44.87310 74.87138 78.58627
#
# Poissons Ratio (x) = 0.01805 0.45871
# Poissons Ratio (y) = 0.01082 0.04719
# Poissons Ratio (z) = 0.26193 0.04496
#
# Static dielectric constant tensor:
#      x y z
#    x 1.983060 0.016630 0.075530 
#    y 0.016630 1.890930 0.018290 
#    z 0.075530 0.018290 1.851980 
# 
# From -- ./inp_files/462373.got.cif
#   From: 2010.05.17/outbox.cif.g08.bks.cpg/sg2_232_cif.got.tgz:462373.got - 2010.06.03 11:33:40.
