data_PCOD9025956
_publ_section_title
;
Structure prediction by ZEFSAII (Michael W. Deem and Ramdas Pophale) SiO2 
 PCOD9025956
Probable space group: P -1
;
_chemical_formula_sum "Si O2"
_cell_formula_units_Z 14
_cell_length_a 17.056103
_cell_length_b 15.830600
_cell_length_c 8.150372
_cell_angle_alpha 109.775948
_cell_angle_beta 55.834036
_cell_angle_gamma 156.604642
_cell_volume 609.010844
_symmetry_space_group_name_H-M "P -1"
_symmetry_group_IT_number 2
_symmetry_cell_setting 'triclinic'
loop_
_space_group_symop_operation_xyz
x,y,z
-x,-y,-z
loop_
_atom_site_type_symbol
_atom_site_label
_atom_site_fract_x
_atom_site_fract_y
_atom_site_fract_z
Si Si1 0.956536 0.742649 0.517339
Si Si2 0.144770 0.276892 0.740805
Si Si3 0.523563 0.913802 0.929206
Si Si4 0.605637 0.796196 0.235929
Si Si5 0.274485 0.737301 0.424889
Si Si6 0.726124 0.813054 0.416062
Si Si7 0.589558 0.203520 0.357286
O O1 0.894564 0.718682 0.389846
O O2 0.656572 0.449409 0.730012
O O3 0.190344 0.875138 0.317293
O O4 0.076328 0.933217 0.597757
O O5 0.424805 0.558794 0.672022
O O6 0.171617 0.192765 0.651185
O O7 0.876488 0.063045 0.007178
O O8 0.329155 0.712676 0.873514
O O9 0.455970 0.839018 0.151854
O O10 0.500000 0.000000 0.000000
O O11 0.679061 0.775507 0.250117
O O12 0.539465 0.817651 0.452689
O O13 0.226218 0.655384 0.609657
O O14 0.000000 0.500000 0.500000
O O15 0.396526 0.945696 0.426098
#
# Coordination Sequence:
#
# PCOD9025956 Si02
#       7
#     2   2   2   2   2   2   2
#     4  11  23  41  63  95 129 170 221 266 329 397
#     4  10  23  41  65  94 132 169 211 274 327 397
#     4  10  22  42  61  89 130 170 213 275 323 379
#     4  11  23  39  66  94 129 168 218 266 329 396
#     4  10  23  40  62  92 123 169 227 266 330 395
#     4  10  22  42  64  96 130 167 216 265 334 397
#     4  10  22  41  59  92 127 167 217 272 324 389
#
# _framework density 22.988095999999999
#
# number of rings (size 3 to 8) (size 9 to 14) (size 15 to 20)
#    0.000    1.714    1.429    1.714    4.000    3.429 
#    5.143    0.000    0.000    0.000    0.000    0.000 
#    0.000    0.000    0.000    0.000    0.000    0.000 
#
# Total GULP energy -78076.812273 kJ/mol
# GULP energy per Si atom -5576.915162 kJ/mol
# Density = 2.293577 g / cm^3
# Si number density = 22.988096 Si / 1000 Ang^3
#
#
#
# Elastic Constant Matrix: (Units=GPa)
#
#
# Indices 1 2 3 4 5 6 
#
# 1 90.4946 15.7442 -24.7029 12.8435 -18.8691 14.8442
# 2 15.7442 105.2030 74.2788 4.2508 10.3041 7.1020
# 3 -24.7029 74.2788 -41.2532 6.5294 -27.6558 0.3798
# 4 12.8435 4.2508 6.5294 17.9552 -3.3452 0.3006
# 5 -18.8691 10.3041 -27.6558 -3.3452 15.9590 -5.2306
# 6 14.8442 7.1020 0.3798 0.3006 -5.2306 37.1648
#
#
#
# Elastic Compliance Matrix: (Units=1/GPa)
#
#
# Indices 1 2 3 4 5 6 
#
# 1 0.011308 0.002113 -0.004694 -0.006627 0.000947 -0.004686
# 2 0.002113 0.005640 0.004550 -0.003430 0.005647 -0.001146
# 3 -0.004694 0.004550 -0.003386 0.000825 -0.014514 -0.001009
# 4 -0.006627 -0.003430 0.000825 0.062807 0.010364 0.004245
# 5 0.000947 0.005647 -0.014514 0.010364 0.038473 0.004022
# 6 -0.004686 -0.001146 -0.001009 0.004245 0.004022 0.029540
#
#
# Mechanical properties :
#
#
# Convention : Reuss Voigt Hill
#
# Bulk Modulus (GPa) = 57.14437 31.67607 44.41022
# Shear Modulus (GPa) = 34.18192 20.15740 27.16966
#
# Velocity S-wave (km/s) = 3.86027 2.96440 3.44161
# Velocity P-wave (km/s) = 6.69187 5.05234 5.92905
#
# Compressibility (1/GPa) = 0.01749954
#
# Stress axis : x y z
#
# Youngs Moduli (GPa) = 88.43200 177.31800 -295.29253
#
# Poissons Ratio (x) = -0.37468 -1.38603
# Poissons Ratio (y) = -0.18686 1.34354
# Poissons Ratio (z) = 0.41508 -0.80677
#
# Static dielectric constant tensor:
#      x y z
#    x 1.942540 0.016750 0.069150 
#    y 0.016750 1.901320 -0.033330 
#    z 0.069150 -0.033330 1.951330 
# 
# From -- ./inp_files/107768.got.cif
#   From: 2010.05.17/outbox.cif.g08.bks.cpg/sg2_54_cif.got.tgz:107768.got - 2010.06.03 11:33:40.
