data_PCOD9025807
_publ_section_title
;
Structure prediction by ZEFSAII (Michael W. Deem and Ramdas Pophale) SiO2 
 PCOD9025807
Probable space group: P -1
;
_chemical_formula_sum "Si O2"
_cell_formula_units_Z 14
_cell_length_a 8.407143
_cell_length_b 13.385929
_cell_length_c 8.583456
_cell_angle_alpha 46.229191
_cell_angle_beta 51.304162
_cell_angle_gamma 72.241302
_cell_volume 530.297475
_symmetry_space_group_name_H-M "P -1"
_symmetry_group_IT_number 2
_symmetry_cell_setting 'triclinic'
loop_
_space_group_symop_operation_xyz
x,y,z
-x,-y,-z
loop_
_atom_site_type_symbol
_atom_site_label
_atom_site_fract_x
_atom_site_fract_y
_atom_site_fract_z
Si Si1 0.435365 0.889090 0.303036
Si Si2 0.704404 0.897879 0.648694
Si Si3 0.345305 0.500227 0.235389
Si Si4 0.782148 0.237012 0.923368
Si Si5 0.254378 0.374423 0.951433
Si Si6 0.849141 0.375433 0.395498
Si Si7 0.172020 0.169043 0.695646
O O1 0.316353 0.731249 0.497364
O O2 0.648066 0.883519 0.266735
O O3 0.281335 0.949864 0.447860
O O4 0.500000 0.000000 0.000000
O O5 0.757157 0.792983 0.864016
O O6 0.818363 0.867585 0.454077
O O7 0.456375 0.846054 0.817330
O O8 0.204499 0.612792 0.161038
O O9 0.226883 0.339990 0.500630
O O10 0.500000 0.500000 0.000000
O O11 0.510202 0.560610 0.205813
O O12 0.819682 0.291788 0.664259
O O13 0.943759 0.136397 0.950626
O O14 0.081017 0.391910 0.166926
O O15 0.201616 0.469325 0.741622
#
# Coordination Sequence:
#
# PCOD9025807 Si02
#       7
#     2   2   2   2   2   2   2
#     4  12  27  46  70 103 143 192 238 286 350 426
#     4  11  24  46  71 105 145 184 237 291 352 414
#     4  11  20  40  71 106 138 170 233 290 353 410
#     4  11  23  41  74 100 141 184 232 287 353 421
#     4  10  22  40  72 102 140 178 230 295 350 408
#     4  11  22  44  70 105 140 184 234 288 352 415
#     4  12  24  46  71 103 141 190 231 296 347 422
#
# _framework density 26.400276999999999
#
# number of rings (size 3 to 8) (size 9 to 14) (size 15 to 20)
#    0.000    0.857    7.143    0.857    0.000    4.571 
#    0.000    2.857    0.000    0.000    0.000    0.000 
#    0.000    0.000    0.000    0.000    0.000    0.000 
#
# Total GULP energy -78409.195177 kJ/mol
# GULP energy per Si atom -5600.656798 kJ/mol
# Density = 2.634019 g / cm^3
# Si number density = 26.400277 Si / 1000 Ang^3
#
#
#
# Elastic Constant Matrix: (Units=GPa)
#
#
# Indices 1 2 3 4 5 6 
#
# 1 90.5318 42.2494 14.9887 -10.6896 -1.0858 -26.6979
# 2 42.2494 151.4616 28.9905 10.3106 5.1084 -37.2964
# 3 14.9887 28.9905 95.9474 5.0408 -12.5370 -8.0917
# 4 -10.6896 10.3106 5.0408 50.3892 -10.6768 -5.0775
# 5 -1.0858 5.1084 -12.5370 -10.6768 34.7820 -1.1483
# 6 -26.6979 -37.2964 -8.0917 -5.0775 -1.1483 44.8699
#
#
#
# Elastic Compliance Matrix: (Units=1/GPa)
#
#
# Indices 1 2 3 4 5 6 
#
# 1 0.015244 -0.002710 -0.000908 0.005113 0.002357 0.007293
# 2 -0.002710 0.009370 -0.002190 -0.002313 -0.002781 0.005448
# 3 -0.000908 -0.002190 0.011810 0.000028 0.004555 -0.000111
# 4 0.005113 -0.002313 0.000028 0.023464 0.007843 0.003981
# 5 0.002357 -0.002781 0.004555 0.007843 0.033337 0.001653
# 6 0.007293 0.005448 -0.000111 0.003981 0.001653 0.031627
#
#
# Mechanical properties :
#
#
# Convention : Reuss Voigt Hill
#
# Bulk Modulus (GPa) = 40.31049 56.71091 48.51070
# Shear Modulus (GPa) = 34.54517 42.78902 38.66710
#
# Velocity S-wave (km/s) = 3.62127 4.03026 3.83122
# Velocity P-wave (km/s) = 5.72598 6.57154 6.16328
#
# Compressibility (1/GPa) = 0.02480744
#
# Stress axis : x y z
#
# Youngs Moduli (GPa) = 65.60141 106.71902 84.67143
#
# Poissons Ratio (x) = 0.28922 0.07689
# Poissons Ratio (y) = 0.17779 0.18545
# Poissons Ratio (z) = 0.05957 0.23373
#
# Static dielectric constant tensor:
#      x y z
#    x 2.135930 0.064020 -0.074120 
#    y 0.064020 2.165690 -0.094900 
#    z -0.074120 -0.094900 2.151810 
# 
# From -- ./inp_files/199268.got.cif
#   From: 2010.05.17/outbox.cif.g08.bks.cpg/sg2_100_cif.got.tgz:199268.got - 2010.06.03 11:33:40.
