data_PCOD9025156
_publ_section_title
;
Structure prediction by ZEFSAII (Michael W. Deem and Ramdas Pophale) SiO2 
 PCOD9025156
Probable space group: P -1
;
_chemical_formula_sum "Si O2"
_cell_formula_units_Z 12
_cell_length_a 13.510352
_cell_length_b 5.070508
_cell_length_c 7.906129
_cell_angle_alpha 99.055953
_cell_angle_beta 98.258463
_cell_angle_gamma 61.415638
_cell_volume 468.201482
_symmetry_space_group_name_H-M "P -1"
_symmetry_group_IT_number 2
_symmetry_cell_setting 'triclinic'
loop_
_space_group_symop_operation_xyz
x,y,z
-x,-y,-z
loop_
_atom_site_type_symbol
_atom_site_label
_atom_site_fract_x
_atom_site_fract_y
_atom_site_fract_z
Si Si1 0.839654 0.260409 0.516580
Si Si2 0.075037 0.079085 0.150419
Si Si3 0.321231 0.775863 0.087648
Si Si4 0.342728 0.830026 0.716256
Si Si5 0.445662 0.134122 0.183740
Si Si6 0.114229 0.333802 0.674103
O O1 0.712561 0.317439 0.439606
O O2 0.867709 0.515782 0.477641
O O3 0.093541 0.047624 0.608019
O O4 0.875181 0.148655 0.702306
O O5 0.986441 0.412339 0.222432
O O6 0.190134 0.022411 0.081505
O O7 0.000000 0.000000 0.000000
O O8 0.347983 0.469596 0.158389
O O9 0.391808 0.924982 0.208159
O O10 0.360649 0.687805 0.893479
O O11 0.454359 0.845028 0.688011
O O12 0.242170 0.172064 0.758654
O O13 0.500000 0.000000 0.000000
#
# Coordination Sequence:
#
# PCOD9025156 Si02
#       6
#     2   2   2   2   2   2
#     4  10  24  45  68  99 129 183 224 259 334 403
#     4  12  27  45  68 101 141 169 219 286 336 387
#     4  11  25  39  65 104 131 169 217 278 334 373
#     4   9  22  41  74  92 131 172 230 258 326 391
#     4  10  22  40  67  96 132 171 223 267 320 397
#     4  10  24  43  71  95 134 177 226 259 331 401
#
# _framework density 25.629992999999999
#
# number of rings (size 3 to 8) (size 9 to 14) (size 15 to 20)
#    1.000    0.667    0.000    4.000   11.667    3.333 
#    0.000    1.667    0.000    0.000    0.000    0.000 
#    0.000    0.000    0.000    0.000    0.000    0.000 
#
# Total GULP energy -67117.638992 kJ/mol
# GULP energy per Si atom -5593.136583 kJ/mol
# Density = 2.557166 g / cm^3
# Si number density = 25.629993 Si / 1000 Ang^3
#
#
#
# Elastic Constant Matrix: (Units=GPa)
#
#
# Indices 1 2 3 4 5 6 
#
# 1 105.7173 13.2382 16.4636 20.2641 33.1797 -17.9940
# 2 13.2382 106.3896 4.3879 -4.3931 2.4056 -11.4392
# 3 16.4636 4.3879 90.4205 -1.1023 25.8141 -0.0306
# 4 20.2641 -4.3931 -1.1023 20.9858 2.9526 4.2925
# 5 33.1797 2.4056 25.8141 2.9526 37.5115 -3.2270
# 6 -17.9940 -11.4392 -0.0306 4.2925 -3.2270 47.6170
#
#
#
# Elastic Compliance Matrix: (Units=1/GPa)
#
#
# Indices 1 2 3 4 5 6 
#
# 1 0.019115 -0.002027 0.000745 -0.018204 -0.015226 0.007346
# 2 -0.002027 0.009936 -0.000440 0.003547 0.001299 0.001389
# 3 0.000745 -0.000440 0.013931 0.001516 -0.010393 -0.000656
# 4 -0.018204 0.003547 0.001516 0.067201 0.008551 -0.011504
# 5 -0.015226 0.001299 -0.010393 0.008551 0.046257 -0.003084
# 6 0.007346 0.001389 -0.000656 -0.011504 -0.003084 0.024938
#
#
# Mechanical properties :
#
#
# Convention : Reuss Voigt Hill
#
# Bulk Modulus (GPa) = 25.29169 41.18965 33.24067
# Shear Modulus (GPa) = 25.25236 39.11870 32.18553
#
# Velocity S-wave (km/s) = 3.14230 3.91101 3.54754
# Velocity P-wave (km/s) = 4.80154 6.04156 5.45689
#
# Compressibility (1/GPa) = 0.03953868
#
# Stress axis : x y z
#
# Youngs Moduli (GPa) = 52.31401 100.64179 71.78470
#
# Poissons Ratio (x) = 0.20398 -0.05350
# Poissons Ratio (y) = 0.10603 0.03160
# Poissons Ratio (z) = -0.03899 0.04430
#
# Static dielectric constant tensor:
#      x y z
#    x 2.082590 -0.046740 0.003690 
#    y -0.046740 1.994950 -0.003140 
#    z 0.003690 -0.003140 2.051480 
# 
# From -- ./inp_files/287272.got.cif
#   From: 2010.05.17/outbox.cif.g08.bks.cpg/sg2_144_cif.got.tgz:287272.got - 2010.06.03 11:33:40.
