data_PCOD9025721
_publ_section_title
;
Structure prediction by ZEFSAII (Michael W. Deem and Ramdas Pophale) SiO2 
 PCOD9025721
Probable space group: P -1
;
_chemical_formula_sum "Si O2"
_cell_formula_units_Z 16
_cell_length_a 9.631033
_cell_length_b 12.987047
_cell_length_c 7.651381
_cell_angle_alpha 96.683962
_cell_angle_beta 71.387649
_cell_angle_gamma 134.762689
_cell_volume 635.572979
_symmetry_space_group_name_H-M "P -1"
_symmetry_group_IT_number 2
_symmetry_cell_setting 'triclinic'
loop_
_space_group_symop_operation_xyz
x,y,z
-x,-y,-z
loop_
_atom_site_type_symbol
_atom_site_label
_atom_site_fract_x
_atom_site_fract_y
_atom_site_fract_z
Si Si1 0.175924 0.576202 0.170274
Si Si2 0.281195 0.660868 0.518725
Si Si3 0.592695 0.660530 0.539390
Si Si4 0.158618 0.814757 0.653201
Si Si5 0.742951 0.598276 0.919313
Si Si6 0.054172 0.093949 0.325933
Si Si7 0.951861 0.846793 0.155744
Si Si8 0.274062 0.844685 0.018019
O O1 0.309885 0.632318 0.305479
O O2 0.220221 0.495497 0.021974
O O3 0.235475 0.708808 0.068297
O O4 0.942495 0.468362 0.321745
O O5 0.436072 0.677232 0.584041
O O6 0.289336 0.789563 0.506230
O O7 0.500000 0.500000 0.500000
O O8 0.726329 0.741267 0.679819
O O9 0.754723 0.757077 0.338384
O O10 0.911675 0.661868 0.708728
O O11 0.139207 0.923635 0.624952
O O12 0.234274 0.839428 0.826584
O O13 0.500000 0.500000 0.000000
O O14 0.859312 0.751549 0.997883
O O15 0.000000 0.000000 0.500000
O O16 0.067898 0.014517 0.153205
O O17 0.104856 0.836211 0.170215
O O18 0.500000 0.000000 0.000000
#
# Coordination Sequence:
#
# PCOD9025721 Si02
#       8
#     2   2   2   2   2   2   2   2
#     4  10  23  43  70 107 147 178 240 306 359 422
#     4  10  23  42  76 107 141 183 236 309 363 419
#     4  11  24  40  75 106 137 187 247 294 364 425
#     4  10  25  45  67 104 142 187 239 294 361 430
#     4  10  22  40  70  99 138 183 234 296 357 423
#     4  10  25  45  68  99 147 185 233 301 362 422
#     4  10  24  44  64  99 142 183 235 292 358 424
#     4  11  26  44  69 101 149 197 239 286 365 438
#
# _framework density 25.174135
#
# number of rings (size 3 to 8) (size 9 to 14) (size 15 to 20)
#    0.000    1.750    0.000    1.500   12.250   11.500 
#    0.000    3.125    0.000    0.000    0.000    0.000 
#    0.000    0.000    0.000    0.000    0.000    0.000 
#
# Total GULP energy -89287.397068 kJ/mol
# GULP energy per Si atom -5580.462317 kJ/mol
# Density = 2.511684 g / cm^3
# Si number density = 25.174135 Si / 1000 Ang^3
#
#
#
# Elastic Constant Matrix: (Units=GPa)
#
#
# Indices 1 2 3 4 5 6 
#
# 1 184.0400 77.1696 14.5703 2.7517 6.1928 -18.2740
# 2 77.1696 152.0643 13.4305 23.3103 6.4403 -31.7952
# 3 14.5703 13.4305 41.5499 11.7697 7.4358 -3.4155
# 4 2.7517 23.3103 11.7697 45.3662 1.7409 -1.0113
# 5 6.1928 6.4403 7.4358 1.7409 41.5675 -4.4666
# 6 -18.2740 -31.7952 -3.4155 -1.0113 -4.4666 58.0293
#
#
#
# Elastic Compliance Matrix: (Units=1/GPa)
#
#
# Indices 1 2 3 4 5 6 
#
# 1 0.007128 -0.003725 -0.001800 0.001960 -0.000233 0.000114
# 2 -0.003725 0.010126 -0.000195 -0.004819 -0.000320 0.004255
# 3 -0.001800 -0.000195 0.027479 -0.006745 -0.004281 0.000497
# 4 0.001960 -0.004819 -0.006745 0.026093 0.000360 -0.001938
# 5 -0.000233 -0.000320 -0.004281 0.000360 0.025046 0.001433
# 6 0.000114 0.004255 0.000497 -0.001938 0.001433 0.019706
#
#
# Mechanical properties :
#
#
# Convention : Reuss Voigt Hill
#
# Bulk Modulus (GPa) = 30.03548 65.33279 47.68414
# Shear Modulus (GPa) = 36.20191 47.15820 41.68006
#
# Velocity S-wave (km/s) = 3.79629 4.33284 4.07341
# Velocity P-wave (km/s) = 5.58326 7.14423 6.41142
#
# Compressibility (1/GPa) = 0.03329395
#
# Stress axis : x y z
#
# Youngs Moduli (GPa) = 140.29421 98.75813 36.39148
#
# Poissons Ratio (x) = 0.36788 0.06549
# Poissons Ratio (y) = 0.52261 0.00708
# Poissons Ratio (z) = 0.25248 0.01921
#
# Static dielectric constant tensor:
#      x y z
#    x 1.964720 -0.041810 0.016640 
#    y -0.041810 2.184620 0.085460 
#    z 0.016640 0.085460 2.162290 
# 
# From -- ./inp_files/187535.got.cif
#   From: 2010.05.17/outbox.cif.g08.bks.cpg/sg2_94_cif.got.tgz:187535.got - 2010.06.03 11:33:40.
