data_PCOD9025370
_publ_section_title
;
Structure prediction by ZEFSAII (Michael W. Deem and Ramdas Pophale) SiO2 
 PCOD9025370
Probable space group: P -1
;
_chemical_formula_sum "Si O2"
_cell_formula_units_Z 15
_cell_length_a 14.321681
_cell_length_b 9.550573
_cell_length_c 8.998040
_cell_angle_alpha 33.360385
_cell_angle_beta 116.585190
_cell_angle_gamma 116.796168
_cell_volume 597.767008
_symmetry_space_group_name_H-M "P -1"
_symmetry_group_IT_number 2
_symmetry_cell_setting 'triclinic'
loop_
_space_group_symop_operation_xyz
x,y,z
-x,-y,-z
loop_
_atom_site_type_symbol
_atom_site_label
_atom_site_fract_x
_atom_site_fract_y
_atom_site_fract_z
Si Si1 0.833647 0.553262 0.764212
Si Si2 0.414964 0.787493 0.709013
Si Si3 0.940752 0.331796 0.288205
Si Si4 0.758644 0.101064 0.955033
Si Si5 0.607315 0.642953 0.147661
Si Si6 0.500000 0.500000 0.500000
Si Si7 0.002168 0.923894 0.898457
Si Si8 0.332463 0.073761 0.647815
O O1 0.952065 0.697253 0.699018
O O2 0.752416 0.733917 0.594127
O O3 0.851732 0.348693 0.087285
O O4 0.795883 0.408976 0.710501
O O5 0.360318 0.576731 0.740625
O O6 0.500000 0.000000 0.500000
O O7 0.335309 0.911864 0.644117
O O8 0.489314 0.663893 0.987587
O O9 0.931526 0.101269 0.602090
O O10 0.962336 0.618785 0.120038
O O11 0.686673 0.914757 0.955587
O O12 0.874419 0.013785 0.121425
O O13 0.688458 0.077722 0.077121
O O14 0.590233 0.571604 0.370479
O O15 0.447625 0.244037 0.595337
O O16 0.000000 0.000000 0.000000
#
# Coordination Sequence:
#
# PCOD9025370 Si02
#       8
#     2   2   2   2   2   1   2   2
#     4  10  23  40  71 103 137 180 245 301 357 431
#     4  11  24  45  67  98 147 184 230 301 368 419
#     4  10  23  44  73 101 148 186 240 304 369 429
#     4  10  24  42  69 102 137 183 251 290 356 442
#     4  10  24  45  68 101 140 187 239 293 364 431
#     4  10  22  40  68  96 134 184 234 294 348 416
#     4  11  23  47  71 104 145 194 235 301 373 439
#     4  11  23  40  68 104 137 185 241 294 357 436
#
# _framework density 25.093389999999999
#
# number of rings (size 3 to 8) (size 9 to 14) (size 15 to 20)
#    0.000    1.600    2.667    0.400    5.600    2.667 
#    4.800    0.000    0.000    0.000    0.000    0.000 
#    0.000    0.000    0.000    0.000    0.000    0.000 
#
# Total GULP energy -83647.405831 kJ/mol
# GULP energy per Si atom -5576.493722 kJ/mol
# Density = 2.503628 g / cm^3
# Si number density = 25.093390 Si / 1000 Ang^3
#
#
#
# Elastic Constant Matrix: (Units=GPa)
#
#
# Indices 1 2 3 4 5 6 
#
# 1 42.9059 31.9329 6.9915 -11.9167 3.0226 -16.7955
# 2 31.9329 202.3352 15.4740 -29.8879 8.0611 -18.5682
# 3 6.9915 15.4740 83.1893 -2.1497 13.0474 -15.1426
# 4 -11.9167 -29.8879 -2.1497 34.9502 -0.3369 -0.3784
# 5 3.0226 8.0611 13.0474 -0.3369 28.8563 -6.0844
# 6 -16.7955 -18.5682 -15.1426 -0.3784 -6.0844 51.5579
#
#
#
# Elastic Compliance Matrix: (Units=1/GPa)
#
#
# Indices 1 2 3 4 5 6 
#
# 1 0.031390 -0.002852 -0.000163 0.008350 -0.000388 0.009166
# 2 -0.002852 0.006201 -0.000455 0.004305 -0.000947 0.001090
# 3 -0.000163 -0.000455 0.013532 0.000370 -0.005309 0.003133
# 4 0.008350 0.004305 0.000370 0.035204 -0.000878 0.004534
# 5 -0.000388 -0.000947 -0.005309 -0.000878 0.037863 0.002435
# 6 0.009166 0.001090 0.003133 0.004534 0.002435 0.024015
#
#
# Mechanical properties :
#
#
# Convention : Reuss Voigt Hill
#
# Bulk Modulus (GPa) = 22.63285 48.58081 35.60683
# Shear Modulus (GPa) = 29.43378 41.34169 35.38773
#
# Velocity S-wave (km/s) = 3.42858 4.06336 3.75939
# Velocity P-wave (km/s) = 4.97117 6.43557 5.75018
#
# Compressibility (1/GPa) = 0.04418356
#
# Stress axis : x y z
#
# Youngs Moduli (GPa) = 31.85710 161.26686 73.90010
#
# Poissons Ratio (x) = 0.45986 0.01202
# Poissons Ratio (y) = 0.09084 0.03366
# Poissons Ratio (z) = 0.00518 0.07345
#
# Static dielectric constant tensor:
#      x y z
#    x 1.908980 -0.016530 0.001260 
#    y -0.016530 2.002520 -0.002450 
#    z 0.001260 -0.002450 2.105560 
# 
# From -- ./inp_files/38959.got.cif
#   From: 2010.05.17/outbox.cif.g08.bks.cpg/sg2_20_cif.got.tgz:38959.got - 2010.06.03 11:33:40.
