data_PCOD9025250
_publ_section_title
;
Structure prediction by ZEFSAII (Michael W. Deem and Ramdas Pophale) SiO2 
 PCOD9025250
Probable space group: P -1
;
_chemical_formula_sum "Si O2"
_cell_formula_units_Z 15
_cell_length_a 11.361016
_cell_length_b 21.819261
_cell_length_c 6.810879
_cell_angle_alpha 111.059364
_cell_angle_beta 88.216709
_cell_angle_gamma 33.448722
_cell_volume 664.830275
_symmetry_space_group_name_H-M "P -1"
_symmetry_group_IT_number 2
_symmetry_cell_setting 'triclinic'
loop_
_space_group_symop_operation_xyz
x,y,z
-x,-y,-z
loop_
_atom_site_type_symbol
_atom_site_label
_atom_site_fract_x
_atom_site_fract_y
_atom_site_fract_z
Si Si1 0.675275 0.455070 0.283675
Si Si2 0.850143 0.220111 0.492507
Si Si3 0.351390 0.301169 0.423155
Si Si4 0.000000 0.000000 0.500000
Si Si5 0.110190 0.041704 0.879485
Si Si6 0.204545 0.112177 0.672594
Si Si7 0.817252 0.499577 0.618870
Si Si8 0.496273 0.708485 0.219270
O O1 0.500000 0.500000 0.500000
O O2 0.451239 0.592600 0.291043
O O3 0.775737 0.464371 0.423845
O O4 0.945975 0.285358 0.975352
O O5 0.797751 0.175695 0.551667
O O6 0.076541 0.146406 0.516747
O O7 0.926191 0.166676 0.203954
O O8 0.288447 0.379954 0.336918
O O9 0.317192 0.363229 0.692249
O O10 0.135368 0.350999 0.488154
O O11 0.657924 0.118063 0.206562
O O12 0.658619 0.149961 0.694959
O O13 0.945256 0.076545 0.786548
O O14 0.237570 0.036054 0.737480
O O15 0.500000 0.000000 0.500000
O O16 0.643215 0.584169 0.925167
#
# Coordination Sequence:
#
# PCOD9025250 Si02
#       8
#     2   2   2   1   2   2   2   2
#     4  12  25  49  75 100 142 194 244 296 345 433
#     4  12  25  46  74 101 141 190 244 289 360 420
#     4  10  25  42  69 102 146 185 222 303 361 428
#     4  10  22  40  68 102 138 170 226 300 336 418
#     4  11  25  46  70 107 140 183 238 290 364 419
#     4  12  29  49  72 107 145 188 244 302 358 424
#     4  11  24  45  68 103 144 184 239 284 369 423
#     4  11  22  40  69 104 134 180 232 291 348 433
#
# _framework density 22.562149000000002
#
# number of rings (size 3 to 8) (size 9 to 14) (size 15 to 20)
#    0.000    0.800    4.000    2.400    3.733    3.733 
#    4.800    0.000    0.000    0.000    0.000    0.000 
#    0.000    0.000    0.000    0.000    0.000    0.000 
#
# Total GULP energy -83659.780418 kJ/mol
# GULP energy per Si atom -5577.318695 kJ/mol
# Density = 2.251080 g / cm^3
# Si number density = 22.562149 Si / 1000 Ang^3
#
#
#
# Elastic Constant Matrix: (Units=GPa)
#
#
# Indices 1 2 3 4 5 6 
#
# 1 114.6199 31.7392 54.4717 -0.2032 -3.6607 -26.4390
# 2 31.7392 91.7172 26.4449 -1.8020 -4.4783 -17.3603
# 3 54.4717 26.4449 112.9096 -2.5188 2.5350 -4.8552
# 4 -0.2032 -1.8020 -2.5188 30.4667 0.3599 5.6409
# 5 -3.6607 -4.4783 2.5350 0.3599 28.7991 0.4950
# 6 -26.4390 -17.3603 -4.8552 5.6409 0.4950 41.6680
#
#
#
# Elastic Compliance Matrix: (Units=1/GPa)
#
#
# Indices 1 2 3 4 5 6 
#
# 1 0.013879 -0.001532 -0.006094 -0.001950 0.001955 0.007699
# 2 -0.001532 0.012936 -0.002160 -0.000219 0.001938 0.004173
# 3 -0.006094 -0.002160 0.012233 0.001520 -0.002146 -0.003521
# 4 -0.001950 -0.000219 0.001520 0.033995 -0.000742 -0.005745
# 5 0.001955 0.001938 -0.002146 -0.000742 0.035446 0.001477
# 6 0.007699 0.004173 -0.003521 -0.005745 0.001477 0.030973
#
#
# Mechanical properties :
#
#
# Convention : Reuss Voigt Hill
#
# Bulk Modulus (GPa) = 51.33901 60.50646 55.92274
# Shear Modulus (GPa) = 30.20692 33.95949 32.08321
#
# Velocity S-wave (km/s) = 3.66297 3.88384 3.77502
# Velocity P-wave (km/s) = 6.37916 6.85479 6.62125
#
# Compressibility (1/GPa) = 0.01947836
#
# Stress axis : x y z
#
# Youngs Moduli (GPa) = 72.04892 77.30369 81.74663
#
# Poissons Ratio (x) = 0.11840 0.49813
# Poissons Ratio (y) = 0.11035 0.17656
# Poissons Ratio (z) = 0.43903 0.16696
#
# Static dielectric constant tensor:
#      x y z
#    x 1.689250 -0.249660 -0.045160 
#    y -0.249660 1.383090 -0.006630 
#    z -0.045160 -0.006630 1.895830 
# 
# From -- ./inp_files/84435.got.cif
#   From: 2010.05.17/outbox.cif.g08.bks.cpg/sg2_43_cif.got.tgz:84435.got - 2010.06.03 11:33:40.
