data_PCOD9025028
_publ_section_title
;
Structure prediction by ZEFSAII (Michael W. Deem and Ramdas Pophale) SiO2 
 PCOD9025028
Probable space group: P -1
;
_chemical_formula_sum "Si O2"
_cell_formula_units_Z 14
_cell_length_a 12.151240
_cell_length_b 8.202464
_cell_length_c 7.698053
_cell_angle_alpha 112.483508
_cell_angle_beta 106.596522
_cell_angle_gamma 108.382161
_cell_volume 596.216480
_symmetry_space_group_name_H-M "P -1"
_symmetry_group_IT_number 2
_symmetry_cell_setting 'triclinic'
loop_
_space_group_symop_operation_xyz
x,y,z
-x,-y,-z
loop_
_atom_site_type_symbol
_atom_site_label
_atom_site_fract_x
_atom_site_fract_y
_atom_site_fract_z
Si Si1 0.693890 0.354627 0.722505
Si Si2 0.770510 0.905286 0.126988
Si Si3 0.018768 0.685852 0.700041
Si Si4 0.242305 0.333719 0.436370
Si Si5 0.059059 0.312257 0.936231
Si Si6 0.485860 0.485023 0.189965
Si Si7 0.781735 0.039327 0.574384
O O1 0.740126 0.516449 0.652586
O O2 0.560244 0.351778 0.712476
O O3 0.694583 0.150484 0.594670
O O4 0.812810 0.475345 0.962695
O O5 0.878126 0.836509 0.098664
O O6 0.756853 0.917053 0.333838
O O7 0.634008 0.737364 0.917127
O O8 0.835665 0.133453 0.187872
O O9 0.902748 0.725959 0.587584
O O10 0.000000 0.500000 0.500000
O O11 0.994422 0.669269 0.890362
O O12 0.376662 0.468285 0.651819
O O13 0.237235 0.116129 0.342058
O O14 0.932572 0.215970 0.718007
O O15 0.500000 0.500000 0.000000
#
# Coordination Sequence:
#
# PCOD9025028 Si02
#       7
#     2   2   2   2   2   2   2
#     4  10  25  43  67 100 135 179 231 280 340 411
#     4  11  22  41  69  99 139 180 227 279 344 406
#     4  11  24  43  70 106 137 173 235 282 340 416
#     4  11  24  45  70  96 140 179 223 284 347 398
#     4  10  22  40  67 101 139 174 225 282 345 405
#     4  11  24  45  68  97 137 185 229 281 341 406
#     4  12  23  41  71 102 135 179 231 279 341 401
#
# _framework density 23.481401000000002
#
# number of rings (size 3 to 8) (size 9 to 14) (size 15 to 20)
#    0.000    1.143    2.857    3.429    4.000    1.714 
#    0.000    2.857    0.000    0.000    0.000    0.000 
#    0.000    0.000    0.000    0.000    0.000    0.000 
#
# Total GULP energy -78140.404365 kJ/mol
# GULP energy per Si atom -5581.457455 kJ/mol
# Density = 2.342796 g / cm^3
# Si number density = 23.481401 Si / 1000 Ang^3
#
#
#
# Elastic Constant Matrix: (Units=GPa)
#
#
# Indices 1 2 3 4 5 6 
#
# 1 58.7212 29.2858 40.2064 0.1199 7.3012 0.8547
# 2 29.2858 97.7362 13.9707 18.6747 -14.2222 -13.5355
# 3 40.2064 13.9707 106.9408 23.9358 17.2057 -15.1821
# 4 0.1199 18.6747 23.9358 33.2744 -4.8679 2.2095
# 5 7.3012 -14.2222 17.2057 -4.8679 53.6635 7.7707
# 6 0.8547 -13.5355 -15.1821 2.2095 7.7707 31.1302
#
#
#
# Elastic Compliance Matrix: (Units=1/GPa)
#
#
# Indices 1 2 3 4 5 6 
#
# 1 0.041640 -0.017263 -0.023551 0.028475 0.003218 -0.022959
# 2 -0.017263 0.019837 0.010450 -0.019585 0.000230 0.015528
# 3 -0.023551 0.010450 0.028006 -0.028773 -0.008965 0.023129
# 4 0.028475 -0.019585 -0.028773 0.065208 0.010504 -0.030581
# 5 0.003218 0.000230 -0.008965 0.010504 0.023680 -0.011017
# 6 -0.022959 0.015528 0.023129 -0.030581 -0.011017 0.055706
#
#
# Mechanical properties :
#
#
# Convention : Reuss Voigt Hill
#
# Bulk Modulus (GPa) = 34.77557 47.81377 41.29467
# Shear Modulus (GPa) = 16.42632 35.60930 26.01781
#
# Velocity S-wave (km/s) = 2.64776 3.89844 3.33230
# Velocity P-wave (km/s) = 4.91828 6.37733 5.69473
#
# Compressibility (1/GPa) = 0.02875582
#
# Stress axis : x y z
#
# Youngs Moduli (GPa) = 24.01527 50.41140 35.70637
#
# Poissons Ratio (x) = 0.87024 0.84091
# Poissons Ratio (y) = 0.41457 -0.37313
# Poissons Ratio (z) = 0.56558 -0.52679
#
# Static dielectric constant tensor:
#      x y z
#    x 2.036650 0.064960 0.083790 
#    y 0.064960 1.988700 -0.003000 
#    z 0.083790 -0.003000 1.977230 
# 
# From -- ./inp_files/181963.got.cif
#   From: 2010.05.17/outbox.cif.g08.bks.cpg/sg2_91_cif.got.tgz:181963.got - 2010.06.03 11:33:40.
