data_PCOD9025256
_publ_section_title
;
Structure prediction by ZEFSAII (Michael W. Deem and Ramdas Pophale) SiO2 
 PCOD9025256
Probable space group: P -1
;
_chemical_formula_sum "Si O2"
_cell_formula_units_Z 16
_cell_length_a 11.667868
_cell_length_b 5.310323
_cell_length_c 23.732391
_cell_angle_alpha 62.423387
_cell_angle_beta 150.854674
_cell_angle_gamma 112.920326
_cell_volume 634.417016
_symmetry_space_group_name_H-M "P -1"
_symmetry_group_IT_number 2
_symmetry_cell_setting 'triclinic'
loop_
_space_group_symop_operation_xyz
x,y,z
-x,-y,-z
loop_
_atom_site_type_symbol
_atom_site_label
_atom_site_fract_x
_atom_site_fract_y
_atom_site_fract_z
Si Si1 0.236984 0.453324 0.512799
Si Si2 0.241621 0.379992 0.913015
Si Si3 0.609094 0.497135 0.868814
Si Si4 0.881755 0.835629 0.700804
Si Si5 0.825323 0.688546 0.239015
Si Si6 0.485031 0.828813 0.253144
Si Si7 0.014654 0.246295 0.933091
Si Si8 0.446158 0.083745 0.544513
O O1 0.270074 0.294572 0.602853
O O2 0.336461 0.769297 0.530214
O O3 0.991414 0.482712 0.370167
O O4 0.396637 0.253133 0.561658
O O5 0.154707 0.310245 0.820194
O O6 0.198678 0.169064 0.968834
O O7 0.042147 0.608826 0.825121
O O8 0.500000 0.500000 0.000000
O O9 0.441067 0.366329 0.856676
O O10 0.559450 0.326738 0.808801
O O11 0.527132 0.830061 0.790708
O O12 0.869484 0.506807 0.005628
O O13 0.716083 0.031778 0.648883
O O14 0.693855 0.744832 0.582964
O O15 0.081025 0.005705 0.735627
O O16 0.259985 0.727297 0.203524
O O17 0.000000 0.000000 0.000000
#
# Coordination Sequence:
#
# PCOD9025256 Si02
#       8
#     2   2   2   2   2   2   2   2
#     4  11  23  43  71 108 143 188 240 305 364 435
#     4  12  24  46  72 108 146 192 244 296 375 438
#     4  11  25  47  69 100 144 192 247 297 355 434
#     4  10  24  39  66 102 142 193 228 301 364 438
#     4  11  26  43  70 105 150 185 238 304 374 435
#     4  11  25  44  73 101 137 195 247 295 358 430
#     4  10  24  47  72 103 141 192 245 304 354 431
#     4  10  22  40  68 102 149 183 235 294 370 426
#
# _framework density 25.220003999999999
#
# number of rings (size 3 to 8) (size 9 to 14) (size 15 to 20)
#    0.000    1.250    2.500    1.875    5.250    3.000 
#    6.750    0.000    0.000    0.000    0.000    0.000 
#    0.000    0.000    0.000    0.000    0.000    0.000 
#
# Total GULP energy -89345.105819 kJ/mol
# GULP energy per Si atom -5584.069114 kJ/mol
# Density = 2.516260 g / cm^3
# Si number density = 25.220004 Si / 1000 Ang^3
#
#
#
# Elastic Constant Matrix: (Units=GPa)
#
#
# Indices 1 2 3 4 5 6 
#
# 1 99.2483 25.6912 15.1663 11.0746 -7.5610 0.3501
# 2 25.6912 82.9104 11.5949 8.2172 4.6979 -13.1636
# 3 15.1663 11.5949 110.5713 8.6751 -13.5368 -12.5677
# 4 11.0746 8.2172 8.6751 30.4450 6.0976 5.2344
# 5 -7.5610 4.6979 -13.5368 6.0976 37.5607 15.5963
# 6 0.3501 -13.1636 -12.5677 5.2344 15.5963 39.0175
#
#
#
# Elastic Compliance Matrix: (Units=1/GPa)
#
#
# Indices 1 2 3 4 5 6 
#
# 1 0.011955 -0.003989 -0.000751 -0.003430 0.004442 -0.003010
# 2 -0.003989 0.015169 -0.000672 -0.002617 -0.005651 0.007547
# 3 -0.000751 -0.000672 0.010136 -0.003462 0.003226 0.002220
# 4 -0.003430 -0.002617 -0.003462 0.037756 -0.005779 -0.004722
# 5 0.004442 -0.005651 0.003226 -0.005779 0.036426 -0.014693
# 6 -0.003010 0.007547 0.002220 -0.004722 -0.014693 0.035424
#
#
# Mechanical properties :
#
#
# Convention : Reuss Voigt Hill
#
# Bulk Modulus (GPa) = 37.82695 44.18166 41.00430
# Shear Modulus (GPa) = 30.02952 37.42313 33.72632
#
# Velocity S-wave (km/s) = 3.45440 3.85628 3.66086
# Velocity P-wave (km/s) = 5.56254 6.11428 5.84492
#
# Compressibility (1/GPa) = 0.02643618
#
# Stress axis : x y z
#
# Youngs Moduli (GPa) = 83.64848 65.92309 98.65573
#
# Poissons Ratio (x) = 0.26297 0.07406
# Poissons Ratio (y) = 0.33368 0.06632
# Poissons Ratio (z) = 0.06279 0.04432
#
# Static dielectric constant tensor:
#      x y z
#    x 2.184820 0.070890 -0.100910 
#    y 0.070890 2.121510 -0.121640 
#    z -0.100910 -0.121640 2.114080 
# 
# From -- ./inp_files/609151.got.cif
#   From: 2010.05.17/outbox.cif.g08.bks.cpg/sg2_305_cif.got.tgz:609151.got - 2010.06.03 11:33:40.
