data_PCOD9025378
_publ_section_title
;
Structure prediction by ZEFSAII (Michael W. Deem and Ramdas Pophale) SiO2 
 PCOD9025378
Probable space group: P -1
;
_chemical_formula_sum "Si O2"
_cell_formula_units_Z 15
_cell_length_a 8.551148
_cell_length_b 17.631012
_cell_length_c 13.706108
_cell_angle_alpha 24.099831
_cell_angle_beta 96.907856
_cell_angle_gamma 104.679408
_cell_volume 783.309195
_symmetry_space_group_name_H-M "P -1"
_symmetry_group_IT_number 2
_symmetry_cell_setting 'triclinic'
loop_
_space_group_symop_operation_xyz
x,y,z
-x,-y,-z
loop_
_atom_site_type_symbol
_atom_site_label
_atom_site_fract_x
_atom_site_fract_y
_atom_site_fract_z
Si Si1 0.902085 0.854808 0.249599
Si Si2 0.120230 0.940305 0.361251
Si Si3 0.610948 0.242211 0.459248
Si Si4 0.500000 0.500000 0.000000
Si Si5 0.120326 0.348529 0.935045
Si Si6 0.388992 0.975647 0.923773
Si Si7 0.909251 0.654721 0.839437
Si Si8 0.121553 0.561881 0.342361
O O1 0.847341 0.630722 0.469889
O O2 0.025508 0.883258 0.317785
O O3 0.747589 0.919470 0.192760
O O4 0.000000 0.000000 0.000000
O O5 0.269431 0.853217 0.475684
O O6 0.988810 0.837112 0.558074
O O7 0.183431 0.176307 0.103802
O O8 0.732325 0.437271 0.297107
O O9 0.501750 0.081978 0.716034
O O10 0.502816 0.321556 0.284532
O O11 0.707073 0.560943 0.928048
O O12 0.977508 0.364002 0.834652
O O13 0.053825 0.294151 0.103923
O O14 0.287939 0.744007 0.168418
O O15 0.500000 0.000000 0.000000
O O16 0.000000 0.500000 0.000000
O O17 0.000000 0.500000 0.500000
#
# Coordination Sequence:
#
# PCOD9025378 Si02
#       8
#     2   2   2   1   2   2   2   2
#     4  12  23  42  71  98 132 183 226 281 352 423
#     4  12  22  43  70  98 134 186 235 283 353 417
#     4  11  24  44  66 100 143 178 231 294 352 409
#     4  10  22  40  68  96 142 182 226 290 350 406
#     4  11  23  41  70  99 130 185 236 281 344 428
#     4  12  26  42  69 103 142 173 227 301 352 418
#     4  11  21  43  68  99 136 188 231 291 351 411
#     4  12  23  43  69 102 131 179 236 282 353 434
#
# _framework density 19.149526000000002
#
# number of rings (size 3 to 8) (size 9 to 14) (size 15 to 20)
#    0.000    0.533    6.667    2.800    0.000    1.600 
#    0.000    4.000    0.000    0.000    0.000    0.000 
#    0.000    0.000    0.000    0.000    0.000    0.000 
#
# Total GULP energy -83591.230684 kJ/mol
# GULP energy per Si atom -5572.748712 kJ/mol
# Density = 1.910594 g / cm^3
# Si number density = 19.149526 Si / 1000 Ang^3
#
#
#
# Elastic Constant Matrix: (Units=GPa)
#
#
# Indices 1 2 3 4 5 6 
#
# 1 105.2530 39.5182 35.5020 4.8543 9.5254 2.4632
# 2 39.5182 111.8571 62.4521 -4.8004 6.0388 -0.1212
# 3 35.5020 62.4521 136.0563 -2.1067 -12.6057 1.6154
# 4 4.8543 -4.8004 -2.1067 62.3620 -7.8372 7.5395
# 5 9.5254 6.0388 -12.6057 -7.8372 48.0590 10.9651
# 6 2.4632 -0.1212 1.6154 7.5395 10.9651 27.1950
#
#
#
# Elastic Compliance Matrix: (Units=1/GPa)
#
#
# Indices 1 2 3 4 5 6 
#
# 1 0.011579 -0.002892 -0.001993 -0.001633 -0.002873 0.000668
# 2 -0.002892 0.013276 -0.005617 0.000494 -0.002870 0.001675
# 3 -0.001993 -0.005617 0.010936 0.001014 0.004749 -0.002690
# 4 -0.001633 0.000494 0.001014 0.017683 0.004966 -0.006815
# 5 -0.002873 -0.002870 0.004749 0.004966 0.026558 -0.012120
# 6 0.000668 0.001675 -0.002690 -0.006815 -0.012120 0.043654
#
#
# Mechanical properties :
#
#
# Convention : Reuss Voigt Hill
#
# Bulk Modulus (GPa) = 67.63400 69.79009 68.71205
# Shear Modulus (GPa) = 33.41793 41.90282 37.66038
#
# Velocity S-wave (km/s) = 4.18198 4.68289 4.43950
# Velocity P-wave (km/s) = 7.66252 8.10945 7.88915
#
# Compressibility (1/GPa) = 0.01478546
#
# Stress axis : x y z
#
# Youngs Moduli (GPa) = 86.36482 75.32391 91.44056
#
# Poissons Ratio (x) = 0.21784 0.18226
# Poissons Ratio (y) = 0.24977 0.51366
# Poissons Ratio (z) = 0.17214 0.42312
#
# Static dielectric constant tensor:
#      x y z
#    x 1.640820 -0.007600 -0.031960 
#    y -0.007600 1.659790 -0.042990 
#    z -0.031960 -0.042990 1.322150 
# 
# From -- ./inp_files/187955.got.cif
#   From: 2010.05.17/outbox.cif.g08.bks.cpg/sg2_94_cif.got.tgz:187955.got - 2010.06.03 11:33:40.
