data_PCOD9025703
_publ_section_title
;
Structure prediction by ZEFSAII (Michael W. Deem and Ramdas Pophale) SiO2 
 PCOD9025703
Probable space group: P -1
;
_chemical_formula_sum "Si O2"
_cell_formula_units_Z 16
_cell_length_a 8.875073
_cell_length_b 22.210262
_cell_length_c 9.511008
_cell_angle_alpha 59.456887
_cell_angle_beta 101.931437
_cell_angle_gamma 51.821386
_cell_volume 810.845935
_symmetry_space_group_name_H-M "P -1"
_symmetry_group_IT_number 2
_symmetry_cell_setting 'triclinic'
loop_
_space_group_symop_operation_xyz
x,y,z
-x,-y,-z
loop_
_atom_site_type_symbol
_atom_site_label
_atom_site_fract_x
_atom_site_fract_y
_atom_site_fract_z
Si Si1 0.070706 0.376546 0.347086
Si Si2 0.044772 0.621369 0.988788
Si Si3 0.385716 0.522018 0.672659
Si Si4 0.352948 0.117316 0.245049
Si Si5 0.285450 0.900802 0.773416
Si Si6 0.111178 0.423247 0.762114
Si Si7 0.743982 0.301455 0.773823
Si Si8 0.742375 0.138888 0.874741
O O1 0.414363 0.248989 0.616112
O O2 0.893295 0.387158 0.389829
O O3 0.893090 0.513502 0.202555
O O4 0.038645 0.383465 0.165804
O O5 0.330902 0.558806 0.091942
O O6 0.089351 0.556575 0.215899
O O7 0.774914 0.776322 0.796850
O O8 0.512714 0.409330 0.730934
O O9 0.303776 0.618236 0.442310
O O10 0.582668 0.072567 0.249293
O O11 0.500000 0.000000 0.500000
O O12 0.074994 0.190579 0.025719
O O13 0.565586 0.738738 0.994543
O O14 0.207017 0.915004 0.900141
O O15 0.000000 0.000000 0.500000
O O16 0.000000 0.500000 0.500000
O O17 0.739179 0.224792 0.800476
O O18 0.000000 0.000000 0.000000
#
# Coordination Sequence:
#
# PCOD9025703 Si02
#       8
#     2   2   2   2   2   2   2   2
#     4  12  24  41  68 100 139 174 219 285 347 404
#     4  10  24  42  64 102 136 170 218 286 343 400
#     4  10  22  40  70  98 131 167 230 278 344 408
#     4  10  22  42  68  91 131 180 226 272 335 406
#     4  11  24  44  70 101 134 179 240 276 333 412
#     4  11  23  42  73  97 134 178 233 275 331 409
#     4  10  22  41  68  95 130 177 225 281 334 410
#     4  12  27  43  66  99 140 180 226 284 348 403
#
# _framework density 19.732476999999999
#
# number of rings (size 3 to 8) (size 9 to 14) (size 15 to 20)
#    0.000    1.250    1.250    3.750   10.500    1.000 
#    2.250    1.250    0.000    0.000    0.000    0.000 
#    0.000    0.000    0.000    0.000    0.000    0.000 
#
# Total GULP energy -89243.218996 kJ/mol
# GULP energy per Si atom -5577.701187 kJ/mol
# Density = 1.968757 g / cm^3
# Si number density = 19.732477 Si / 1000 Ang^3
#
#
#
# Elastic Constant Matrix: (Units=GPa)
#
#
# Indices 1 2 3 4 5 6 
#
# 1 128.5448 73.2701 64.1005 0.4378 -2.8076 -8.1057
# 2 73.2701 123.2082 62.3876 10.5915 3.1628 3.9355
# 3 64.1005 62.3876 124.6089 8.2549 -6.5239 -2.8093
# 4 0.4378 10.5915 8.2549 24.1895 9.3315 3.9123
# 5 -2.8076 3.1628 -6.5239 9.3315 35.5110 -5.9326
# 6 -8.1057 3.9355 -2.8093 3.9123 -5.9326 28.9842
#
#
#
# Elastic Compliance Matrix: (Units=1/GPa)
#
#
# Indices 1 2 3 4 5 6 
#
# 1 0.013736 -0.006661 -0.003783 0.002934 0.000910 0.004169
# 2 -0.006661 0.014500 -0.003831 -0.003327 -0.002355 -0.004236
# 3 -0.003783 -0.003831 0.012416 -0.004277 0.003784 0.002017
# 4 0.002934 -0.003327 -0.004277 0.051631 -0.015372 -0.009258
# 5 0.000910 -0.002355 0.003784 -0.015372 0.034873 0.010154
# 6 0.004169 -0.004236 0.002017 -0.009258 0.010154 0.039766
#
#
# Mechanical properties :
#
#
# Convention : Reuss Voigt Hill
#
# Bulk Modulus (GPa) = 82.64633 86.20872 84.42752
# Shear Modulus (GPa) = 25.06180 29.51054 27.28617
#
# Velocity S-wave (km/s) = 3.56768 3.87141 3.72264
# Velocity P-wave (km/s) = 7.67760 7.98544 7.83303
#
# Compressibility (1/GPa) = 0.01209975
#
# Stress axis : x y z
#
# Youngs Moduli (GPa) = 72.80207 68.96788 80.53833
#
# Poissons Ratio (x) = 0.45943 0.30472
# Poissons Ratio (y) = 0.48497 0.30855
# Poissons Ratio (z) = 0.27545 0.26422
#
# Static dielectric constant tensor:
#      x y z
#    x 1.851860 -0.028150 0.203400 
#    y -0.028150 1.690650 -0.084450 
#    z 0.203400 -0.084450 1.932410 
# 
# From -- ./inp_files/223462.got.cif
#   From: 2010.05.17/outbox.cif.g08.bks.cpg/sg2_112_cif.got.tgz:223462.got - 2010.06.03 11:33:40.
