data_PCOD9025791
_publ_section_title
;
Structure prediction by ZEFSAII (Michael W. Deem and Ramdas Pophale) SiO2 
 PCOD9025791
Probable space group: P -1
;
_chemical_formula_sum "Si O2"
_cell_formula_units_Z 16
_cell_length_a 10.244214
_cell_length_b 7.418690
_cell_length_c 9.316940
_cell_angle_alpha 95.508472
_cell_angle_beta 71.557507
_cell_angle_gamma 100.723530
_cell_volume 659.455028
_symmetry_space_group_name_H-M "P -1"
_symmetry_group_IT_number 2
_symmetry_cell_setting 'triclinic'
loop_
_space_group_symop_operation_xyz
x,y,z
-x,-y,-z
loop_
_atom_site_type_symbol
_atom_site_label
_atom_site_fract_x
_atom_site_fract_y
_atom_site_fract_z
Si Si1 0.614647 0.874699 0.251898
Si Si2 0.099637 0.423949 0.255247
Si Si3 0.429151 0.491765 0.227920
Si Si4 0.967962 0.756875 0.439974
Si Si5 0.593877 0.174708 0.057712
Si Si6 0.123873 0.163654 0.006106
Si Si7 0.771639 0.035015 0.780086
Si Si8 0.345942 0.200462 0.453222
O O1 0.500638 0.704134 0.220810
O O2 0.761987 0.812629 0.154946
O O3 0.596654 0.871982 0.428102
O O4 0.625834 0.076674 0.189372
O O5 0.266515 0.469120 0.235823
O O6 0.033350 0.282640 0.392700
O O7 0.016159 0.587337 0.327978
O O8 0.074289 0.343628 0.098631
O O9 0.477094 0.643192 0.895338
O O10 0.420940 0.395413 0.380828
O O11 0.812763 0.778600 0.457751
O O12 0.087916 0.913211 0.354272
O O13 0.726169 0.196195 0.905529
O O14 0.500000 0.000000 0.000000
O O15 0.204819 0.106063 0.114552
O O16 0.000000 0.000000 0.000000
O O17 0.664443 0.940504 0.689319
#
# Coordination Sequence:
#
# PCOD9025791 Si02
#       8
#     2   2   2   2   2   2   2   2
#     4  11  27  42  72 105 141 188 228 288 359 405
#     4  10  23  43  67 105 135 180 232 286 349 419
#     4  11  23  46  73  98 148 179 236 292 342 421
#     4  10  22  40  72 100 130 185 233 282 352 413
#     4  11  24  45  66 104 136 184 238 279 347 423
#     4  11  23  43  66  99 138 178 230 288 340 412
#     4  11  22  42  69  94 137 180 230 285 341 416
#     4  11  22  46  68 101 144 179 233 292 344 420
#
# _framework density 24.262457000000001
#
# number of rings (size 3 to 8) (size 9 to 14) (size 15 to 20)
#    0.000    1.250    3.750    2.250    5.250    1.500 
#    4.500    2.500    0.000    0.000    0.000    0.000 
#    0.000    0.000    0.000    0.000    0.000    0.000 
#
# Total GULP energy -89381.191144 kJ/mol
# GULP energy per Si atom -5586.324446 kJ/mol
# Density = 2.420723 g / cm^3
# Si number density = 24.262457 Si / 1000 Ang^3
#
#
#
# Elastic Constant Matrix: (Units=GPa)
#
#
# Indices 1 2 3 4 5 6 
#
# 1 67.3106 37.5451 45.6533 22.5585 -26.5521 -7.0562
# 2 37.5451 114.2946 36.9990 7.2666 -4.0361 -17.1354
# 3 45.6533 36.9990 132.1362 2.9191 -1.7461 -4.3885
# 4 22.5585 7.2666 2.9191 45.6553 -1.5896 -8.8995
# 5 -26.5521 -4.0361 -1.7461 -1.5896 57.1305 0.8696
# 6 -7.0562 -17.1354 -4.3885 -8.8995 0.8696 43.0945
#
#
#
# Elastic Compliance Matrix: (Units=1/GPa)
#
#
# Indices 1 2 3 4 5 6 
#
# 1 0.038247 -0.007769 -0.010508 -0.016745 0.016466 -0.001687
# 2 -0.007769 0.011820 -0.000589 0.002673 -0.002780 0.003976
# 3 -0.010508 -0.000589 0.011213 0.004452 -0.004462 0.000196
# 4 -0.016745 0.002673 0.004452 0.030239 -0.006695 0.005154
# 5 0.016466 -0.002780 -0.004462 -0.006695 0.024649 -0.000744
# 6 -0.001687 0.003976 0.000196 0.005154 -0.000744 0.025609
#
#
# Mechanical properties :
#
#
# Convention : Reuss Voigt Hill
#
# Bulk Modulus (GPa) = 42.46672 61.57068 52.01870
# Shear Modulus (GPa) = 26.68689 42.07900 34.38295
#
# Velocity S-wave (km/s) = 3.32011 4.16904 3.76856
# Velocity P-wave (km/s) = 5.67790 6.97184 6.35787
#
# Compressibility (1/GPa) = 0.02354785
#
# Stress axis : x y z
#
# Youngs Moduli (GPa) = 26.14560 84.60091 89.18613
#
# Poissons Ratio (x) = 0.65730 0.93713
# Poissons Ratio (y) = 0.20314 0.05254
# Poissons Ratio (z) = 0.27473 0.04984
#
# Static dielectric constant tensor:
#      x y z
#    x 1.980560 -0.036330 -0.039300 
#    y -0.036330 2.033730 0.013170 
#    z -0.039300 0.013170 1.982110 
# 
# From -- ./inp_files/238965.got.cif
#   From: 2010.05.17/outbox.cif.g08.bks.cpg/sg2_120_cif.got.tgz:238965.got - 2010.06.03 11:33:40.
