data_PCOD9025546
_publ_section_title
;
Structure prediction by ZEFSAII (Michael W. Deem and Ramdas Pophale) SiO2 
 PCOD9025546
Probable space group: P -1
;
_chemical_formula_sum "Si O2"
_cell_formula_units_Z 16
_cell_length_a 14.594486
_cell_length_b 9.616001
_cell_length_c 13.180161
_cell_angle_alpha 119.733864
_cell_angle_beta 120.381110
_cell_angle_gamma 111.626776
_cell_volume 779.290228
_symmetry_space_group_name_H-M "P -1"
_symmetry_group_IT_number 2
_symmetry_cell_setting 'triclinic'
loop_
_space_group_symop_operation_xyz
x,y,z
-x,-y,-z
loop_
_atom_site_type_symbol
_atom_site_label
_atom_site_fract_x
_atom_site_fract_y
_atom_site_fract_z
Si Si1 0.308338 0.265850 0.017268
Si Si2 0.159212 0.835370 0.206451
Si Si3 0.543319 0.209938 0.451919
Si Si4 0.180489 0.861557 0.631770
Si Si5 0.401327 0.098078 0.633641
Si Si6 0.764355 0.349622 0.250058
Si Si7 0.534862 0.257828 0.230873
Si Si8 0.908342 0.812296 0.980300
O O1 0.422852 0.564753 0.156731
O O2 0.435798 0.302677 0.168041
O O3 0.135383 0.107003 0.932060
O O4 0.246207 0.089310 0.820885
O O5 0.336449 0.016329 0.297362
O O6 0.252650 0.962116 0.414967
O O7 0.000000 0.500000 0.000000
O O8 0.050509 0.858242 0.120018
O O9 0.591501 0.316169 0.400876
O O10 0.706754 0.484210 0.715240
O O11 0.544471 0.019512 0.394171
O O12 0.202343 0.731180 0.666797
O O13 0.959664 0.609894 0.395042
O O14 0.305047 0.997175 0.651944
O O15 0.690024 0.416200 0.287921
O O16 0.612334 0.071797 0.993271
O O17 0.000000 0.000000 0.000000
#
# Coordination Sequence:
#
# PCOD9025546 Si02
#       8
#     2   2   2   2   2   2   2   2
#     4  11  25  44  65 100 141 173 222 286 337 402
#     4  12  26  45  69 101 137 180 230 276 338 409
#     4  12  25  46  73  99 134 184 229 279 337 408
#     4  10  22  41  68  98 135 176 221 278 337 402
#     4  12  24  45  69  98 137 181 222 278 346 402
#     4   9  20  41  66 100 130 172 230 274 322 409
#     4  10  22  40  69  96 131 176 222 276 338 391
#     4  12  28  46  71 102 137 182 229 284 341 399
#
# _framework density 20.531504000000002
#
# number of rings (size 3 to 8) (size 9 to 14) (size 15 to 20)
#    0.000    1.000    3.750    2.250    5.250    2.000 
#    0.000    1.250    0.000    0.000    0.000    0.000 
#    0.000    0.000    0.000    0.000    0.000    0.000 
#
# Total GULP energy -89506.014052 kJ/mol
# GULP energy per Si atom -5594.125878 kJ/mol
# Density = 2.048477 g / cm^3
# Si number density = 20.531504 Si / 1000 Ang^3
#
#
#
# Elastic Constant Matrix: (Units=GPa)
#
#
# Indices 1 2 3 4 5 6 
#
# 1 142.3104 29.0464 14.9636 -4.9936 12.9367 1.0183
# 2 29.0464 42.4858 -15.6852 3.8738 -1.7074 6.7914
# 3 14.9636 -15.6852 29.5715 -2.4081 11.6641 4.5870
# 4 -4.9936 3.8738 -2.4081 33.0490 3.9492 0.7169
# 5 12.9367 -1.7074 11.6641 3.9492 30.2107 -2.8218
# 6 1.0183 6.7914 4.5870 0.7169 -2.8218 38.4823
#
#
#
# Elastic Compliance Matrix: (Units=1/GPa)
#
#
# Indices 1 2 3 4 5 6 
#
# 1 0.011142 -0.013087 -0.012696 0.002288 -0.000587 0.003442
# 2 -0.013087 0.048040 0.036295 -0.003922 -0.006382 -0.012853
# 3 -0.012696 0.036295 0.070640 0.001898 -0.021538 -0.016104
# 4 0.002288 -0.003922 0.001898 0.031953 -0.006171 -0.000642
# 5 -0.000587 -0.006382 -0.021538 -0.006171 0.042764 0.006960
# 6 0.003442 -0.012853 -0.016104 -0.000642 0.006960 0.030605
#
#
# Mechanical properties :
#
#
# Convention : Reuss Voigt Hill
#
# Bulk Modulus (GPa) = 6.62931 30.11304 18.37117
# Shear Modulus (GPa) = 18.91063 32.75125 25.83094
#
# Velocity S-wave (km/s) = 3.03818 3.99829 3.55084
# Velocity P-wave (km/s) = 3.94249 6.00114 5.07725
#
# Compressibility (1/GPa) = 0.15084529
#
# Stress axis : x y z
#
# Youngs Moduli (GPa) = 89.75082 20.81606 14.15632
#
# Poissons Ratio (x) = 0.27242 0.17973
# Poissons Ratio (y) = 1.17458 -0.51380
# Poissons Ratio (z) = 1.13947 -0.75552
#
# Static dielectric constant tensor:
#      x y z
#    x 1.725280 -0.004190 0.012300 
#    y -0.004190 1.706320 0.001200 
#    z 0.012300 0.001200 1.757290 
# 
# From -- ./inp_files/447881.got.cif
#   From: 2010.05.17/outbox.cif.g08.bks.cpg/sg2_224_cif.got.tgz:447881.got - 2010.06.03 11:33:40.
