data_PCOD9025274
_publ_section_title
;
Structure prediction by ZEFSAII (Michael W. Deem and Ramdas Pophale) SiO2 
 PCOD9025274
Probable space group: P -1
;
_chemical_formula_sum "Si O2"
_cell_formula_units_Z 10
_cell_length_a 4.855490
_cell_length_b 21.509536
_cell_length_c 6.987120
_cell_angle_alpha 53.175873
_cell_angle_beta 132.580383
_cell_angle_gamma 97.352012
_cell_volume 379.433076
_symmetry_space_group_name_H-M "P -1"
_symmetry_group_IT_number 2
_symmetry_cell_setting 'triclinic'
loop_
_space_group_symop_operation_xyz
x,y,z
-x,-y,-z
loop_
_atom_site_type_symbol
_atom_site_label
_atom_site_fract_x
_atom_site_fract_y
_atom_site_fract_z
Si Si1 0.759256 0.700233 0.162238
Si Si2 0.286856 0.331303 0.248673
Si Si3 0.942389 0.941233 0.920474
Si Si4 0.971992 0.484255 0.291804
Si Si5 0.361751 0.178872 0.819765
O O1 0.469421 0.791281 0.967850
O O2 0.236543 0.686781 0.444521
O O3 0.728055 0.619514 0.402124
O O4 0.719462 0.691025 0.936009
O O5 0.177662 0.266869 0.441940
O O6 0.986101 0.436912 0.938855
O O7 0.500000 0.000000 0.500000
O O8 0.938855 0.858351 0.174568
O O9 0.294612 0.899667 0.999455
O O10 0.000000 0.000000 0.000000
O O11 0.000000 0.500000 0.500000
O O12 0.500000 0.500000 0.000000
#
# Coordination Sequence:
#
# PCOD9025274 Si02
#       5
#     2   2   2   2   2
#     4  10  22  40  68 104 144 186 233 281 335 410
#     4  10  22  40  68 104 144 186 233 281 335 410
#     4  12  30  52  76 103 140 179 230 296 370 430
#     4   8  16  35  60  96 143 187 225 274 332 392
#     4  12  26  49  78 106 140 184 234 293 352 422
#
# _framework density 26.355104999999998
#
# number of rings (size 3 to 8) (size 9 to 14) (size 15 to 20)
#    0.000    1.600    2.000    1.200    2.800    5.600 
#    0.000    0.000    0.000   14.400    0.000    0.000 
#    0.000    0.000    0.000    0.000    0.000    0.000 
#
# Total GULP energy -56087.466199 kJ/mol
# GULP energy per Si atom -5608.746620 kJ/mol
# Density = 2.629512 g / cm^3
# Si number density = 26.355105 Si / 1000 Ang^3
#
#
#
# Elastic Constant Matrix: (Units=GPa)
#
#
# Indices 1 2 3 4 5 6 
#
# 1 75.7589 26.6865 18.0991 12.9253 -9.4674 -6.9510
# 2 26.6865 209.2726 53.3755 12.2143 0.1536 0.1097
# 3 18.0991 53.3755 136.3113 18.5038 -13.7962 20.1321
# 4 12.9253 12.2143 18.5038 63.6121 7.8220 -8.6394
# 5 -9.4674 0.1536 -13.7962 7.8220 43.0792 -12.3129
# 6 -6.9510 0.1097 20.1321 -8.6394 -12.3129 52.0481
#
#
#
# Elastic Compliance Matrix: (Units=1/GPa)
#
#
# Indices 1 2 3 4 5 6 
#
# 1 0.015268 -0.001522 -0.001087 -0.002615 0.004362 0.003061
# 2 -0.001522 0.005509 -0.002110 0.000032 -0.000925 0.000388
# 3 -0.001087 -0.002110 0.009488 -0.002923 0.002263 -0.003760
# 4 -0.002615 0.000032 -0.002923 0.017967 -0.003966 0.002826
# 5 0.004362 -0.000925 0.002263 -0.003966 0.027187 0.005482
# 6 0.003061 0.000388 -0.003760 0.002826 0.005482 0.022841
#
#
# Mechanical properties :
#
#
# Convention : Reuss Voigt Hill
#
# Bulk Modulus (GPa) = 48.01555 68.62946 58.32250
# Shear Modulus (GPa) = 43.61445 53.29333 48.45389
#
# Velocity S-wave (km/s) = 4.07243 4.50168 4.29243
# Velocity P-wave (km/s) = 6.35383 7.28814 6.83697
#
# Compressibility (1/GPa) = 0.02082659
#
# Stress axis : x y z
#
# Youngs Moduli (GPa) = 65.49843 181.50675 105.39570
#
# Poissons Ratio (x) = 0.27624 0.11455
# Poissons Ratio (y) = 0.09968 0.22243
# Poissons Ratio (z) = 0.07119 0.38306
#
# Static dielectric constant tensor:
#      x y z
#    x 2.031050 0.005180 0.039040 
#    y 0.005180 2.062260 -0.019790 
#    z 0.039040 -0.019790 2.106560 
# 
# From -- ./inp_files/5534.got.cif
#   From: 2010.05.17/outbox.cif.g08.bks.cpg/sg2_3_cif.got.tgz:5534.got - 2010.06.03 11:33:40.
