data_PCOD9025215
_publ_section_title
;
Structure prediction by ZEFSAII (Michael W. Deem and Ramdas Pophale) SiO2 
 PCOD9025215
Probable space group: P -1
;
_chemical_formula_sum "Si O2"
_cell_formula_units_Z 16
_cell_length_a 17.027726
_cell_length_b 10.180163
_cell_length_c 19.463544
_cell_angle_alpha 32.735791
_cell_angle_beta 158.090729
_cell_angle_gamma 144.094436
_cell_volume 673.441005
_symmetry_space_group_name_H-M "P -1"
_symmetry_group_IT_number 2
_symmetry_cell_setting 'triclinic'
loop_
_space_group_symop_operation_xyz
x,y,z
-x,-y,-z
loop_
_atom_site_type_symbol
_atom_site_label
_atom_site_fract_x
_atom_site_fract_y
_atom_site_fract_z
Si Si1 0.739645 0.967826 0.725208
Si Si2 0.263607 0.107515 0.398410
Si Si3 0.553062 0.033607 0.949227
Si Si4 0.789013 0.204330 0.303569
Si Si5 0.427777 0.105075 0.163147
Si Si6 0.125516 0.340067 0.908864
Si Si7 0.925150 0.749230 0.361642
Si Si8 0.244337 0.624043 0.139988
O O1 0.816697 0.924346 0.730325
O O2 0.773680 0.752462 0.899873
O O3 0.500000 0.000000 0.500000
O O4 0.883089 0.208487 0.766476
O O5 0.449117 0.961367 0.639128
O O6 0.353585 0.392952 0.353754
O O7 0.066195 0.983761 0.337894
O O8 0.682753 0.804681 0.134927
O O9 0.337787 0.035991 0.728983
O O10 0.500000 0.000000 0.000000
O O11 0.698350 0.278999 0.933018
O O12 0.002701 0.230362 0.509497
O O13 0.610737 0.242957 0.200655
O O14 0.837436 0.375226 0.201321
O O15 0.319031 0.857804 0.145916
O O16 0.246232 0.249448 0.979859
O O17 0.000000 0.500000 0.500000
O O18 0.000000 0.500000 0.000000
#
# Coordination Sequence:
#
# PCOD9025215 Si02
#       8
#     2   2   2   2   2   2   2   2
#     4  11  24  41  62  95 138 180 224 285 348 412
#     4  11  22  42  67  97 134 179 235 287 348 419
#     4  11  27  48  69 105 143 189 239 292 362 422
#     4  10  25  41  70 100 137 183 228 294 351 426
#     4  10  22  40  67  99 130 173 235 290 347 417
#     4  11  23  41  64  99 137 179 225 284 359 417
#     4  11  25  44  75 106 137 184 237 294 353 424
#     4  11  22  42  69  95 135 186 235 286 345 427
#
# _framework density 23.758576000000001
#
# number of rings (size 3 to 8) (size 9 to 14) (size 15 to 20)
#    0.000    1.250    2.500    2.250   10.500    1.500 
#    0.000    0.000    0.000    0.000    0.000    0.000 
#    0.000    0.000    0.000    0.000    0.000    0.000 
#
# Total GULP energy -89278.845159 kJ/mol
# GULP energy per Si atom -5579.927822 kJ/mol
# Density = 2.370450 g / cm^3
# Si number density = 23.758576 Si / 1000 Ang^3
#
#
#
# Elastic Constant Matrix: (Units=GPa)
#
#
# Indices 1 2 3 4 5 6 
#
# 1 74.2059 22.8257 17.7794 -2.1563 -30.9477 19.9792
# 2 22.8257 95.1455 30.0000 -6.2905 -19.8501 25.6781
# 3 17.7794 30.0000 96.2549 16.4503 -20.9063 7.5040
# 4 -2.1563 -6.2905 16.4503 27.8672 -5.0468 -11.9762
# 5 -30.9477 -19.8501 -20.9063 -5.0468 39.4890 -9.1112
# 6 19.9792 25.6781 7.5040 -11.9762 -9.1112 40.9239
#
#
#
# Elastic Compliance Matrix: (Units=1/GPa)
#
#
# Indices 1 2 3 4 5 6 
#
# 1 0.021962 0.000082 -0.000500 0.002031 0.015729 -0.006586
# 2 0.000082 0.014549 -0.003685 0.003460 0.004367 -0.006508
# 3 -0.000500 -0.003685 0.014183 -0.009457 0.003592 -0.002013
# 4 0.002031 0.003460 -0.009457 0.050421 0.008267 0.015168
# 5 0.015729 0.004367 0.003592 0.008267 0.043016 0.000919
# 6 -0.006586 -0.006508 -0.002013 0.015168 0.000919 0.036747
#
#
# Mechanical properties :
#
#
# Convention : Reuss Voigt Hill
#
# Bulk Modulus (GPa) = 23.53564 45.20184 34.36874
# Shear Modulus (GPa) = 24.60066 34.65610 29.62838
#
# Velocity S-wave (km/s) = 3.22132 3.82341 3.53521
# Velocity P-wave (km/s) = 4.87479 6.20951 5.58219
#
# Compressibility (1/GPa) = 0.04248875
#
# Stress axis : x y z
#
# Youngs Moduli (GPa) = 45.53248 68.73436 70.50576
#
# Poissons Ratio (x) = -0.00562 0.03523
# Poissons Ratio (y) = -0.00372 0.25981
# Poissons Ratio (z) = 0.02275 0.25328
#
# Static dielectric constant tensor:
#      x y z
#    x 1.968400 -0.017530 0.071370 
#    y -0.017530 2.011100 -0.006660 
#    z 0.071370 -0.006660 2.025010 
# 
# From -- ./inp_files/600040.got.cif
#   From: 2010.05.17/outbox.cif.g08.bks.cpg/sg2_301_cif.got.tgz:600040.got - 2010.06.03 11:33:40.
