data_PCOD9025417
_publ_section_title
;
Structure prediction by ZEFSAII (Michael W. Deem and Ramdas Pophale) SiO2 
 PCOD9025417
Probable space group: P -1
;
_chemical_formula_sum "Si O2"
_cell_formula_units_Z 16
_cell_length_a 8.485127
_cell_length_b 21.751863
_cell_length_c 8.888629
_cell_angle_alpha 35.250938
_cell_angle_beta 108.905028
_cell_angle_gamma 125.014430
_cell_volume 738.325133
_symmetry_space_group_name_H-M "P -1"
_symmetry_group_IT_number 2
_symmetry_cell_setting 'triclinic'
loop_
_space_group_symop_operation_xyz
x,y,z
-x,-y,-z
loop_
_atom_site_type_symbol
_atom_site_label
_atom_site_fract_x
_atom_site_fract_y
_atom_site_fract_z
Si Si1 0.492229 0.354000 0.129471
Si Si2 0.563194 0.194592 0.092934
Si Si3 0.392733 0.346887 0.769510
Si Si4 0.578233 0.993197 0.302483
Si Si5 0.205176 0.377913 0.180831
Si Si6 0.224841 0.750509 0.528818
Si Si7 0.955235 0.224779 0.859629
Si Si8 0.006263 0.395582 0.809261
O O1 0.309569 0.308946 0.282379
O O2 0.648643 0.312616 0.281990
O O3 0.401229 0.315287 0.011373
O O4 0.635080 0.509053 0.885097
O O5 0.562248 0.106488 0.138351
O O6 0.437495 0.094024 0.388563
O O7 0.500666 0.288867 0.835100
O O8 0.789783 0.297396 0.016289
O O9 0.500000 0.500000 0.500000
O O10 0.173769 0.271404 0.778158
O O11 0.391805 0.899504 0.324823
O O12 0.798799 0.072153 0.139306
O O13 0.984048 0.299718 0.345687
O O14 0.174763 0.442449 0.894118
O O15 0.153376 0.732892 0.369945
O O16 0.013606 0.302977 0.876936
O O17 0.000000 0.500000 0.500000
#
# Coordination Sequence:
#
# PCOD9025417 Si02
#       8
#     2   2   2   2   2   2   2   2
#     4  11  24  41  68 100 135 185 223 279 345 415
#     4  10  22  40  68  99 129 184 221 281 341 407
#     4  12  23  43  66 104 139 170 226 290 345 405
#     4  10  22  44  68  93 135 179 236 269 337 415
#     4  11  23  41  66  98 139 178 229 276 345 416
#     4  12  23  48  67  96 139 184 225 284 345 403
#     4  11  25  40  67  97 133 175 226 281 336 404
#     4  11  20  39  64  97 131 175 222 282 342 401
#
# _framework density 21.670669
#
# number of rings (size 3 to 8) (size 9 to 14) (size 15 to 20)
#    0.000    1.000    3.750    3.000    0.000    0.500 
#    9.000    0.625    0.000    0.000    0.000    0.000 
#    0.000    0.000    0.000    0.000    0.000    0.000 
#
# Total GULP energy -89241.129718 kJ/mol
# GULP energy per Si atom -5577.570607 kJ/mol
# Density = 2.162135 g / cm^3
# Si number density = 21.670669 Si / 1000 Ang^3
#
#
#
# Elastic Constant Matrix: (Units=GPa)
#
#
# Indices 1 2 3 4 5 6 
#
# 1 122.1473 20.6314 44.3387 -14.5036 9.3072 17.6429
# 2 20.6314 90.9694 20.3663 -3.4121 5.9993 15.3712
# 3 44.3387 20.3663 62.3512 -5.1394 0.0063 5.6176
# 4 -14.5036 -3.4121 -5.1394 37.3806 0.8893 4.8627
# 5 9.3072 5.9993 0.0063 0.8893 31.7802 -2.4620
# 6 17.6429 15.3712 5.6176 4.8627 -2.4620 32.2815
#
#
#
# Elastic Compliance Matrix: (Units=1/GPa)
#
#
# Indices 1 2 3 4 5 6 
#
# 1 0.013144 0.000618 -0.008493 0.005024 -0.004656 -0.007112
# 2 0.000618 0.013107 -0.003996 0.001795 -0.003200 -0.006398
# 3 -0.008493 -0.003996 0.023038 -0.000959 0.003492 0.002946
# 4 0.005024 0.001795 -0.000959 0.029876 -0.003280 -0.008184
# 5 -0.004656 -0.003200 0.003492 -0.003280 0.034032 0.006550
# 6 -0.007112 -0.006398 0.002946 -0.008184 0.006550 0.039130
#
#
# Mechanical properties :
#
#
# Convention : Reuss Voigt Hill
#
# Bulk Modulus (GPa) = 39.14473 49.57118 44.35796
# Shear Modulus (GPa) = 27.08770 32.96389 30.02579
#
# Velocity S-wave (km/s) = 3.53933 3.90440 3.72634
# Velocity P-wave (km/s) = 5.89959 6.57649 6.24721
#
# Compressibility (1/GPa) = 0.02554622
#
# Stress axis : x y z
#
# Youngs Moduli (GPa) = 76.07975 76.29768 43.40615
#
# Poissons Ratio (x) = -0.04713 0.36866
# Poissons Ratio (y) = -0.04699 0.17344
# Poissons Ratio (z) = 0.64617 0.30486
#
# Static dielectric constant tensor:
#      x y z
#    x 1.936450 -0.008280 -0.032630 
#    y -0.008280 1.754030 0.017700 
#    z -0.032630 0.017700 1.817730 
# 
# From -- ./inp_files/225857.got.cif
#   From: 2010.05.17/outbox.cif.g08.bks.cpg/sg2_113_cif.got.tgz:225857.got - 2010.06.03 11:33:40.
