data_PCOD9025034
_publ_section_title
;
Structure prediction by ZEFSAII (Michael W. Deem and Ramdas Pophale) SiO2 
 PCOD9025034
Probable space group: P -1
;
_chemical_formula_sum "Si O2"
_cell_formula_units_Z 14
_cell_length_a 12.100963
_cell_length_b 8.469027
_cell_length_c 9.213070
_cell_angle_alpha 104.869137
_cell_angle_beta 140.618487
_cell_angle_gamma 63.791704
_cell_volume 531.491683
_symmetry_space_group_name_H-M "P -1"
_symmetry_group_IT_number 2
_symmetry_cell_setting 'triclinic'
loop_
_space_group_symop_operation_xyz
x,y,z
-x,-y,-z
loop_
_atom_site_type_symbol
_atom_site_label
_atom_site_fract_x
_atom_site_fract_y
_atom_site_fract_z
Si Si1 0.466696 0.188391 0.438393
Si Si2 0.776859 0.477083 0.549032
Si Si3 0.864941 0.966676 0.690066
Si Si4 0.693542 0.260503 0.169291
Si Si5 0.085046 0.204610 0.998633
Si Si6 0.272810 0.086034 0.777360
Si Si7 0.243211 0.431801 0.756055
O O1 0.390571 0.358848 0.505727
O O2 0.676089 0.144149 0.582467
O O3 0.500000 0.000000 0.500000
O O4 0.288749 0.204693 0.159995
O O5 0.712262 0.335279 0.366355
O O6 0.927090 0.372853 0.799712
O O7 0.844620 0.549713 0.489978
O O8 0.034081 0.034540 0.875008
O O9 0.801950 0.918688 0.461353
O O10 0.904591 0.815410 0.819111
O O11 0.779793 0.369258 0.179311
O O12 0.785701 0.049506 0.222497
O O13 0.470178 0.331396 0.929231
O O14 0.203379 0.294426 0.784908
O O15 0.500000 0.000000 0.000000
#
# Coordination Sequence:
#
# PCOD9025034 Si02
#       7
#     2   2   2   2   2   2   2
#     4  10  21  33  51  79 112 147 182 225 281 333
#     4  10  17  33  52  79 111 142 186 226 273 334
#     4  10  20  36  53  83 113 143 185 228 280 331
#     4   8  16  28  46  81 103 136 190 226 262 330
#     4  10  20  34  55  80 115 144 182 230 274 336
#     4  10  17  31  54  78 103 143 187 226 266 333
#     4   8  15  27  49  76 107 137 182 231 266 321
#
# _framework density 26.340959000000002
#
# number of rings (size 3 to 8) (size 9 to 14) (size 15 to 20)
#    0.857    1.714    1.429    2.143    0.000    0.571 
#    0.000    0.000    0.000    0.857   14.857    3.000 
#    0.000    0.000    0.000    0.000    0.000    0.000 
#
# Total GULP energy -78111.632817 kJ/mol
# GULP energy per Si atom -5579.402344 kJ/mol
# Density = 2.628101 g / cm^3
# Si number density = 26.340959 Si / 1000 Ang^3
#
#
#
# Elastic Constant Matrix: (Units=GPa)
#
#
# Indices 1 2 3 4 5 6 
#
# 1 66.8482 52.1718 34.8823 -12.5540 -13.8224 -5.9202
# 2 52.1718 170.6018 32.2790 -21.9231 -8.9802 48.1868
# 3 34.8823 32.2790 169.8325 -7.0489 -13.7511 -5.1778
# 4 -12.5540 -21.9231 -7.0489 52.7986 7.3184 -5.3733
# 5 -13.8224 -8.9802 -13.7511 7.3184 31.9297 -17.0110
# 6 -5.9202 48.1868 -5.1778 -5.3733 -17.0110 13.0037
#
#
#
# Elastic Compliance Matrix: (Units=1/GPa)
#
#
# Indices 1 2 3 4 5 6 
#
# 1 0.010371 0.004175 -0.004305 0.002514 -0.009412 -0.023736
# 2 0.004175 -0.000195 0.000795 0.001306 0.012039 0.019227
# 3 -0.004305 0.000795 0.006524 -0.000059 -0.000195 -0.002586
# 4 0.002514 0.001306 -0.000059 0.020572 -0.002432 0.001601
# 5 -0.009412 0.012039 -0.000195 -0.002432 0.014771 -0.030657
# 6 -0.023736 0.019227 -0.002586 0.001601 -0.030657 -0.045627
#
#
# Mechanical properties :
#
#
# Convention : Reuss Voigt Hill
#
# Bulk Modulus (GPa) = 55.46390 71.77205 63.61797
# Shear Modulus (GPa) = 450.53579 38.74305 244.63942
#
# Velocity S-wave (km/s) = 13.09241 3.83930 9.64758
# Velocity P-wave (km/s) = 15.80033 6.85274 12.17806
#
# Compressibility (1/GPa) = 0.01802975
#
# Stress axis : x y z
#
# Youngs Moduli (GPa) = 96.41876 -5135.23314 153.27374
#
# Poissons Ratio (x) = 21.43797 0.65985
# Poissons Ratio (y) = -0.40252 -0.12182
# Poissons Ratio (z) = 0.41509 4.08127
#
# Static dielectric constant tensor:
#      x y z
#    x 2.083270 0.040060 0.043250 
#    y 0.040060 2.104170 0.019730 
#    z 0.043250 0.019730 2.080840 
# 
# From -- ./inp_files/540519.got.cif
#   From: 2010.05.17/outbox.cif.g08.bks.cpg/sg2_271_cif.got.tgz:540519.got - 2010.06.03 11:33:40.
