data_PCOD9025698
_publ_section_title
;
Structure prediction by ZEFSAII (Michael W. Deem and Ramdas Pophale) SiO2 
 PCOD9025698
Probable space group: P -1
;
_chemical_formula_sum "Si O2"
_cell_formula_units_Z 14
_cell_length_a 5.161078
_cell_length_b 5.464748
_cell_length_c 20.507820
_cell_angle_alpha 95.236790
_cell_angle_beta 73.409560
_cell_angle_gamma 85.877661
_cell_volume 549.095020
_symmetry_space_group_name_H-M "P -1"
_symmetry_group_IT_number 2
_symmetry_cell_setting 'triclinic'
loop_
_space_group_symop_operation_xyz
x,y,z
-x,-y,-z
loop_
_atom_site_type_symbol
_atom_site_label
_atom_site_fract_x
_atom_site_fract_y
_atom_site_fract_z
Si Si1 0.311815 0.266520 0.216707
Si Si2 0.410302 0.624335 0.317381
Si Si3 0.328331 0.765408 0.011117
Si Si4 0.060989 0.064890 0.422823
Si Si5 0.546318 0.376803 0.422839
Si Si6 0.195436 0.986458 0.893361
Si Si7 0.641763 0.246111 0.818843
O O1 0.284402 0.382138 0.292352
O O2 0.231718 0.495379 0.179375
O O3 0.632546 0.183035 0.176723
O O4 0.176994 0.016218 0.208616
O O5 0.609850 0.546516 0.360826
O O6 0.501424 0.723952 0.243045
O O7 0.200022 0.830646 0.368897
O O8 0.091863 0.848480 0.082485
O O9 0.500000 0.500000 0.000000
O O10 0.500000 0.000000 0.000000
O O11 0.184464 0.798726 0.950618
O O12 0.267201 0.271223 0.421463
O O13 0.785137 0.162815 0.409790
O O14 0.000000 0.000000 0.500000
O O15 0.500000 0.500000 0.500000
O O16 0.411287 0.194478 0.885560
#
# Coordination Sequence:
#
# PCOD9025698 Si02
#       7
#     2   2   2   2   2   2   2
#     4   8  18  37  68  91 129 181 224 281 350 415
#     4  10  22  40  70  97 138 174 250 290 370 429
#     4  11  26  37  66 104 132 179 234 275 348 420
#     4  12  26  45  71 103 143 189 242 305 376 439
#     4  12  26  45  71 103 143 189 242 305 376 439
#     4   9  22  44  68  88 148 174 224 294 344 406
#     4   8  18  37  68  91 129 181 224 281 350 415
#
# _framework density 25.496494999999999
#
# number of rings (size 3 to 8) (size 9 to 14) (size 15 to 20)
#    1.714    0.286    1.429    1.714    4.000    1.143 
#    0.000    4.286    6.286    0.000    0.000    0.000 
#    0.000    0.000    0.000    0.000    0.000    0.000 
#
# Total GULP energy -78047.322196 kJ/mol
# GULP energy per Si atom -5574.808728 kJ/mol
# Density = 2.543846 g / cm^3
# Si number density = 25.496495 Si / 1000 Ang^3
#
#
#
# Elastic Constant Matrix: (Units=GPa)
#
#
# Indices 1 2 3 4 5 6 
#
# 1 -3.9743 -5.4424 -3.2438 -9.0690 -12.8136 7.1580
# 2 -5.4424 175.7250 33.9972 1.8373 2.5951 -5.1830
# 3 -3.2438 33.9972 125.3269 3.7705 13.2264 -5.2160
# 4 -9.0690 1.8373 3.7705 54.7094 -4.9615 7.4531
# 5 -12.8136 2.5951 13.2264 -4.9615 18.4232 4.7769
# 6 7.1580 -5.1830 -5.2160 7.4531 4.7769 39.0245
#
#
#
# Elastic Compliance Matrix: (Units=1/GPa)
#
#
# Indices 1 2 3 4 5 6 
#
# 1 -0.046896 -0.001087 0.004920 -0.014459 -0.044378 0.017309
# 2 -0.001087 0.005996 -0.001501 -0.000498 -0.000917 0.001002
# 3 0.004920 -0.001501 0.008833 -0.000060 -0.002838 0.000438
# 4 -0.014459 -0.000498 -0.000060 0.015314 -0.005917 0.000377
# 5 -0.044378 -0.000917 -0.002838 -0.005917 0.022425 0.006024
# 6 0.017309 0.001002 0.000438 0.000377 0.006024 0.021832
#
#
# Mechanical properties :
#
#
# Convention : Reuss Voigt Hill
#
# Bulk Modulus (GPa) = -36.49077 38.63329 1.07126
# Shear Modulus (GPa) = 364.78627 40.54919 202.66773
#
# Velocity S-wave (km/s) = 11.97429 3.99229 8.92530
# Velocity P-wave (km/s) = 13.29794 6.03626 10.32646
#
# Compressibility (1/GPa) = -0.02740419
#
# Stress axis : x y z
#
# Youngs Moduli (GPa) = -21.32364 166.78414 113.20956
#
# Poissons Ratio (x) = 0.18133 -0.55698
# Poissons Ratio (y) = -0.02318 0.16994
# Poissons Ratio (z) = 0.10491 0.25036
#
# Static dielectric constant tensor:
#      x y z
#    x 2.029420 0.007350 0.068240 
#    y 0.007350 2.089940 -0.086750 
#    z 0.068240 -0.086750 2.057170 
# 
# From -- ./inp_files/603251.got.cif
#   From: 2010.05.17/outbox.cif.g08.bks.cpg/sg2_302_cif.got.tgz:603251.got - 2010.06.03 11:33:40.
