data_PCOD9025813
_publ_section_title
;
Structure prediction by ZEFSAII (Michael W. Deem and Ramdas Pophale) SiO2 
 PCOD9025813
Probable space group: P -1
;
_chemical_formula_sum "Si O2"
_cell_formula_units_Z 16
_cell_length_a 11.835533
_cell_length_b 12.350713
_cell_length_c 11.969830
_cell_angle_alpha 106.806162
_cell_angle_beta 78.682866
_cell_angle_gamma 37.303318
_cell_volume 688.649214
_symmetry_space_group_name_H-M "P -1"
_symmetry_group_IT_number 2
_symmetry_cell_setting 'triclinic'
loop_
_space_group_symop_operation_xyz
x,y,z
-x,-y,-z
loop_
_atom_site_type_symbol
_atom_site_label
_atom_site_fract_x
_atom_site_fract_y
_atom_site_fract_z
Si Si1 0.832643 0.471053 0.617357
Si Si2 0.452308 0.596088 0.695076
Si Si3 0.576322 0.809035 0.559177
Si Si4 0.625095 0.778824 0.968474
Si Si5 0.775466 0.103040 0.374803
Si Si6 0.634577 0.362297 0.814547
Si Si7 0.391168 0.878975 0.257489
Si Si8 0.187690 0.369152 0.775480
O O1 0.681339 0.490614 0.614823
O O2 0.729601 0.652586 0.599277
O O3 0.736076 0.596848 0.795518
O O4 0.154859 0.160496 0.449829
O O5 0.574423 0.371821 0.553802
O O6 0.208442 0.860617 0.743915
O O7 0.430377 0.590870 0.828112
O O8 0.370965 0.887119 0.598579
O O9 0.788151 0.628932 0.361462
O O10 0.390762 0.085071 0.677981
O O11 0.884727 0.598614 0.930364
O O12 0.428303 0.889770 0.126633
O O13 0.500000 0.000000 0.000000
O O14 0.067224 0.843542 0.302287
O O15 0.683786 0.185045 0.738305
O O16 0.500000 0.500000 0.000000
O O17 0.683769 0.638884 0.188678
#
# Coordination Sequence:
#
# PCOD9025813 Si02
#       8
#     2   2   2   2   2   2   2   2
#     4  11  23  44  72  97 139 180 225 286 344 411
#     4  10  22  42  68 102 132 180 231 275 343 416
#     4  10  22  40  72 104 129 180 232 280 344 411
#     4  12  27  46  68 100 139 181 232 284 342 409
#     4  10  22  42  71 100 136 177 230 282 339 415
#     4  12  26  43  69 103 143 180 225 288 346 413
#     4  12  26  45  69 103 137 181 231 282 345 413
#     4  11  24  42  68  99 136 178 228 286 341 408
#
# _framework density 23.233891
#
# number of rings (size 3 to 8) (size 9 to 14) (size 15 to 20)
#    0.000    1.000    1.250    5.250    5.250    2.000 
#    4.500    0.000    0.000    0.000    0.000    0.000 
#    0.000    0.000    0.000    0.000    0.000    0.000 
#
# Total GULP energy -89599.722191 kJ/mol
# GULP energy per Si atom -5599.982637 kJ/mol
# Density = 2.318101 g / cm^3
# Si number density = 23.233891 Si / 1000 Ang^3
#
#
#
# Elastic Constant Matrix: (Units=GPa)
#
#
# Indices 1 2 3 4 5 6 
#
# 1 106.2178 3.1461 6.8497 11.6942 -2.1000 -4.1097
# 2 3.1461 86.5534 13.5582 -24.7124 5.8678 3.4382
# 3 6.8497 13.5582 78.3006 -17.1185 3.6342 5.8540
# 4 11.6942 -24.7124 -17.1185 39.2159 -3.4575 -3.4256
# 5 -2.1000 5.8678 3.6342 -3.4575 25.9091 -5.5832
# 6 -4.1097 3.4382 5.8540 -3.4256 -5.5832 30.2246
#
#
#
# Elastic Compliance Matrix: (Units=1/GPa)
#
#
# Indices 1 2 3 4 5 6 
#
# 1 0.010159 -0.001524 -0.001788 -0.004528 0.001160 0.001602
# 2 -0.001524 0.014468 -0.000161 0.009181 -0.002417 -0.001228
# 3 -0.001788 -0.000161 0.014648 0.006426 -0.001884 -0.002682
# 4 -0.004528 0.009181 0.006426 0.035722 0.001735 0.001464
# 5 0.001160 -0.002417 -0.001884 0.001735 0.041604 0.008679
# 6 0.001602 -0.001228 -0.002682 0.001464 0.008679 0.035732
#
#
# Mechanical properties :
#
#
# Convention : Reuss Voigt Hill
#
# Bulk Modulus (GPa) = 30.93242 35.35331 33.14286
# Shear Modulus (GPa) = 29.40213 35.57110 32.48662
#
# Velocity S-wave (km/s) = 3.56122 3.91705 3.74336
# Velocity P-wave (km/s) = 5.50020 5.97553 5.74278
#
# Compressibility (1/GPa) = 0.03232854
#
# Stress axis : x y z
#
# Youngs Moduli (GPa) = 98.43905 69.11701 68.26704
#
# Poissons Ratio (x) = 0.10536 0.12209
# Poissons Ratio (y) = 0.15005 0.01097
# Poissons Ratio (z) = 0.17604 0.01110
#
# Static dielectric constant tensor:
#      x y z
#    x 1.407840 -0.092260 0.138480 
#    y -0.092260 1.882150 -0.031100 
#    z 0.138480 -0.031100 1.820070 
# 
# From -- ./inp_files/428378.got.cif
#   From: 2010.05.17/outbox.cif.g08.bks.cpg/sg2_215_cif.got.tgz:428378.got - 2010.06.03 11:33:40.
