data_PCOD9025637
_publ_section_title
;
Structure prediction by ZEFSAII (Michael W. Deem and Ramdas Pophale) SiO2 
 PCOD9025637
Probable space group: P -1
;
_chemical_formula_sum "Si O2"
_cell_formula_units_Z 16
_cell_length_a 20.743992
_cell_length_b 7.630496
_cell_length_c 22.329013
_cell_angle_alpha 146.506081
_cell_angle_beta 162.085843
_cell_angle_gamma 37.793257
_cell_volume 599.829381
_symmetry_space_group_name_H-M "P -1"
_symmetry_group_IT_number 2
_symmetry_cell_setting 'triclinic'
loop_
_space_group_symop_operation_xyz
x,y,z
-x,-y,-z
loop_
_atom_site_type_symbol
_atom_site_label
_atom_site_fract_x
_atom_site_fract_y
_atom_site_fract_z
Si Si1 0.538830 0.377469 0.630016
Si Si2 0.176598 0.615838 0.908319
Si Si3 0.325509 0.379970 0.859770
Si Si4 0.279243 0.652661 0.577065
Si Si5 0.585325 0.821230 0.347265
Si Si6 0.949812 0.509933 0.108916
Si Si7 0.027101 0.244495 0.399833
Si Si8 0.209863 0.552759 0.241628
O O1 0.354149 0.569962 0.552934
O O2 0.746144 0.481835 0.879218
O O3 0.591488 0.463493 0.632595
O O4 0.500000 0.000000 0.500000
O O5 0.322686 0.372837 0.928456
O O6 0.945278 0.502744 0.651694
O O7 0.351395 0.902659 0.142326
O O8 0.107957 0.667184 0.931955
O O9 0.145651 0.641723 0.767506
O O10 0.273945 0.023440 0.691320
O O11 0.500000 0.500000 0.000000
O O12 0.436496 0.465684 0.706266
O O13 0.731345 0.716580 0.392796
O O14 0.736681 0.085056 0.586874
O O15 0.137135 0.405590 0.199962
O O16 0.977651 0.874970 0.260216
O O17 0.000000 0.500000 0.500000
O O18 0.000000 0.500000 0.000000
#
# Coordination Sequence:
#
# PCOD9025637 Si02
#       8
#     2   2   2   2   2   2   2   2
#     4  11  20  42  71  96 134 185 231 285 348 409
#     4  12  25  44  71 104 143 178 235 288 343 423
#     4  12  27  44  66 108 143 185 233 286 349 413
#     4  12  25  44  68 101 140 182 237 281 347 415
#     4  11  23  43  70 102 135 186 230 280 352 412
#     4  10  22  40  70 105 131 181 231 279 350 417
#     4  11  23  43  69 100 143 184 227 278 349 418
#     4   9  20  41  74  99 132 181 235 282 345 413
#
# _framework density 26.674251999999999
#
# number of rings (size 3 to 8) (size 9 to 14) (size 15 to 20)
#    0.000    1.000    3.750    2.625    1.750    1.500 
#    0.000    3.125    0.000    0.000    0.000    0.000 
#    0.000    0.000    0.000    0.000    0.000    0.000 
#
# Total GULP energy -89183.335790 kJ/mol
# GULP energy per Si atom -5573.958487 kJ/mol
# Density = 2.661354 g / cm^3
# Si number density = 26.674252 Si / 1000 Ang^3
#
#
#
# Elastic Constant Matrix: (Units=GPa)
#
#
# Indices 1 2 3 4 5 6 
#
# 1 218.6325 34.8492 54.4759 8.1288 26.7219 -61.3663
# 2 34.8492 90.5605 52.0576 28.7775 19.0148 -7.5092
# 3 54.4759 52.0576 165.0513 -4.4952 22.8849 -24.8460
# 4 8.1288 28.7775 -4.4952 43.4588 -17.1483 -1.3313
# 5 26.7219 19.0148 22.8849 -17.1483 54.1578 -16.6705
# 6 -61.3663 -7.5092 -24.8460 -1.3313 -16.6705 35.2544
#
#
#
# Elastic Compliance Matrix: (Units=1/GPa)
#
#
# Indices 1 2 3 4 5 6 
#
# 1 0.009552 -0.003593 0.000308 0.002105 0.002409 0.017298
# 2 -0.003593 0.027717 -0.008150 -0.025866 -0.017416 -0.015307
# 3 0.000308 -0.008150 0.009363 0.007926 0.003531 0.007367
# 4 0.002105 -0.025866 0.007926 0.051655 0.026685 0.018310
# 5 0.002409 -0.017416 0.003531 0.026685 0.036952 0.021454
# 6 0.017298 -0.015307 0.007367 0.018310 0.021454 0.071243
#
#
# Mechanical properties :
#
#
# Convention : Reuss Voigt Hill
#
# Bulk Modulus (GPa) = 42.08504 84.11221 63.09863
# Shear Modulus (GPa) = 21.07269 48.76498 34.91884
#
# Velocity S-wave (km/s) = 2.81375 4.28035 3.62205
# Velocity P-wave (km/s) = 5.13497 7.48532 6.41864
#
# Compressibility (1/GPa) = 0.02376141
#
# Stress axis : x y z
#
# Youngs Moduli (GPa) = 104.68508 36.07895 106.80324
#
# Poissons Ratio (x) = 0.12965 -0.03287
# Poissons Ratio (y) = 0.37617 0.87043
# Poissons Ratio (z) = -0.03222 0.29404
#
# Static dielectric constant tensor:
#      x y z
#    x 2.139150 -0.231310 -0.171470 
#    y -0.231310 1.530070 -0.052250 
#    z -0.171470 -0.052250 2.214680 
# 
# From -- ./inp_files/613648.got.cif
#   From: 2010.05.17/outbox.cif.g08.bks.cpg/sg2_307_cif.got.tgz:613648.got - 2010.06.03 11:33:40.
