data_PCOD9025066
_publ_section_title
;
Structure prediction by ZEFSAII (Michael W. Deem and Ramdas Pophale) SiO2 
 PCOD9025066
Probable space group: P -1
;
_chemical_formula_sum "Si O2"
_cell_formula_units_Z 12
_cell_length_a 11.733531
_cell_length_b 5.091476
_cell_length_c 33.230633
_cell_angle_alpha 46.135562
_cell_angle_beta 156.611104
_cell_angle_gamma 131.837474
_cell_volume 564.845256
_symmetry_space_group_name_H-M "P -1"
_symmetry_group_IT_number 2
_symmetry_cell_setting 'triclinic'
loop_
_space_group_symop_operation_xyz
x,y,z
-x,-y,-z
loop_
_atom_site_type_symbol
_atom_site_label
_atom_site_fract_x
_atom_site_fract_y
_atom_site_fract_z
Si Si1 0.489514 0.155581 0.719050
Si Si2 0.218809 0.284385 0.809984
Si Si3 0.201692 0.246719 0.069142
Si Si4 0.114375 0.645198 0.594734
Si Si5 0.214576 0.666305 0.403410
Si Si6 0.077964 0.396845 0.248378
O O1 0.706087 0.419671 0.733950
O O2 0.231749 0.375325 0.628879
O O3 0.653801 0.011377 0.825437
O O4 0.373363 0.814770 0.689536
O O5 0.535318 0.493072 0.893248
O O6 0.044716 0.466084 0.698083
O O7 0.044176 0.326322 0.789793
O O8 0.184689 0.861561 0.830240
O O9 0.000000 0.500000 0.000000
O O10 0.000000 0.000000 0.000000
O O11 0.881640 0.442243 0.571318
O O12 0.000000 0.000000 0.500000
O O13 0.500000 0.500000 0.500000
O O14 0.762480 0.897349 0.642812
#
# Coordination Sequence:
#
# PCOD9025066 Si02
#       6
#     2   2   2   2   2   2
#     4  12  24  46  65 100 137 172 223 288 318 400
#     4  10  22  44  62  94 131 168 214 275 324 394
#     4  12  25  45  73  97 125 179 230 278 341 386
#     4  12  25  41  67 100 141 178 223 264 330 401
#     4  10  23  40  65  94 134 177 218 258 334 396
#     4  10  22  40  67  89 137 167 212 264 342 376
#
# _framework density 21.244757
#
# number of rings (size 3 to 8) (size 9 to 14) (size 15 to 20)
#    1.000    0.000    1.667    5.500    2.333    0.667 
#    0.000    5.000    0.000    0.000    0.000    0.000 
#    0.000    0.000    0.000    0.000    0.000    0.000 
#
# Total GULP energy -67084.907543 kJ/mol
# GULP energy per Si atom -5590.408962 kJ/mol
# Density = 2.119640 g / cm^3
# Si number density = 21.244757 Si / 1000 Ang^3
#
#
#
# Elastic Constant Matrix: (Units=GPa)
#
#
# Indices 1 2 3 4 5 6 
#
# 1 135.5327 19.9805 0.3349 0.5411 11.2410 9.6376
# 2 19.9805 53.5783 1.4709 7.7547 -3.4034 -0.6888
# 3 0.3349 1.4709 56.6475 14.1685 4.0649 -2.0505
# 4 0.5411 7.7547 14.1685 41.0616 -1.7049 -0.5392
# 5 11.2410 -3.4034 4.0649 -1.7049 32.2305 0.5428
# 6 9.6376 -0.6888 -2.0505 -0.5392 0.5428 52.8334
#
#
#
# Elastic Compliance Matrix: (Units=1/GPa)
#
#
# Indices 1 2 3 4 5 6 
#
# 1 0.008243 -0.003347 0.000132 0.000325 -0.003202 -0.001506
# 2 -0.003347 0.020664 0.000241 -0.003802 0.003104 0.000819
# 3 0.000132 0.000241 0.019609 -0.006923 -0.002872 0.000699
# 4 0.000325 -0.003802 -0.006923 0.027530 0.001816 -0.000115
# 5 -0.003202 0.003104 -0.002872 0.001816 0.032926 0.000193
# 6 -0.001506 0.000819 0.000699 -0.000115 0.000193 0.019237
#
#
# Mechanical properties :
#
#
# Convention : Reuss Voigt Hill
#
# Bulk Modulus (GPa) = 23.49218 32.14790 27.82004
# Shear Modulus (GPa) = 33.70483 40.15658 36.93070
#
# Velocity S-wave (km/s) = 3.98741 4.35235 4.17387
# Velocity P-wave (km/s) = 5.68165 6.35785 6.02924
#
# Compressibility (1/GPa) = 0.04256736
#
# Stress axis : x y z
#
# Youngs Moduli (GPa) = 121.31738 48.39339 50.99693
#
# Poissons Ratio (x) = 0.16199 -0.00674
# Poissons Ratio (y) = 0.40610 -0.01229
# Poissons Ratio (z) = -0.01603 -0.01167
#
# Static dielectric constant tensor:
#      x y z
#    x 1.723660 0.009900 -0.019500 
#    y 0.009900 1.775870 0.023100 
#    z -0.019500 0.023100 1.781860 
# 
# From -- ./inp_files/622861.got.cif
#   From: 2010.05.17/outbox.cif.g08.bks.cpg/sg2_312_cif.got.tgz:622861.got - 2010.06.03 11:33:40.
