data_PCOD9025647
_publ_section_title
;
Structure prediction by ZEFSAII (Michael W. Deem and Ramdas Pophale) SiO2 
 PCOD9025647
Probable space group: P -1
;
_chemical_formula_sum "Si O2"
_cell_formula_units_Z 14
_cell_length_a 9.401530
_cell_length_b 5.276349
_cell_length_c 19.984046
_cell_angle_alpha 57.246470
_cell_angle_beta 43.992826
_cell_angle_gamma 74.479306
_cell_volume 566.372850
_symmetry_space_group_name_H-M "P -1"
_symmetry_group_IT_number 2
_symmetry_cell_setting 'triclinic'
loop_
_space_group_symop_operation_xyz
x,y,z
-x,-y,-z
loop_
_atom_site_type_symbol
_atom_site_label
_atom_site_fract_x
_atom_site_fract_y
_atom_site_fract_z
Si Si1 0.709043 0.200156 0.657089
Si Si2 0.502763 0.266033 0.591911
Si Si3 0.257507 0.344319 0.105794
Si Si4 0.012574 0.857179 0.653308
Si Si5 0.921839 0.789156 0.291989
Si Si6 0.033121 0.363931 0.935181
Si Si7 0.488899 0.340446 0.279482
O O1 0.653065 0.384921 0.585567
O O2 0.655960 0.408300 0.705289
O O3 0.931239 0.103549 0.599506
O O4 0.550357 0.872855 0.743109
O O5 0.500000 0.500000 0.500000
O O6 0.254486 0.195989 0.705766
O O7 0.559587 0.932096 0.609069
O O8 0.189362 0.312926 0.210683
O O9 0.122432 0.536702 0.080543
O O10 0.152266 0.991107 0.167900
O O11 0.500000 0.500000 0.000000
O O12 0.085345 0.567878 0.638859
O O13 0.142739 0.032905 0.646220
O O14 0.274017 0.493716 0.816108
O O15 0.000000 0.500000 0.000000
O O16 0.000000 0.000000 0.000000
#
# Coordination Sequence:
#
# PCOD9025647 Si02
#       7
#     2   2   2   2   2   2   2
#     4  10  22  40  70  91 128 175 211 266 328 386
#     4  10  24  43  73 100 128 170 221 274 332 385
#     4  10  25  40  61  93 130 170 215 263 325 378
#     4  10  23  42  65  90 131 177 206 267 328 383
#     4  10  23  42  65  90 134 162 216 267 326 374
#     4  12  27  40  64  94 129 173 219 266 323 386
#     4  10  22  41  66  91 134 162 225 267 321 375
#
# _framework density 24.718699000000001
#
# number of rings (size 3 to 8) (size 9 to 14) (size 15 to 20)
#    1.714    0.000    1.429    1.714   10.000    1.143 
#    0.000    1.429    0.000    0.000    0.000    0.000 
#    0.000    0.000    0.000    0.000    0.000    0.000 
#
# Total GULP energy -78022.015365 kJ/mol
# GULP energy per Si atom -5573.001098 kJ/mol
# Density = 2.466244 g / cm^3
# Si number density = 24.718699 Si / 1000 Ang^3
#
#
#
# Elastic Constant Matrix: (Units=GPa)
#
#
# Indices 1 2 3 4 5 6 
#
# 1 137.4769 33.5904 25.3826 -15.2205 -3.6218 -27.4571
# 2 33.5904 171.7589 22.6245 -37.2301 -5.7401 -4.5515
# 3 25.3826 22.6245 71.0914 -26.8857 -19.4106 7.5071
# 4 -15.2205 -37.2301 -26.8857 35.6983 -1.4589 2.0616
# 5 -3.6218 -5.7401 -19.4106 -1.4589 40.7624 -1.3135
# 6 -27.4571 -4.5515 7.5071 2.0616 -1.3135 35.2652
#
#
#
# Elastic Compliance Matrix: (Units=1/GPa)
#
#
# Indices 1 2 3 4 5 6 
#
# 1 0.010117 -0.001480 -0.005110 -0.001650 -0.001518 0.008813
# 2 -0.001480 0.007933 0.002441 0.009646 0.002457 -0.001121
# 3 -0.005110 0.002441 0.028941 0.023358 0.014163 -0.010662
# 4 -0.001650 0.009646 0.023358 0.055985 0.014088 -0.007760
# 5 -0.001518 0.002457 0.014163 0.014088 0.031879 -0.003516
# 6 0.008813 -0.001121 -0.010662 -0.007760 -0.003516 0.037667
#
#
# Mechanical properties :
#
#
# Convention : Reuss Voigt Hill
#
# Bulk Modulus (GPa) = 25.84505 60.39135 43.11820
# Shear Modulus (GPa) = 25.81083 42.26048 34.03566
#
# Velocity S-wave (km/s) = 3.23489 4.13928 3.71471
# Velocity P-wave (km/s) = 4.94277 6.87964 5.99001
#
# Compressibility (1/GPa) = 0.03869213
#
# Stress axis : x y z
#
# Youngs Moduli (GPa) = 98.84662 126.04976 34.55333
#
# Poissons Ratio (x) = 0.18658 0.17657
# Poissons Ratio (y) = 0.14631 -0.08435
# Poissons Ratio (z) = 0.50512 -0.30769
#
# Static dielectric constant tensor:
#      x y z
#    x 1.981570 0.008080 -0.012940 
#    y 0.008080 2.020720 0.049840 
#    z -0.012940 0.049840 2.036100 
# 
# From -- ./inp_files/143294.got.cif
#   From: 2010.05.17/outbox.cif.g08.bks.cpg/sg2_72_cif.got.tgz:143294.got - 2010.06.03 11:33:40.
