data_PCOD9025548
_publ_section_title
;
Structure prediction by ZEFSAII (Michael W. Deem and Ramdas Pophale) SiO2 
 PCOD9025548
Probable space group: P -1
;
_chemical_formula_sum "Si O2"
_cell_formula_units_Z 16
_cell_length_a 5.412006
_cell_length_b 12.913809
_cell_length_c 12.052447
_cell_angle_alpha 63.147648
_cell_angle_beta 104.958783
_cell_angle_gamma 120.820923
_cell_volume 644.988065
_symmetry_space_group_name_H-M "P -1"
_symmetry_group_IT_number 2
_symmetry_cell_setting 'triclinic'
loop_
_space_group_symop_operation_xyz
x,y,z
-x,-y,-z
loop_
_atom_site_type_symbol
_atom_site_label
_atom_site_fract_x
_atom_site_fract_y
_atom_site_fract_z
Si Si1 0.786788 0.989914 0.079702
Si Si2 0.817987 0.137174 0.213997
Si Si3 0.127967 0.468860 0.418223
Si Si4 0.411011 0.299243 0.760648
Si Si5 0.864552 0.366060 0.981873
Si Si6 0.245280 0.451186 0.796014
Si Si7 0.653949 0.941577 0.462970
Si Si8 0.273690 0.299099 0.374637
O O1 0.689419 0.850812 0.194717
O O2 0.940786 0.099578 0.137602
O O3 0.500000 0.000000 0.000000
O O4 0.000000 0.000000 0.000000
O O5 0.031874 0.213647 0.300378
O O6 0.611786 0.998662 0.313310
O O7 0.723821 0.241436 0.105884
O O8 0.425858 0.598669 0.366331
O O9 0.159809 0.340022 0.452353
O O10 0.000000 0.500000 0.500000
O O11 0.938176 0.474582 0.290842
O O12 0.620426 0.338199 0.874861
O O13 0.160495 0.332168 0.757805
O O14 0.149018 0.386218 0.935210
O O15 0.000000 0.500000 0.000000
O O16 0.549780 0.565918 0.738181
O O17 0.559500 0.786642 0.535576
O O18 0.500000 0.000000 0.500000
O O19 0.000000 0.000000 0.500000
#
# Coordination Sequence:
#
# PCOD9025548 Si02
#       8
#     2   2   2   2   2   2   2   2
#     4  12  27  47  70 103 146 193 245 301 362 452
#     4  11  24  46  69 103 142 194 238 299 372 435
#     4  10  23  43  72 104 142 187 244 309 374 439
#     4  10  23  43  63 101 138 183 237 300 364 444
#     4  11  22  38  67 101 135 177 231 290 369 433
#     4  10  22  40  69  96 143 175 237 303 361 444
#     4  10  25  45  70 103 146 188 244 300 359 440
#     4  10  24  44  69 107 140 188 244 308 367 440
#
# _framework density 24.806660999999998
#
# number of rings (size 3 to 8) (size 9 to 14) (size 15 to 20)
#    0.000    1.500    1.250    3.000    7.000    9.000 
#    2.250    0.000    0.000    0.000    0.000    0.000 
#    0.000    0.000    0.000    0.000    0.000    0.000 
#
# Total GULP energy -89201.074669 kJ/mol
# GULP energy per Si atom -5575.067167 kJ/mol
# Density = 2.475020 g / cm^3
# Si number density = 24.806661 Si / 1000 Ang^3
#
#
#
# Elastic Constant Matrix: (Units=GPa)
#
#
# Indices 1 2 3 4 5 6 
#
# 1 95.8802 38.6108 27.9977 10.0524 -21.0459 -35.4869
# 2 38.6108 156.2708 51.7201 -5.6893 -3.8739 -38.3741
# 3 27.9977 51.7201 120.1311 -8.6696 -11.0446 -23.7139
# 4 10.0524 -5.6893 -8.6696 52.3589 -9.8182 4.3624
# 5 -21.0459 -3.8739 -11.0446 -9.8182 44.4887 8.1696
# 6 -35.4869 -38.3741 -23.7139 4.3624 8.1696 41.2169
#
#
#
# Elastic Compliance Matrix: (Units=1/GPa)
#
#
# Indices 1 2 3 4 5 6 
#
# 1 0.017276 -0.000756 -0.000962 -0.003782 0.004628 0.013099
# 2 -0.000756 0.008999 -0.002543 -0.000114 -0.001435 0.006561
# 3 -0.000962 -0.002543 0.010384 0.001798 0.001892 0.002213
# 4 -0.003782 -0.000114 0.001798 0.021384 0.004369 -0.005457
# 5 0.004628 -0.001435 0.001892 0.004369 0.026333 -0.001946
# 6 0.013099 0.006561 0.002213 -0.005457 -0.001946 0.043884
#
#
# Mechanical properties :
#
#
# Convention : Reuss Voigt Hill
#
# Bulk Modulus (GPa) = 35.54276 67.65991 51.60133
# Shear Modulus (GPa) = 34.20853 44.54313 39.37583
#
# Velocity S-wave (km/s) = 3.71753 4.24206 3.98843
# Velocity P-wave (km/s) = 5.72588 7.16433 6.48511
#
# Compressibility (1/GPa) = 0.02813513
#
# Stress axis : x y z
#
# Youngs Moduli (GPa) = 57.88445 111.12336 96.30259
#
# Poissons Ratio (x) = 0.08403 0.09268
# Poissons Ratio (y) = 0.04377 0.24492
# Poissons Ratio (z) = 0.05571 0.28261
#
# Static dielectric constant tensor:
#      x y z
#    x 2.203310 -0.066950 0.015240 
#    y -0.066950 1.832850 -0.001160 
#    z 0.015240 -0.001160 2.011960 
# 
# From -- ./inp_files/364096.got.cif
#   From: 2010.05.17/outbox.cif.g08.bks.cpg/sg2_183_cif.got.tgz:364096.got - 2010.06.03 11:33:40.
