data_PCOD9025924
_publ_section_title
;
Structure prediction by ZEFSAII (Michael W. Deem and Ramdas Pophale) SiO2 
 PCOD9025924
Probable space group: P -1
;
_chemical_formula_sum "Si O2"
_cell_formula_units_Z 13
_cell_length_a 9.319040
_cell_length_b 15.180645
_cell_length_c 9.168174
_cell_angle_alpha 49.624347
_cell_angle_beta 112.565051
_cell_angle_gamma 140.231070
_cell_volume 614.474087
_symmetry_space_group_name_H-M "P -1"
_symmetry_group_IT_number 2
_symmetry_cell_setting 'triclinic'
loop_
_space_group_symop_operation_xyz
x,y,z
-x,-y,-z
loop_
_atom_site_type_symbol
_atom_site_label
_atom_site_fract_x
_atom_site_fract_y
_atom_site_fract_z
Si Si1 0.523464 0.150224 0.853954
Si Si2 0.968721 0.760441 0.592760
Si Si3 0.500000 0.000000 0.500000
Si Si4 0.961796 0.989945 0.166870
Si Si5 0.898143 0.463882 0.837760
Si Si6 0.329678 0.697833 0.561634
Si Si7 0.678641 0.697121 0.813457
O O1 0.271102 0.066655 0.838269
O O2 0.662341 0.266170 0.927811
O O3 0.665146 0.278369 0.633965
O O4 0.500000 0.000000 0.000000
O O5 0.937642 0.848728 0.374753
O O6 0.858255 0.579694 0.687936
O O7 0.853907 0.738728 0.721126
O O8 0.239610 0.888226 0.580003
O O9 0.384802 0.849307 0.497486
O O10 0.174554 0.169038 0.139895
O O11 0.000000 0.000000 0.000000
O O12 0.090437 0.529096 0.725982
O O13 0.000000 0.500000 0.000000
O O14 0.528433 0.716467 0.661787
O O15 0.500000 0.500000 0.000000
#
# Coordination Sequence:
#
# PCOD9025924 Si02
#       7
#     2   2   1   2   2   2   2
#     4  12  30  47  73 106 148 189 245 300 362 431
#     4  11  24  48  74 103 145 192 242 293 364 431
#     4  10  22  40  80 100 138 186 242 288 358 428
#     4  12  29  46  72 108 145 191 244 304 360 426
#     4  11  28  46  76 107 143 192 243 298 364 432
#     4  11  24  47  75 102 146 185 243 292 369 424
#     4  12  26  46  76 107 146 191 240 298 368 439
#
# _framework density 21.156303000000001
#
# number of rings (size 3 to 8) (size 9 to 14) (size 15 to 20)
#    0.000    0.615    3.077    2.769   17.231    1.846 
#    0.000    0.000    0.000    0.000    0.000    0.000 
#    0.000    0.000    0.000    0.000    0.000    0.000 
#
# Total GULP energy -72509.404816 kJ/mol
# GULP energy per Si atom -5577.646524 kJ/mol
# Density = 2.110815 g / cm^3
# Si number density = 21.156303 Si / 1000 Ang^3
#
#
#
# Elastic Constant Matrix: (Units=GPa)
#
#
# Indices 1 2 3 4 5 6 
#
# 1 126.1671 48.3200 60.2495 3.6718 -15.0228 0.0259
# 2 48.3200 148.9448 53.8050 -1.2562 24.1900 1.7292
# 3 60.2495 53.8050 127.6540 8.1526 -0.8159 -0.6273
# 4 3.6718 -1.2562 8.1526 24.5457 -9.4223 2.1837
# 5 -15.0228 24.1900 -0.8159 -9.4223 34.0310 -6.6669
# 6 0.0259 1.7292 -0.6273 2.1837 -6.6669 26.6638
#
#
#
# Elastic Compliance Matrix: (Units=1/GPa)
#
#
# Indices 1 2 3 4 5 6 
#
# 1 0.012631 -0.004094 -0.004344 0.002830 0.009621 0.002325
# 2 -0.004094 0.010711 -0.002552 -0.001775 -0.010612 -0.003259
# 3 -0.004344 -0.002552 0.011182 -0.003512 -0.000701 0.000545
# 4 0.002830 -0.001775 -0.003512 0.047357 0.015547 0.000039
# 5 0.009621 -0.010612 -0.000701 0.015547 0.047679 0.011311
# 6 0.002325 -0.003259 0.000545 0.000039 0.011311 0.040551
#
#
# Mechanical properties :
#
#
# Convention : Reuss Voigt Hill
#
# Bulk Modulus (GPa) = 79.72640 80.83502 80.28071
# Shear Modulus (GPa) = 25.47483 33.07419 29.27451
#
# Velocity S-wave (km/s) = 3.47382 3.95818 3.72388
# Velocity P-wave (km/s) = 7.33867 7.69292 7.51788
#
# Compressibility (1/GPa) = 0.01254290
#
# Stress axis : x y z
#
# Youngs Moduli (GPa) = 79.16989 93.36630 89.42843
#
# Poissons Ratio (x) = 0.38227 0.38845
# Poissons Ratio (y) = 0.32414 0.22826
# Poissons Ratio (z) = 0.34389 0.23831
#
# Static dielectric constant tensor:
#      x y z
#    x 1.723830 0.012030 0.014210 
#    y 0.012030 1.733730 -0.024700 
#    z 0.014210 -0.024700 1.772830 
# 
# From -- ./inp_files/152802.got.cif
#   From: 2010.05.17/outbox.cif.g08.bks.cpg/sg2_77_cif.got.tgz:152802.got - 2010.06.03 11:33:40.
