data_PCOD9025582
_publ_section_title
;
Structure prediction by ZEFSAII (Michael W. Deem and Ramdas Pophale) SiO2 
 PCOD9025582
Probable space group: P -1
;
_chemical_formula_sum "Si O2"
_cell_formula_units_Z 16
_cell_length_a 7.803302
_cell_length_b 15.388370
_cell_length_c 8.854400
_cell_angle_alpha 59.692186
_cell_angle_beta 58.387931
_cell_angle_gamma 97.057332
_cell_volume 664.408458
_symmetry_space_group_name_H-M "P -1"
_symmetry_group_IT_number 2
_symmetry_cell_setting 'triclinic'
loop_
_space_group_symop_operation_xyz
x,y,z
-x,-y,-z
loop_
_atom_site_type_symbol
_atom_site_label
_atom_site_fract_x
_atom_site_fract_y
_atom_site_fract_z
Si Si1 0.544953 0.359080 0.004169
Si Si2 0.089784 0.117928 0.451800
Si Si3 0.115770 0.474154 0.826566
Si Si4 0.606492 0.102163 0.737080
Si Si5 0.185501 0.006427 0.786786
Si Si6 0.594989 0.595976 0.661794
Si Si7 0.121578 0.268670 0.867327
Si Si8 0.639201 0.324835 0.684934
O O1 0.286229 0.245103 0.186817
O O2 0.514041 0.358006 0.201145
O O3 0.626137 0.494457 0.809675
O O4 0.685389 0.332233 0.836472
O O5 0.190249 0.089101 0.579268
O O6 0.864789 0.128563 0.566641
O O7 0.000000 0.000000 0.500000
O O8 0.382515 0.521709 0.710667
O O9 0.020839 0.341829 0.931677
O O10 0.153188 0.557302 0.594773
O O11 0.000000 0.500000 0.000000
O O12 0.435897 0.058616 0.708527
O O13 0.623757 0.215302 0.704608
O O14 0.500000 0.000000 0.000000
O O15 0.000000 0.000000 0.000000
O O16 0.067086 0.870571 0.908369
O O17 0.812300 0.692258 0.375080
O O18 0.378532 0.304507 0.786858
#
# Coordination Sequence:
#
# PCOD9025582 Si02
#       8
#     2   2   2   2   2   2   2   2
#     4  11  22  43  67 100 143 191 240 303 371 441
#     4  12  28  47  72 109 153 196 249 316 377 446
#     4  11  24  42  67 105 140 190 251 311 371 449
#     4  12  26  46  75 113 144 197 259 309 379 455
#     4  12  24  46  78 109 147 200 249 308 386 447
#     4  10  22  40  69  99 135 190 243 292 370 445
#     4  11  20  45  73  98 147 197 244 305 377 446
#     4  11  22  43  73  96 145 194 245 305 381 451
#
# _framework density 24.081572000000001
#
# number of rings (size 3 to 8) (size 9 to 14) (size 15 to 20)
#    0.000    0.750    5.000    3.000    3.500    0.500 
#    4.500    0.625    0.000    0.000    0.000    0.000 
#    0.000    0.000    0.000    0.000    0.000    0.000 
#
# Total GULP energy -89394.289377 kJ/mol
# GULP energy per Si atom -5587.143086 kJ/mol
# Density = 2.402676 g / cm^3
# Si number density = 24.081572 Si / 1000 Ang^3
#
#
#
# Elastic Constant Matrix: (Units=GPa)
#
#
# Indices 1 2 3 4 5 6 
#
# 1 112.1217 48.5926 47.6617 -1.0317 12.1206 4.7787
# 2 48.5926 191.3693 53.7860 -7.3855 -2.3441 -13.7559
# 3 47.6617 53.7860 107.2856 5.3569 11.8138 -7.0376
# 4 -1.0317 -7.3855 5.3569 44.9317 5.6992 3.1891
# 5 12.1206 -2.3441 11.8138 5.6992 14.5327 4.1422
# 6 4.7787 -13.7559 -7.0376 3.1891 4.1422 31.4529
#
#
#
# Elastic Compliance Matrix: (Units=1/GPa)
#
#
# Indices 1 2 3 4 5 6 
#
# 1 0.012508 -0.002345 -0.003831 0.001513 -0.007447 -0.002956
# 2 -0.002345 0.006829 -0.002771 0.000688 0.004451 0.002067
# 3 -0.003831 -0.002771 0.013709 -0.001308 -0.008952 0.003749
# 4 0.001513 0.000688 -0.001308 0.023805 -0.009010 -0.001449
# 5 -0.007447 0.004451 -0.008952 -0.009010 0.089336 -0.009776
# 6 -0.002956 0.002067 0.003749 -0.001449 -0.009776 0.035420
#
#
# Mechanical properties :
#
#
# Convention : Reuss Voigt Hill
#
# Bulk Modulus (GPa) = 65.99037 78.98414 72.48726
# Shear Modulus (GPa) = 24.44363 35.56589 30.00476
#
# Velocity S-wave (km/s) = 3.18942 3.84721 3.53365
# Velocity P-wave (km/s) = 6.40512 7.25289 6.84215
#
# Compressibility (1/GPa) = 0.01515373
#
# Stress axis : x y z
#
# Youngs Moduli (GPa) = 79.94593 146.42693 72.94547
#
# Poissons Ratio (x) = 0.34334 0.27943
# Poissons Ratio (y) = 0.18746 0.20213
# Poissons Ratio (z) = 0.30625 0.40574
#
# Static dielectric constant tensor:
#      x y z
#    x 1.944290 0.016470 0.074440 
#    y 0.016470 1.893430 0.062010 
#    z 0.074440 0.062010 1.854240 
# 
# From -- ./inp_files/205850.got.cif
#   From: 2010.05.17/outbox.cif.g08.bks.cpg/sg2_103_cif.got.tgz:205850.got - 2010.06.03 11:33:40.
