data_PCOD9025918
_publ_section_title
;
Structure prediction by ZEFSAII (Michael W. Deem and Ramdas Pophale) SiO2 
 PCOD9025918
Probable space group: P -1
;
_chemical_formula_sum "Si O2"
_cell_formula_units_Z 13
_cell_length_a 12.741908
_cell_length_b 11.211928
_cell_length_c 11.806353
_cell_angle_alpha 42.259796
_cell_angle_beta 70.324289
_cell_angle_gamma 38.047042
_cell_volume 562.437140
_symmetry_space_group_name_H-M "P -1"
_symmetry_group_IT_number 2
_symmetry_cell_setting 'triclinic'
loop_
_space_group_symop_operation_xyz
x,y,z
-x,-y,-z
loop_
_atom_site_type_symbol
_atom_site_label
_atom_site_fract_x
_atom_site_fract_y
_atom_site_fract_z
Si Si1 0.241692 0.612081 0.179294
Si Si2 0.121935 0.705360 0.748809
Si Si3 0.500000 0.500000 0.500000
Si Si4 0.187202 0.423614 0.128740
Si Si5 0.833808 0.662439 0.180362
Si Si6 0.364739 0.315296 0.588778
Si Si7 0.498044 0.578953 0.192517
O O1 0.261092 0.459584 0.172330
O O2 0.290410 0.449868 0.393745
O O3 0.393757 0.577030 0.149820
O O4 0.000000 0.000000 0.000000
O O5 0.209004 0.427150 0.835931
O O6 0.309013 0.574658 0.821220
O O7 0.031825 0.727706 0.878079
O O8 0.000000 0.000000 0.500000
O O9 0.371064 0.484461 0.542844
O O10 0.566846 0.395299 0.414211
O O11 0.062590 0.433630 0.228898
O O12 0.393904 0.078170 0.231048
O O13 0.788199 0.621623 0.341657
O O14 0.678233 0.041052 0.969756
#
# Coordination Sequence:
#
# PCOD9025918 Si02
#       7
#     2   2   1   2   2   2   2
#     4  11  26  48  74 105 145 197 243 293 363 435
#     4  12  28  44  73 113 141 187 248 302 364 430
#     4  10  22  40  76  96 142 184 236 294 366 412
#     4  12  27  48  71 108 152 191 243 296 360 440
#     4  12  25  45  74 104 144 187 238 301 367 422
#     4  11  25  48  75 107 145 193 240 298 366 431
#     4  11  23  46  71 101 144 194 230 303 361 418
#
# _framework density 23.113693000000001
#
# number of rings (size 3 to 8) (size 9 to 14) (size 15 to 20)
#    0.000    0.615    4.615    2.308    8.615    1.231 
#    0.000    0.000    0.000    0.000    0.000    0.000 
#    0.000    0.000    0.000    0.000    0.000    0.000 
#
# Total GULP energy -72486.587516 kJ/mol
# GULP energy per Si atom -5575.891347 kJ/mol
# Density = 2.306109 g / cm^3
# Si number density = 23.113693 Si / 1000 Ang^3
#
#
#
# Elastic Constant Matrix: (Units=GPa)
#
#
# Indices 1 2 3 4 5 6 
#
# 1 112.3266 35.0829 43.0913 16.6330 -13.2770 -9.7840
# 2 35.0829 68.9629 37.2878 15.3081 -16.7493 -9.1028
# 3 43.0913 37.2878 114.9284 9.7382 -0.7033 10.8678
# 4 16.6330 15.3081 9.7382 25.7203 -2.5425 -2.1218
# 5 -13.2770 -16.7493 -0.7033 -2.5425 23.0744 12.5724
# 6 -9.7840 -9.1028 10.8678 -2.1218 12.5724 43.2048
#
#
#
# Elastic Compliance Matrix: (Units=1/GPa)
#
#
# Indices 1 2 3 4 5 6 
#
# 1 0.012291 -0.001952 -0.003723 -0.004827 0.003965 0.001918
# 2 -0.001952 0.025042 -0.006658 -0.009510 0.014869 0.001715
# 3 -0.003723 -0.006658 0.012548 0.000859 -0.004252 -0.004123
# 4 -0.004827 -0.009510 0.000859 0.046903 -0.004678 0.000352
# 5 0.003965 0.014869 -0.004252 -0.004678 0.063122 -0.013498
# 6 0.001918 0.001715 -0.004123 0.000352 -0.013498 0.028923
#
#
# Mechanical properties :
#
#
# Convention : Reuss Voigt Hill
#
# Bulk Modulus (GPa) = 39.65934 58.57131 49.11532
# Shear Modulus (GPa) = 22.53243 30.45028 26.49136
#
# Velocity S-wave (km/s) = 3.12565 3.63356 3.38913
# Velocity P-wave (km/s) = 5.49744 6.55738 6.05066
#
# Compressibility (1/GPa) = 0.02521474
#
# Stress axis : x y z
#
# Youngs Moduli (GPa) = 81.36000 39.93224 79.69179
#
# Poissons Ratio (x) = 0.07795 0.29671
# Poissons Ratio (y) = 0.15882 0.53061
# Poissons Ratio (z) = 0.30292 0.26588
#
# Static dielectric constant tensor:
#      x y z
#    x 1.863260 -0.061810 -0.028010 
#    y -0.061810 1.876950 -0.030490 
#    z -0.028010 -0.030490 2.009440 
# 
# From -- ./inp_files/214177.got.cif
#   From: 2010.05.17/outbox.cif.g08.bks.cpg/sg2_108_cif.got.tgz:214177.got - 2010.06.03 11:33:40.
