data_PCOD9025480
_publ_section_title
;
Structure prediction by ZEFSAII (Michael W. Deem and Ramdas Pophale) SiO2 
 PCOD9025480
Probable space group: P -1
;
_chemical_formula_sum "Si O2"
_cell_formula_units_Z 15
_cell_length_a 12.171216
_cell_length_b 5.180367
_cell_length_c 27.446146
_cell_angle_alpha 60.784367
_cell_angle_beta 153.716364
_cell_angle_gamma 128.584157
_cell_volume 586.242697
_symmetry_space_group_name_H-M "P -1"
_symmetry_group_IT_number 2
_symmetry_cell_setting 'triclinic'
loop_
_space_group_symop_operation_xyz
x,y,z
-x,-y,-z
loop_
_atom_site_type_symbol
_atom_site_label
_atom_site_fract_x
_atom_site_fract_y
_atom_site_fract_z
Si Si1 0.096783 0.039227 0.918609
Si Si2 0.295490 0.095478 0.635266
Si Si3 0.577833 0.870704 0.477136
Si Si4 0.757152 0.425371 0.720645
Si Si5 0.496561 0.464657 0.233755
Si Si6 0.505683 0.556192 0.880187
Si Si7 0.500000 0.000000 0.000000
Si Si8 0.927693 0.096222 0.678254
O O1 0.974179 0.304037 0.837315
O O2 0.288391 0.125890 0.035489
O O3 0.271707 0.072751 0.936314
O O4 0.815055 0.697946 0.850794
O O5 0.555308 0.425408 0.683092
O O6 0.313573 0.202896 0.689085
O O7 0.378731 0.798925 0.688803
O O8 0.000000 0.000000 0.500000
O O9 0.500000 0.500000 0.500000
O O10 0.490111 0.830937 0.390311
O O11 0.360375 0.971474 0.405210
O O12 0.878893 0.101266 0.600542
O O13 0.945030 0.770171 0.734138
O O14 0.447691 0.474442 0.155522
O O15 0.175630 0.450945 0.761097
O O16 0.520077 0.260218 0.942160
#
# Coordination Sequence:
#
# PCOD9025480 Si02
#       8
#     2   2   2   2   2   2   1   2
#     4  11  27  50  72 112 148 211 258 328 392 462
#     4  11  27  50  82 115 154 210 265 320 389 478
#     4   9  20  38  62 101 142 192 236 317 388 460
#     4  10  23  43  73 101 152 198 261 319 395 460
#     4  11  29  51  81 112 162 208 261 327 395 476
#     4  12  27  46  76 112 153 203 269 317 392 473
#     4  12  28  46  80 106 154 194 274 328 382 472
#     4  10  22  40  69 104 145 192 250 318 399 453
#
# _framework density 25.586670999999999
#
# number of rings (size 3 to 8) (size 9 to 14) (size 15 to 20)
#    0.000    1.333    0.000    2.800   13.067    5.867 
#    0.000    0.000    0.000    0.000    0.000    0.000 
#    0.000    0.000    0.000    0.000    0.000    0.000 
#
# Total GULP energy -83591.512542 kJ/mol
# GULP energy per Si atom -5572.767503 kJ/mol
# Density = 2.552843 g / cm^3
# Si number density = 25.586671 Si / 1000 Ang^3
#
#
#
# Elastic Constant Matrix: (Units=GPa)
#
#
# Indices 1 2 3 4 5 6 
#
# 1 164.1703 20.5828 60.3400 10.7501 -22.9145 18.0925
# 2 20.5828 41.6823 17.5127 0.0064 1.0219 6.6075
# 3 60.3400 17.5127 98.1318 25.9706 -16.7990 18.6623
# 4 10.7501 0.0064 25.9706 25.1072 -4.6434 -5.5189
# 5 -22.9145 1.0219 -16.7990 -4.6434 52.1070 -4.6817
# 6 18.0925 6.6075 18.6623 -5.5189 -4.6817 29.7751
#
#
#
# Elastic Compliance Matrix: (Units=1/GPa)
#
#
# Indices 1 2 3 4 5 6 
#
# 1 0.008373 -0.002123 -0.004448 0.001163 0.002280 -0.001254
# 2 -0.002123 0.027540 -0.005533 0.005958 -0.002788 -0.000688
# 3 -0.004448 -0.005533 0.024225 -0.026209 0.002211 -0.015763
# 4 0.001163 0.005958 -0.026209 0.072778 0.000950 0.028037
# 5 0.002280 -0.002788 0.002211 0.000950 0.021168 0.001352
# 6 -0.001254 -0.000688 -0.015763 0.028037 0.001352 0.049789
#
#
# Mechanical properties :
#
#
# Convention : Reuss Voigt Hill
#
# Bulk Modulus (GPa) = 27.83167 55.65059 41.74113
# Shear Modulus (GPa) = 20.82829 35.10113 27.96471
#
# Velocity S-wave (km/s) = 2.85621 3.70787 3.30955
# Velocity P-wave (km/s) = 4.66672 6.33468 5.56356
#
# Compressibility (1/GPa) = 0.03593030
#
# Stress axis : x y z
#
# Youngs Moduli (GPa) = 119.43572 36.31034 41.27916
#
# Poissons Ratio (x) = 0.07708 0.18362
# Poissons Ratio (y) = 0.25354 0.22840
# Poissons Ratio (z) = 0.53128 0.20090
#
# Static dielectric constant tensor:
#      x y z
#    x 2.078750 0.015680 -0.035690 
#    y 0.015680 2.148650 0.015390 
#    z -0.035690 0.015390 2.026700 
# 
# From -- ./inp_files/617915.got.cif
#   From: 2010.05.17/outbox.cif.g08.bks.cpg/sg2_309_cif.got.tgz:617915.got - 2010.06.03 11:33:40.
