data_PCOD9025042
_publ_section_title
;
Structure prediction by ZEFSAII (Michael W. Deem and Ramdas Pophale) SiO2 
 PCOD9025042
Probable space group: P -1
;
_chemical_formula_sum "Si O2"
_cell_formula_units_Z 16
_cell_length_a 22.279804
_cell_length_b 9.025575
_cell_length_c 10.383756
_cell_angle_alpha 50.932447
_cell_angle_beta 145.021143
_cell_angle_gamma 148.033227
_cell_volume 619.090588
_symmetry_space_group_name_H-M "P -1"
_symmetry_group_IT_number 2
_symmetry_cell_setting 'triclinic'
loop_
_space_group_symop_operation_xyz
x,y,z
-x,-y,-z
loop_
_atom_site_type_symbol
_atom_site_label
_atom_site_fract_x
_atom_site_fract_y
_atom_site_fract_z
Si Si1 0.878897 0.872042 0.474407
Si Si2 0.719087 0.058830 0.116614
Si Si3 0.188856 0.274875 0.948261
Si Si4 0.315929 0.773620 0.300707
Si Si5 0.184854 0.247114 0.229249
Si Si6 0.228816 0.865729 0.555440
Si Si7 0.371264 0.690606 0.801875
Si Si8 0.139799 0.762109 0.188819
O O1 0.772192 0.548448 0.694738
O O2 0.695121 0.513317 0.078492
O O3 0.009918 0.089707 0.697334
O O4 0.771747 0.914155 0.261993
O O5 0.810026 0.244236 0.306707
O O6 0.736908 0.186135 0.942541
O O7 0.539401 0.845926 0.964970
O O8 0.169495 0.023175 0.073983
O O9 0.000000 0.000000 0.500000
O O10 0.255461 0.427345 0.120773
O O11 0.245170 0.464997 0.592539
O O12 0.284526 0.855347 0.326348
O O13 0.500000 0.000000 0.500000
O O14 0.251946 0.127216 0.445903
O O15 0.000000 0.000000 0.000000
O O16 0.361242 0.898006 0.718213
O O17 0.106183 0.674017 0.327566
O O18 0.000000 0.500000 0.000000
#
# Coordination Sequence:
#
# PCOD9025042 Si02
#       8
#     2   2   2   2   2   2   2   2
#     4  10  22  40  67 103 139 181 237 300 360 426
#     4  12  26  45  71 106 143 189 244 307 370 443
#     4  10  22  42  69 101 141 189 242 304 369 439
#     4  12  27  48  73 106 145 192 248 306 369 442
#     4  11  25  45  71 105 146 197 252 307 371 445
#     4  11  25  43  70 103 142 190 241 301 362 432
#     4  11  23  43  67 102 145 191 242 304 372 442
#     4  11  24  46  71 102 146 197 245 301 369 443
#
# _framework density 25.844359000000001
#
# number of rings (size 3 to 8) (size 9 to 14) (size 15 to 20)
#    0.000    1.000    0.000    6.750    0.000    9.000 
#    0.000   10.625    0.000    0.000    0.000    0.000 
#    0.000    0.000    0.000    0.000    0.000    0.000 
#
# Total GULP energy -89443.906067 kJ/mol
# GULP energy per Si atom -5590.244129 kJ/mol
# Density = 2.578554 g / cm^3
# Si number density = 25.844359 Si / 1000 Ang^3
#
#
#
# Elastic Constant Matrix: (Units=GPa)
#
#
# Indices 1 2 3 4 5 6 
#
# 1 129.5664 27.5852 55.3303 -11.6866 8.7464 -16.0527
# 2 27.5852 76.7289 33.2129 2.2698 16.2664 -11.8706
# 3 55.3303 33.2129 127.6323 -13.2450 -13.3291 -9.3429
# 4 -11.6866 2.2698 -13.2450 40.5458 -10.0564 9.4213
# 5 8.7464 16.2664 -13.3291 -10.0564 87.8831 6.7085
# 6 -16.0527 -11.8706 -9.3429 9.4213 6.7085 50.6685
#
#
#
# Elastic Compliance Matrix: (Units=1/GPa)
#
#
# Indices 1 2 3 4 5 6 
#
# 1 0.010131 -0.001308 -0.003954 0.000831 -0.001439 0.002210
# 2 -0.001308 0.017324 -0.004635 -0.005033 -0.004687 0.004346
# 3 -0.003954 -0.004635 0.011444 0.004082 0.003565 -0.001459
# 4 0.000831 -0.005033 0.004082 0.029300 0.005303 -0.006313
# 5 -0.001439 -0.004687 0.003565 0.005303 0.013820 -0.003712
# 6 0.002210 0.004346 -0.001459 -0.006313 -0.003712 0.022851
#
#
# Mechanical properties :
#
#
# Convention : Reuss Voigt Hill
#
# Bulk Modulus (GPa) = 52.33963 62.90938 57.62450
# Shear Modulus (GPa) = 38.15820 50.33941 44.24880
#
# Velocity S-wave (km/s) = 3.84664 4.41817 4.14227
# Velocity P-wave (km/s) = 6.32651 7.10080 6.72481
#
# Compressibility (1/GPa) = 0.01910598
#
# Stress axis : x y z
#
# Youngs Moduli (GPa) = 98.70727 57.72223 87.38078
#
# Poissons Ratio (x) = 0.07552 0.34548
# Poissons Ratio (y) = 0.12914 0.40498
# Poissons Ratio (z) = 0.39026 0.26752
#
# Static dielectric constant tensor:
#      x y z
#    x 1.930970 -0.029670 -0.101410 
#    y -0.029670 2.014090 -0.042000 
#    z -0.101410 -0.042000 2.322430 
# 
# From -- ./inp_files/342583.got.cif
#   From: 2010.05.17/outbox.cif.g08.bks.cpg/sg2_172_cif.got.tgz:342583.got - 2010.06.03 11:33:40.
