data_PCOD9025833
_publ_section_title
;
Structure prediction by ZEFSAII (Michael W. Deem and Ramdas Pophale) SiO2 
 PCOD9025833
Probable space group: P -1
;
_chemical_formula_sum "Si O2"
_cell_formula_units_Z 15
_cell_length_a 8.224082
_cell_length_b 9.736990
_cell_length_c 17.265223
_cell_angle_alpha 143.796801
_cell_angle_beta 133.705111
_cell_angle_gamma 43.145845
_cell_volume 540.274297
_symmetry_space_group_name_H-M "P -1"
_symmetry_group_IT_number 2
_symmetry_cell_setting 'triclinic'
loop_
_space_group_symop_operation_xyz
x,y,z
-x,-y,-z
loop_
_atom_site_type_symbol
_atom_site_label
_atom_site_fract_x
_atom_site_fract_y
_atom_site_fract_z
Si Si1 0.947964 0.707579 0.382293
Si Si2 0.817297 0.867021 0.802526
Si Si3 0.023566 0.102705 0.292713
Si Si4 0.504924 0.671367 0.006426
Si Si5 0.509916 0.720656 0.859120
Si Si6 0.990343 0.292606 0.772712
Si Si7 0.525798 0.819681 0.550714
Si Si8 0.500000 0.500000 0.500000
O O1 0.978395 0.414366 0.247008
O O2 0.957657 0.796969 0.338908
O O3 0.190429 0.665784 0.491376
O O4 0.686103 0.912908 0.419282
O O5 0.886990 0.998866 0.812344
O O6 0.718864 0.055888 0.926353
O O7 0.585166 0.813992 0.663789
O O8 0.735398 0.251250 0.253922
O O9 0.077309 0.891681 0.278223
O O10 0.216636 0.233111 0.428132
O O11 0.758717 0.703473 0.111774
O O12 0.500000 0.500000 0.000000
O O13 0.500664 0.592850 0.881028
O O14 0.770093 0.565042 0.834826
O O15 0.500000 0.000000 0.000000
O O16 0.447866 0.590048 0.431112
#
# Coordination Sequence:
#
# PCOD9025833 Si02
#       8
#     2   2   2   2   2   2   2   1
#     4  11  22  42  71  95 128 164 213 264 323 390
#     4   9  22  41  61  91 123 174 219 258 314 375
#     4  10  24  41  62  89 129 174 212 255 330 372
#     4  12  25  40  63  92 130 174 232 269 306 372
#     4  12  26  41  60  91 135 173 219 276 310 365
#     4  12  25  41  61  92 128 175 210 266 326 377
#     4   9  21  42  69  94 126 165 209 260 322 392
#     4  10  22  40  72 108 122 152 212 268 326 392
#
# _framework density 27.763674999999999
#
# number of rings (size 3 to 8) (size 9 to 14) (size 15 to 20)
#    0.800    0.533    2.667    2.400    5.600    0.533 
#    0.000    0.667    0.000    2.400    0.000    0.000 
#    0.000    0.000    0.000    0.000    0.000    0.000 
#
# Total GULP energy -83773.159355 kJ/mol
# GULP energy per Si atom -5584.877290 kJ/mol
# Density = 2.770048 g / cm^3
# Si number density = 27.763675 Si / 1000 Ang^3
#
#
#
# Elastic Constant Matrix: (Units=GPa)
#
#
# Indices 1 2 3 4 5 6 
#
# 1 114.5721 42.2456 40.8122 14.4821 10.0810 -22.2075
# 2 42.2456 162.4895 41.7051 9.7644 9.5928 -22.9678
# 3 40.8122 41.7051 71.0602 0.6023 18.8786 -10.1579
# 4 14.4821 9.7644 0.6023 39.2234 2.2960 18.3441
# 5 10.0810 9.5928 18.8786 2.2960 52.5467 -0.4821
# 6 -22.2075 -22.9678 -10.1579 18.3441 -0.4821 67.8055
#
#
#
# Elastic Compliance Matrix: (Units=1/GPa)
#
#
# Indices 1 2 3 4 5 6 
#
# 1 0.013069 -0.000646 -0.006429 -0.006905 0.000268 0.004968
# 2 -0.000646 0.007860 -0.003902 -0.002915 0.000243 0.002657
# 3 -0.006429 -0.003902 0.021405 0.003992 -0.005931 -0.001343
# 4 -0.006905 -0.002915 0.003992 0.034371 -0.001189 -0.011958
# 5 0.000268 0.000243 -0.005931 -0.001189 0.021116 -0.000247
# 6 0.004968 0.002657 -0.001343 -0.011958 -0.000247 0.020307
#
#
# Mechanical properties :
#
#
# Convention : Reuss Voigt Hill
#
# Bulk Modulus (GPa) = 49.06895 66.40528 57.73712
# Shear Modulus (GPa) = 34.04260 46.80570 40.42415
#
# Velocity S-wave (km/s) = 3.50545 4.11038 3.81991
# Velocity P-wave (km/s) = 5.83921 6.81886 6.34797
#
# Compressibility (1/GPa) = 0.02037949
#
# Stress axis : x y z
#
# Youngs Moduli (GPa) = 76.51876 127.22520 46.71827
#
# Poissons Ratio (x) = 0.08223 0.30035
# Poissons Ratio (y) = 0.04945 0.18229
# Poissons Ratio (z) = 0.49193 0.49642
#
# Static dielectric constant tensor:
#      x y z
#    x 2.237630 -0.175720 -0.547910 
#    y -0.175720 1.930720 -0.486820 
#    z -0.547910 -0.486820 1.276420 
# 
# From -- ./inp_files/606880.got.cif
#   From: 2010.05.17/outbox.cif.g08.bks.cpg/sg2_304_cif.got.tgz:606880.got - 2010.06.03 11:33:40.
