data_PCOD9025341
_publ_section_title
;
Structure prediction by ZEFSAII (Michael W. Deem and Ramdas Pophale) SiO2 
 PCOD9025341
Probable space group: P -1
;
_chemical_formula_sum "Si O2"
_cell_formula_units_Z 14
_cell_length_a 8.940677
_cell_length_b 14.717858
_cell_length_c 8.541127
_cell_angle_alpha 111.791875
_cell_angle_beta 100.855644
_cell_angle_gamma 34.903807
_cell_volume 582.706630
_symmetry_space_group_name_H-M "P -1"
_symmetry_group_IT_number 2
_symmetry_cell_setting 'triclinic'
loop_
_space_group_symop_operation_xyz
x,y,z
-x,-y,-z
loop_
_atom_site_type_symbol
_atom_site_label
_atom_site_fract_x
_atom_site_fract_y
_atom_site_fract_z
Si Si1 0.249740 0.566304 0.444711
Si Si2 0.589703 0.262550 0.107275
Si Si3 0.053265 0.768235 0.007295
Si Si4 0.257726 0.318438 0.844423
Si Si5 0.086192 0.550815 0.711785
Si Si6 0.549101 0.122061 0.230429
Si Si7 0.857364 0.846838 0.333662
O O1 0.500000 0.500000 0.500000
O O2 0.336977 0.460929 0.240225
O O3 0.178409 0.528411 0.542204
O O4 0.993209 0.767486 0.477910
O O5 0.662399 0.165505 0.217862
O O6 0.807186 0.220797 0.055316
O O7 0.503199 0.231013 0.937794
O O8 0.086771 0.755931 0.193567
O O9 0.149440 0.613489 0.866728
O O10 0.730467 0.951148 0.053621
O O11 0.229755 0.383239 0.710983
O O12 0.247092 0.207136 0.761912
O O13 0.000000 0.500000 0.000000
O O14 0.764793 0.711272 0.753561
O O15 0.628171 0.045602 0.371611
#
# Coordination Sequence:
#
# PCOD9025341 Si02
#       7
#     2   2   2   2   2   2   2
#     4  12  26  43  64  97 132 172 207 263 325 385
#     4  12  23  42  69  96 133 163 218 265 321 374
#     4  10  22  40  68  95 125 167 215 273 311 366
#     4  12  21  40  67 101 122 164 222 270 306 375
#     4  12  23  40  69  92 133 170 209 264 321 381
#     4  10  23  42  67  94 126 170 219 263 313 378
#     4  10  24  43  65  94 130 165 221 259 318 376
#
# _framework density 24.025811999999998
#
# number of rings (size 3 to 8) (size 9 to 14) (size 15 to 20)
#    0.857    0.000    5.714    0.857    4.000    4.000 
#    0.000    0.714    0.000    0.000    0.000    0.000 
#    0.000    0.000    0.000    0.000    0.000    0.000 
#
# Total GULP energy -78240.874643 kJ/mol
# GULP energy per Si atom -5588.633903 kJ/mol
# Density = 2.397113 g / cm^3
# Si number density = 24.025812 Si / 1000 Ang^3
#
#
#
# Elastic Constant Matrix: (Units=GPa)
#
#
# Indices 1 2 3 4 5 6 
#
# 1 130.8077 39.5964 34.5493 -17.7984 -31.1054 19.1464
# 2 39.5964 116.8809 29.9769 -30.5348 -17.4475 30.9656
# 3 34.5493 29.9769 66.1575 -8.9751 -22.4232 -1.1708
# 4 -17.7984 -30.5348 -8.9751 42.1741 4.1738 -9.7621
# 5 -31.1054 -17.4475 -22.4232 4.1738 40.3414 -8.4256
# 6 19.1464 30.9656 -1.1708 -9.7621 -8.4256 34.7742
#
#
#
# Elastic Compliance Matrix: (Units=1/GPa)
#
#
# Indices 1 2 3 4 5 6 
#
# 1 0.010763 -0.000427 -0.003454 0.002102 0.005179 -0.003817
# 2 -0.000427 0.015000 -0.005938 0.006784 -0.000241 -0.011476
# 3 -0.003454 -0.005938 0.023205 0.000648 0.009798 0.010527
# 4 0.002102 0.006784 0.000648 0.029831 0.002190 0.001729
# 5 0.005179 -0.000241 0.009798 0.002190 0.035332 0.006868
# 6 -0.003817 -0.011476 0.010527 0.001729 0.006868 0.043582
#
#
# Mechanical properties :
#
#
# Convention : Reuss Voigt Hill
#
# Bulk Modulus (GPa) = 34.09524 58.01014 46.05269
# Shear Modulus (GPa) = 26.71970 37.43952 32.07961
#
# Velocity S-wave (km/s) = 3.33847 3.95182 3.65802
# Velocity P-wave (km/s) = 5.39281 6.70968 6.08696
#
# Compressibility (1/GPa) = 0.02932960
#
# Stress axis : x y z
#
# Youngs Moduli (GPa) = 92.91404 66.66669 43.09354
#
# Poissons Ratio (x) = 0.02844 0.14885
# Poissons Ratio (y) = 0.03964 0.25591
# Poissons Ratio (z) = 0.32094 0.39589
#
# Static dielectric constant tensor:
#      x y z
#    x 1.886480 0.000530 -0.003300 
#    y 0.000530 1.976120 -0.024460 
#    z -0.003300 -0.024460 1.985930 
# 
# From -- ./inp_files/207748.got.cif
#   From: 2010.05.17/outbox.cif.g08.bks.cpg/sg2_104_cif.got.tgz:207748.got - 2010.06.03 11:33:40.
