data_PCOD9025780
_publ_section_title
;
Structure prediction by ZEFSAII (Michael W. Deem and Ramdas Pophale) SiO2 
 PCOD9025780
Probable space group: P -1
;
_chemical_formula_sum "Si O2"
_cell_formula_units_Z 15
_cell_length_a 13.693702
_cell_length_b 20.757950
_cell_length_c 15.913357
_cell_angle_alpha 157.398197
_cell_angle_beta 145.156784
_cell_angle_gamma 22.002763
_cell_volume 631.509863
_symmetry_space_group_name_H-M "P -1"
_symmetry_group_IT_number 2
_symmetry_cell_setting 'triclinic'
loop_
_space_group_symop_operation_xyz
x,y,z
-x,-y,-z
loop_
_atom_site_type_symbol
_atom_site_label
_atom_site_fract_x
_atom_site_fract_y
_atom_site_fract_z
Si Si1 0.382025 0.323840 0.401926
Si Si2 0.871051 0.585693 0.292629
Si Si3 0.546921 0.926547 0.307250
Si Si4 0.510026 0.389095 0.135382
Si Si5 0.783146 0.090361 0.647913
Si Si6 0.024129 0.158934 0.800590
Si Si7 0.000000 0.500000 0.500000
Si Si8 0.208997 0.701838 0.935861
O O1 0.415053 0.499230 0.629574
O O2 0.163435 0.442118 0.320293
O O3 0.249374 0.358680 0.437314
O O4 0.678265 0.025182 0.239635
O O5 0.679705 0.770352 0.301413
O O6 0.730446 0.764910 0.493622
O O7 0.924034 0.349042 0.037337
O O8 0.737713 0.927779 0.411260
O O9 0.489797 0.803228 0.066300
O O10 0.722489 0.241849 0.030991
O O11 0.207417 0.642326 0.191750
O O12 0.497624 0.396239 0.793895
O O13 0.998537 0.991812 0.615550
O O14 0.857228 0.105718 0.810199
O O15 0.986899 0.308000 0.227681
#
# Coordination Sequence:
#
# PCOD9025780 Si02
#       8
#     2   2   2   2   2   2   1   2
#     4  11  21  36  55  81 110 140 179 224 272 319
#     4  10  20  34  57  83 108 140 179 224 269 311
#     4  10  19  35  55  80 110 146 183 214 259 322
#     4   9  20  35  55  79 110 145 176 218 270 317
#     4  10  17  31  55  77 102 140 182 217 255 312
#     4  10  20  35  56  82 109 139 177 227 270 312
#     4  10  20  32  52  80 104 132 174 226 272 310
#     4   9  17  31  52  80 104 132 180 224 260 306
#
# _framework density 23.752597000000002
#
# number of rings (size 3 to 8) (size 9 to 14) (size 15 to 20)
#    0.000    2.133    0.000    6.400    0.000    0.533 
#    0.000    2.667    0.000    8.000    0.000    2.800 
#    0.000    0.000    0.000    0.000    0.000    0.000 
#
# Total GULP energy -83504.120251 kJ/mol
# GULP energy per Si atom -5566.941350 kJ/mol
# Density = 2.369854 g / cm^3
# Si number density = 23.752597 Si / 1000 Ang^3
#
#
#
# Elastic Constant Matrix: (Units=GPa)
#
#
# Indices 1 2 3 4 5 6 
#
# 1 48.6522 20.4088 41.0229 15.7140 9.8035 -38.2235
# 2 20.4088 100.1498 36.5303 -16.8883 7.3364 -30.3424
# 3 41.0229 36.5303 131.2167 -33.7699 26.2678 -23.5135
# 4 15.7140 -16.8883 -33.7699 29.6493 -11.0636 5.3136
# 5 9.8035 7.3364 26.2678 -11.0636 33.8189 -12.3071
# 6 -38.2235 -30.3424 -23.5135 5.3136 -12.3071 26.0596
#
#
#
# Elastic Compliance Matrix: (Units=1/GPa)
#
#
# Indices 1 2 3 4 5 6 
#
# 1 -0.023081 -0.006562 0.009045 0.023904 -0.006032 -0.041056
# 2 -0.006562 0.015767 0.002371 0.015329 0.005403 0.010299
# 3 0.009045 0.002371 0.009123 0.002415 -0.000946 0.023320
# 4 0.023904 0.015329 0.002415 0.029047 0.018432 0.057872
# 5 -0.006032 0.005403 -0.000946 0.018432 0.041420 0.012393
# 6 -0.041056 0.010299 0.023320 0.057872 0.012393 0.005241
#
#
# Mechanical properties :
#
#
# Convention : Reuss Voigt Hill
#
# Bulk Modulus (GPa) = 86.81950 52.88253 69.85102
# Shear Modulus (GPa) = 69.78568 30.04267 49.91417
#
# Velocity S-wave (km/s) = 5.42623 3.56028 4.58910
# Velocity P-wave (km/s) = 8.71146 6.26203 7.58626
#
# Compressibility (1/GPa) = 0.01151815
#
# Stress axis : x y z
#
# Youngs Moduli (GPa) = -43.32615 63.42419 109.61427
#
# Poissons Ratio (x) = 0.41616 -0.99147
# Poissons Ratio (y) = -0.28429 -0.25990
# Poissons Ratio (z) = 0.39189 -0.15038
#
# Static dielectric constant tensor:
#      x y z
#    x 2.009680 0.175430 0.003000 
#    y 0.175430 2.066420 -0.024960 
#    z 0.003000 -0.024960 1.971850 
# 
# From -- ./inp_files/435388.got.cif
#   From: 2010.05.17/outbox.cif.g08.bks.cpg/sg2_218_cif.got.tgz:435388.got - 2010.06.03 11:33:40.
