data_PCOD9025012
_publ_section_title
;
Structure prediction by ZEFSAII (Michael W. Deem and Ramdas Pophale) SiO2 
 PCOD9025012
Probable space group: P -1
;
_chemical_formula_sum "Si O2"
_cell_formula_units_Z 16
_cell_length_a 13.533514
_cell_length_b 7.871159
_cell_length_c 9.777136
_cell_angle_alpha 72.215560
_cell_angle_beta 71.686518
_cell_angle_gamma 124.823031
_cell_volume 635.467993
_symmetry_space_group_name_H-M "P -1"
_symmetry_group_IT_number 2
_symmetry_cell_setting 'triclinic'
loop_
_space_group_symop_operation_xyz
x,y,z
-x,-y,-z
loop_
_atom_site_type_symbol
_atom_site_label
_atom_site_fract_x
_atom_site_fract_y
_atom_site_fract_z
Si Si1 0.586836 0.141852 0.284349
Si Si2 0.096276 0.270526 0.549410
Si Si3 0.618908 0.174015 0.784532
Si Si4 0.876151 0.598680 0.189313
Si Si5 0.469202 0.517271 0.853929
Si Si6 0.783086 0.900407 0.128364
Si Si7 0.762398 0.916234 0.435697
Si Si8 0.859660 0.209856 0.570522
O O1 0.764615 0.347826 0.199484
O O2 0.572664 0.326218 0.186919
O O3 0.500000 0.000000 0.500000
O O4 0.489723 0.906169 0.275355
O O5 0.236178 0.510582 0.331108
O O6 0.139219 0.428614 0.632658
O O7 0.114288 0.086926 0.618175
O O8 0.924430 0.098769 0.616772
O O9 0.707050 0.100577 0.727383
O O10 0.500000 0.000000 0.000000
O O11 0.828157 0.746504 0.149637
O O12 0.055253 0.795929 0.033797
O O13 0.333293 0.230536 0.914092
O O14 0.618449 0.683298 0.651169
O O15 0.500000 0.500000 0.000000
O O16 0.712512 0.869880 0.312116
O O17 0.839459 0.172438 0.425460
O O18 0.000000 0.500000 0.500000
#
# Coordination Sequence:
#
# PCOD9025012 Si02
#       8
#     2   2   2   2   2   2   2   2
#     4  11  22  44  72  95 142 197 243 289 372 442
#     4  10  22  40  67 100 144 185 240 298 370 430
#     4  11  24  43  68 101 139 191 246 303 363 435
#     4   9  19  38  65  94 134 189 234 296 351 435
#     4  11  25  42  71 109 148 188 241 313 370 426
#     4   9  21  40  63 100 141 181 242 294 362 426
#     4  11  22  41  70 107 139 193 244 301 364 435
#     4  10  23  43  66  97 145 184 235 299 370 430
#
# _framework density 25.178294999999999
#
# number of rings (size 3 to 8) (size 9 to 14) (size 15 to 20)
#    0.000    1.750    2.500    0.750    3.500    2.000 
#    2.250    0.000    0.000    3.000    0.000    0.000 
#    0.000    0.000    0.000    0.000    0.000    0.000 
#
# Total GULP energy -89437.355301 kJ/mol
# GULP energy per Si atom -5589.834706 kJ/mol
# Density = 2.512099 g / cm^3
# Si number density = 25.178295 Si / 1000 Ang^3
#
#
#
# Elastic Constant Matrix: (Units=GPa)
#
#
# Indices 1 2 3 4 5 6 
#
# 1 119.3447 52.1806 30.8122 15.1144 8.3218 26.8828
# 2 52.1806 135.5078 48.4121 10.3530 -9.3049 42.3826
# 3 30.8122 48.4121 147.2059 18.6886 3.6348 35.9727
# 4 15.1144 10.3530 18.6886 39.9913 6.6932 -0.3710
# 5 8.3218 -9.3049 3.6348 6.6932 34.9955 0.5262
# 6 26.8828 42.3826 35.9727 -0.3710 0.5262 60.2322
#
#
#
# Elastic Compliance Matrix: (Units=1/GPa)
#
#
# Indices 1 2 3 4 5 6 
#
# 1 0.011011 -0.003424 -0.000176 -0.002720 -0.002954 -0.002391
# 2 -0.003424 0.011462 -0.001560 -0.001740 0.004442 -0.005655
# 3 -0.000176 -0.001560 0.008817 -0.003598 -0.000539 -0.004107
# 4 -0.002720 -0.001740 -0.003598 0.029059 -0.005072 0.004811
# 5 -0.002954 0.004442 -0.000539 -0.005072 0.031512 -0.001792
# 6 -0.002391 -0.005655 -0.004107 0.004811 -0.001792 0.024147
#
#
# Mechanical properties :
#
#
# Convention : Reuss Voigt Hill
#
# Bulk Modulus (GPa) = 47.68837 73.87425 60.78131
# Shear Modulus (GPa) = 37.50459 45.08737 41.29598
#
# Velocity S-wave (km/s) = 3.86367 4.23629 4.05426
# Velocity P-wave (km/s) = 6.23581 7.30290 6.79035
#
# Compressibility (1/GPa) = 0.02096947
#
# Stress axis : x y z
#
# Youngs Moduli (GPa) = 90.82008 87.24328 113.42137
#
# Poissons Ratio (x) = 0.29876 0.01996
# Poissons Ratio (y) = 0.31101 0.17690
# Poissons Ratio (z) = 0.01599 0.13607
#
# Static dielectric constant tensor:
#      x y z
#    x 2.123080 -0.108340 0.034990 
#    y -0.108340 2.080570 -0.027080 
#    z 0.034990 -0.027080 1.972930 
# 
# From -- ./inp_files/298216.got.cif
#   From: 2010.05.17/outbox.cif.g08.bks.cpg/sg2_150_cif.got.tgz:298216.got - 2010.06.03 11:33:40.
