data_PCOD9025936
_publ_section_title
;
Structure prediction by ZEFSAII (Michael W. Deem and Ramdas Pophale) SiO2 
 PCOD9025936
Probable space group: P -1
;
_chemical_formula_sum "Si O2"
_cell_formula_units_Z 16
_cell_length_a 25.047806
_cell_length_b 12.904851
_cell_length_c 14.127779
_cell_angle_alpha 148.034245
_cell_angle_beta 147.157684
_cell_angle_gamma 22.798116
_cell_volume 898.467771
_symmetry_space_group_name_H-M "P -1"
_symmetry_group_IT_number 2
_symmetry_cell_setting 'triclinic'
loop_
_space_group_symop_operation_xyz
x,y,z
-x,-y,-z
loop_
_atom_site_type_symbol
_atom_site_label
_atom_site_fract_x
_atom_site_fract_y
_atom_site_fract_z
Si Si1 0.783638 0.135575 0.017305
Si Si2 0.524636 0.770752 0.138086
Si Si3 0.202622 0.474396 0.575570
Si Si4 0.845508 0.132611 0.896996
Si Si5 0.383039 0.191261 0.892722
Si Si6 0.965796 0.280600 0.675462
Si Si7 0.799225 0.804956 0.950739
Si Si8 0.164451 0.238315 0.510710
O O1 0.842138 0.036687 0.921709
O O2 0.806772 0.925196 0.959730
O O3 0.613595 0.439601 0.997962
O O4 0.850637 0.237362 0.240817
O O5 0.625486 0.737522 0.338928
O O6 0.540347 0.864257 0.135378
O O7 0.363585 0.978672 0.091419
O O8 0.123280 0.541530 0.413589
O O9 0.180037 0.349874 0.527053
O O10 0.808507 0.023170 0.680198
O O11 0.727391 0.473438 0.989614
O O12 0.000000 0.000000 0.000000
O O13 0.280228 0.154033 0.691841
O O14 0.500000 0.000000 0.000000
O O15 0.870282 0.494116 0.787845
O O16 0.000000 0.000000 0.500000
O O17 0.107909 0.207448 0.844143
O O18 0.000000 0.500000 0.500000
#
# Coordination Sequence:
#
# PCOD9025936 Si02
#       8
#     2   2   2   2   2   2   2   2
#     4   9  18  36  61  82 112 145 199 241 278 345
#     4   8  19  38  59  83 113 150 195 231 287 351
#     4   9  19  37  58  80 114 148 190 243 277 340
#     4  11  20  38  63  90 113 157 200 240 294 354
#     4  10  22  41  58  89 127 148 192 256 290 350
#     4  11  22  37  52  83 121 148 193 240 280 346
#     4  11  21  36  59  83 114 161 185 236 304 331
#     4  11  20  37  62  87 114 152 201 240 293 351
#
# _framework density 17.808095999999999
#
# number of rings (size 3 to 8) (size 9 to 14) (size 15 to 20)
#    0.750    1.250    3.750    1.125    0.000    2.000 
#    4.500    5.000    0.000    0.000    0.000    0.000 
#    0.000    0.000    0.000    0.000    0.000    0.000 
#
# Total GULP energy -89113.562976 kJ/mol
# GULP energy per Si atom -5569.597686 kJ/mol
# Density = 1.776756 g / cm^3
# Si number density = 17.808096 Si / 1000 Ang^3
#
#
#
# Elastic Constant Matrix: (Units=GPa)
#
#
# Indices 1 2 3 4 5 6 
#
# 1 57.5658 56.4820 41.1760 -19.4741 -0.0045 -6.6488
# 2 56.4820 96.4049 62.2932 -27.3485 -0.5495 -14.3569
# 3 41.1760 62.2932 151.2589 -12.9904 -3.4271 -3.2376
# 4 -19.4741 -27.3485 -12.9904 41.9774 8.8619 -2.5416
# 5 -0.0045 -0.5495 -3.4271 8.8619 22.0630 -5.5520
# 6 -6.6488 -14.3569 -3.2376 -2.5416 -5.5520 30.2567
#
#
#
# Elastic Compliance Matrix: (Units=1/GPa)
#
#
# Indices 1 2 3 4 5 6 
#
# 1 0.042114 -0.022233 -0.001987 0.005032 -0.003300 -0.001691
# 2 -0.022233 0.031200 -0.005837 0.009077 -0.001310 0.009816
# 3 -0.001987 -0.005837 0.009351 -0.002319 0.001713 -0.002086
# 4 0.005032 0.009077 -0.002319 0.034335 -0.012475 0.005760
# 5 -0.003300 -0.001310 0.001713 -0.012475 0.052433 0.007410
# 6 -0.001691 0.009816 -0.002086 0.005760 0.007410 0.038957
#
#
# Mechanical properties :
#
#
# Convention : Reuss Voigt Hill
#
# Bulk Modulus (GPa) = 44.34368 69.45910 56.90139
# Shear Modulus (GPa) = 18.11466 28.54466 23.32966
#
# Velocity S-wave (km/s) = 3.19284 4.00797 3.62340
# Velocity P-wave (km/s) = 6.20864 7.77865 7.03756
#
# Compressibility (1/GPa) = 0.02255113
#
# Stress axis : x y z
#
# Youngs Moduli (GPa) = 23.74527 32.05158 106.94232
#
# Poissons Ratio (x) = 0.71260 0.21248
# Poissons Ratio (y) = 0.52793 0.62419
# Poissons Ratio (z) = 0.04718 0.18708
#
# Static dielectric constant tensor:
#      x y z
#    x 1.597160 0.015380 -0.003920 
#    y 0.015380 1.614380 0.014760 
#    z -0.003920 0.014760 1.637470 
# 
# From -- ./inp_files/544194.got.cif
#   From: 2010.05.17/outbox.cif.g08.bks.cpg/sg2_273_cif.got.tgz:544194.got - 2010.06.03 11:33:40.
