data_PCOD9025631
_publ_section_title
;
Structure prediction by ZEFSAII (Michael W. Deem and Ramdas Pophale) SiO2 
 PCOD9025631
Probable space group: P -1
;
_chemical_formula_sum "Si O2"
_cell_formula_units_Z 16
_cell_length_a 10.576828
_cell_length_b 7.134962
_cell_length_c 10.895522
_cell_angle_alpha 128.715428
_cell_angle_beta 68.960748
_cell_angle_gamma 103.173542
_cell_volume 598.781547
_symmetry_space_group_name_H-M "P -1"
_symmetry_group_IT_number 2
_symmetry_cell_setting 'triclinic'
loop_
_space_group_symop_operation_xyz
x,y,z
-x,-y,-z
loop_
_atom_site_type_symbol
_atom_site_label
_atom_site_fract_x
_atom_site_fract_y
_atom_site_fract_z
Si Si1 0.314407 0.277517 0.397643
Si Si2 0.856720 0.108019 0.560336
Si Si3 0.185497 0.522975 0.911721
Si Si4 0.457804 0.283915 0.766350
Si Si5 0.447551 0.011195 0.883422
Si Si6 0.171570 0.066290 0.123630
Si Si7 0.954325 0.574839 0.843857
Si Si8 0.314859 0.783914 0.539519
O O1 0.470470 0.206903 0.294975
O O2 0.232327 0.221935 0.277526
O O3 0.300927 0.558510 0.541468
O O4 0.255059 0.082418 0.432425
O O5 0.863495 0.367937 0.728170
O O6 0.827429 0.149784 0.445207
O O7 0.000000 0.000000 0.500000
O O8 0.344587 0.473400 0.841245
O O9 0.101814 0.486332 0.800338
O O10 0.120238 0.365812 0.978169
O O11 0.152035 0.798822 0.070349
O O12 0.589007 0.306675 0.644393
O O13 0.489046 0.244564 0.883708
O O14 0.385511 0.025521 0.659378
O O15 0.500000 0.000000 0.000000
O O16 0.287066 0.024697 0.962436
O O17 0.050128 0.203776 0.156809
#
# Coordination Sequence:
#
# PCOD9025631 Si02
#       8
#     2   2   2   2   2   2   2   2
#     4  11  23  44  67 101 135 180 234 281 336 415
#     4  12  25  46  67  96 139 187 232 279 340 413
#     4  11  23  41  67  99 136 177 225 288 341 403
#     4  11  23  46  69 103 142 180 226 290 350 409
#     4  10  22  40  70 104 136 174 225 280 351 407
#     4  11  21  42  68 102 134 174 225 286 345 403
#     4  11  23  42  66  95 138 178 228 283 341 401
#     4  11  25  45  70  97 142 183 229 284 344 411
#
# _framework density 26.720929999999999
#
# number of rings (size 3 to 8) (size 9 to 14) (size 15 to 20)
#    0.000    1.000    5.000    1.875    0.000    1.000 
#    4.500    3.750    0.000    0.000    0.000    0.000 
#    0.000    0.000    0.000    0.000    0.000    0.000 
#
# Total GULP energy -89612.116536 kJ/mol
# GULP energy per Si atom -5600.757284 kJ/mol
# Density = 2.666011 g / cm^3
# Si number density = 26.720930 Si / 1000 Ang^3
#
#
#
# Elastic Constant Matrix: (Units=GPa)
#
#
# Indices 1 2 3 4 5 6 
#
# 1 103.7899 41.2567 27.3344 4.1205 10.2219 -31.7182
# 2 41.2567 152.0181 35.4823 15.2590 7.8155 -27.8459
# 3 27.3344 35.4823 47.3880 7.8857 8.3683 -1.0371
# 4 4.1205 15.2590 7.8857 43.2429 11.3216 -0.9280
# 5 10.2219 7.8155 8.3683 11.3216 42.9517 3.7138
# 6 -31.7182 -27.8459 -1.0371 -0.9280 3.7138 57.3052
#
#
#
# Elastic Compliance Matrix: (Units=1/GPa)
#
#
# Indices 1 2 3 4 5 6 
#
# 1 0.014442 -0.000785 -0.007261 0.001134 -0.002843 0.007684
# 2 -0.000785 0.009077 -0.005914 -0.001932 -0.000136 0.003847
# 3 -0.007261 -0.005914 0.030320 -0.002378 -0.001935 -0.006257
# 4 0.001134 -0.001932 -0.002378 0.025790 -0.006294 0.000472
# 5 -0.002843 -0.000136 -0.001935 -0.006294 0.026320 -0.003482
# 6 0.007684 0.003847 -0.006257 0.000472 -0.003482 0.023693
#
#
# Mechanical properties :
#
#
# Convention : Reuss Voigt Hill
#
# Bulk Modulus (GPa) = 38.58322 56.81586 47.69954
# Shear Modulus (GPa) = 30.08368 41.97479 36.02924
#
# Velocity S-wave (km/s) = 3.35900 3.96770 3.67598
# Velocity P-wave (km/s) = 5.43273 6.50377 5.99223
#
# Compressibility (1/GPa) = 0.02591800
#
# Stress axis : x y z
#
# Youngs Moduli (GPa) = 69.24111 110.16685 32.98177
#
# Poissons Ratio (x) = 0.08647 0.23950
# Poissons Ratio (y) = 0.05435 0.19506
# Poissons Ratio (z) = 0.50279 0.65155
#
# Static dielectric constant tensor:
#      x y z
#    x 2.084450 -0.012610 0.049090 
#    y -0.012610 2.060420 -0.008060 
#    z 0.049090 -0.008060 2.165930 
# 
# From -- ./inp_files/411229.got.cif
#   From: 2010.05.17/outbox.cif.g08.bks.cpg/sg2_206_cif.got.tgz:411229.got - 2010.06.03 11:33:40.
