data_PCOD9025408
_publ_section_title
;
Structure prediction by ZEFSAII (Michael W. Deem and Ramdas Pophale) SiO2 
 PCOD9025408
Probable space group: P -1
;
_chemical_formula_sum "Si O2"
_cell_formula_units_Z 16
_cell_length_a 6.835171
_cell_length_b 13.263026
_cell_length_c 18.033598
_cell_angle_alpha 145.158455
_cell_angle_beta 108.634932
_cell_angle_gamma 97.175542
_cell_volume 618.588434
_symmetry_space_group_name_H-M "P -1"
_symmetry_group_IT_number 2
_symmetry_cell_setting 'triclinic'
loop_
_space_group_symop_operation_xyz
x,y,z
-x,-y,-z
loop_
_atom_site_type_symbol
_atom_site_label
_atom_site_fract_x
_atom_site_fract_y
_atom_site_fract_z
Si Si1 0.028847 0.550323 0.687410
Si Si2 0.140109 0.778123 0.191766
Si Si3 0.724604 0.707098 0.812771
Si Si4 0.970505 0.184994 0.948938
Si Si5 0.870631 0.782875 0.295896
Si Si6 0.641030 0.290927 0.038810
Si Si7 0.289215 0.993172 0.682039
Si Si8 0.610448 0.381897 0.410779
O O1 0.803715 0.556910 0.703731
O O2 0.921969 0.529306 0.577330
O O3 0.319340 0.749508 0.895570
O O4 0.969839 0.304840 0.541167
O O5 0.985419 0.803949 0.126057
O O6 0.461766 0.955284 0.303996
O O7 0.112443 0.838267 0.305953
O O8 0.000000 0.500000 0.000000
O O9 0.444284 0.621834 0.686221
O O10 0.758385 0.721882 0.914223
O O11 0.000000 0.000000 0.000000
O O12 0.659102 0.907364 0.768761
O O13 0.908806 0.349435 0.063794
O O14 0.700077 0.528324 0.166195
O O15 0.704891 0.809294 0.233681
O O16 0.000000 0.000000 0.500000
O O17 0.358655 0.053900 0.814510
O O18 0.500000 0.500000 0.500000
#
# Coordination Sequence:
#
# PCOD9025408 Si02
#       8
#     2   2   2   2   2   2   2   2
#     4  10  17  31  54  83 120 154 196 254 302 368
#     4  11  22  38  62  88 124 171 206 257 307 358
#     4   8  16  27  51  85 121 152 197 258 309 365
#     4   9  16  32  53  82 122 154 200 249 299 364
#     4  12  24  40  58  89 123 168 216 250 304 372
#     4  10  19  34  55  78 119 156 198 251 293 353
#     4  11  22  39  61  82 126 163 207 256 300 361
#     4   9  15  27  50  85 119 146 192 256 306 354
#
# _framework density 25.865338999999999
#
# number of rings (size 3 to 8) (size 9 to 14) (size 15 to 20)
#    0.000    2.000    6.250    0.375    0.000    0.500 
#    0.000    0.000    0.000    0.000    0.000    8.750 
#    0.000    0.250    0.000    0.000    0.000    0.000 
#
# Total GULP energy -89206.418558 kJ/mol
# GULP energy per Si atom -5575.401160 kJ/mol
# Density = 2.580647 g / cm^3
# Si number density = 25.865339 Si / 1000 Ang^3
#
#
#
# Elastic Constant Matrix: (Units=GPa)
#
#
# Indices 1 2 3 4 5 6 
#
# 1 80.5036 29.5270 24.0912 -1.1976 -3.3758 -4.7904
# 2 29.5270 137.8588 42.3179 -15.2360 -3.9518 -12.7026
# 3 24.0912 42.3179 111.4752 -9.5180 -21.6798 0.9429
# 4 -1.1976 -15.2360 -9.5180 56.4027 -10.2261 -6.1459
# 5 -3.3758 -3.9518 -21.6798 -10.2261 28.1585 -10.0547
# 6 -4.7904 -12.7026 0.9429 -6.1459 -10.0547 55.2448
#
#
#
# Elastic Compliance Matrix: (Units=1/GPa)
#
#
# Indices 1 2 3 4 5 6 
#
# 1 0.013965 -0.002334 -0.002300 -0.000755 -0.000506 0.000538
# 2 -0.002334 0.009046 -0.002630 0.002313 0.000624 0.002293
# 3 -0.002300 -0.002630 0.012920 0.003586 0.011103 0.001395
# 4 -0.000755 0.002313 0.003586 0.021819 0.012759 0.005155
# 5 -0.000506 0.000624 0.011103 0.012759 0.052616 0.010906
# 6 0.000538 0.002293 0.001395 0.005155 0.010906 0.021210
#
#
# Mechanical properties :
#
#
# Convention : Reuss Voigt Hill
#
# Bulk Modulus (GPa) = 46.72063 57.96776 52.34420
# Shear Modulus (GPa) = 32.62918 43.55463 38.09191
#
# Velocity S-wave (km/s) = 3.55562 4.10799 3.84174
# Velocity P-wave (km/s) = 5.91260 6.70528 6.32137
#
# Compressibility (1/GPa) = 0.02140382
#
# Stress axis : x y z
#
# Youngs Moduli (GPa) = 71.60517 110.54785 77.40113
#
# Poissons Ratio (x) = 0.25798 0.17800
# Poissons Ratio (y) = 0.16710 0.20358
# Poissons Ratio (z) = 0.16467 0.29077
#
# Static dielectric constant tensor:
#      x y z
#    x 2.310740 -3.056640 -0.345120 
#    y -3.056640 47.097430 4.405560 
#    z -0.345120 4.405560 2.548340 
# 
# From -- ./inp_files/220874.got.cif
#   From: 2010.05.17/outbox.cif.g08.bks.cpg/sg2_111_cif.got.tgz:220874.got - 2010.06.03 11:33:40.
