data_PCOD9025804
_publ_section_title
;
Structure prediction by ZEFSAII (Michael W. Deem and Ramdas Pophale) SiO2 
 PCOD9025804
Probable space group: P -1
;
_chemical_formula_sum "Si O2"
_cell_formula_units_Z 13
_cell_length_a 15.771689
_cell_length_b 8.543219
_cell_length_c 15.015372
_cell_angle_alpha 38.388514
_cell_angle_beta 152.135581
_cell_angle_gamma 126.392307
_cell_volume 551.528855
_symmetry_space_group_name_H-M "P -1"
_symmetry_group_IT_number 2
_symmetry_cell_setting 'triclinic'
loop_
_space_group_symop_operation_xyz
x,y,z
-x,-y,-z
loop_
_atom_site_type_symbol
_atom_site_label
_atom_site_fract_x
_atom_site_fract_y
_atom_site_fract_z
Si Si1 0.418567 0.979144 0.578307
Si Si2 0.162977 0.137431 0.418613
Si Si3 0.003929 0.566966 0.207944
Si Si4 0.500000 0.500000 0.000000
Si Si5 0.689101 0.144826 0.656901
Si Si6 0.545065 0.937748 0.966005
Si Si7 0.033167 0.278904 0.553032
O O1 0.522200 0.748581 0.848494
O O2 0.529475 0.183552 0.567105
O O3 0.210030 0.135607 0.359437
O O4 0.398208 0.843018 0.527609
O O5 0.996499 0.370306 0.208448
O O6 0.135292 0.849955 0.538323
O O7 0.358278 0.126419 0.655920
O O8 0.033372 0.404071 0.400225
O O9 0.176272 0.677974 0.296206
O O10 0.820960 0.832828 0.929770
O O11 0.441305 0.361070 0.917798
O O12 0.756899 0.946772 0.138412
O O13 0.500000 0.000000 0.000000
O O14 0.000000 0.500000 0.500000
#
# Coordination Sequence:
#
# PCOD9025804 Si02
#       7
#     2   2   2   1   2   2   2
#     4  10  23  44  67 100 128 189 227 286 352 420
#     4  11  25  43  68 106 136 175 244 294 345 414
#     4  11  24  43  64  98 139 182 230 284 350 428
#     4  10  22  40  72 102 136 170 242 290 336 420
#     4  10  24  44  67  93 142 185 227 274 362 428
#     4  11  23  40  66 105 140 180 222 296 360 403
#     4  12  25  43  70 106 143 181 233 303 354 410
#
# _framework density 23.570841999999999
#
# number of rings (size 3 to 8) (size 9 to 14) (size 15 to 20)
#    0.000    1.231    1.538    4.154    8.615    1.231 
#    2.769    0.000    0.000    0.000    0.000    0.000 
#    0.000    0.000    0.000    0.000    0.000    0.000 
#
# Total GULP energy -72431.398017 kJ/mol
# GULP energy per Si atom -5571.646001 kJ/mol
# Density = 2.351719 g / cm^3
# Si number density = 23.570842 Si / 1000 Ang^3
#
#
#
# Elastic Constant Matrix: (Units=GPa)
#
#
# Indices 1 2 3 4 5 6 
#
# 1 130.3031 64.3891 3.6058 -7.7916 1.2246 -4.6461
# 2 64.3891 84.4065 16.7283 -1.2802 -6.1530 -1.1645
# 3 3.6058 16.7283 53.7926 4.8771 -3.2206 10.1886
# 4 -7.7916 -1.2802 4.8771 27.0510 -0.3027 10.1449
# 5 1.2246 -6.1530 -3.2206 -0.3027 29.9247 0.8541
# 6 -4.6461 -1.1645 10.1886 10.1449 0.8541 31.9973
#
#
#
# Elastic Compliance Matrix: (Units=1/GPa)
#
#
# Indices 1 2 3 4 5 6 
#
# 1 0.012956 -0.010405 0.001956 0.002843 -0.002432 0.000043
# 2 -0.010405 0.021233 -0.005805 -0.001447 0.004111 0.001459
# 3 0.001956 -0.005805 0.021673 -0.001171 0.001232 -0.006490
# 4 0.002843 -0.001447 -0.001171 0.042742 0.000259 -0.012825
# 5 -0.002432 0.004111 0.001232 0.000259 0.034543 -0.001600
# 6 0.000043 0.001459 -0.006490 -0.012825 -0.001600 0.037488
#
#
# Mechanical properties :
#
#
# Convention : Reuss Voigt Hill
#
# Bulk Modulus (GPa) = 36.55669 48.66094 42.60882
# Shear Modulus (GPa) = 24.00849 30.04653 27.02751
#
# Velocity S-wave (km/s) = 3.19496 3.57421 3.38990
# Velocity P-wave (km/s) = 5.39938 6.14188 5.78256
#
# Compressibility (1/GPa) = 0.02735477
#
# Stress axis : x y z
#
# Youngs Moduli (GPa) = 77.18350 47.09704 46.13998
#
# Poissons Ratio (x) = 0.49003 -0.09023
# Poissons Ratio (y) = 0.80306 0.26782
# Poissons Ratio (z) = -0.15094 0.27338
#
# Static dielectric constant tensor:
#      x y z
#    x 1.844440 -0.007590 -0.104270 
#    y -0.007590 1.876480 0.047000 
#    z -0.104270 0.047000 1.498950 
# 
# From -- ./inp_files/527189.got.cif
#   From: 2010.05.17/outbox.cif.g08.bks.cpg/sg2_264_cif.got.tgz:527189.got - 2010.06.03 11:33:40.
