data_PCOD9025295
_publ_section_title
;
Structure prediction by ZEFSAII (Michael W. Deem and Ramdas Pophale) SiO2 
 PCOD9025295
Probable space group: P -1
;
_chemical_formula_sum "Si O2"
_cell_formula_units_Z 14
_cell_length_a 7.173054
_cell_length_b 10.310525
_cell_length_c 11.611596
_cell_angle_alpha 126.563771
_cell_angle_beta 53.302213
_cell_angle_gamma 113.421778
_cell_volume 551.898471
_symmetry_space_group_name_H-M "P -1"
_symmetry_group_IT_number 2
_symmetry_cell_setting 'triclinic'
loop_
_space_group_symop_operation_xyz
x,y,z
-x,-y,-z
loop_
_atom_site_type_symbol
_atom_site_label
_atom_site_fract_x
_atom_site_fract_y
_atom_site_fract_z
Si Si1 0.957289 0.661089 0.529742
Si Si2 0.658402 0.373425 0.937932
Si Si3 0.825148 0.537142 0.262063
Si Si4 0.141577 0.813201 0.940793
Si Si5 0.312282 0.883895 0.394092
Si Si6 0.264963 0.170295 0.094315
Si Si7 0.210134 0.172633 0.715063
O O1 0.826011 0.783248 0.722560
O O2 0.000000 0.500000 0.500000
O O3 0.842520 0.611634 0.422998
O O4 0.200937 0.756224 0.459417
O O5 0.912939 0.465137 0.890310
O O6 0.718284 0.210285 0.762291
O O7 0.500000 0.500000 0.000000
O O8 0.484728 0.293941 0.054360
O O9 0.733555 0.352349 0.206381
O O10 0.708455 0.654104 0.277400
O O11 0.942738 0.804871 0.909400
O O12 0.008460 0.817570 0.115274
O O13 0.298917 0.979945 0.965272
O O14 0.588439 0.899933 0.321034
O O15 0.192991 0.048944 0.549030
#
# Coordination Sequence:
#
# PCOD9025295 Si02
#       7
#     2   2   2   2   2   2   2
#     4  11  21  40  65  95 126 173 207 267 319 390
#     4  11  20  40  65  97 120 175 215 260 310 395
#     4  11  24  40  70  93 133 162 224 269 315 369
#     4  11  21  38  65  99 124 171 209 273 309 384
#     4  10  22  40  68  89 122 171 223 250 323 392
#     4  11  21  38  68  91 133 164 222 247 330 382
#     4  11  22  41  66  96 123 170 217 272 313 382
#
# _framework density 25.366985
#
# number of rings (size 3 to 8) (size 9 to 14) (size 15 to 20)
#    0.000    1.143    5.714    1.286    0.000    2.286 
#    0.000    1.429    6.286    0.000    0.000    0.000 
#    0.000    0.000    0.000    0.000    0.000    0.000 
#
# Total GULP energy -78327.486577 kJ/mol
# GULP energy per Si atom -5594.820470 kJ/mol
# Density = 2.530925 g / cm^3
# Si number density = 25.366985 Si / 1000 Ang^3
#
#
#
# Elastic Constant Matrix: (Units=GPa)
#
#
# Indices 1 2 3 4 5 6 
#
# 1 78.9093 8.1063 35.1778 4.4925 15.4221 -3.6386
# 2 8.1063 111.3225 20.6745 17.1166 15.9964 -1.4151
# 3 35.1778 20.6745 116.2269 5.8084 22.9226 -3.7158
# 4 4.4925 17.1166 5.8084 54.7667 4.9230 -1.7748
# 5 15.4221 15.9964 22.9226 4.9230 32.2005 1.1451
# 6 -3.6386 -1.4151 -3.7158 -1.7748 1.1451 26.4948
#
#
#
# Elastic Compliance Matrix: (Units=1/GPa)
#
#
# Indices 1 2 3 4 5 6 
#
# 1 0.015336 0.000366 -0.003656 -0.000485 -0.004914 0.001793
# 2 0.000366 0.010151 -0.000949 -0.002715 -0.004144 0.000457
# 3 -0.003656 -0.000949 0.011040 -0.000024 -0.005677 0.001239
# 4 -0.000485 -0.002715 -0.000024 0.019312 -0.001395 0.001139
# 5 -0.004914 -0.004144 -0.005677 -0.001395 0.039846 -0.003508
# 6 0.001793 0.000457 0.001239 0.001139 -0.003508 0.038416
#
#
# Mechanical properties :
#
#
# Convention : Reuss Voigt Hill
#
# Bulk Modulus (GPa) = 35.65327 48.26400 41.95863
# Shear Modulus (GPa) = 32.91024 38.85908 35.88466
#
# Velocity S-wave (km/s) = 3.60580 3.91817 3.76522
# Velocity P-wave (km/s) = 5.60547 6.28784 5.95643
#
# Compressibility (1/GPa) = 0.02804792
#
# Stress axis : x y z
#
# Youngs Moduli (GPa) = 65.20761 98.51115 90.58304
#
# Poissons Ratio (x) = -0.03602 0.33117
# Poissons Ratio (y) = -0.02384 0.08595
# Poissons Ratio (z) = 0.23840 0.09347
#
# Static dielectric constant tensor:
#      x y z
#    x 2.130840 -0.006630 0.059320 
#    y -0.006630 2.016240 0.023840 
#    z 0.059320 0.023840 1.983800 
# 
# From -- ./inp_files/196582.got.cif
#   From: 2010.05.17/outbox.cif.g08.bks.cpg/sg2_99_cif.got.tgz:196582.got - 2010.06.03 11:33:40.
