data_PCOD9025992
_publ_section_title
;
Structure prediction by ZEFSAII (Michael W. Deem and Ramdas Pophale) SiO2 
 PCOD9025992
Probable space group: P -1
;
_chemical_formula_sum "Si O2"
_cell_formula_units_Z 16
_cell_length_a 8.651641
_cell_length_b 9.260425
_cell_length_c 14.517651
_cell_angle_alpha 84.143350
_cell_angle_beta 68.144186
_cell_angle_gamma 133.160738
_cell_volume 669.287422
_symmetry_space_group_name_H-M "P -1"
_symmetry_group_IT_number 2
_symmetry_cell_setting 'triclinic'
loop_
_space_group_symop_operation_xyz
x,y,z
-x,-y,-z
loop_
_atom_site_type_symbol
_atom_site_label
_atom_site_fract_x
_atom_site_fract_y
_atom_site_fract_z
Si Si1 0.988137 0.367191 0.147947
Si Si2 0.953467 0.793364 0.137955
Si Si3 0.989571 0.586081 0.274424
Si Si4 0.587714 0.669695 0.389208
Si Si5 0.629660 0.344921 0.122931
Si Si6 0.594333 0.905928 0.518125
Si Si7 0.001823 0.330177 0.528748
Si Si8 0.233578 0.231537 0.102119
O O1 0.050825 0.467438 0.230805
O O2 0.720526 0.268620 0.173019
O O3 0.010499 0.207710 0.156494
O O4 0.215060 0.574874 0.012722
O O5 0.102846 0.763582 0.157472
O O6 0.780665 0.745058 0.262926
O O7 0.771578 0.584434 0.120198
O O8 0.150155 0.057829 0.054091
O O9 0.664905 0.354553 0.368345
O O10 0.063627 0.709721 0.345741
O O11 0.500000 0.500000 0.500000
O O12 0.687359 0.876407 0.411777
O O13 0.300776 0.500661 0.419941
O O14 0.332891 0.200081 0.170058
O O15 0.500000 0.000000 0.500000
O O16 0.811066 0.089956 0.534404
O O17 0.000000 0.500000 0.500000
O O18 0.500000 0.500000 0.000000
#
# Coordination Sequence:
#
# PCOD9025992 Si02
#       8
#     2   2   2   2   2   2   2   2
#     4   9  20  41  67  92 130 167 221 275 322 404
#     4  11  23  42  65  94 136 169 220 281 326 405
#     4  10  22  41  60  94 133 174 221 268 332 395
#     4  11  23  43  59  95 130 171 218 269 325 387
#     4   9  21  44  65  94 131 173 216 277 346 382
#     4  11  22  40  63  90 137 171 213 277 317 390
#     4  11  22  39  64  91 130 176 217 265 328 388
#     4  10  23  42  66  98 129 171 225 277 335 397
#
# _framework density 23.906023000000001
#
# number of rings (size 3 to 8) (size 9 to 14) (size 15 to 20)
#    0.000    1.750    5.000    0.000    1.750    6.500 
#    0.000   20.625    0.000    0.000    0.000    0.000 
#    0.000    0.000    0.000    0.000    0.000    0.000 
#
# Total GULP energy -89100.268974 kJ/mol
# GULP energy per Si atom -5568.766811 kJ/mol
# Density = 2.385161 g / cm^3
# Si number density = 23.906023 Si / 1000 Ang^3
#
#
#
# Elastic Constant Matrix: (Units=GPa)
#
#
# Indices 1 2 3 4 5 6 
#
# 1 119.1187 33.6600 -4.2892 -5.8419 -10.7326 -7.1506
# 2 33.6600 188.4017 21.6287 14.5759 -5.7780 6.1884
# 3 -4.2892 21.6287 64.3848 18.8321 -3.5215 2.9216
# 4 -5.8419 14.5759 18.8321 42.4251 -8.3138 5.5529
# 5 -10.7326 -5.7780 -3.5215 -8.3138 23.5683 5.0314
# 6 -7.1506 6.1884 2.9216 5.5529 5.0314 43.5990
#
#
#
# Elastic Compliance Matrix: (Units=1/GPa)
#
#
# Indices 1 2 3 4 5 6 
#
# 1 0.009544 -0.001868 0.000773 0.002402 0.004651 0.000936
# 2 -0.001868 0.005974 -0.001666 -0.001450 0.000038 -0.000862
# 3 0.000773 -0.001666 0.018322 -0.007459 0.000033 0.000082
# 4 0.002402 -0.001450 -0.007459 0.030445 0.011233 -0.004074
# 5 0.004651 0.000038 0.000033 0.011233 0.049898 -0.006434
# 6 0.000936 -0.000862 0.000082 -0.004074 -0.006434 0.024468
#
#
# Mechanical properties :
#
#
# Convention : Reuss Voigt Hill
#
# Bulk Modulus (GPa) = 35.31313 52.65603 43.98458
# Shear Modulus (GPa) = 32.54916 43.31218 37.93067
#
# Velocity S-wave (km/s) = 3.69392 4.26111 3.98761
# Velocity P-wave (km/s) = 5.74431 6.80319 6.29605
#
# Compressibility (1/GPa) = 0.02831808
#
# Stress axis : x y z
#
# Youngs Moduli (GPa) = 104.78227 167.38011 54.57787
#
# Poissons Ratio (x) = 0.31261 -0.04217
# Poissons Ratio (y) = 0.19570 0.09093
# Poissons Ratio (z) = -0.08095 0.27887
#
# Static dielectric constant tensor:
#      x y z
#    x 2.020690 -0.117990 -0.061400 
#    y -0.117990 1.443970 -0.395210 
#    z -0.061400 -0.395210 1.587710 
# 
# From -- ./inp_files/557241.got.cif
#   From: 2010.05.17/outbox.cif.g08.bks.cpg/sg2_279_cif.got.tgz:557241.got - 2010.06.03 11:33:40.
