data_PCOD9025494
_publ_section_title
;
Structure prediction by ZEFSAII (Michael W. Deem and Ramdas Pophale) SiO2 
 PCOD9025494
Probable space group: P -1
;
_chemical_formula_sum "Si O2"
_cell_formula_units_Z 13
_cell_length_a 9.202116
_cell_length_b 19.571705
_cell_length_c 13.319777
_cell_angle_alpha 22.124358
_cell_angle_beta 49.197214
_cell_angle_gamma 37.418552
_cell_volume 512.266976
_symmetry_space_group_name_H-M "P -1"
_symmetry_group_IT_number 2
_symmetry_cell_setting 'triclinic'
loop_
_space_group_symop_operation_xyz
x,y,z
-x,-y,-z
loop_
_atom_site_type_symbol
_atom_site_label
_atom_site_fract_x
_atom_site_fract_y
_atom_site_fract_z
Si Si1 0.174051 0.522173 0.959837
Si Si2 0.000000 0.000000 0.500000
Si Si3 0.828734 0.189331 0.574809
Si Si4 0.693840 0.595951 0.401998
Si Si5 0.936278 0.849611 0.286211
Si Si6 0.956787 0.301995 0.885563
Si Si7 0.420384 0.239202 0.427105
O O1 0.028994 0.764083 0.763057
O O2 0.307510 0.567914 0.755537
O O3 0.353081 0.303432 0.252896
O O4 0.000000 0.500000 0.000000
O O5 0.306373 0.846042 0.561822
O O6 0.606478 0.237258 0.675537
O O7 0.042208 0.131571 0.631043
O O8 0.974623 0.944487 0.776934
O O9 0.839777 0.398690 0.695826
O O10 0.824832 0.430347 0.470078
O O11 0.782189 0.747094 0.164818
O O12 0.674107 0.905861 0.302892
O O13 0.000000 0.000000 0.000000
O O14 0.766942 0.518006 0.752449
#
# Coordination Sequence:
#
# PCOD9025494 Si02
#       7
#     2   1   2   2   2   2   2
#     4  12  27  49  76 113 153 203 255 320 384 464
#     4  12  28  52  82 108 154 208 260 326 370 456
#     4  12  23  43  73 107 146 199 246 312 390 456
#     4  10  22  40  69 106 147 192 248 308 384 458
#     4  11  23  46  73 109 153 193 246 322 379 459
#     4  10  22  43  71 104 148 193 252 315 375 463
#     4  11  26  52  75 111 154 199 262 312 388 455
#
# _framework density 25.377390999999999
#
# number of rings (size 3 to 8) (size 9 to 14) (size 15 to 20)
#    0.000    0.923    3.077    3.231    0.000    3.077 
#   11.077    0.000    0.000    0.000    0.000    0.000 
#    0.000    0.000    0.000    0.000    0.000    0.000 
#
# Total GULP energy -72538.326640 kJ/mol
# GULP energy per Si atom -5579.871280 kJ/mol
# Density = 2.531963 g / cm^3
# Si number density = 25.377391 Si / 1000 Ang^3
#
#
#
# Elastic Constant Matrix: (Units=GPa)
#
#
# Indices 1 2 3 4 5 6 
#
# 1 173.2386 50.7186 45.8960 -2.4849 -23.5600 -15.4936
# 2 50.7186 87.3181 18.4771 1.4046 -19.5717 -42.8860
# 3 45.8960 18.4771 96.8882 28.6167 -21.7275 -7.8821
# 4 -2.4849 1.4046 28.6167 33.9957 9.9801 -1.2947
# 5 -23.5600 -19.5717 -21.7275 9.9801 37.6299 10.4504
# 6 -15.4936 -42.8860 -7.8821 -1.2947 10.4504 43.6036
#
#
#
# Elastic Compliance Matrix: (Units=1/GPa)
#
#
# Indices 1 2 3 4 5 6 
#
# 1 0.008384 -0.005655 -0.004898 0.005157 -0.001036 -0.003067
# 2 -0.005655 0.027455 0.002122 -0.004353 0.006543 0.023680
# 3 -0.004898 0.002122 0.024440 -0.026750 0.019434 -0.000687
# 4 0.005157 -0.004353 -0.026750 0.061802 -0.031452 0.002089
# 5 -0.001036 0.006543 0.019434 -0.031452 0.049805 -0.003291
# 6 -0.003067 0.023680 -0.000687 0.002089 -0.003291 0.045861
#
#
# Mechanical properties :
#
#
# Convention : Reuss Voigt Hill
#
# Bulk Modulus (GPa) = 23.03247 65.29203 44.16225
# Shear Modulus (GPa) = 20.07372 39.20271 29.63822
#
# Velocity S-wave (km/s) = 2.81554 3.93464 3.42116
# Velocity P-wave (km/s) = 4.43456 6.81368 5.74854
#
# Compressibility (1/GPa) = 0.04341696
#
# Stress axis : x y z
#
# Youngs Moduli (GPa) = 119.26784 36.42363 40.91686
#
# Poissons Ratio (x) = 0.20597 0.20043
# Poissons Ratio (y) = 0.67445 -0.08684
# Poissons Ratio (z) = 0.58422 -0.07730
#
# Static dielectric constant tensor:
#      x y z
#    x 3.008000 3.407010 2.685490 
#    y 3.407010 12.053030 8.184290 
#    z 2.685490 8.184290 8.556050 
# 
# From -- ./inp_files/293802.got.cif
#   From: 2010.05.17/outbox.cif.g08.bks.cpg/sg2_147_cif.got.tgz:293802.got - 2010.06.03 11:33:40.
