data_PCOD9025472
_publ_section_title
;
Structure prediction by ZEFSAII (Michael W. Deem and Ramdas Pophale) SiO2 
 PCOD9025472
Probable space group: P -1
;
_chemical_formula_sum "Si O2"
_cell_formula_units_Z 14
_cell_length_a 13.939770
_cell_length_b 8.441369
_cell_length_c 10.012447
_cell_angle_alpha 106.852349
_cell_angle_beta 32.822375
_cell_angle_gamma 118.256525
_cell_volume 547.950703
_symmetry_space_group_name_H-M "P -1"
_symmetry_group_IT_number 2
_symmetry_cell_setting 'triclinic'
loop_
_space_group_symop_operation_xyz
x,y,z
-x,-y,-z
loop_
_atom_site_type_symbol
_atom_site_label
_atom_site_fract_x
_atom_site_fract_y
_atom_site_fract_z
Si Si1 0.915076 0.583962 0.505417
Si Si2 0.353409 0.452228 0.965345
Si Si3 0.171304 0.148622 0.926014
Si Si4 0.967567 0.866411 0.305419
Si Si5 0.440091 0.112016 0.202145
Si Si6 0.244748 0.539427 0.602700
Si Si7 0.545809 0.161165 0.381937
O O1 0.733264 0.599049 0.797577
O O2 0.856739 0.446858 0.413166
O O3 0.000000 0.500000 0.500000
O O4 0.020297 0.784173 0.357724
O O5 0.187186 0.333734 0.021992
O O6 0.537563 0.415468 0.697858
O O7 0.432414 0.669733 0.915245
O O8 0.148832 0.023088 0.054481
O O9 0.000000 0.000000 0.000000
O O10 0.865814 0.678095 0.290476
O O11 0.790678 0.927567 0.543633
O O12 0.735007 0.334971 0.262572
O O13 0.514760 0.083956 0.252255
O O14 0.500000 0.000000 0.000000
O O15 0.635423 0.787431 0.374541
O O16 0.500000 0.000000 0.500000
#
# Coordination Sequence:
#
# PCOD9025472 Si02
#       7
#     2   2   2   2   2   2   2
#     4  10  22  40  69 103 143 184 236 297 364 426
#     4  10  23  39  69  99 139 188 235 288 362 424
#     4  11  23  43  72 100 142 190 238 293 365 423
#     4   9  22  43  72 100 139 188 238 297 351 431
#     4  11  25  42  72 106 144 188 244 296 360 436
#     4   8  21  42  69  94 137 184 244 285 357 418
#     4  11  25  42  69 103 141 187 243 295 353 429
#
# _framework density 25.549745999999999
#
# number of rings (size 3 to 8) (size 9 to 14) (size 15 to 20)
#    0.857    1.143    1.429    0.429    4.000    6.857 
#    0.000    0.714    0.000    0.000    0.000    0.000 
#    0.000    0.000    0.000    0.000    0.000    0.000 
#
# Total GULP energy -78134.547187 kJ/mol
# GULP energy per Si atom -5581.039085 kJ/mol
# Density = 2.549159 g / cm^3
# Si number density = 25.549746 Si / 1000 Ang^3
#
#
#
# Elastic Constant Matrix: (Units=GPa)
#
#
# Indices 1 2 3 4 5 6 
#
# 1 152.1313 40.2897 48.7706 27.1049 25.6769 -1.9757
# 2 40.2897 83.6873 26.1190 21.4294 12.7858 23.4526
# 3 48.7706 26.1190 117.0055 10.6000 9.1195 5.9350
# 4 27.1049 21.4294 10.6000 40.1449 5.0839 15.4719
# 5 25.6769 12.7858 9.1195 5.0839 47.2921 2.0979
# 6 -1.9757 23.4526 5.9350 15.4719 2.0979 42.3886
#
#
#
# Elastic Compliance Matrix: (Units=1/GPa)
#
#
# Indices 1 2 3 4 5 6 
#
# 1 0.010084 -0.003323 -0.002913 -0.005729 -0.003620 0.004986
# 2 -0.003323 0.017520 -0.001664 -0.003212 -0.001896 -0.008349
# 3 -0.002913 -0.001664 0.010124 0.000487 0.000063 -0.000814
# 4 -0.005729 -0.003212 0.000487 0.034604 0.000662 -0.011222
# 5 -0.003620 -0.001896 0.000063 0.000662 0.023564 -0.000536
# 6 0.004986 -0.008349 -0.000814 -0.011222 -0.000536 0.032680
#
#
# Mechanical properties :
#
#
# Convention : Reuss Voigt Hill
#
# Bulk Modulus (GPa) = 45.60204 64.79810 55.20007
# Shear Modulus (GPa) = 32.96314 41.80811 37.38562
#
# Velocity S-wave (km/s) = 3.59577 4.04956 3.82939
# Velocity P-wave (km/s) = 5.92676 6.87618 6.41905
#
# Compressibility (1/GPa) = 0.02192884
#
# Stress axis : x y z
#
# Youngs Moduli (GPa) = 99.17122 57.07741 98.77040
#
# Poissons Ratio (x) = 0.18966 0.28773
# Poissons Ratio (y) = 0.32952 0.16433
# Poissons Ratio (z) = 0.28890 0.09496
#
# Static dielectric constant tensor:
#      x y z
#    x 2.176550 -0.020820 0.030480 
#    y -0.020820 2.061270 -0.090570 
#    z 0.030480 -0.090570 2.301490 
# 
# From -- ./inp_files/244890.got.cif
#   From: 2010.05.17/outbox.cif.g08.bks.cpg/sg2_123_cif.got.tgz:244890.got - 2010.06.03 11:33:40.
