data_PCOD9025307
_publ_section_title
;
Structure prediction by ZEFSAII (Michael W. Deem and Ramdas Pophale) SiO2 
 PCOD9025307
Probable space group: P -1
;
_chemical_formula_sum "Si O2"
_cell_formula_units_Z 14
_cell_length_a 8.855551
_cell_length_b 13.192958
_cell_length_c 13.448021
_cell_angle_alpha 138.056130
_cell_angle_beta 32.857490
_cell_angle_gamma 130.755099
_cell_volume 568.060766
_symmetry_space_group_name_H-M "P -1"
_symmetry_group_IT_number 2
_symmetry_cell_setting 'triclinic'
loop_
_space_group_symop_operation_xyz
x,y,z
-x,-y,-z
loop_
_atom_site_type_symbol
_atom_site_label
_atom_site_fract_x
_atom_site_fract_y
_atom_site_fract_z
Si Si1 0.791272 0.677108 0.182697
Si Si2 0.355660 0.013748 0.485881
Si Si3 0.368310 0.240374 0.122258
Si Si4 0.309251 0.510841 0.208400
Si Si5 0.681625 0.469927 0.277446
Si Si6 0.049921 0.245447 0.470636
Si Si7 0.319984 0.044769 0.323493
O O1 0.856835 0.856982 0.281492
O O2 0.486845 0.626872 0.269164
O O3 0.778331 0.614033 0.257435
O O4 0.020901 0.604171 0.933274
O O5 0.500000 0.000000 0.500000
O O6 0.493541 0.077946 0.353670
O O7 0.235331 0.844199 0.400657
O O8 0.286836 0.348134 0.156583
O O9 0.512921 0.355198 0.209438
O O10 0.099315 0.175361 0.283927
O O11 0.554159 0.102962 0.898704
O O12 0.027658 0.583507 0.382520
O O13 0.500000 0.500000 0.000000
O O14 0.500000 0.500000 0.500000
O O15 0.283478 0.183848 0.369733
O O16 0.000000 0.000000 0.500000
#
# Coordination Sequence:
#
# PCOD9025307 Si02
#       7
#     2   2   2   2   2   2   2
#     4  10  23  42  65  98 134 174 226 273 340 404
#     4  11  22  43  66  94 132 175 223 268 339 404
#     4  11  24  42  65 102 131 168 231 278 338 401
#     4  11  23  41  68  93 130 180 221 270 338 407
#     4  10  23  42  69  98 134 174 221 285 336 398
#     4  11  23  41  67  96 132 170 219 282 330 403
#     4  10  22  40  68  91 128 179 219 265 329 404
#
# _framework density 24.645253
#
# number of rings (size 3 to 8) (size 9 to 14) (size 15 to 20)
#    0.000    1.429    1.429    4.286    4.000    1.143 
#    0.000    0.714    0.000    0.000    0.000    0.000 
#    0.000    0.000    0.000    0.000    0.000    0.000 
#
# Total GULP energy -78031.324710 kJ/mol
# GULP energy per Si atom -5573.666051 kJ/mol
# Density = 2.458916 g / cm^3
# Si number density = 24.645253 Si / 1000 Ang^3
#
#
#
# Elastic Constant Matrix: (Units=GPa)
#
#
# Indices 1 2 3 4 5 6 
#
# 1 126.4542 44.7124 56.2407 16.9455 2.5263 -51.2883
# 2 44.7124 99.2977 45.6022 12.1093 -7.9582 -46.0058
# 3 56.2407 45.6022 190.2845 11.6805 -4.0431 -39.5078
# 4 16.9455 12.1093 11.6805 42.7015 -9.5078 0.4342
# 5 2.5263 -7.9582 -4.0431 -9.5078 38.5135 1.1170
# 6 -51.2883 -46.0058 -39.5078 0.4342 1.1170 54.7852
#
#
#
# Elastic Compliance Matrix: (Units=1/GPa)
#
#
# Indices 1 2 3 4 5 6 
#
# 1 0.014633 0.000880 -0.001388 -0.006463 -0.002912 0.013548
# 2 0.000880 0.017900 -0.001081 -0.004862 0.001890 0.015076
# 3 -0.001388 -0.001081 0.006500 -0.000888 0.000259 0.002482
# 4 -0.006463 -0.004862 -0.000888 0.029248 0.006870 -0.011146
# 5 -0.002912 0.001890 0.000259 0.006870 0.028316 -0.001584
# 6 0.013548 0.015076 0.002482 -0.011146 -0.001584 0.045506
#
#
# Mechanical properties :
#
#
# Convention : Reuss Voigt Hill
#
# Bulk Modulus (GPa) = 27.89041 78.79412 53.34227
# Shear Modulus (GPa) = 31.79980 45.16542 38.48261
#
# Velocity S-wave (km/s) = 3.59597 4.28556 3.95582
# Velocity P-wave (km/s) = 5.34628 7.51856 6.52347
#
# Compressibility (1/GPa) = 0.03585462
#
# Stress axis : x y z
#
# Youngs Moduli (GPa) = 68.33703 55.86514 153.84696
#
# Poissons Ratio (x) = -0.04916 0.21357
# Poissons Ratio (y) = -0.06013 0.16634
# Poissons Ratio (z) = 0.09487 0.06040
#
# Static dielectric constant tensor:
#      x y z
#    x 2.144940 0.142540 -0.043140 
#    y 0.142540 2.234140 -0.107740 
#    z -0.043140 -0.107740 2.006660 
# 
# From -- ./inp_files/392943.got.cif
#   From: 2010.05.17/outbox.cif.g08.bks.cpg/sg2_197_cif.got.tgz:392943.got - 2010.06.03 11:33:40.
