data_PCOD9025937
_publ_section_title
;
Structure prediction by ZEFSAII (Michael W. Deem and Ramdas Pophale) SiO2 
 PCOD9025937
Probable space group: P -1
;
_chemical_formula_sum "Si O2"
_cell_formula_units_Z 16
_cell_length_a 15.969202
_cell_length_b 10.631702
_cell_length_c 7.516130
_cell_angle_alpha 46.532922
_cell_angle_beta 66.904937
_cell_angle_gamma 90.712983
_cell_volume 772.011481
_symmetry_space_group_name_H-M "P -1"
_symmetry_group_IT_number 2
_symmetry_cell_setting 'triclinic'
loop_
_space_group_symop_operation_xyz
x,y,z
-x,-y,-z
loop_
_atom_site_type_symbol
_atom_site_label
_atom_site_fract_x
_atom_site_fract_y
_atom_site_fract_z
Si Si1 0.898461 0.980146 0.697127
Si Si2 0.845966 0.826461 0.268259
Si Si3 0.249939 0.130686 0.366376
Si Si4 0.376407 0.381769 0.313231
Si Si5 0.466484 0.775655 0.698618
Si Si6 0.262986 0.744053 0.765124
Si Si7 0.889154 0.384780 0.282128
Si Si8 0.888033 0.480573 0.589269
O O1 0.803759 0.841132 0.791433
O O2 0.883621 0.174182 0.516094
O O3 0.903415 0.931476 0.945445
O O4 0.000000 0.000000 0.500000
O O5 0.834718 0.942178 0.334170
O O6 0.730499 0.704326 0.417879
O O7 0.886020 0.678828 0.452655
O O8 0.337551 0.312674 0.208884
O O9 0.286113 0.962625 0.485997
O O10 0.445146 0.272158 0.412639
O O11 0.430548 0.611451 0.044099
O O12 0.366101 0.725326 0.718005
O O13 0.500000 0.000000 0.500000
O O14 0.190249 0.617889 0.794855
O O15 0.197741 0.679113 0.065123
O O16 0.868637 0.454448 0.420556
O O17 0.000000 0.500000 0.000000
O O18 0.000000 0.500000 0.500000
#
# Coordination Sequence:
#
# PCOD9025937 Si02
#       8
#     2   2   2   2   2   2   2   2
#     4  11  24  37  63  90 125 168 210 265 312 377
#     4  10  22  41  58  89 127 162 210 260 315 379
#     4   9  21  40  61  89 123 166 211 258 325 370
#     4   9  21  38  63  96 122 166 215 263 320 387
#     4  11  19  37  70  95 125 167 215 264 328 380
#     4  11  21  41  64  92 125 167 207 271 313 380
#     4  11  24  40  59  92 127 164 217 251 314 388
#     4  12  24  37  64  89 126 172 207 256 319 384
#
# _framework density 20.725080999999999
#
# number of rings (size 3 to 8) (size 9 to 14) (size 15 to 20)
#    0.750    0.750    3.750    1.500    3.500    3.500 
#    0.000    0.000    2.750    4.500    0.000    0.000 
#    0.000    0.000    0.000    0.000    0.000    0.000 
#
# Total GULP energy -89181.922766 kJ/mol
# GULP energy per Si atom -5573.870173 kJ/mol
# Density = 2.067791 g / cm^3
# Si number density = 20.725081 Si / 1000 Ang^3
#
#
#
# Elastic Constant Matrix: (Units=GPa)
#
#
# Indices 1 2 3 4 5 6 
#
# 1 119.0016 23.1662 -2.6697 -11.7695 -12.5620 -21.2340
# 2 23.1662 53.5135 2.6694 -11.6064 6.8728 -6.3705
# 3 -2.6697 2.6694 39.6892 -14.0974 -2.9636 -0.8327
# 4 -11.7695 -11.6064 -14.0974 32.7260 -3.9339 7.8900
# 5 -12.5620 6.8728 -2.9636 -3.9339 26.8507 -0.5196
# 6 -21.2340 -6.3705 -0.8327 7.8900 -0.5196 44.9126
#
#
#
# Elastic Compliance Matrix: (Units=1/GPa)
#
#
# Indices 1 2 3 4 5 6 
#
# 1 0.011264 -0.004709 0.002974 0.003545 0.007404 0.004175
# 2 -0.004709 0.022842 -0.000515 0.005307 -0.007330 -0.000013
# 3 0.002974 -0.000515 0.031456 0.015482 0.007250 -0.000720
# 4 0.003545 0.005307 0.015482 0.042484 0.008143 -0.004653
# 5 0.007404 -0.007330 0.007250 0.008143 0.044609 0.001681
# 6 0.004175 -0.000013 -0.000720 -0.004653 0.001681 0.025061
#
#
# Mechanical properties :
#
#
# Convention : Reuss Voigt Hill
#
# Bulk Modulus (GPa) = 16.37725 28.72622 22.55174
# Shear Modulus (GPa) = 24.68270 33.50040 29.09155
#
# Velocity S-wave (km/s) = 3.45477 4.02483 3.75065
# Velocity P-wave (km/s) = 4.88193 5.95733 5.44623
#
# Compressibility (1/GPa) = 0.06106031
#
# Stress axis : x y z
#
# Youngs Moduli (GPa) = 88.77860 43.77861 31.79059
#
# Poissons Ratio (x) = 0.20617 -0.09455
# Poissons Ratio (y) = 0.41810 0.01639
# Poissons Ratio (z) = -0.26403 0.02257
#
# Static dielectric constant tensor:
#      x y z
#    x 1.759960 0.014430 -0.025190 
#    y 0.014430 1.747780 -0.054380 
#    z -0.025190 -0.054380 1.762320 
# 
# From -- ./inp_files/304522.got.cif
#   From: 2010.05.17/outbox.cif.g08.bks.cpg/sg2_153_cif.got.tgz:304522.got - 2010.06.03 11:33:40.
