data_PCOD9025778
_publ_section_title
;
Structure prediction by ZEFSAII (Michael W. Deem and Ramdas Pophale) SiO2 
 PCOD9025778
Probable space group: P -1
;
_chemical_formula_sum "Si O2"
_cell_formula_units_Z 15
_cell_length_a 9.602170
_cell_length_b 10.098623
_cell_length_c 8.676773
_cell_angle_alpha 131.069406
_cell_angle_beta 74.694342
_cell_angle_gamma 104.043024
_cell_volume 609.047173
_symmetry_space_group_name_H-M "P -1"
_symmetry_group_IT_number 2
_symmetry_cell_setting 'triclinic'
loop_
_space_group_symop_operation_xyz
x,y,z
-x,-y,-z
loop_
_atom_site_type_symbol
_atom_site_label
_atom_site_fract_x
_atom_site_fract_y
_atom_site_fract_z
Si Si1 0.840985 0.655835 0.017878
Si Si2 0.439654 0.280624 0.446446
Si Si3 0.000000 0.000000 0.000000
Si Si4 0.128395 0.828433 0.114784
Si Si5 0.640002 0.404341 0.079891
Si Si6 0.649025 0.773396 0.920477
Si Si7 0.251383 0.016300 0.504319
Si Si8 0.281431 0.850118 0.682029
O O1 0.743648 0.486416 0.976584
O O2 0.804929 0.821623 0.260634
O O3 0.011794 0.659437 0.991961
O O4 0.800755 0.719144 0.905681
O O5 0.378010 0.442774 0.675347
O O6 0.383528 0.263283 0.275386
O O7 0.376738 0.107972 0.428443
O O8 0.614635 0.299256 0.421528
O O9 0.113418 0.859012 0.781786
O O10 0.078235 0.972050 0.121865
O O11 0.137522 0.910360 0.344375
O O12 0.283850 0.756566 0.991603
O O13 0.478521 0.331773 0.023576
O O14 0.647761 0.976986 0.116106
O O15 0.298692 0.886768 0.522750
#
# Coordination Sequence:
#
# PCOD9025778 Si02
#       8
#     2   2   1   2   2   2   2   2
#     4  10  23  42  66  97 138 172 227 267 332 399
#     4  11  23  42  68  99 138 172 222 276 332 394
#     4  12  24  40  70  96 136 164 222 272 336 380
#     4  12  23  44  67 101 135 176 219 274 334 394
#     4  11  25  42  67  94 140 181 217 270 329 403
#     4  11  21  42  66  97 128 175 224 274 329 383
#     4  10  22  40  71  98 131 174 227 275 328 388
#     4  11  23  42  67 103 131 173 226 278 328 391
#
# _framework density 24.628634000000002
#
# number of rings (size 3 to 8) (size 9 to 14) (size 15 to 20)
#    0.000    1.067    2.667    4.800    0.000    3.200 
#    0.000    0.667    0.000    0.000    0.000    0.000 
#    0.000    0.000    0.000    0.000    0.000    0.000 
#
# Total GULP energy -83675.044539 kJ/mol
# GULP energy per Si atom -5578.336303 kJ/mol
# Density = 2.457258 g / cm^3
# Si number density = 24.628634 Si / 1000 Ang^3
#
#
#
# Elastic Constant Matrix: (Units=GPa)
#
#
# Indices 1 2 3 4 5 6 
#
# 1 123.8433 20.8360 40.5086 -2.6414 0.2091 -26.2856
# 2 20.8360 71.9165 37.4510 -20.6331 5.2805 -8.5161
# 3 40.5086 37.4510 84.1084 -8.3667 4.8182 -21.7225
# 4 -2.6414 -20.6331 -8.3667 30.9028 -3.3379 3.7072
# 5 0.2091 5.2805 4.8182 -3.3379 32.6945 -6.5620
# 6 -26.2856 -8.5161 -21.7225 3.7072 -6.5620 45.3119
#
#
#
# Elastic Compliance Matrix: (Units=1/GPa)
#
#
# Indices 1 2 3 4 5 6 
#
# 1 0.010320 -0.001048 -0.003569 -0.001159 0.001389 0.004375
# 2 -0.001048 0.022071 -0.008455 0.012415 -0.001392 -0.001730
# 3 -0.003569 -0.008455 0.018617 -0.001598 -0.000448 0.005331
# 4 -0.001159 0.012415 -0.001598 0.040585 0.001951 -0.002143
# 5 0.001389 -0.001392 -0.000448 0.001951 0.032032 0.004809
# 6 0.004375 -0.001730 0.005331 -0.002143 0.004809 0.027709
#
#
# Mechanical properties :
#
#
# Convention : Reuss Voigt Hill
#
# Bulk Modulus (GPa) = 40.21861 53.05103 46.63482
# Shear Modulus (GPa) = 26.91582 33.85335 30.38459
#
# Velocity S-wave (km/s) = 3.30944 3.71152 3.51623
# Velocity P-wave (km/s) = 5.56495 6.32094 5.95495
#
# Compressibility (1/GPa) = 0.02486411
#
# Stress axis : x y z
#
# Youngs Moduli (GPa) = 96.90136 45.30900 53.71568
#
# Poissons Ratio (x) = 0.04748 0.19169
# Poissons Ratio (y) = 0.10154 0.45417
# Poissons Ratio (z) = 0.34581 0.38309
#
# Static dielectric constant tensor:
#      x y z
#    x 1.922130 -0.212720 -0.107480 
#    y -0.212720 0.510280 -0.443350 
#    z -0.107480 -0.443350 1.792960 
# 
# From -- ./inp_files/154046.got.cif
#   From: 2010.05.17/outbox.cif.g08.bks.cpg/sg2_78_cif.got.tgz:154046.got - 2010.06.03 11:33:40.
