data_PCOD9025180
_publ_section_title
;
Structure prediction by ZEFSAII (Michael W. Deem and Ramdas Pophale) SiO2 
 PCOD9025180
Probable space group: P -1
;
_chemical_formula_sum "Si O2"
_cell_formula_units_Z 14
_cell_length_a 7.632423
_cell_length_b 8.994511
_cell_length_c 17.395442
_cell_angle_alpha 51.623075
_cell_angle_beta 143.841523
_cell_angle_gamma 115.517329
_cell_volume 545.918716
_symmetry_space_group_name_H-M "P -1"
_symmetry_group_IT_number 2
_symmetry_cell_setting 'triclinic'
loop_
_space_group_symop_operation_xyz
x,y,z
-x,-y,-z
loop_
_atom_site_type_symbol
_atom_site_label
_atom_site_fract_x
_atom_site_fract_y
_atom_site_fract_z
Si Si1 0.334565 0.711821 0.389095
Si Si2 0.533945 0.351375 0.220112
Si Si3 0.080381 0.258487 0.340147
Si Si4 0.791036 0.633383 0.323506
Si Si5 0.685072 0.063793 0.147074
Si Si6 0.840342 0.656173 0.054551
Si Si7 0.937538 0.910401 0.876026
O O1 0.500000 0.500000 0.500000
O O2 0.571586 0.797311 0.500046
O O3 0.028453 0.679513 0.329672
O O4 0.233942 0.875015 0.238342
O O5 0.868294 0.259241 0.340806
O O6 0.563738 0.509482 0.243084
O O7 0.373298 0.428144 0.058291
O O8 0.315236 0.203609 0.215371
O O9 0.943062 0.129540 0.271128
O O10 0.028534 0.477829 0.220286
O O11 0.000000 0.500000 0.500000
O O12 0.658971 0.847676 0.232794
O O13 0.380870 0.204722 0.013498
O O14 0.796577 0.083130 0.092725
O O15 0.009044 0.790183 0.017162
#
# Coordination Sequence:
#
# PCOD9025180 Si02
#       7
#     2   2   2   2   2   2   2
#     4  11  24  41  66  92 134 169 218 275 331 379
#     4   9  20  41  66  91 133 166 221 266 323 390
#     4  11  22  42  69  97 130 179 217 271 328 403
#     4  11  25  39  64 103 133 171 223 273 335 384
#     4  10  22  40  67  97 130 171 222 273 318 391
#     4   9  22  44  70  95 130 178 225 258 336 394
#     4   9  23  40  68  97 127 175 222 265 333 383
#
# _framework density 25.644843000000002
#
# number of rings (size 3 to 8) (size 9 to 14) (size 15 to 20)
#    0.857    1.143    1.429    1.714    6.000    2.286 
#    0.000    3.571    0.000    0.000    0.000    0.000 
#    0.000    0.000    0.000    0.000    0.000    0.000 
#
# Total GULP energy -78365.136354 kJ/mol
# GULP energy per Si atom -5597.509740 kJ/mol
# Density = 2.558647 g / cm^3
# Si number density = 25.644843 Si / 1000 Ang^3
#
#
#
# Elastic Constant Matrix: (Units=GPa)
#
#
# Indices 1 2 3 4 5 6 
#
# 1 108.0728 55.7913 34.2011 -19.9354 -8.3976 9.8103
# 2 55.7913 152.7337 83.5037 -8.5332 -3.1383 10.5804
# 3 34.2011 83.5037 119.1461 -10.0987 -11.7541 3.0426
# 4 -19.9354 -8.5332 -10.0987 43.4695 0.8877 -0.4764
# 5 -8.3976 -3.1383 -11.7541 0.8877 24.4594 2.4727
# 6 9.8103 10.5804 3.0426 -0.4764 2.4727 39.5502
#
#
#
# Elastic Compliance Matrix: (Units=1/GPa)
#
#
# Indices 1 2 3 4 5 6 
#
# 1 0.012834 -0.004273 0.000184 0.004984 0.003992 -0.002244
# 2 -0.004273 0.012354 -0.007847 -0.001302 -0.003460 -0.001441
# 3 0.000184 -0.007847 0.014563 0.001813 0.005930 0.000584
# 4 0.004984 -0.001302 0.001813 0.025414 0.001575 -0.000820
# 5 0.003992 -0.003460 0.005930 0.001575 0.044938 -0.003312
# 6 -0.002244 -0.001441 0.000584 -0.000820 -0.003312 0.026379
#
#
# Mechanical properties :
#
#
# Convention : Reuss Voigt Hill
#
# Bulk Modulus (GPa) = 62.97039 80.77163 71.87101
# Shear Modulus (GPa) = 30.18470 35.25958 32.72214
#
# Velocity S-wave (km/s) = 3.43451 3.71201 3.57595
# Velocity P-wave (km/s) = 6.35105 7.06659 6.71835
#
# Compressibility (1/GPa) = 0.01588048
#
# Stress axis : x y z
#
# Youngs Moduli (GPa) = 77.91988 80.94450 68.66527
#
# Poissons Ratio (x) = 0.34585 -0.01265
# Poissons Ratio (y) = 0.33293 0.53881
# Poissons Ratio (z) = -0.01435 0.63516
#
# Static dielectric constant tensor:
#      x y z
#    x 2.005980 -0.033560 0.013730 
#    y -0.033560 2.101720 -0.021890 
#    z 0.013730 -0.021890 2.032740 
# 
# From -- ./inp_files/586629.got.cif
#   From: 2010.05.17/outbox.cif.g08.bks.cpg/sg2_294_cif.got.tgz:586629.got - 2010.06.03 11:33:40.
