data_PCOD9025318
_publ_section_title
;
Structure prediction by ZEFSAII (Michael W. Deem and Ramdas Pophale) SiO2 
 PCOD9025318
Probable space group: P -1
;
_chemical_formula_sum "Si O2"
_cell_formula_units_Z 16
_cell_length_a 6.276756
_cell_length_b 9.402884
_cell_length_c 30.224808
_cell_angle_alpha 143.189291
_cell_angle_beta 58.453828
_cell_angle_gamma 98.008703
_cell_volume 762.255911
_symmetry_space_group_name_H-M "P -1"
_symmetry_group_IT_number 2
_symmetry_cell_setting 'triclinic'
loop_
_space_group_symop_operation_xyz
x,y,z
-x,-y,-z
loop_
_atom_site_type_symbol
_atom_site_label
_atom_site_fract_x
_atom_site_fract_y
_atom_site_fract_z
Si Si1 0.097646 0.206453 0.556503
Si Si2 0.233544 0.757283 0.775010
Si Si3 0.445261 0.710683 0.019504
Si Si4 0.262680 0.396636 0.383353
Si Si5 0.683841 0.102605 0.107463
Si Si6 0.805788 0.268922 0.436746
Si Si7 0.396684 0.784359 0.948654
Si Si8 0.212040 0.205404 0.640841
O O1 0.031202 0.271367 0.631372
O O2 0.939262 0.456848 0.601420
O O3 0.448952 0.041787 0.469683
O O4 0.000000 0.000000 0.500000
O O5 0.408248 0.738959 0.706863
O O6 0.401474 0.780319 0.804836
O O7 0.214729 0.485042 0.719088
O O8 0.900177 0.030599 0.876970
O O9 0.633528 0.850085 0.042857
O O10 0.500000 0.500000 0.000000
O O11 0.503579 0.591780 0.933042
O O12 0.233157 0.607406 0.478147
O O13 0.110964 0.237734 0.379396
O O14 0.524423 0.313103 0.135219
O O15 0.037637 0.968954 0.034006
O O16 0.500000 0.500000 0.500000
O O17 0.859782 0.957249 0.355600
O O18 0.500000 0.000000 0.000000
#
# Coordination Sequence:
#
# PCOD9025318 Si02
#       8
#     2   2   2   2   2   2   2   2
#     4  11  19  36  64  89 115 170 218 254 309 381
#     4  11  24  37  65  95 126 162 222 267 312 378
#     4  10  22  40  68  93 124 165 210 260 325 384
#     4  11  23  39  63  90 127 172 216 261 320 374
#     4   9  19  38  67  89 119 160 199 263 319 379
#     4  11  23  39  63  86 130 178 208 258 323 379
#     4   8  16  36  67  91 114 152 207 247 311 394
#     4  11  22  36  62  94 120 163 218 261 305 383
#
# _framework density 20.990324999999999
#
# number of rings (size 3 to 8) (size 9 to 14) (size 15 to 20)
#    0.000    1.750    3.750    0.750    1.750    2.000 
#    0.000    0.000   49.500    0.000    0.000    0.000 
#    0.000    0.000    0.000    0.000    0.000    0.000 
#
# Total GULP energy -89163.000150 kJ/mol
# GULP energy per Si atom -5572.687509 kJ/mol
# Density = 2.094255 g / cm^3
# Si number density = 20.990325 Si / 1000 Ang^3
#
#
#
# Elastic Constant Matrix: (Units=GPa)
#
#
# Indices 1 2 3 4 5 6 
#
# 1 111.7476 47.5272 19.9033 -2.9060 4.6804 -4.1676
# 2 47.5272 146.3590 32.4293 -6.5297 7.9164 -1.9301
# 3 19.9033 32.4293 42.3414 -9.8819 -0.7309 -0.1138
# 4 -2.9060 -6.5297 -9.8819 31.4679 -7.5750 -2.6852
# 5 4.6804 7.9164 -0.7309 -7.5750 34.1338 -8.5717
# 6 -4.1676 -1.9301 -0.1138 -2.6852 -8.5717 46.0995
#
#
#
# Elastic Compliance Matrix: (Units=1/GPa)
#
#
# Indices 1 2 3 4 5 6 
#
# 1 0.010721 -0.002770 -0.003100 -0.000719 -0.000893 0.000638
# 2 -0.002770 0.009113 -0.005890 -0.000748 -0.002106 -0.000319
# 3 -0.003100 -0.005890 0.031960 0.009798 0.004910 0.001036
# 4 -0.000719 -0.000748 0.009798 0.037313 0.009745 0.003913
# 5 -0.000893 -0.002106 0.004910 0.009745 0.033859 0.006707
# 6 0.000638 -0.000319 0.001036 0.003913 0.006707 0.023214
#
#
# Mechanical properties :
#
#
# Convention : Reuss Voigt Hill
#
# Bulk Modulus (GPa) = 35.36595 55.57416 45.47006
# Shear Modulus (GPa) = 27.91337 35.71278 31.81308
#
# Velocity S-wave (km/s) = 3.65063 4.12927 3.89730
# Velocity P-wave (km/s) = 5.88682 7.01912 6.47776
#
# Compressibility (1/GPa) = 0.02827579
#
# Stress axis : x y z
#
# Youngs Moduli (GPa) = 93.27072 109.72891 31.28935
#
# Poissons Ratio (x) = 0.30396 0.09698
# Poissons Ratio (y) = 0.25837 0.18428
# Poissons Ratio (z) = 0.28910 0.64627
#
# Static dielectric constant tensor:
#      x y z
#    x 1.806280 0.015010 0.002610 
#    y 0.015010 1.730740 -0.071710 
#    z 0.002610 -0.071710 1.809150 
# 
# From -- ./inp_files/288987.got.cif
#   From: 2010.05.17/outbox.cif.g08.bks.cpg/sg2_145_cif.got.tgz:288987.got - 2010.06.03 11:33:40.
