data_PCOD9025282
_publ_section_title
;
Structure prediction by ZEFSAII (Michael W. Deem and Ramdas Pophale) SiO2 
 PCOD9025282
Probable space group: P -1
;
_chemical_formula_sum "Si O2"
_cell_formula_units_Z 16
_cell_length_a 12.244859
_cell_length_b 10.144200
_cell_length_c 5.741025
_cell_angle_alpha 66.699764
_cell_angle_beta 109.127338
_cell_angle_gamma 113.886726
_cell_volume 586.827177
_symmetry_space_group_name_H-M "P -1"
_symmetry_group_IT_number 2
_symmetry_cell_setting 'triclinic'
loop_
_space_group_symop_operation_xyz
x,y,z
-x,-y,-z
loop_
_atom_site_type_symbol
_atom_site_label
_atom_site_fract_x
_atom_site_fract_y
_atom_site_fract_z
Si Si1 0.402589 0.749474 0.670151
Si Si2 0.951813 0.225547 0.813625
Si Si3 0.387360 0.347935 0.008302
Si Si4 0.014019 0.793507 0.637488
Si Si5 0.373113 0.976165 0.795350
Si Si6 0.729212 0.743421 0.502438
Si Si7 0.849630 0.461740 0.150600
Si Si8 0.261457 0.687907 0.223258
O O1 0.532525 0.766353 0.855670
O O2 0.285701 0.614334 0.781206
O O3 0.389822 0.707650 0.419210
O O4 0.379972 0.907586 0.592249
O O5 0.943708 0.131410 0.638431
O O6 0.072023 0.376281 0.806503
O O7 0.838534 0.290481 0.686046
O O8 0.944649 0.147083 0.114594
O O9 0.314139 0.319161 0.221801
O O10 0.500000 0.500000 0.000000
O O11 0.324233 0.343074 0.717518
O O12 0.872941 0.778937 0.556358
O O13 0.061160 0.644048 0.743625
O O14 0.316087 0.109126 0.652977
O O15 0.500000 0.000000 0.000000
O O16 0.286673 0.827617 0.968096
O O17 0.804515 0.465033 0.849561
#
# Coordination Sequence:
#
# PCOD9025282 Si02
#       8
#     2   2   2   2   2   2   2   2
#     4  11  24  42  75 103 141 185 246 298 347 422
#     4  11  23  42  68 105 144 191 232 286 358 434
#     4  12  29  48  70 107 147 183 238 294 365 428
#     4  11  23  42  66 100 140 178 237 280 359 425
#     4  11  24  47  71 101 139 192 255 291 346 419
#     4  12  28  49  72 103 144 196 230 295 365 421
#     4  10  23  39  68 106 140 187 232 292 357 425
#     4  10  22  40  68 106 138 179 247 299 346 410
#
# _framework density 27.265267000000001
#
# number of rings (size 3 to 8) (size 9 to 14) (size 15 to 20)
#    0.000    1.000    2.500    3.750    8.750    1.000 
#    0.000    6.250    0.000    0.000    0.000    0.000 
#    0.000    0.000    0.000    0.000    0.000    0.000 
#
# Total GULP energy -89366.842349 kJ/mol
# GULP energy per Si atom -5585.427647 kJ/mol
# Density = 2.720321 g / cm^3
# Si number density = 27.265267 Si / 1000 Ang^3
#
#
#
# Elastic Constant Matrix: (Units=GPa)
#
#
# Indices 1 2 3 4 5 6 
#
# 1 140.2380 20.5821 35.2061 3.9140 -1.0517 -0.0505
# 2 20.5821 66.0226 14.4831 -0.6482 -3.2437 -16.7834
# 3 35.2061 14.4831 169.0092 40.1897 -8.5092 -4.3202
# 4 3.9140 -0.6482 40.1897 44.9708 9.0446 5.4408
# 5 -1.0517 -3.2437 -8.5092 9.0446 62.1112 1.7720
# 6 -0.0505 -16.7834 -4.3202 5.4408 1.7720 43.9336
#
#
#
# Elastic Compliance Matrix: (Units=1/GPa)
#
#
# Indices 1 2 3 4 5 6 
#
# 1 0.007884 -0.002386 -0.001733 0.001042 -0.000346 -0.001188
# 2 -0.002386 0.017811 -0.000924 0.000383 0.000518 0.006642
# 3 -0.001733 -0.000924 0.008399 -0.007976 0.002195 0.001370
# 4 0.001042 0.000383 -0.007976 0.030885 -0.005432 -0.004243
# 5 -0.000346 0.000518 0.002195 -0.005432 0.017202 0.000392
# 6 -0.001188 0.006642 0.001370 -0.004243 0.000392 0.025942
#
#
# Mechanical properties :
#
#
# Convention : Reuss Voigt Hill
#
# Bulk Modulus (GPa) = 41.65634 57.31248 49.48441
# Shear Modulus (GPa) = 39.61541 50.53636 45.07589
#
# Velocity S-wave (km/s) = 3.81591 4.30991 4.07041
# Velocity P-wave (km/s) = 5.89290 6.77001 6.34662
#
# Compressibility (1/GPa) = 0.02400595
#
# Stress axis : x y z
#
# Youngs Moduli (GPa) = 126.83876 56.14609 119.05622
#
# Poissons Ratio (x) = 0.13398 0.20637
# Poissons Ratio (y) = 0.30268 0.11005
# Poissons Ratio (z) = 0.21986 0.05190
#
# Static dielectric constant tensor:
#      x y z
#    x 2.213140 -0.027790 -0.015300 
#    y -0.027790 2.184900 -0.071840 
#    z -0.015300 -0.071840 2.325990 
# 
# From -- ./inp_files/69392.got.cif
#   From: 2010.05.17/outbox.cif.g08.bks.cpg/sg2_35_cif.got.tgz:69392.got - 2010.06.03 11:33:40.
