data_PCOD9025559
_publ_section_title
;
Structure prediction by ZEFSAII (Michael W. Deem and Ramdas Pophale) SiO2 
 PCOD9025559
Probable space group: P -1
;
_chemical_formula_sum "Si O2"
_cell_formula_units_Z 16
_cell_length_a 8.919496
_cell_length_b 16.439103
_cell_length_c 8.059572
_cell_angle_alpha 115.954914
_cell_angle_beta 91.738186
_cell_angle_gamma 133.634729
_cell_volume 661.183750
_symmetry_space_group_name_H-M "P -1"
_symmetry_group_IT_number 2
_symmetry_cell_setting 'triclinic'
loop_
_space_group_symop_operation_xyz
x,y,z
-x,-y,-z
loop_
_atom_site_type_symbol
_atom_site_label
_atom_site_fract_x
_atom_site_fract_y
_atom_site_fract_z
Si Si1 0.243037 0.813634 0.760010
Si Si2 0.484472 0.133802 0.498564
Si Si3 0.175492 0.606273 0.751980
Si Si4 0.065111 0.665676 0.086706
Si Si5 0.908867 0.146388 0.948480
Si Si6 0.791715 0.830522 0.400966
Si Si7 0.179621 0.351688 0.626731
Si Si8 0.409324 0.335370 0.098979
O O1 0.363823 0.841939 0.618779
O O2 0.293342 0.756384 0.836045
O O3 0.963947 0.688374 0.578588
O O4 0.264767 0.916296 0.957401
O O5 0.653208 0.202031 0.725653
O O6 0.404422 0.200077 0.536864
O O7 0.232323 0.963181 0.309367
O O8 0.387494 0.635014 0.800601
O O9 0.000000 0.500000 0.500000
O O10 0.038824 0.561850 0.882793
O O11 0.011306 0.720207 0.004038
O O12 0.911528 0.624828 0.205419
O O13 0.150070 0.209220 0.065211
O O14 0.873806 0.778821 0.453195
O O15 0.657566 0.727617 0.144121
O O16 0.000000 0.000000 0.500000
O O17 0.461543 0.506192 0.755444
#
# Coordination Sequence:
#
# PCOD9025559 Si02
#       8
#     2   2   2   2   2   2   2   2
#     4  10  25  45  65 101 138 187 229 285 343 412
#     4  11  22  43  69  99 137 183 236 283 336 411
#     4  11  23  45  67  99 142 181 228 281 353 412
#     4  10  22  40  69  97 137 181 230 283 338 414
#     4  11  23  43  66 103 140 183 226 282 357 406
#     4  12  24  44  70 109 138 175 232 292 346 401
#     4  11  24  45  69 104 137 180 234 284 344 412
#     4  12  24  43  72 102 141 180 228 287 349 410
#
# _framework density 24.199020999999998
#
# number of rings (size 3 to 8) (size 9 to 14) (size 15 to 20)
#    0.000    1.000    5.000    1.125    0.000    4.000 
#    4.500    1.250    0.000    0.000    0.000    0.000 
#    0.000    0.000    0.000    0.000    0.000    0.000 
#
# Total GULP energy -89268.759687 kJ/mol
# GULP energy per Si atom -5579.297480 kJ/mol
# Density = 2.414394 g / cm^3
# Si number density = 24.199021 Si / 1000 Ang^3
#
#
#
# Elastic Constant Matrix: (Units=GPa)
#
#
# Indices 1 2 3 4 5 6 
#
# 1 137.1056 27.4812 30.4018 -0.9145 1.7602 3.0282
# 2 27.4812 45.5393 16.0136 8.3236 8.2702 -5.8814
# 3 30.4018 16.0136 91.9954 -14.1742 -7.3291 7.1614
# 4 -0.9145 8.3236 -14.1742 35.0828 1.7064 -4.1960
# 5 1.7602 8.2702 -7.3291 1.7064 40.5642 -3.9973
# 6 3.0282 -5.8814 7.1614 -4.1960 -3.9973 38.4954
#
#
#
# Elastic Compliance Matrix: (Units=1/GPa)
#
#
# Indices 1 2 3 4 5 6 
#
# 1 0.008702 -0.004843 -0.001866 0.000494 0.000153 -0.001008
# 2 -0.004843 0.030272 -0.005876 -0.008843 -0.006209 0.004490
# 3 -0.001866 -0.005876 0.013960 0.006551 0.003300 -0.002291
# 4 0.000494 -0.008843 0.006551 0.033323 0.001681 0.001198
# 5 0.000153 -0.006209 0.003300 0.001681 0.026572 0.001368
# 6 -0.001008 0.004490 -0.002291 0.001198 0.001368 0.027441
#
#
# Mechanical properties :
#
#
# Convention : Reuss Voigt Hill
#
# Bulk Modulus (GPa) = 36.01759 46.93705 41.47732
# Shear Modulus (GPa) = 28.62152 36.21139 32.41646
#
# Velocity S-wave (km/s) = 3.44285 3.87253 3.66399
# Velocity P-wave (km/s) = 5.54261 6.27962 5.92259
#
# Compressibility (1/GPa) = 0.02776421
#
# Stress axis : x y z
#
# Youngs Moduli (GPa) = 114.91945 33.03422 71.63287
#
# Poissons Ratio (x) = 0.15999 0.13366
# Poissons Ratio (y) = 0.55658 0.42088
# Poissons Ratio (z) = 0.21443 0.19409
#
# Static dielectric constant tensor:
#      x y z
#    x 1.988910 0.053870 -0.069500 
#    y 0.053870 2.030490 0.033300 
#    z -0.069500 0.033300 1.995480 
# 
# From -- ./inp_files/218309.got.cif
#   From: 2010.05.17/outbox.cif.g08.bks.cpg/sg2_110_cif.got.tgz:218309.got - 2010.06.03 11:33:40.
