data_PCOD9025643
_publ_section_title
;
Structure prediction by ZEFSAII (Michael W. Deem and Ramdas Pophale) SiO2 
 PCOD9025643
Probable space group: P -1
;
_chemical_formula_sum "Si O2"
_cell_formula_units_Z 14
_cell_length_a 8.587154
_cell_length_b 18.214484
_cell_length_c 9.072173
_cell_angle_alpha 30.691490
_cell_angle_beta 115.052824
_cell_angle_gamma 123.038869
_cell_volume 603.731707
_symmetry_space_group_name_H-M "P -1"
_symmetry_group_IT_number 2
_symmetry_cell_setting 'triclinic'
loop_
_space_group_symop_operation_xyz
x,y,z
-x,-y,-z
loop_
_atom_site_type_symbol
_atom_site_label
_atom_site_fract_x
_atom_site_fract_y
_atom_site_fract_z
Si Si1 0.941112 0.641638 0.751361
Si Si2 0.847211 0.336236 0.781535
Si Si3 0.469072 0.144293 0.811932
Si Si4 0.872120 0.800043 0.939193
Si Si5 0.842845 0.012526 0.807450
Si Si6 0.290024 0.467250 0.428357
Si Si7 0.665450 0.668513 0.797707
O O1 0.766429 0.598665 0.642982
O O2 0.854515 0.648955 0.860649
O O3 0.107966 0.803691 0.500012
O O4 0.000000 0.500000 0.000000
O O5 0.669451 0.275789 0.706293
O O6 0.767215 0.387046 0.809333
O O7 0.000000 0.500000 0.500000
O O8 0.936949 0.205451 0.041552
O O9 0.367414 0.210987 0.535769
O O10 0.500000 0.000000 0.000000
O O11 0.349288 0.085642 0.015658
O O12 0.708179 0.736752 0.861600
O O13 0.871804 0.950648 0.765128
O O14 0.828917 0.675360 0.268444
O O15 0.000000 0.000000 0.000000
O O16 0.500000 0.500000 0.500000
O O17 0.500000 0.500000 0.000000
#
# Coordination Sequence:
#
# PCOD9025643 Si02
#       7
#     2   2   2   2   2   2   2
#     4  12  27  46  74 106 145 195 249 306 369 444
#     4  10  22  40  70 109 139 188 246 296 362 438
#     4  12  27  47  76 109 148 195 244 307 375 443
#     4  11  23  43  74 102 145 190 241 304 368 433
#     4  12  24  50  75 103 150 200 245 304 381 442
#     4  11  21  42  71 101 143 192 246 295 367 441
#     4  12  26  46  73 111 149 189 248 305 366 437
#
# _framework density 23.189108000000001
#
# number of rings (size 3 to 8) (size 9 to 14) (size 15 to 20)
#    0.000    0.571    2.857    6.000    4.000    0.571 
#    2.571    0.714    0.000    0.000    0.000    0.000 
#    0.000    0.000    0.000    0.000    0.000    0.000 
#
# Total GULP energy -78308.651427 kJ/mol
# GULP energy per Si atom -5593.475102 kJ/mol
# Density = 2.313633 g / cm^3
# Si number density = 23.189108 Si / 1000 Ang^3
#
#
#
# Elastic Constant Matrix: (Units=GPa)
#
#
# Indices 1 2 3 4 5 6 
#
# 1 108.7977 35.0765 31.8688 -14.5211 10.8576 -6.4748
# 2 35.0765 161.2862 24.0123 -6.5019 7.4062 -13.7160
# 3 31.8688 24.0123 101.1639 -24.2170 14.3892 -11.8552
# 4 -14.5211 -6.5019 -24.2170 32.3136 -4.4517 -0.7006
# 5 10.8576 7.4062 14.3892 -4.4517 34.1508 -11.9464
# 6 -6.4748 -13.7160 -11.8552 -0.7006 -11.9464 42.7990
#
#
#
# Elastic Compliance Matrix: (Units=1/GPa)
#
#
# Indices 1 2 3 4 5 6 
#
# 1 0.010957 -0.001876 -0.002091 0.002726 -0.001837 0.000009
# 2 -0.001876 0.006876 -0.000866 -0.000064 0.000054 0.001694
# 3 -0.002091 -0.000866 0.013525 0.008686 -0.002839 0.002503
# 4 0.002726 -0.000064 0.008686 0.039026 0.001969 0.003986
# 5 -0.001837 0.000054 -0.002839 0.001969 0.034301 0.008560
# 6 0.000009 0.001694 0.002503 0.003986 0.008560 0.027057
#
#
# Mechanical properties :
#
#
# Convention : Reuss Voigt Hill
#
# Bulk Modulus (GPa) = 46.10106 61.46255 53.78180
# Shear Modulus (GPa) = 33.63844 40.53870 37.08857
#
# Velocity S-wave (km/s) = 3.81282 4.18566 4.00358
# Velocity P-wave (km/s) = 6.26954 7.06556 6.67942
#
# Compressibility (1/GPa) = 0.02169148
#
# Stress axis : x y z
#
# Youngs Moduli (GPa) = 91.26921 145.43119 73.93468
#
# Poissons Ratio (x) = 0.27290 0.15462
# Poissons Ratio (y) = 0.17127 0.06399
# Poissons Ratio (z) = 0.19087 0.12588
#
# Static dielectric constant tensor:
#      x y z
#    x 1.908060 -0.040170 0.028300 
#    y -0.040170 1.910580 -0.007870 
#    z 0.028300 -0.007870 1.869030 
# 
# From -- ./inp_files/216368.got.cif
#   From: 2010.05.17/outbox.cif.g08.bks.cpg/sg2_109_cif.got.tgz:216368.got - 2010.06.03 11:33:40.
