data_PCOD9025283
_publ_section_title
;
Structure prediction by ZEFSAII (Michael W. Deem and Ramdas Pophale) SiO2 
 PCOD9025283
Probable space group: P -1
;
_chemical_formula_sum "Si O2"
_cell_formula_units_Z 16
_cell_length_a 19.681971
_cell_length_b 9.226411
_cell_length_c 11.178466
_cell_angle_alpha 40.894152
_cell_angle_beta 44.275904
_cell_angle_gamma 75.022304
_cell_volume 728.827509
_symmetry_space_group_name_H-M "P -1"
_symmetry_group_IT_number 2
_symmetry_cell_setting 'triclinic'
loop_
_space_group_symop_operation_xyz
x,y,z
-x,-y,-z
loop_
_atom_site_type_symbol
_atom_site_label
_atom_site_fract_x
_atom_site_fract_y
_atom_site_fract_z
Si Si1 0.836282 0.710573 0.052009
Si Si2 0.369360 0.377328 0.798853
Si Si3 0.624008 0.194302 0.300041
Si Si4 0.754990 0.964003 0.370718
Si Si5 0.036776 0.489836 0.094600
Si Si6 0.766555 0.503769 0.699074
Si Si7 0.772060 0.250021 0.618525
Si Si8 0.963795 0.199678 0.766412
O O1 0.723861 0.682285 0.152249
O O2 0.787096 0.462794 0.367130
O O3 0.906217 0.672873 0.883485
O O4 0.931903 0.003584 0.815866
O O5 0.500000 0.500000 0.500000
O O6 0.378877 0.595507 0.742320
O O7 0.310593 0.071360 0.119776
O O8 0.654375 0.012041 0.446343
O O9 0.500000 0.000000 0.500000
O O10 0.733236 0.369868 0.955162
O O11 0.706222 0.659500 0.664356
O O12 0.856167 0.200344 0.187870
O O13 0.838136 0.031440 0.106536
O O14 0.909309 0.347084 0.413440
O O15 0.000000 0.500000 0.000000
O O16 0.723674 0.286908 0.780180
O O17 0.915977 0.731571 0.361908
O O18 0.000000 0.500000 0.500000
#
# Coordination Sequence:
#
# PCOD9025283 Si02
#       8
#     2   2   2   2   2   2   2   2
#     4  11  25  44  68 104 144 178 226 283 352 420
#     4  12  29  48  71  96 133 182 241 293 346 410
#     4  12  30  49  70  99 135 186 246 296 343 413
#     4  12  24  45  70 105 146 185 230 284 348 424
#     4  10  22  40  68 106 143 173 222 276 347 420
#     4  12  24  43  73 104 144 184 231 281 353 421
#     4  11  24  43  72 104 140 183 219 287 353 413
#     4  12  23  40  71 110 145 185 222 280 353 424
#
# _framework density 21.95307
#
# number of rings (size 3 to 8) (size 9 to 14) (size 15 to 20)
#    0.000    0.500    5.000    3.375    7.000    1.500 
#    0.000    0.000    0.000    0.000    0.000    0.000 
#    0.000    0.000    0.000    0.000    0.000    0.000 
#
# Total GULP energy -89547.518078 kJ/mol
# GULP energy per Si atom -5596.719880 kJ/mol
# Density = 2.190310 g / cm^3
# Si number density = 21.953070 Si / 1000 Ang^3
#
#
#
# Elastic Constant Matrix: (Units=GPa)
#
#
# Indices 1 2 3 4 5 6 
#
# 1 72.2790 26.0060 23.8408 -16.9137 -3.3388 -16.5929
# 2 26.0060 145.8239 20.4385 -19.9534 -2.2676 -2.9593
# 3 23.8408 20.4385 46.7448 -9.6265 -3.7658 -16.7631
# 4 -16.9137 -19.9534 -9.6265 34.2944 -0.2800 5.1091
# 5 -3.3388 -2.2676 -3.7658 -0.2800 36.0874 -5.6389
# 6 -16.5929 -2.9593 -16.7631 5.1091 -5.6389 37.1295
#
#
#
# Elastic Compliance Matrix: (Units=1/GPa)
#
#
# Indices 1 2 3 4 5 6 
#
# 1 0.019014 -0.001626 -0.005698 0.006065 0.001930 0.005254
# 2 -0.001626 0.007930 -0.002591 0.003344 -0.000170 -0.001750
# 3 -0.005698 -0.002591 0.030329 0.002557 0.004250 0.011234
# 4 0.006065 0.003344 0.002557 0.034896 0.001233 -0.000483
# 5 0.001930 -0.000170 0.004250 0.001233 0.029436 0.007069
# 6 0.005254 -0.001750 0.011234 -0.000483 0.007069 0.035353
#
#
# Mechanical properties :
#
#
# Convention : Reuss Voigt Hill
#
# Bulk Modulus (GPa) = 26.70651 45.04646 35.87649
# Shear Modulus (GPa) = 26.41740 34.47310 30.44525
#
# Velocity S-wave (km/s) = 3.47271 3.96701 3.72806
# Velocity P-wave (km/s) = 5.31708 6.44569 5.90839
#
# Compressibility (1/GPa) = 0.03744405
#
# Stress axis : x y z
#
# Youngs Moduli (GPa) = 52.59195 126.10223 32.97164
#
# Poissons Ratio (x) = 0.20501 0.18788
# Poissons Ratio (y) = 0.08550 0.08542
# Poissons Ratio (z) = 0.29968 0.32670
#
# Static dielectric constant tensor:
#      x y z
#    x 1.795630 -0.021010 0.030030 
#    y -0.021010 1.787810 0.000490 
#    z 0.030030 0.000490 1.799050 
# 
# From -- ./inp_files/283004.got.cif
#   From: 2010.05.17/outbox.cif.g08.bks.cpg/sg2_142_cif.got.tgz:283004.got - 2010.06.03 11:33:40.
