data_PCOD9025802
_publ_section_title
;
Structure prediction by ZEFSAII (Michael W. Deem and Ramdas Pophale) SiO2 
 PCOD9025802
Probable space group: P -1
;
_chemical_formula_sum "Si O2"
_cell_formula_units_Z 15
_cell_length_a 9.437469
_cell_length_b 13.728352
_cell_length_c 10.843312
_cell_angle_alpha 136.887759
_cell_angle_beta 50.812431
_cell_angle_gamma 106.929179
_cell_volume 704.776419
_symmetry_space_group_name_H-M "P -1"
_symmetry_group_IT_number 2
_symmetry_cell_setting 'triclinic'
loop_
_space_group_symop_operation_xyz
x,y,z
-x,-y,-z
loop_
_atom_site_type_symbol
_atom_site_label
_atom_site_fract_x
_atom_site_fract_y
_atom_site_fract_z
Si Si1 0.257941 0.470289 0.713539
Si Si2 0.871545 0.979169 0.937695
Si Si3 0.391302 0.745381 0.805385
Si Si4 0.174038 0.465894 0.043165
Si Si5 0.522340 0.824492 0.315183
Si Si6 0.194595 0.701886 0.446042
Si Si7 0.000000 0.500000 0.500000
Si Si8 0.610839 0.788897 0.961903
O O1 0.319995 0.608878 0.760639
O O2 0.427732 0.320548 0.446437
O O3 0.223128 0.481193 0.888724
O O4 0.057010 0.482008 0.768214
O O5 0.700424 0.923935 0.032528
O O6 0.009765 0.847204 0.654414
O O7 0.779108 0.128547 0.049772
O O8 0.000000 0.000000 0.000000
O O9 0.474819 0.800975 0.931350
O O10 0.269037 0.292828 0.872061
O O11 0.241904 0.575161 0.196405
O O12 0.371442 0.766659 0.422161
O O13 0.500000 0.000000 0.500000
O O14 0.498384 0.794630 0.156406
O O15 0.124934 0.619671 0.520612
O O16 0.795403 0.637727 0.718440
#
# Coordination Sequence:
#
# PCOD9025802 Si02
#       8
#     2   2   2   2   2   2   1   2
#     4  10  25  42  72  97 140 184 234 297 359 411
#     4  11  26  43  69 102 144 183 241 299 358 420
#     4  11  25  45  70 103 137 186 241 296 358 426
#     4  11  24  47  67 102 143 185 239 289 354 437
#     4  12  27  43  71 107 147 189 238 293 359 423
#     4  11  24  44  71 101 138 188 239 289 356 420
#     4  10  22  40  72 102 134 180 236 290 334 424
#     4  11  24  43  69 103 141 186 236 289 361 423
#
# _framework density 21.283345000000001
#
# number of rings (size 3 to 8) (size 9 to 14) (size 15 to 20)
#    0.000    1.067    1.333    4.000    9.333    2.133 
#    2.400    1.333    0.000    0.000    0.000    0.000 
#    0.000    0.000    0.000    0.000    0.000    0.000 
#
# Total GULP energy -83628.566631 kJ/mol
# GULP energy per Si atom -5575.237775 kJ/mol
# Density = 2.123490 g / cm^3
# Si number density = 21.283345 Si / 1000 Ang^3
#
#
#
# Elastic Constant Matrix: (Units=GPa)
#
#
# Indices 1 2 3 4 5 6 
#
# 1 85.6187 41.6180 38.0058 19.5876 -9.9453 -0.6131
# 2 41.6180 83.5376 31.6421 13.8849 5.9738 3.4229
# 3 38.0058 31.6421 98.7541 19.0049 -1.0790 -14.4812
# 4 19.5876 13.8849 19.0049 42.9202 -0.0743 -8.7308
# 5 -9.9453 5.9738 -1.0790 -0.0743 12.2310 6.6350
# 6 -0.6131 3.4229 -14.4812 -8.7308 6.6350 26.5192
#
#
#
# Elastic Compliance Matrix: (Units=1/GPa)
#
#
# Indices 1 2 3 4 5 6 
#
# 1 0.024694 -0.010498 -0.006059 -0.007493 0.030910 -0.011583
# 2 -0.010498 0.019416 -0.002223 -0.000431 -0.018502 0.000524
# 3 -0.006059 -0.002223 0.014726 -0.001054 -0.007869 0.009810
# 4 -0.007493 -0.000431 -0.001054 0.029790 -0.012425 0.012223
# 5 0.030910 -0.018502 -0.007869 -0.012425 0.136562 -0.039453
# 6 -0.011583 0.000524 0.009810 0.012223 -0.039453 0.056625
#
#
# Mechanical properties :
#
#
# Convention : Reuss Voigt Hill
#
# Bulk Modulus (GPa) = 47.00106 54.49356 50.74731
# Shear Modulus (GPa) = 15.31565 26.77705 21.04635
#
# Velocity S-wave (km/s) = 2.68546 3.55085 3.14803
# Velocity P-wave (km/s) = 5.63445 6.51696 6.09171
#
# Compressibility (1/GPa) = 0.02127611
#
# Stress axis : x y z
#
# Youngs Moduli (GPa) = 40.49635 51.50396 67.90893
#
# Poissons Ratio (x) = 0.54067 0.41143
# Poissons Ratio (y) = 0.42512 0.15099
# Poissons Ratio (z) = 0.24535 0.11451
#
# Static dielectric constant tensor:
#      x y z
#    x 1.770380 -0.005010 0.019170 
#    y -0.005010 1.762360 -0.034690 
#    z 0.019170 -0.034690 1.801240 
# 
# From -- ./inp_files/158027.got.cif
#   From: 2010.05.17/outbox.cif.g08.bks.cpg/sg2_80_cif.got.tgz:158027.got - 2010.06.03 11:33:40.
