data_PCOD9025169
_publ_section_title
;
Structure prediction by ZEFSAII (Michael W. Deem and Ramdas Pophale) SiO2 
 PCOD9025169
Probable space group: P -1
;
_chemical_formula_sum "Si O2"
_cell_formula_units_Z 15
_cell_length_a 15.709687
_cell_length_b 13.259707
_cell_length_c 7.546891
_cell_angle_alpha 115.662107
_cell_angle_beta 64.150176
_cell_angle_gamma 153.954109
_cell_volume 617.801545
_symmetry_space_group_name_H-M "P -1"
_symmetry_group_IT_number 2
_symmetry_cell_setting 'triclinic'
loop_
_space_group_symop_operation_xyz
x,y,z
-x,-y,-z
loop_
_atom_site_type_symbol
_atom_site_label
_atom_site_fract_x
_atom_site_fract_y
_atom_site_fract_z
Si Si1 0.808562 0.826197 0.827566
Si Si2 0.457331 0.790003 0.067219
Si Si3 0.097506 0.941715 0.725463
Si Si4 0.926814 0.537813 0.684578
Si Si5 0.108906 0.727817 0.038180
Si Si6 0.522233 0.329619 0.687502
Si Si7 0.215014 0.446770 0.696855
Si Si8 0.000000 0.000000 0.500000
O O1 0.630431 0.558615 0.812357
O O2 0.991770 0.927074 0.688951
O O3 0.815895 0.890430 0.682643
O O4 0.875918 0.968851 0.039310
O O5 0.297938 0.708788 0.237820
O O6 0.507388 0.761640 0.166800
O O7 0.657946 0.039039 0.986932
O O8 0.331743 0.601598 0.884720
O O9 0.961970 0.692392 0.669736
O O10 0.316215 0.136446 0.633013
O O11 0.000000 0.500000 0.500000
O O12 0.061031 0.700460 0.856112
O O13 0.000000 0.500000 0.000000
O O14 0.983759 0.686745 0.232459
O O15 0.651816 0.398201 0.479282
O O16 0.164500 0.265100 0.615881
#
# Coordination Sequence:
#
# PCOD9025169 Si02
#       8
#     2   2   2   2   2   2   2   1
#     4  10  22  40  67  96 142 173 229 279 341 412
#     4  11  24  47  72 101 138 184 229 293 342 414
#     4  11  22  42  65 101 133 182 224 284 340 403
#     4  11  25  42  68 102 135 177 237 282 343 416
#     4  11  26  46  71  97 139 183 224 297 354 401
#     4  11  23  42  72 102 134 183 232 274 349 416
#     4  10  26  46  66 106 143 178 235 282 343 419
#     4  10  22  42  66 100 142 186 214 286 344 402
#
# _framework density 24.279640000000001
#
# number of rings (size 3 to 8) (size 9 to 14) (size 15 to 20)
#    0.000    1.333    2.667    2.000    3.733    6.933 
#    0.000    2.000    0.000    0.000    0.000    0.000 
#    0.000    0.000    0.000    0.000    0.000    0.000 
#
# Total GULP energy -83660.011690 kJ/mol
# GULP energy per Si atom -5577.334113 kJ/mol
# Density = 2.422438 g / cm^3
# Si number density = 24.279640 Si / 1000 Ang^3
#
#
#
# Elastic Constant Matrix: (Units=GPa)
#
#
# Indices 1 2 3 4 5 6 
#
# 1 75.3127 49.3040 32.5613 -3.2038 -8.2940 3.2218
# 2 49.3040 175.9511 47.5712 -23.6552 -21.2517 13.1792
# 3 32.5613 47.5712 131.5455 -25.2446 -13.8513 7.0641
# 4 -3.2038 -23.6552 -25.2446 26.7415 7.2634 -2.2670
# 5 -8.2940 -21.2517 -13.8513 7.2634 38.9178 -3.7696
# 6 3.2218 13.1792 7.0641 -2.2670 -3.7696 48.0433
#
#
#
# Elastic Compliance Matrix: (Units=1/GPa)
#
#
# Indices 1 2 3 4 5 6 
#
# 1 0.017795 -0.004658 -0.003741 -0.005764 0.001036 0.000444
# 2 -0.004658 0.008230 -0.000445 0.005593 0.002159 -0.001447
# 3 -0.003741 -0.000445 0.010510 0.008750 0.001001 -0.000681
# 4 -0.005764 0.005593 0.008750 0.051141 -0.004642 -0.000385
# 5 0.001036 0.002159 0.001001 -0.004642 0.028434 0.001203
# 6 0.000444 -0.001447 -0.000681 -0.000385 0.001203 0.021358
#
#
# Mechanical properties :
#
#
# Convention : Reuss Voigt Hill
#
# Bulk Modulus (GPa) = 53.05902 71.29807 62.17855
# Shear Modulus (GPa) = 30.97172 39.63205 35.30189
#
# Velocity S-wave (km/s) = 3.57546 4.04458 3.81723
# Velocity P-wave (km/s) = 6.24067 7.15825 6.71515
#
# Compressibility (1/GPa) = 0.01884694
#
# Stress axis : x y z
#
# Youngs Moduli (GPa) = 56.19662 121.50745 95.14642
#
# Poissons Ratio (x) = 0.56596 0.35596
# Poissons Ratio (y) = 0.26176 0.04233
# Poissons Ratio (z) = 0.21024 0.05406
#
# Static dielectric constant tensor:
#      x y z
#    x 2.597370 -0.097150 0.378210 
#    y -0.097150 2.002880 -0.169840 
#    z 0.378210 -0.169840 2.270920 
# 
# From -- ./inp_files/335475.got.cif
#   From: 2010.05.17/outbox.cif.g08.bks.cpg/sg2_168_cif.got.tgz:335475.got - 2010.06.03 11:33:40.
