data_PCOD9025743
_publ_section_title
;
Structure prediction by ZEFSAII (Michael W. Deem and Ramdas Pophale) SiO2 
 PCOD9025743
Probable space group: P -1
;
_chemical_formula_sum "Si O2"
_cell_formula_units_Z 16
_cell_length_a 15.584285
_cell_length_b 8.734147
_cell_length_c 9.443831
_cell_angle_alpha 75.956387
_cell_angle_beta 59.708860
_cell_angle_gamma 120.796291
_cell_volume 703.179022
_symmetry_space_group_name_H-M "P -1"
_symmetry_group_IT_number 2
_symmetry_cell_setting 'triclinic'
loop_
_space_group_symop_operation_xyz
x,y,z
-x,-y,-z
loop_
_atom_site_type_symbol
_atom_site_label
_atom_site_fract_x
_atom_site_fract_y
_atom_site_fract_z
Si Si1 0.329807 0.674712 0.491157
Si Si2 0.588657 0.489806 0.321694
Si Si3 0.081450 0.362736 0.565330
Si Si4 0.473899 0.150316 0.944902
Si Si5 0.623691 0.907443 0.652188
Si Si6 0.020170 0.654261 0.826682
Si Si7 0.935339 0.903907 0.916008
Si Si8 0.175987 0.705096 0.185915
O O1 0.371233 0.623798 0.603034
O O2 0.155872 0.494420 0.626678
O O3 0.401922 0.934771 0.384683
O O4 0.384232 0.634518 0.318851
O O5 0.500000 0.500000 0.500000
O O6 0.482595 0.320667 0.313542
O O7 0.760595 0.753281 0.084780
O O8 0.187881 0.570174 0.312284
O O9 0.930605 0.281666 0.674978
O O10 0.034624 0.126350 0.673470
O O11 0.421693 0.174358 0.126089
O O12 0.339451 0.979635 0.979816
O O13 0.500000 0.000000 0.000000
O O14 0.804001 0.106388 0.422966
O O15 0.954514 0.744384 0.903819
O O16 0.908623 0.460021 0.841415
O O17 0.000000 0.500000 0.000000
O O18 0.000000 0.000000 0.000000
#
# Coordination Sequence:
#
# PCOD9025743 Si02
#       8
#     2   2   2   2   2   2   2   2
#     4  11  22  44  72 104 137 186 235 299 349 422
#     4  12  28  45  68 101 145 192 232 292 363 423
#     4  11  22  43  71  98 140 182 235 291 350 415
#     4  10  22  40  71 103 139 177 230 296 348 418
#     4  11  23  46  67 108 135 179 244 287 353 423
#     4  12  26  43  73 105 138 186 243 297 349 430
#     4  12  26  45  68  99 145 186 232 294 359 416
#     4  11  22  43  71 100 137 185 240 284 356 422
#
# _framework density 22.753806999999998
#
# number of rings (size 3 to 8) (size 9 to 14) (size 15 to 20)
#    0.000    0.750    5.000    3.375    7.000    0.500 
#    0.000    0.625    0.000    0.000    0.000    0.000 
#    0.000    0.000    0.000    0.000    0.000    0.000 
#
# Total GULP energy -89260.247553 kJ/mol
# GULP energy per Si atom -5578.765472 kJ/mol
# Density = 2.270202 g / cm^3
# Si number density = 22.753807 Si / 1000 Ang^3
#
#
#
# Elastic Constant Matrix: (Units=GPa)
#
#
# Indices 1 2 3 4 5 6 
#
# 1 91.7466 41.6125 26.9708 -2.1168 0.5809 11.1979
# 2 41.6125 104.7018 32.0772 5.8327 -9.2208 20.4239
# 3 26.9708 32.0772 91.9308 6.7444 -15.4828 5.1938
# 4 -2.1168 5.8327 6.7444 29.8386 -0.1802 0.8828
# 5 0.5809 -9.2208 -15.4828 -0.1802 42.1787 -10.7975
# 6 11.1979 20.4239 5.1938 0.8828 -10.7975 49.8308
#
#
#
# Elastic Compliance Matrix: (Units=1/GPa)
#
#
# Indices 1 2 3 4 5 6 
#
# 1 0.014256 -0.004812 -0.003078 0.002677 -0.002765 -0.001557
# 2 -0.004812 0.013232 -0.002660 -0.002208 0.000998 -0.003810
# 3 -0.003078 -0.002660 0.013645 -0.002796 0.004830 0.001456
# 4 0.002677 -0.002208 -0.002796 0.034768 -0.001485 -0.000343
# 5 -0.002765 0.000998 0.004830 -0.001485 0.027171 0.005623
# 6 -0.001557 -0.003810 0.001456 -0.000343 0.005623 0.023052
#
#
# Mechanical properties :
#
#
# Convention : Reuss Voigt Hill
#
# Bulk Modulus (GPa) = 49.91399 54.41114 52.16256
# Shear Modulus (GPa) = 32.48807 36.88420 34.68614
#
# Velocity S-wave (km/s) = 3.78273 4.03055 3.90861
# Velocity P-wave (km/s) = 6.40804 6.75465 6.58363
#
# Compressibility (1/GPa) = 0.02003446
#
# Stress axis : x y z
#
# Youngs Moduli (GPa) = 70.14520 75.57223 73.28537
#
# Poissons Ratio (x) = 0.36365 0.22554
# Poissons Ratio (y) = 0.33754 0.19495
# Poissons Ratio (z) = 0.21588 0.20103
#
# Static dielectric constant tensor:
#      x y z
#    x 1.916630 0.035800 -0.082090 
#    y 0.035800 1.894350 -0.040830 
#    z -0.082090 -0.040830 2.033410 
# 
# From -- ./inp_files/298184.got.cif
#   From: 2010.05.17/outbox.cif.g08.bks.cpg/sg2_150_cif.got.tgz:298184.got - 2010.06.03 11:33:40.
