data_PCOD9025699
_publ_section_title
;
Structure prediction by ZEFSAII (Michael W. Deem and Ramdas Pophale) SiO2 
 PCOD9025699
Probable space group: P -1
;
_chemical_formula_sum "Si O2"
_cell_formula_units_Z 14
_cell_length_a 15.572402
_cell_length_b 10.373109
_cell_length_c 15.000724
_cell_angle_alpha 32.344751
_cell_angle_beta 150.611123
_cell_angle_gamma 147.454021
_cell_volume 581.133826
_symmetry_space_group_name_H-M "P -1"
_symmetry_group_IT_number 2
_symmetry_cell_setting 'triclinic'
loop_
_space_group_symop_operation_xyz
x,y,z
-x,-y,-z
loop_
_atom_site_type_symbol
_atom_site_label
_atom_site_fract_x
_atom_site_fract_y
_atom_site_fract_z
Si Si1 0.359340 0.622777 0.469355
Si Si2 0.202474 0.115589 0.321296
Si Si3 0.137997 0.634100 0.424769
Si Si4 0.852278 0.701733 0.016066
Si Si5 0.442347 0.439666 0.881611
Si Si6 0.344351 0.080642 0.856887
Si Si7 0.945049 0.669981 0.780189
O O1 0.570445 0.797664 0.525596
O O2 0.286188 0.756286 0.404135
O O3 0.355940 0.350535 0.665657
O O4 0.212229 0.527946 0.311284
O O5 0.132661 0.152477 0.333341
O O6 0.118955 0.828581 0.368481
O O7 0.156193 0.298320 0.098865
O O8 0.247377 0.477800 0.663495
O O9 0.938408 0.523086 0.253599
O O10 0.635967 0.629133 0.894410
O O11 0.000000 0.000000 0.000000
O O12 0.395888 0.152059 0.966112
O O13 0.500000 0.500000 0.000000
O O14 0.131653 0.862220 0.784344
O O15 0.500000 0.000000 0.000000
O O16 0.000000 0.500000 0.000000
#
# Coordination Sequence:
#
# PCOD9025699 Si02
#       7
#     2   2   2   2   2   2   2
#     4  11  23  45  70  96 136 184 228 278 352 406
#     4  11  22  43  70 105 132 175 229 287 340 407
#     4  10  23  41  71  98 139 174 221 278 350 396
#     4  10  22  40  70  97 140 174 220 272 351 402
#     4  11  26  45  68 103 136 176 233 282 337 407
#     4  11  26  48  67  94 142 184 225 285 350 403
#     4  12  27  43  69 101 136 179 241 280 335 417
#
# _framework density 24.090837000000001
#
# number of rings (size 3 to 8) (size 9 to 14) (size 15 to 20)
#    0.000    1.143    2.857    3.000    8.000    2.857 
#    2.571    0.000    0.000    0.000    0.000    0.000 
#    0.000    0.000    0.000    0.000    0.000    0.000 
#
# Total GULP energy -78277.050851 kJ/mol
# GULP energy per Si atom -5591.217918 kJ/mol
# Density = 2.403601 g / cm^3
# Si number density = 24.090837 Si / 1000 Ang^3
#
#
#
# Elastic Constant Matrix: (Units=GPa)
#
#
# Indices 1 2 3 4 5 6 
#
# 1 104.5466 20.5104 32.2602 13.2817 19.8373 -17.5570
# 2 20.5104 65.5238 18.5822 28.5673 1.6047 -6.4047
# 3 32.2602 18.5822 107.2576 21.5656 6.6129 -9.2334
# 4 13.2817 28.5673 21.5656 47.4798 -9.8118 1.2142
# 5 19.8373 1.6047 6.6129 -9.8118 35.7766 9.7984
# 6 -17.5570 -6.4047 -9.2334 1.2142 9.7984 50.0235
#
#
#
# Elastic Compliance Matrix: (Units=1/GPa)
#
#
# Indices 1 2 3 4 5 6 
#
# 1 0.014066 -0.000790 -0.001862 -0.004979 -0.010618 0.006693
# 2 -0.000790 0.022369 -0.000028 -0.014494 -0.005641 0.004038
# 3 -0.001862 -0.000028 0.011335 -0.005309 -0.003113 0.002174
# 4 -0.004979 -0.014494 -0.005309 0.037336 0.017050 -0.008829
# 5 -0.010618 -0.005641 -0.003113 0.017050 0.043147 -0.013889
# 6 0.006693 0.004038 0.002174 -0.008829 -0.013889 0.026193
#
#
# Mechanical properties :
#
#
# Convention : Reuss Voigt Hill
#
# Bulk Modulus (GPa) = 23.57931 46.67040 35.12486
# Shear Modulus (GPa) = 28.74528 40.38765 34.56646
#
# Velocity S-wave (km/s) = 3.45803 4.09892 3.79204
# Velocity P-wave (km/s) = 5.07473 6.46655 5.81245
#
# Compressibility (1/GPa) = 0.04241005
#
# Stress axis : x y z
#
# Youngs Moduli (GPa) = 71.09437 44.70478 88.22378
#
# Poissons Ratio (x) = 0.03531 0.16426
# Poissons Ratio (y) = 0.05615 0.00248
# Poissons Ratio (z) = 0.13237 0.00126
#
# Static dielectric constant tensor:
#      x y z
#    x 1.941320 -0.016360 -0.038350 
#    y -0.016360 1.967490 -0.054070 
#    z -0.038350 -0.054070 1.998310 
# 
# From -- ./inp_files/506002.got.cif
#   From: 2010.05.17/outbox.cif.g08.bks.cpg/sg2_254_cif.got.tgz:506002.got - 2010.06.03 11:33:40.
