data_PCOD9025182
_publ_section_title
;
Structure prediction by ZEFSAII (Michael W. Deem and Ramdas Pophale) SiO2 
 PCOD9025182
Probable space group: P -1
;
_chemical_formula_sum "Si O2"
_cell_formula_units_Z 12
_cell_length_a 7.313737
_cell_length_b 13.836506
_cell_length_c 10.928410
_cell_angle_alpha 133.938407
_cell_angle_beta 134.683881
_cell_angle_gamma 45.995661
_cell_volume 517.973560
_symmetry_space_group_name_H-M "P -1"
_symmetry_group_IT_number 2
_symmetry_cell_setting 'triclinic'
loop_
_space_group_symop_operation_xyz
x,y,z
-x,-y,-z
loop_
_atom_site_type_symbol
_atom_site_label
_atom_site_fract_x
_atom_site_fract_y
_atom_site_fract_z
Si Si1 0.237831 0.491297 0.938521
Si Si2 0.840088 0.727445 0.119817
Si Si3 0.335224 0.760612 0.729541
Si Si4 0.580605 0.033369 0.207381
Si Si5 0.981288 0.429108 0.554744
Si Si6 0.287852 0.100729 0.385552
O O1 0.999104 0.534154 0.761075
O O2 0.128167 0.604318 0.097360
O O3 0.500000 0.500000 0.000000
O O4 0.244702 0.336383 0.854786
O O5 0.581113 0.743174 0.923136
O O6 0.841170 0.887661 0.249049
O O7 0.277945 0.614945 0.584203
O O8 0.381043 0.817036 0.668574
O O9 0.500000 0.000000 0.000000
O O10 0.375210 0.058403 0.248669
O O11 0.969539 0.113470 0.264005
O O12 0.243206 0.269256 0.535812
O O13 0.000000 0.500000 0.500000
O O14 0.500000 0.000000 0.500000
#
# Coordination Sequence:
#
# PCOD9025182 Si02
#       6
#     2   2   2   2   2   2
#     4  11  24  43  65  94 134 174 220 275 330 404
#     4  10  23  41  65  98 128 172 225 268 336 393
#     4   9  23  42  65  98 130 175 219 282 331 395
#     4  10  22  40  67  97 130 175 222 272 332 399
#     4  10  23  42  67  97 133 177 221 272 339 397
#     4  10  23  43  64  99 138 173 225 273 338 391
#
# _framework density 23.167204000000002
#
# number of rings (size 3 to 8) (size 9 to 14) (size 15 to 20)
#    1.000    1.000    0.000    2.000    4.667    6.667 
#    6.000    0.000    0.000    0.000    0.000    0.000 
#    0.000    0.000    0.000    0.000    0.000    0.000 
#
# Total GULP energy -66823.545285 kJ/mol
# GULP energy per Si atom -5568.628774 kJ/mol
# Density = 2.311447 g / cm^3
# Si number density = 23.167204 Si / 1000 Ang^3
#
#
#
# Elastic Constant Matrix: (Units=GPa)
#
#
# Indices 1 2 3 4 5 6 
#
# 1 130.2146 59.4816 20.5064 -7.6762 -3.8609 30.1750
# 2 59.4816 135.5624 8.2946 8.3488 -0.4455 33.5408
# 3 20.5064 8.2946 40.5370 -2.3197 -1.2109 14.5402
# 4 -7.6762 8.3488 -2.3197 29.7632 6.6926 4.7188
# 5 -3.8609 -0.4455 -1.2109 6.6926 36.4520 8.0568
# 6 30.1750 33.5408 14.5402 4.7188 8.0568 45.5408
#
#
#
# Elastic Compliance Matrix: (Units=1/GPa)
#
#
# Indices 1 2 3 4 5 6 
#
# 1 0.011221 -0.003952 -0.003095 0.004154 0.001198 -0.004178
# 2 -0.003952 0.010627 0.001730 -0.003330 0.001641 -0.005706
# 3 -0.003095 0.001730 0.029368 0.001938 0.002350 -0.009216
# 4 0.004154 -0.003330 0.001938 0.037621 -0.005598 -0.003827
# 5 0.001198 0.001641 0.002350 -0.005598 0.030353 -0.007543
# 6 -0.004178 -0.005706 -0.009216 -0.003827 -0.007543 0.033603
#
#
# Mechanical properties :
#
#
# Convention : Reuss Voigt Hill
#
# Bulk Modulus (GPa) = 24.64258 53.65324 39.14791
# Shear Modulus (GPa) = 28.25580 36.88664 32.57122
#
# Velocity S-wave (km/s) = 3.49613 3.99456 3.75363
# Velocity P-wave (km/s) = 5.19203 6.66969 5.97670
#
# Compressibility (1/GPa) = 0.04058017
#
# Stress axis : x y z
#
# Youngs Moduli (GPa) = 89.11699 94.09811 34.05119
#
# Poissons Ratio (x) = 0.37191 0.10540
# Poissons Ratio (y) = 0.35222 -0.05891
# Poissons Ratio (z) = 0.27586 -0.16278
#
# Static dielectric constant tensor:
#      x y z
#    x 2.029770 0.037060 0.014270 
#    y 0.037060 1.985600 0.138430 
#    z 0.014270 0.138430 2.062790 
# 
# From -- ./inp_files/363547.got.cif
#   From: 2010.05.17/outbox.cif.g08.bks.cpg/sg2_182_cif.got.tgz:363547.got - 2010.06.03 11:33:40.
