data_PCOD9025178
_publ_section_title
;
Structure prediction by ZEFSAII (Michael W. Deem and Ramdas Pophale) SiO2 
 PCOD9025178
Probable space group: P -1
;
_chemical_formula_sum "Si O2"
_cell_formula_units_Z 16
_cell_length_a 8.383585
_cell_length_b 15.739919
_cell_length_c 9.789641
_cell_angle_alpha 46.116569
_cell_angle_beta 107.975277
_cell_angle_gamma 81.566441
_cell_volume 753.233064
_symmetry_space_group_name_H-M "P -1"
_symmetry_group_IT_number 2
_symmetry_cell_setting 'triclinic'
loop_
_space_group_symop_operation_xyz
x,y,z
-x,-y,-z
loop_
_atom_site_type_symbol
_atom_site_label
_atom_site_fract_x
_atom_site_fract_y
_atom_site_fract_z
Si Si1 0.611975 0.111147 0.902957
Si Si2 0.037061 0.280682 0.938269
Si Si3 0.484837 0.189654 0.097622
Si Si4 0.004522 0.522204 0.815188
Si Si5 0.651984 0.373204 0.579168
Si Si6 0.420418 0.458861 0.896238
Si Si7 0.779308 0.840585 0.366547
Si Si8 0.865261 0.935475 0.562897
O O1 0.637444 0.237031 0.729054
O O2 0.450862 0.111082 0.761123
O O3 0.538370 0.149661 0.998100
O O4 0.789962 0.949914 0.145909
O O5 0.944324 0.423660 0.838128
O O6 0.878398 0.316576 0.740300
O O7 0.257234 0.236905 0.001152
O O8 0.059221 0.161976 0.177402
O O9 0.636397 0.058222 0.375194
O O10 0.529347 0.307651 0.023280
O O11 0.224730 0.469958 0.887964
O O12 0.884129 0.677587 0.552673
O O13 0.000000 0.500000 0.000000
O O14 0.500000 0.500000 0.500000
O O15 0.612341 0.436641 0.348504
O O16 0.500000 0.500000 0.000000
O O17 0.861678 0.853123 0.520135
O O18 0.000000 0.000000 0.500000
#
# Coordination Sequence:
#
# PCOD9025178 Si02
#       8
#     2   2   2   2   2   2   2   2
#     4  10  22  42  70  92 136 178 230 274 343 398
#     4  11  24  41  66 100 134 177 236 274 349 401
#     4  10  23  43  65  99 135 182 226 287 336 411
#     4  11  24  41  69  95 135 179 224 278 338 405
#     4  12  25  44  71 101 137 182 230 287 344 407
#     4  11  28  43  66 102 138 174 230 286 343 404
#     4  10  22  40  67  97 128 180 228 275 331 408
#     4  11  23  41  71  96 136 180 232 276 346 408
#
# _framework density 21.241764
#
# number of rings (size 3 to 8) (size 9 to 14) (size 15 to 20)
#    0.000    1.250    2.500    2.625    7.000    1.000 
#    0.000    0.625    0.000    0.000    0.000    0.000 
#    0.000    0.000    0.000    0.000    0.000    0.000 
#
# Total GULP energy -89302.613102 kJ/mol
# GULP energy per Si atom -5581.413319 kJ/mol
# Density = 2.119342 g / cm^3
# Si number density = 21.241764 Si / 1000 Ang^3
#
#
#
# Elastic Constant Matrix: (Units=GPa)
#
#
# Indices 1 2 3 4 5 6 
#
# 1 61.6882 37.8667 38.3906 0.5731 -10.7137 15.0953
# 2 37.8667 93.2810 61.1642 -1.0339 -11.4563 25.5121
# 3 38.3906 61.1642 124.2407 -1.6233 -13.7345 16.3088
# 4 0.5731 -1.0339 -1.6233 45.8074 6.8615 -5.7204
# 5 -10.7137 -11.4563 -13.7345 6.8615 41.9880 -2.3105
# 6 15.0953 25.5121 16.3088 -5.7204 -2.3105 28.4220
#
#
#
# Elastic Compliance Matrix: (Units=1/GPa)
#
#
# Indices 1 2 3 4 5 6 
#
# 1 0.023740 -0.005248 -0.003624 -0.001791 0.003408 -0.005902
# 2 -0.005248 0.020893 -0.006901 -0.001478 0.001676 -0.012168
# 3 -0.003624 -0.006901 0.012576 0.000270 0.001320 0.001065
# 4 -0.001791 -0.001478 0.000270 0.023268 -0.004219 0.006463
# 5 0.003408 0.001676 0.001320 -0.004219 0.026111 -0.002799
# 6 -0.005902 -0.012168 0.001065 0.006463 -0.002799 0.049703
#
#
# Mechanical properties :
#
#
# Convention : Reuss Voigt Hill
#
# Bulk Modulus (GPa) = 38.96619 61.56143 50.26381
# Shear Modulus (GPa) = 25.45945 32.69605 29.07775
#
# Velocity S-wave (km/s) = 3.46577 3.92756 3.70387
# Velocity P-wave (km/s) = 5.86510 7.04357 6.48118
#
# Compressibility (1/GPa) = 0.02566328
#
# Stress axis : x y z
#
# Youngs Moduli (GPa) = 42.12277 47.86321 79.51812
#
# Poissons Ratio (x) = 0.25118 0.28818
# Poissons Ratio (y) = 0.22106 0.54874
# Poissons Ratio (z) = 0.15265 0.33029
#
# Static dielectric constant tensor:
#      x y z
#    x 1.754040 -0.009010 0.008600 
#    y -0.009010 1.862160 -0.074490 
#    z 0.008600 -0.074490 1.767930 
# 
# From -- ./inp_files/205715.got.cif
#   From: 2010.05.17/outbox.cif.g08.bks.cpg/sg2_103_cif.got.tgz:205715.got - 2010.06.03 11:33:40.
