data_PCOD9025211
_publ_section_title
;
Structure prediction by ZEFSAII (Michael W. Deem and Ramdas Pophale) SiO2 
 PCOD9025211
Probable space group: P -1
;
_chemical_formula_sum "Si O2"
_cell_formula_units_Z 16
_cell_length_a 16.870225
_cell_length_b 13.892723
_cell_length_c 8.654352
_cell_angle_alpha 40.700312
_cell_angle_beta 41.867645
_cell_angle_gamma 28.745311
_cell_volume 615.067878
_symmetry_space_group_name_H-M "P -1"
_symmetry_group_IT_number 2
_symmetry_cell_setting 'triclinic'
loop_
_space_group_symop_operation_xyz
x,y,z
-x,-y,-z
loop_
_atom_site_type_symbol
_atom_site_label
_atom_site_fract_x
_atom_site_fract_y
_atom_site_fract_z
Si Si1 0.561869 0.771450 0.857089
Si Si2 0.017811 0.470051 0.758438
Si Si3 0.903731 0.888991 0.390897
Si Si4 0.740894 0.904204 0.340829
Si Si5 0.236239 0.390235 0.802083
Si Si6 0.885069 0.162236 0.612747
Si Si7 0.571580 0.181896 0.665828
Si Si8 0.498982 0.535828 0.140755
O O1 0.684904 0.801845 0.631253
O O2 0.408446 0.939177 0.755380
O O3 0.493688 0.787457 0.104966
O O4 0.627816 0.556486 0.956313
O O5 0.086315 0.289238 0.762953
O O6 0.156015 0.356403 0.833282
O O7 0.010188 0.645778 0.500471
O O8 0.841894 0.582308 0.954549
O O9 0.779648 0.001684 0.285114
O O10 0.011966 0.923112 0.269237
O O11 0.768617 0.970101 0.623744
O O12 0.168410 0.617779 0.599829
O O13 0.439448 0.204189 0.728249
O O14 0.700115 0.251591 0.785990
O O15 0.000000 0.000000 0.500000
O O16 0.549362 0.363641 0.400418
O O17 0.500000 0.500000 0.000000
#
# Coordination Sequence:
#
# PCOD9025211 Si02
#       8
#     2   2   2   2   2   2   2   2
#     4  11  26  43  71 103 143 190 235 291 353 431
#     4  10  22  40  67  98 143 185 231 296 353 416
#     4  11  24  43  69 103 140 179 238 290 353 426
#     4  11  26  42  69 107 145 185 234 297 355 415
#     4   9  22  39  66 100 135 184 233 289 352 423
#     4  10  23  44  73 103 141 186 236 295 358 430
#     4  11  24  44  70 102 138 186 241 284 358 435
#     4  11  25  47  75 103 141 189 239 302 358 421
#
# _framework density 26.013387000000002
#
# number of rings (size 3 to 8) (size 9 to 14) (size 15 to 20)
#    0.000    1.500    0.000    3.000   15.750    2.000 
#    0.000    2.500    0.000    0.000    0.000    0.000 
#    0.000    0.000    0.000    0.000    0.000    0.000 
#
# Total GULP energy -89472.505129 kJ/mol
# GULP energy per Si atom -5592.031571 kJ/mol
# Density = 2.595418 g / cm^3
# Si number density = 26.013387 Si / 1000 Ang^3
#
#
#
# Elastic Constant Matrix: (Units=GPa)
#
#
# Indices 1 2 3 4 5 6 
#
# 1 126.4340 13.8907 38.1487 1.5737 3.0648 -3.7194
# 2 13.8907 37.5374 4.0243 10.8229 -10.0044 0.0270
# 3 38.1487 4.0243 130.0879 -4.5244 -1.8873 -1.1936
# 4 1.5737 10.8229 -4.5244 32.3128 -10.0947 5.0836
# 5 3.0648 -10.0044 -1.8873 -10.0947 45.0846 3.3471
# 6 -3.7194 0.0270 -1.1936 5.0836 3.3471 40.7982
#
#
#
# Elastic Compliance Matrix: (Units=1/GPa)
#
#
# Indices 1 2 3 4 5 6 
#
# 1 0.009144 -0.003452 -0.002601 -0.000311 -0.001635 0.000933
# 2 -0.003452 0.031930 -0.000207 -0.008960 0.005280 0.000341
# 3 -0.002601 -0.000207 0.008526 0.001711 0.000891 -0.000274
# 4 -0.000311 -0.008960 0.001711 0.037140 0.006803 -0.005158
# 5 -0.001635 0.005280 0.000891 0.006803 0.025250 -0.003046
# 6 0.000933 0.000341 -0.000274 -0.005158 -0.003046 0.025480
#
#
# Mechanical properties :
#
#
# Convention : Reuss Voigt Hill
#
# Bulk Modulus (GPa) = 26.96852 45.13186 36.05019
# Shear Modulus (GPa) = 30.79751 39.50551 35.15151
#
# Velocity S-wave (km/s) = 3.44453 3.90123 3.67997
# Velocity P-wave (km/s) = 5.11951 6.13840 5.65196
#
# Compressibility (1/GPa) = 0.03708027
#
# Stress axis : x y z
#
# Youngs Moduli (GPa) = 109.35928 31.31859 117.28632
#
# Poissons Ratio (x) = 0.10811 0.30503
# Poissons Ratio (y) = 0.37749 0.02432
# Poissons Ratio (z) = 0.28442 0.00650
#
# Static dielectric constant tensor:
#      x y z
#    x 2.068970 -0.002600 0.029930 
#    y -0.002600 2.062350 -0.099850 
#    z 0.029930 -0.099850 2.097980 
# 
# From -- ./inp_files/335614.got.cif
#   From: 2010.05.17/outbox.cif.g08.bks.cpg/sg2_168_cif.got.tgz:335614.got - 2010.06.03 11:33:40.
