data_PCOD9025690
_publ_section_title
;
Structure prediction by ZEFSAII (Michael W. Deem and Ramdas Pophale) SiO2 
 PCOD9025690
Probable space group: P -1
;
_chemical_formula_sum "Si O2"
_cell_formula_units_Z 14
_cell_length_a 8.502123
_cell_length_b 15.512524
_cell_length_c 5.536942
_cell_angle_alpha 111.638341
_cell_angle_beta 87.293985
_cell_angle_gamma 107.297312
_cell_volume 646.497742
_symmetry_space_group_name_H-M "P -1"
_symmetry_group_IT_number 2
_symmetry_cell_setting 'triclinic'
loop_
_space_group_symop_operation_xyz
x,y,z
-x,-y,-z
loop_
_atom_site_type_symbol
_atom_site_label
_atom_site_fract_x
_atom_site_fract_y
_atom_site_fract_z
Si Si1 0.914048 0.455251 0.708138
Si Si2 0.536545 0.451285 0.699159
Si Si3 0.816684 0.228583 0.440431
Si Si4 0.187947 0.041740 0.105256
Si Si5 0.800173 0.137493 0.853057
Si Si6 0.561505 0.921329 0.267394
Si Si7 0.428824 0.221385 0.494664
O O1 0.730049 0.462895 0.713327
O O2 0.900678 0.342495 0.582553
O O3 0.000000 0.500000 0.500000
O O4 0.000000 0.500000 0.000000
O O5 0.500000 0.500000 0.500000
O O6 0.443609 0.334570 0.594998
O O7 0.500000 0.500000 0.000000
O O8 0.859206 0.181727 0.634953
O O9 0.616816 0.214113 0.439685
O O10 0.877766 0.191120 0.149789
O O11 0.285192 0.154326 0.264169
O O12 0.197622 0.973270 0.257577
O O13 0.304860 0.019085 0.868203
O O14 0.000000 0.000000 0.000000
O O15 0.612138 0.138397 0.897245
O O16 0.620088 0.839322 0.315368
O O17 0.500000 0.000000 0.500000
#
# Coordination Sequence:
#
# PCOD9025690 Si02
#       7
#     2   2   2   2   2   2   2
#     4  11  23  45  72 105 139 170 230 306 354 392
#     4  11  26  48  75 101 138 190 239 282 347 428
#     4  10  22  40  70  97 127 177 231 272 330 412
#     4  12  25  41  61  99 144 174 216 283 345 398
#     4  11  21  40  65  96 128 177 229 263 322 418
#     4  11  21  41  71  93 130 178 234 274 324 411
#     4  10  23  42  69  96 132 183 231 273 334 415
#
# _framework density 21.655142000000001
#
# number of rings (size 3 to 8) (size 9 to 14) (size 15 to 20)
#    0.000    1.143    2.857    3.857    2.000    2.857 
#    7.714    0.000    0.000    0.000    0.000    0.000 
#    0.000    0.000    0.000    0.000    0.000    0.000 
#
# Total GULP energy -78073.775258 kJ/mol
# GULP energy per Si atom -5576.698233 kJ/mol
# Density = 2.160585 g / cm^3
# Si number density = 21.655142 Si / 1000 Ang^3
#
#
#
# Elastic Constant Matrix: (Units=GPa)
#
#
# Indices 1 2 3 4 5 6 
#
# 1 63.4342 40.3201 33.6849 4.3551 19.9372 4.6786
# 2 40.3201 191.8376 98.5973 -2.4668 11.9034 -9.8167
# 3 33.6849 98.5973 170.8297 2.8383 13.4215 0.1729
# 4 4.3551 -2.4668 2.8383 39.9575 -0.7396 6.0587
# 5 19.9372 11.9034 13.4215 -0.7396 30.1351 0.6472
# 6 4.6786 -9.8167 0.1729 6.0587 0.6472 32.0208
#
#
#
# Elastic Compliance Matrix: (Units=1/GPa)
#
#
# Indices 1 2 3 4 5 6 
#
# 1 0.023482 -0.003570 -0.001471 -0.002348 -0.013447 -0.003802
# 2 -0.003570 0.008171 -0.004100 0.000764 0.000917 0.002886
# 3 -0.001471 -0.004100 0.008618 -0.000583 -0.001240 -0.000953
# 4 -0.002348 0.000764 -0.000583 0.026080 0.002246 -0.004399
# 5 -0.013447 0.000917 -0.001240 0.002246 0.042304 0.000973
# 6 -0.003802 0.002886 -0.000953 -0.004399 0.000973 0.033488
#
#
# Mechanical properties :
#
#
# Convention : Reuss Voigt Hill
#
# Bulk Modulus (GPa) = 45.47392 85.70069 65.58730
# Shear Modulus (GPa) = 29.80574 37.32263 33.56418
#
# Velocity S-wave (km/s) = 3.71399 4.15601 3.94120
# Velocity P-wave (km/s) = 6.27983 7.91777 7.14588
#
# Compressibility (1/GPa) = 0.02199063
#
# Stress axis : x y z
#
# Youngs Moduli (GPa) = 42.58542 122.38881 116.03688
#
# Poissons Ratio (x) = 0.43693 0.17063
# Poissons Ratio (y) = 0.15203 0.47570
# Poissons Ratio (z) = 0.06262 0.50174
#
# Static dielectric constant tensor:
#      x y z
#    x 1.848050 -0.009650 0.049230 
#    y -0.009650 1.754150 0.000170 
#    z 0.049230 0.000170 1.932610 
# 
# From -- ./inp_files/36264.got.cif
#   From: 2010.05.17/outbox.cif.g08.bks.cpg/sg2_19_cif.got.tgz:36264.got - 2010.06.03 11:33:40.
