data_PCOD9025226
_publ_section_title
;
Structure prediction by ZEFSAII (Michael W. Deem and Ramdas Pophale) SiO2 
 PCOD9025226
Probable space group: P -1
;
_chemical_formula_sum "Si O2"
_cell_formula_units_Z 16
_cell_length_a 13.452112
_cell_length_b 10.879370
_cell_length_c 10.288393
_cell_angle_alpha 121.548121
_cell_angle_beta 31.599696
_cell_angle_gamma 110.438064
_cell_volume 656.487675
_symmetry_space_group_name_H-M "P -1"
_symmetry_group_IT_number 2
_symmetry_cell_setting 'triclinic'
loop_
_space_group_symop_operation_xyz
x,y,z
-x,-y,-z
loop_
_atom_site_type_symbol
_atom_site_label
_atom_site_fract_x
_atom_site_fract_y
_atom_site_fract_z
Si Si1 0.602914 0.264042 0.126252
Si Si2 0.937900 0.356412 0.933012
Si Si3 0.932043 0.222723 0.135804
Si Si4 0.729743 0.708162 0.676569
Si Si5 0.484927 0.991261 0.237326
Si Si6 0.784764 0.941713 0.079604
Si Si7 0.273677 0.551573 0.308626
Si Si8 0.852222 0.154359 0.550869
O O1 0.717101 0.366636 0.136972
O O2 0.773138 0.166025 0.792019
O O3 0.433479 0.343051 0.260835
O O4 0.507288 0.153326 0.258787
O O5 0.081758 0.300548 0.623763
O O6 0.972266 0.248426 0.956859
O O7 0.000000 0.500000 0.000000
O O8 0.793565 0.361621 0.434845
O O9 0.126931 0.184165 0.984574
O O10 0.821252 0.089624 0.186333
O O11 0.784072 0.605034 0.686149
O O12 0.620354 0.872153 0.926295
O O13 0.279690 0.945712 0.427702
O O14 0.574790 0.957554 0.261269
O O15 0.930691 0.911448 0.774733
O O16 0.195576 0.676874 0.357783
O O17 0.500000 0.500000 0.000000
#
# Coordination Sequence:
#
# PCOD9025226 Si02
#       8
#     2   2   2   2   2   2   2   2
#     4  11  24  40  66 100 129 173 222 269 328 390
#     4  12  25  45  63  94 137 174 215 268 329 397
#     4  10  23  43  65  93 134 175 215 272 325 391
#     4  11  24  42  68  98 131 172 219 273 330 389
#     4  11  22  39  68 102 126 171 224 269 334 386
#     4  10  22  43  65  95 132 170 220 275 329 382
#     4  11  20  45  67  90 137 169 220 278 311 392
#     4  10  22  40  68 100 130 171 219 278 326 384
#
# _framework density 24.372126000000002
#
# number of rings (size 3 to 8) (size 9 to 14) (size 15 to 20)
#    0.000    1.250    5.000    2.250    3.500    1.500 
#    4.500    8.750    0.000    0.000    0.000    0.000 
#    0.000    0.000    0.000    0.000    0.000    0.000 
#
# Total GULP energy -89462.570042 kJ/mol
# GULP energy per Si atom -5591.410628 kJ/mol
# Density = 2.431665 g / cm^3
# Si number density = 24.372126 Si / 1000 Ang^3
#
#
#
# Elastic Constant Matrix: (Units=GPa)
#
#
# Indices 1 2 3 4 5 6 
#
# 1 111.6102 39.8343 -8.6599 -23.8315 -23.1044 19.2489
# 2 39.8343 104.8913 26.6350 -11.3346 -18.1108 2.5193
# 3 -8.6599 26.6350 44.4014 -11.6413 0.4776 -6.6118
# 4 -23.8315 -11.3346 -11.6413 43.1143 -5.9510 1.2884
# 5 -23.1044 -18.1108 0.4776 -5.9510 27.9620 -19.5402
# 6 19.2489 2.5193 -6.6118 1.2884 -19.5402 43.3170
#
#
#
# Elastic Compliance Matrix: (Units=1/GPa)
#
#
# Indices 1 2 3 4 5 6 
#
# 1 0.016916 -0.005304 0.009510 0.012292 0.012731 -0.000380
# 2 -0.005304 0.015322 -0.009921 -0.000568 0.008131 0.003636
# 3 0.009510 -0.009921 0.034178 0.012636 0.006383 0.004071
# 4 0.012292 -0.000568 0.012636 0.035939 0.020487 0.004672
# 5 0.012731 0.008131 0.006383 0.020487 0.075603 0.028339
# 6 -0.000380 0.003636 0.004071 0.004672 0.028339 0.036309
#
#
# Mechanical properties :
#
#
# Convention : Reuss Voigt Hill
#
# Bulk Modulus (GPa) = 18.18565 41.83573 30.01069
# Shear Modulus (GPa) = 20.48958 36.41824 28.45391
#
# Velocity S-wave (km/s) = 2.90262 3.86976 3.42054
# Velocity P-wave (km/s) = 4.32568 6.09667 5.28587
#
# Compressibility (1/GPa) = 0.05498841
#
# Stress axis : x y z
#
# Youngs Moduli (GPa) = 59.11524 65.26491 29.25827
#
# Poissons Ratio (x) = 0.34613 -0.27825
# Poissons Ratio (y) = 0.31352 0.29026
# Poissons Ratio (z) = -0.56219 0.64747
#
# Static dielectric constant tensor:
#      x y z
#    x 1.998590 -0.015410 0.006920 
#    y -0.015410 2.007360 0.023300 
#    z 0.006920 0.023300 1.938480 
# 
# From -- ./inp_files/451726.got.cif
#   From: 2010.05.17/outbox.cif.g08.bks.cpg/sg2_226_cif.got.tgz:451726.got - 2010.06.03 11:33:40.
