data_PCOD9025626
_publ_section_title
;
Structure prediction by ZEFSAII (Michael W. Deem and Ramdas Pophale) SiO2 
 PCOD9025626
Probable space group: P -1
;
_chemical_formula_sum "Si O2"
_cell_formula_units_Z 16
_cell_length_a 8.468450
_cell_length_b 9.220195
_cell_length_c 11.547321
_cell_angle_alpha 117.703490
_cell_angle_beta 73.514967
_cell_angle_gamma 120.262712
_cell_volume 688.037076
_symmetry_space_group_name_H-M "P -1"
_symmetry_group_IT_number 2
_symmetry_cell_setting 'triclinic'
loop_
_space_group_symop_operation_xyz
x,y,z
-x,-y,-z
loop_
_atom_site_type_symbol
_atom_site_label
_atom_site_fract_x
_atom_site_fract_y
_atom_site_fract_z
Si Si1 0.942734 0.244607 0.249885
Si Si2 0.490682 0.498197 0.361477
Si Si3 0.708735 0.104634 0.035777
Si Si4 0.808361 0.903273 0.748777
Si Si5 0.182721 0.550786 0.135827
Si Si6 0.803006 0.526025 0.146388
Si Si7 0.326174 0.916944 0.345656
Si Si8 0.305339 0.752875 0.518970
O O1 0.787922 0.099928 0.144423
O O2 0.843868 0.336835 0.383842
O O3 0.025432 0.147079 0.283021
O O4 0.099120 0.395405 0.193607
O O5 0.500000 0.500000 0.500000
O O6 0.372576 0.288841 0.272381
O O7 0.680238 0.574960 0.279102
O O8 0.382876 0.617726 0.403785
O O9 0.748417 0.313051 0.094526
O O10 0.500000 0.000000 0.000000
O O11 0.816303 0.038051 0.899653
O O12 0.781494 0.991960 0.669462
O O13 0.338138 0.748928 0.212090
O O14 0.017268 0.606297 0.160464
O O15 0.225329 0.461127 0.980150
O O16 0.235330 0.827620 0.453086
O O17 0.524168 0.077112 0.395294
#
# Coordination Sequence:
#
# PCOD9025626 Si02
#       8
#     2   2   2   2   2   2   2   2
#     4  11  26  45  72 105 143 184 229 289 346 427
#     4  12  23  42  72 103 139 190 236 277 348 424
#     4  11  20  42  73 102 134 181 226 288 348 405
#     4  12  24  42  72 104 138 182 238 285 352 407
#     4  10  22  44  69  99 142 179 228 288 358 398
#     4  10  22  40  70 103 138 181 229 285 347 420
#     4  11  24  47  70  99 140 184 232 296 340 409
#     4  11  26  48  68 103 142 185 241 277 348 420
#
# _framework density 23.254559
#
# number of rings (size 3 to 8) (size 9 to 14) (size 15 to 20)
#    0.000    1.000    3.750    3.375    0.000    3.500 
#    4.500    3.750    0.000    0.000    0.000    0.000 
#    0.000    0.000    0.000    0.000    0.000    0.000 
#
# Total GULP energy -89405.973417 kJ/mol
# GULP energy per Si atom -5587.873339 kJ/mol
# Density = 2.320163 g / cm^3
# Si number density = 23.254559 Si / 1000 Ang^3
#
#
#
# Elastic Constant Matrix: (Units=GPa)
#
#
# Indices 1 2 3 4 5 6 
#
# 1 77.6142 26.6052 48.1757 -11.6083 8.3768 -19.6745
# 2 26.6052 72.0904 30.6934 -6.9372 6.9479 -17.1432
# 3 48.1757 30.6934 131.7141 -21.0062 -11.6710 -10.5220
# 4 -11.6083 -6.9372 -21.0062 43.4551 3.5015 9.8397
# 5 8.3768 6.9479 -11.6710 3.5015 46.9693 -0.2624
# 6 -19.6745 -17.1432 -10.5220 9.8397 -0.2624 30.7466
#
#
#
# Elastic Compliance Matrix: (Units=1/GPa)
#
#
# Indices 1 2 3 4 5 6 
#
# 1 0.020841 -0.001952 -0.006809 0.000148 -0.005076 0.009827
# 2 -0.001952 0.018085 -0.003257 -0.000761 -0.003035 0.007938
# 3 -0.006809 -0.003257 0.011534 0.003653 0.004271 -0.003358
# 4 0.000148 -0.000761 0.003653 0.026492 -0.001023 -0.007566
# 5 -0.005076 -0.003035 0.004271 -0.001023 0.023766 -0.002949
# 6 0.009827 0.007938 -0.003358 -0.007566 -0.002949 0.044485
#
#
# Mechanical properties :
#
#
# Convention : Reuss Voigt Hill
#
# Bulk Modulus (GPa) = 37.84305 54.70746 46.27526
# Shear Modulus (GPa) = 28.08246 35.96382 32.02314
#
# Velocity S-wave (km/s) = 3.47884 3.93686 3.71491
# Velocity P-wave (km/s) = 5.69606 6.65144 6.19221
#
# Compressibility (1/GPa) = 0.02642493
#
# Stress axis : x y z
#
# Youngs Moduli (GPa) = 47.98290 55.29332 86.69745
#
# Poissons Ratio (x) = 0.10794 0.59032
# Poissons Ratio (y) = 0.09367 0.28235
# Poissons Ratio (z) = 0.32672 0.18007
#
# Static dielectric constant tensor:
#      x y z
#    x 1.951350 0.022780 0.048760 
#    y 0.022780 1.888210 -0.026680 
#    z 0.048760 -0.026680 1.901320 
# 
# From -- ./inp_files/383185.got.cif
#   From: 2010.05.17/outbox.cif.g08.bks.cpg/sg2_192_cif.got.tgz:383185.got - 2010.06.03 11:33:40.
