data_PCOD9025611
_publ_section_title
;
Structure prediction by ZEFSAII (Michael W. Deem and Ramdas Pophale) SiO2 
 PCOD9025611
Probable space group: P -1
;
_chemical_formula_sum "Si O2"
_cell_formula_units_Z 15
_cell_length_a 7.700314
_cell_length_b 12.204174
_cell_length_c 7.589112
_cell_angle_alpha 74.787510
_cell_angle_beta 119.761154
_cell_angle_gamma 120.224493
_cell_volume 534.886752
_symmetry_space_group_name_H-M "P -1"
_symmetry_group_IT_number 2
_symmetry_cell_setting 'triclinic'
loop_
_space_group_symop_operation_xyz
x,y,z
-x,-y,-z
loop_
_atom_site_type_symbol
_atom_site_label
_atom_site_fract_x
_atom_site_fract_y
_atom_site_fract_z
Si Si1 0.696842 0.933428 0.489941
Si Si2 0.335123 0.901791 0.093892
Si Si3 0.841649 0.350734 0.471732
Si Si4 0.000000 0.000000 0.000000
Si Si5 0.376160 0.218886 0.133300
Si Si6 0.741808 0.360763 0.795438
Si Si7 0.795911 0.600319 0.865202
Si Si8 0.930088 0.787062 0.517867
O O1 0.457241 0.925305 0.334454
O O2 0.731491 0.901901 0.723326
O O3 0.734956 0.828685 0.439449
O O4 0.864569 0.072151 0.448429
O O5 0.318670 0.768406 0.080969
O O6 0.107384 0.907980 0.010619
O O7 0.500000 0.000000 0.000000
O O8 0.644379 0.279246 0.258187
O O9 0.694015 0.332065 0.579040
O O10 0.007921 0.285905 0.573237
O O11 0.000000 0.500000 0.500000
O O12 0.794625 0.871584 0.059081
O O13 0.327546 0.336052 0.111105
O O14 0.654226 0.457580 0.781737
O O15 0.013065 0.416767 0.920647
O O16 0.896651 0.691904 0.707388
#
# Coordination Sequence:
#
# PCOD9025611 Si02
#       8
#     2   2   2   1   2   2   2   2
#     4  10  23  41  70 102 138 190 242 300 377 436
#     4  12  26  45  72 110 144 193 250 307 378 445
#     4  12  25  44  71 107 145 192 248 309 372 448
#     4  12  28  48  72 108 156 186 246 324 368 444
#     4  11  25  45  71 105 147 191 243 309 376 436
#     4  11  23  43  72  98 145 197 243 302 375 443
#     4  10  22  45  68  94 145 194 238 300 367 450
#     4  10  22  40  70 101 142 184 246 306 364 449
#
# _framework density 28.043317999999999
#
# number of rings (size 3 to 8) (size 9 to 14) (size 15 to 20)
#    0.000    1.067    4.000    1.600    5.600    2.667 
#    0.000    0.667    0.000    0.000    0.000    0.000 
#    0.000    0.000    0.000    0.000    0.000    0.000 
#
# Total GULP energy -83669.363605 kJ/mol
# GULP energy per Si atom -5577.957574 kJ/mol
# Density = 2.797949 g / cm^3
# Si number density = 28.043318 Si / 1000 Ang^3
#
#
#
# Elastic Constant Matrix: (Units=GPa)
#
#
# Indices 1 2 3 4 5 6 
#
# 1 113.1000 70.1657 22.4234 -0.4256 21.3562 -14.4030
# 2 70.1657 235.2903 17.8452 -3.4099 1.2510 -27.6637
# 3 22.4234 17.8452 62.4568 -7.2653 6.5766 -9.5197
# 4 -0.4256 -3.4099 -7.2653 26.7116 -4.3610 -0.1863
# 5 21.3562 1.2510 6.5766 -4.3610 42.3832 -0.2587
# 6 -14.4030 -27.6637 -9.5197 -0.1863 -0.2587 67.1656
#
#
#
# Elastic Compliance Matrix: (Units=1/GPa)
#
#
# Indices 1 2 3 4 5 6 
#
# 1 0.012885 -0.003505 -0.003092 -0.002076 -0.006118 0.000852
# 2 -0.003505 0.005487 -0.000160 0.000894 0.001730 0.001495
# 3 -0.003092 -0.000160 0.018077 0.004739 -0.000743 0.001844
# 4 -0.002076 0.000894 0.004739 0.039523 0.004355 0.000721
# 5 -0.006118 0.001730 -0.000743 0.004355 0.027186 -0.000588
# 6 0.000852 0.001495 0.001844 0.000721 -0.000588 0.015948
#
#
# Mechanical properties :
#
#
# Convention : Reuss Voigt Hill
#
# Bulk Modulus (GPa) = 43.60032 70.19064 56.89548
# Shear Modulus (GPa) = 35.64663 47.27961 41.46312
#
# Velocity S-wave (km/s) = 3.56916 4.11049 3.84935
# Velocity P-wave (km/s) = 5.70670 6.90013 6.33160
#
# Compressibility (1/GPa) = 0.02293561
#
# Stress axis : x y z
#
# Youngs Moduli (GPa) = 77.60746 182.24807 55.31795
#
# Poissons Ratio (x) = 0.63886 0.17105
# Poissons Ratio (y) = 0.27205 0.00883
# Poissons Ratio (z) = 0.23997 0.02908
#
# Static dielectric constant tensor:
#      x y z
#    x 2.278610 0.149520 -0.066350 
#    y 0.149520 2.226950 -0.099710 
#    z -0.066350 -0.099710 1.753600 
# 
# From -- ./inp_files/186981.got.cif
#   From: 2010.05.17/outbox.cif.g08.bks.cpg/sg2_94_cif.got.tgz:186981.got - 2010.06.03 11:33:40.
