data_PCOD9025913
_publ_section_title
;
Structure prediction by ZEFSAII (Michael W. Deem and Ramdas Pophale) SiO2 
 PCOD9025913
Probable space group: P -1
;
_chemical_formula_sum "Si O2"
_cell_formula_units_Z 12
_cell_length_a 8.952413
_cell_length_b 5.480889
_cell_length_c 15.286736
_cell_angle_alpha 108.915953
_cell_angle_beta 133.829197
_cell_angle_gamma 54.533115
_cell_volume 436.844247
_symmetry_space_group_name_H-M "P -1"
_symmetry_group_IT_number 2
_symmetry_cell_setting 'triclinic'
loop_
_space_group_symop_operation_xyz
x,y,z
-x,-y,-z
loop_
_atom_site_type_symbol
_atom_site_label
_atom_site_fract_x
_atom_site_fract_y
_atom_site_fract_z
Si Si1 0.249540 0.268557 0.626829
Si Si2 0.053425 0.871570 0.786599
Si Si3 0.439008 0.623986 0.124487
Si Si4 0.627136 0.783117 0.608326
Si Si5 0.726428 0.829724 0.004426
Si Si6 0.041091 0.859910 0.403087
O O1 0.435725 0.381015 0.732601
O O2 0.000000 0.500000 0.500000
O O3 0.169166 0.221039 0.684015
O O4 0.413199 0.941401 0.610154
O O5 0.330095 0.596827 0.870015
O O6 0.853986 0.809000 0.735707
O O7 0.052462 0.163028 0.857483
O O8 0.002204 0.922643 0.668500
O O9 0.271111 0.478625 0.048259
O O10 0.316543 0.957397 0.072324
O O11 0.268891 0.545609 0.428110
O O12 0.500000 0.000000 0.500000
O O13 0.500000 0.000000 0.000000
O O14 0.000000 0.000000 0.500000
#
# Coordination Sequence:
#
# PCOD9025913 Si02
#       6
#     2   2   2   2   2   2
#     4  12  24  47  73 108 154 195 251 312 391 459
#     4  11  24  43  72 108 145 196 254 319 376 457
#     4  11  22  43  73 110 147 205 251 314 381 457
#     4  12  26  46  71 110 150 193 255 314 388 461
#     4  10  22  40  75 108 147 197 265 307 380 453
#     4  12  26  45  74 106 154 195 250 312 393 458
#
# _framework density 27.469743000000001
#
# number of rings (size 3 to 8) (size 9 to 14) (size 15 to 20)
#    0.000    0.667    3.333    6.000    2.333    2.667 
#    3.000    1.667    0.000    0.000    0.000    0.000 
#    0.000    0.000    0.000    0.000    0.000    0.000 
#
# Total GULP energy -67103.753640 kJ/mol
# GULP energy per Si atom -5591.979470 kJ/mol
# Density = 2.740722 g / cm^3
# Si number density = 27.469743 Si / 1000 Ang^3
#
#
#
# Elastic Constant Matrix: (Units=GPa)
#
#
# Indices 1 2 3 4 5 6 
#
# 1 135.6860 63.3216 41.7940 -1.6346 23.9079 -20.2984
# 2 63.3216 161.9312 70.7205 17.3463 6.4539 -0.8007
# 3 41.7940 70.7205 163.3484 37.0269 4.8159 -1.0636
# 4 -1.6346 17.3463 37.0269 56.8157 12.3745 1.1095
# 5 23.9079 6.4539 4.8159 12.3745 39.6749 -4.5187
# 6 -20.2984 -0.8007 -1.0636 1.1095 -4.5187 55.8305
#
#
#
# Elastic Compliance Matrix: (Units=1/GPa)
#
#
# Indices 1 2 3 4 5 6 
#
# 1 0.011593 -0.003792 -0.002071 0.004313 -0.007068 0.003463
# 2 -0.003792 0.008884 -0.002605 -0.001421 0.001468 -0.001154
# 3 -0.002071 -0.002605 0.008982 -0.005611 0.002295 -0.000322
# 4 0.004313 -0.001421 -0.005611 0.023789 -0.009080 0.000233
# 5 -0.007068 0.001468 0.002295 -0.009080 0.031807 0.000250
# 6 0.003463 -0.001154 -0.000322 0.000233 0.000250 0.019163
#
#
# Mechanical properties :
#
#
# Convention : Reuss Voigt Hill
#
# Bulk Modulus (GPa) = 79.85308 90.29308 85.07308
# Shear Modulus (GPa) = 39.89541 49.47284 44.68413
#
# Velocity S-wave (km/s) = 3.81509 4.24842 4.03757
# Velocity P-wave (km/s) = 6.96700 7.55028 7.26450
#
# Compressibility (1/GPa) = 0.01252300
#
# Stress axis : x y z
#
# Youngs Moduli (GPa) = 86.25852 112.56404 111.33824
#
# Poissons Ratio (x) = 0.42684 0.23060
# Poissons Ratio (y) = 0.32709 0.29000
# Poissons Ratio (z) = 0.17865 0.29319
#
# Static dielectric constant tensor:
#      x y z
#    x 2.118080 -0.058640 -0.003920 
#    y -0.058640 2.544310 0.189330 
#    z -0.003920 0.189330 2.341610 
# 
# From -- ./inp_files/592813.got.cif
#   From: 2010.05.17/outbox.cif.g08.bks.cpg/sg2_297_cif.got.tgz:592813.got - 2010.06.03 11:33:40.
