data_PCOD9025339
_publ_section_title
;
Structure prediction by ZEFSAII (Michael W. Deem and Ramdas Pophale) SiO2 
 PCOD9025339
Probable space group: P -1
;
_chemical_formula_sum "Si O2"
_cell_formula_units_Z 15
_cell_length_a 7.921659
_cell_length_b 8.706123
_cell_length_c 13.393725
_cell_angle_alpha 69.858452
_cell_angle_beta 137.938189
_cell_angle_gamma 99.463664
_cell_volume 574.844106
_symmetry_space_group_name_H-M "P -1"
_symmetry_group_IT_number 2
_symmetry_cell_setting 'triclinic'
loop_
_space_group_symop_operation_xyz
x,y,z
-x,-y,-z
loop_
_atom_site_type_symbol
_atom_site_label
_atom_site_fract_x
_atom_site_fract_y
_atom_site_fract_z
Si Si1 0.617667 0.511136 0.269729
Si Si2 0.424594 0.361091 0.570780
Si Si3 0.000000 0.500000 0.000000
Si Si4 0.770725 0.944771 0.540088
Si Si5 0.015700 0.761695 0.096839
Si Si6 0.482870 0.811624 0.006878
Si Si7 0.302964 0.823691 0.715360
Si Si8 0.029795 0.046811 0.168879
O O1 0.711115 0.549161 0.412549
O O2 0.759125 0.347019 0.317366
O O3 0.633386 0.668463 0.171046
O O4 0.318431 0.483502 0.152379
O O5 0.500000 0.500000 0.500000
O O6 0.292164 0.234285 0.475945
O O7 0.676158 0.252845 0.753526
O O8 0.026799 0.419796 0.914949
O O9 0.067417 0.938623 0.638805
O O10 0.766583 0.985817 0.646057
O O11 0.622979 0.076207 0.369949
O O12 0.920520 0.868619 0.932990
O O13 0.941908 0.872321 0.137891
O O14 0.497057 0.783624 0.900888
O O15 0.185849 0.812472 0.911710
O O16 0.500000 0.000000 0.000000
#
# Coordination Sequence:
#
# PCOD9025339 Si02
#       8
#     2   2   1   2   2   2   2   2
#     4  11  24  43  66 103 129 176 222 270 342 390
#     4  11  25  42  63  98 137 172 219 276 333 399
#     4  10  22  40  68  94 142 154 214 286 320 390
#     4  10  24  46  65  95 139 174 222 281 324 397
#     4  10  23  40  65  96 127 178 217 265 336 391
#     4  11  22  42  65  95 133 169 222 277 313 400
#     4  10  24  42  69  93 130 180 225 268 337 390
#     4  10  22  42  65  93 129 172 224 266 332 394
#
# _framework density 26.09403
#
# number of rings (size 3 to 8) (size 9 to 14) (size 15 to 20)
#    0.000    1.600    2.667    1.200    7.467    2.133 
#    2.400    0.000    0.000    0.000    0.000    0.000 
#    0.000    0.000    0.000    0.000    0.000    0.000 
#
# Total GULP energy -83606.663421 kJ/mol
# GULP energy per Si atom -5573.777561 kJ/mol
# Density = 2.603464 g / cm^3
# Si number density = 26.094030 Si / 1000 Ang^3
#
#
#
# Elastic Constant Matrix: (Units=GPa)
#
#
# Indices 1 2 3 4 5 6 
#
# 1 75.7079 24.8362 40.6415 1.9196 -29.1584 -22.6724
# 2 24.8362 140.5324 61.4507 21.0700 -46.7726 -13.3006
# 3 40.6415 61.4507 157.9857 25.1922 -55.4931 2.0486
# 4 1.9196 21.0700 25.1922 61.1157 -0.1805 -7.3284
# 5 -29.1584 -46.7726 -55.4931 -0.1805 61.8395 4.6238
# 6 -22.6724 -13.3006 2.0486 -7.3284 4.6238 40.7107
#
#
#
# Elastic Compliance Matrix: (Units=1/GPa)
#
#
# Indices 1 2 3 4 5 6 
#
# 1 0.020931 0.000886 -0.004146 0.002188 0.005937 0.011874
# 2 0.000886 0.010566 -0.001561 -0.002675 0.006794 0.002771
# 3 -0.004146 -0.001561 0.011443 -0.004636 0.007499 -0.005081
# 4 0.002188 -0.002675 -0.004636 0.019679 -0.005448 0.004739
# 5 0.005937 0.006794 0.007499 -0.005448 0.030772 0.000673
# 6 0.011874 0.002771 -0.005081 0.004739 0.000673 0.033114
#
#
# Mechanical properties :
#
#
# Convention : Reuss Voigt Hill
#
# Bulk Modulus (GPa) = 30.03270 69.78697 49.90983
# Shear Modulus (GPa) = 33.95656 49.21968 41.58812
#
# Velocity S-wave (km/s) = 3.61129 4.34780 3.99655
# Velocity P-wave (km/s) = 5.37801 7.21159 6.36121
#
# Compressibility (1/GPa) = 0.03329704
#
# Stress axis : x y z
#
# Youngs Moduli (GPa) = 47.77563 94.64157 87.39316
#
# Poissons Ratio (x) = -0.08383 0.36238
# Poissons Ratio (y) = -0.04232 0.13640
# Poissons Ratio (z) = 0.19810 0.14771
#
# Static dielectric constant tensor:
#      x y z
#    x 2.312290 0.054080 0.093780 
#    y 0.054080 2.023190 -0.001980 
#    z 0.093780 -0.001980 2.033250 
# 
# From -- ./inp_files/378481.got.cif
#   From: 2010.05.17/outbox.cif.g08.bks.cpg/sg2_190_cif.got.tgz:378481.got - 2010.06.03 11:33:40.
