data_PCOD9025576
_publ_section_title
;
Structure prediction by ZEFSAII (Michael W. Deem and Ramdas Pophale) SiO2 
 PCOD9025576
Probable space group: P -1
;
_chemical_formula_sum "Si O2"
_cell_formula_units_Z 16
_cell_length_a 13.258324
_cell_length_b 9.214828
_cell_length_c 9.325759
_cell_angle_alpha 48.436915
_cell_angle_beta 70.592873
_cell_angle_gamma 96.591480
_cell_volume 707.545509
_symmetry_space_group_name_H-M "P -1"
_symmetry_group_IT_number 2
_symmetry_cell_setting 'triclinic'
loop_
_space_group_symop_operation_xyz
x,y,z
-x,-y,-z
loop_
_atom_site_type_symbol
_atom_site_label
_atom_site_fract_x
_atom_site_fract_y
_atom_site_fract_z
Si Si1 0.350498 0.580503 0.842665
Si Si2 0.454928 0.447456 0.390802
Si Si3 0.864154 0.169497 0.278060
Si Si4 0.365607 0.798495 0.167798
Si Si5 0.139202 0.113836 0.299650
Si Si6 0.218012 0.615329 0.621954
Si Si7 0.067456 0.124242 0.030772
Si Si8 0.661502 0.079051 0.207786
O O1 0.435402 0.476083 0.825226
O O2 0.326308 0.674353 0.644427
O O3 0.406716 0.786890 0.788018
O O4 0.220328 0.379049 0.083853
O O5 0.500000 0.500000 0.500000
O O6 0.379923 0.576266 0.304849
O O7 0.392067 0.182461 0.583038
O O8 0.886232 0.359358 0.258445
O O9 0.778867 0.174403 0.190447
O O10 0.971621 0.158955 0.150689
O O11 0.800043 0.964491 0.553560
O O12 0.273783 0.765311 0.361165
O O13 0.316178 0.849838 0.013169
O O14 0.500000 0.000000 0.000000
O O15 0.126926 0.043011 0.182893
O O16 0.000000 0.000000 0.500000
O O17 0.169333 0.361244 0.775207
O O18 0.000000 0.000000 0.000000
#
# Coordination Sequence:
#
# PCOD9025576 Si02
#       8
#     2   2   2   2   2   2   2   2
#     4  10  22  43  67  97 132 177 221 277 330 397
#     4  12  24  43  69  93 139 179 220 277 342 389
#     4  10  23  42  66  95 135 176 220 270 336 392
#     4  12  26  43  67  99 135 177 227 276 336 398
#     4   9  21  41  68  97 134 173 219 267 338 397
#     4  10  22  42  66  90 134 174 217 271 333 396
#     4  10  22  40  69  99 132 168 221 276 329 401
#     4  11  26  43  67 100 137 171 233 276 329 401
#
# _framework density 22.613385999999998
#
# number of rings (size 3 to 8) (size 9 to 14) (size 15 to 20)
#    0.000    1.500    2.500    0.750    5.250    4.500 
#    0.000    1.250    0.000    0.000    0.000    0.000 
#    0.000    0.000    0.000    0.000    0.000    0.000 
#
# Total GULP energy -89173.288844 kJ/mol
# GULP energy per Si atom -5573.330553 kJ/mol
# Density = 2.256192 g / cm^3
# Si number density = 22.613386 Si / 1000 Ang^3
#
#
#
# Elastic Constant Matrix: (Units=GPa)
#
#
# Indices 1 2 3 4 5 6 
#
# 1 59.2497 20.3734 38.1844 13.9125 20.7868 -6.6989
# 2 20.3734 111.4821 65.7391 6.2960 -1.2940 4.2111
# 3 38.1844 65.7391 148.4032 16.0993 18.6887 15.1029
# 4 13.9125 6.2960 16.0993 34.7739 1.3655 5.1257
# 5 20.7868 -1.2940 18.6887 1.3655 36.6647 14.0514
# 6 -6.6989 4.2111 15.1029 5.1257 14.0514 38.4689
#
#
#
# Elastic Compliance Matrix: (Units=1/GPa)
#
#
# Indices 1 2 3 4 5 6 
#
# 1 0.035011 -0.003861 -0.004760 -0.012951 -0.024364 0.019013
# 2 -0.003861 0.012984 -0.005505 0.001861 0.006341 -0.002497
# 3 -0.004760 -0.005505 0.011177 -0.001650 -0.001683 -0.003780
# 4 -0.012951 0.001861 -0.001650 0.035489 0.010969 -0.010546
# 5 -0.024364 0.006341 -0.001683 0.010969 0.051114 -0.024408
# 6 0.019013 -0.002497 -0.003780 -0.010546 -0.024408 0.041384
#
#
# Mechanical properties :
#
#
# Convention : Reuss Voigt Hill
#
# Bulk Modulus (GPa) = 32.33995 63.08097 47.71046
# Shear Modulus (GPa) = 22.15145 34.97071 28.56108
#
# Velocity S-wave (km/s) = 3.13321 3.93677 3.55775
# Velocity P-wave (km/s) = 5.23656 6.97282 6.16611
#
# Compressibility (1/GPa) = 0.03092150
#
# Stress axis : x y z
#
# Youngs Moduli (GPa) = 28.56232 77.01519 89.46770
#
# Poissons Ratio (x) = 0.29736 0.42586
# Poissons Ratio (y) = 0.11028 0.49249
# Poissons Ratio (z) = 0.13595 0.42394
#
# Static dielectric constant tensor:
#      x y z
#    x 1.988180 -0.078150 -0.002700 
#    y -0.078150 1.885440 -0.022740 
#    z -0.002700 -0.022740 1.852290 
# 
# From -- ./inp_files/297386.got.cif
#   From: 2010.05.17/outbox.cif.g08.bks.cpg/sg2_149_cif.got.tgz:297386.got - 2010.06.03 11:33:40.
