data_PCOD9025633
_publ_section_title
;
Structure prediction by ZEFSAII (Michael W. Deem and Ramdas Pophale) SiO2 
 PCOD9025633
Probable space group: P -1
;
_chemical_formula_sum "Si O2"
_cell_formula_units_Z 15
_cell_length_a 14.077039
_cell_length_b 5.368778
_cell_length_c 9.878887
_cell_angle_alpha 91.218871
_cell_angle_beta 55.222618
_cell_angle_gamma 93.673164
_cell_volume 611.881768
_symmetry_space_group_name_H-M "P -1"
_symmetry_group_IT_number 2
_symmetry_cell_setting 'triclinic'
loop_
_space_group_symop_operation_xyz
x,y,z
-x,-y,-z
loop_
_atom_site_type_symbol
_atom_site_label
_atom_site_fract_x
_atom_site_fract_y
_atom_site_fract_z
Si Si1 0.365372 0.603166 0.250357
Si Si2 0.000000 0.000000 0.500000
Si Si3 0.432171 0.969948 0.413247
Si Si4 0.569651 0.237556 0.074949
Si Si5 0.772138 0.397603 0.105072
Si Si6 0.116160 0.590840 0.492956
Si Si7 0.996473 0.763718 0.218057
Si Si8 0.775695 0.907050 0.271762
O O1 0.459811 0.404427 0.156521
O O2 0.233245 0.498846 0.338321
O O3 0.377071 0.712021 0.393469
O O4 0.391625 0.807403 0.111241
O O5 0.112622 0.884291 0.481622
O O6 0.045739 0.919624 0.309770
O O7 0.525611 0.037949 0.220457
O O8 0.318878 0.125202 0.531413
O O9 0.500000 0.000000 0.500000
O O10 0.680162 0.378919 0.057785
O O11 0.762530 0.664311 0.185087
O O12 0.747627 0.163829 0.223568
O O13 0.899860 0.353405 0.945406
O O14 0.087032 0.466070 0.657582
O O15 0.000000 0.500000 0.500000
O O16 0.909953 0.923010 0.205719
#
# Coordination Sequence:
#
# PCOD9025633 Si02
#       8
#     2   1   2   2   2   2   2   2
#     4  11  25  46  74 109 149 199 257 318 391 461
#     4  10  22  40  70 104 140 192 244 308 382 448
#     4  12  25  45  73 106 150 199 256 316 379 460
#     4  11  25  46  74 107 150 198 255 319 383 459
#     4  12  28  49  72 112 152 204 255 317 385 459
#     4  10  22  42  68 107 145 194 247 311 384 455
#     4  11  25  44  73 106 151 198 254 321 384 467
#     4  12  28  46  76 107 153 203 258 316 388 456
#
# _framework density 24.514541000000001
#
# number of rings (size 3 to 8) (size 9 to 14) (size 15 to 20)
#    0.000    0.800    1.333    5.200    7.467    2.133 
#    0.000    0.000    0.000    0.000    0.000    0.000 
#    0.000    0.000    0.000    0.000    0.000    0.000 
#
# Total GULP energy -83524.109165 kJ/mol
# GULP energy per Si atom -5568.273944 kJ/mol
# Density = 2.445874 g / cm^3
# Si number density = 24.514541 Si / 1000 Ang^3
#
#
#
# Elastic Constant Matrix: (Units=GPa)
#
#
# Indices 1 2 3 4 5 6 
#
# 1 121.2235 14.6742 41.1339 2.2847 -13.7168 6.2286
# 2 14.6742 54.1062 30.3023 8.8027 9.5532 3.0449
# 3 41.1339 30.3023 114.3843 3.5228 -15.5376 12.5326
# 4 2.2847 8.8027 3.5228 42.3780 -2.6753 9.5339
# 5 -13.7168 9.5532 -15.5376 -2.6753 53.3185 12.6399
# 6 6.2286 3.0449 12.5326 9.5339 12.6399 33.8426
#
#
#
# Elastic Compliance Matrix: (Units=1/GPa)
#
#
# Indices 1 2 3 4 5 6 
#
# 1 0.009669 -0.001648 -0.002521 0.000594 0.002504 -0.001800
# 2 -0.001648 0.025706 -0.007935 -0.006561 -0.009139 0.006190
# 3 -0.002521 -0.007935 0.013295 0.002632 0.006411 -0.006881
# 4 0.000594 -0.006561 0.002632 0.027434 0.005947 -0.010443
# 5 0.002504 -0.009139 0.006411 0.005947 0.026417 -0.013555
# 6 -0.001800 0.006190 -0.006881 -0.010443 -0.013555 0.039876
#
#
# Mechanical properties :
#
#
# Convention : Reuss Voigt Hill
#
# Bulk Modulus (GPa) = 40.88050 51.32610 46.10330
# Shear Modulus (GPa) = 28.61100 39.48139 34.04620
#
# Velocity S-wave (km/s) = 3.42000 4.01749 3.73073
# Velocity P-wave (km/s) = 5.68396 6.51942 6.11597
#
# Compressibility (1/GPa) = 0.02446154
#
# Stress axis : x y z
#
# Youngs Moduli (GPa) = 103.42388 38.90210 75.21647
#
# Poissons Ratio (x) = 0.06410 0.18965
# Poissons Ratio (y) = 0.17041 0.59683
# Poissons Ratio (z) = 0.26077 0.30868
#
# Static dielectric constant tensor:
#      x y z
#    x 1.983700 0.049200 0.040850 
#    y 0.049200 2.093940 -0.052980 
#    z 0.040850 -0.052980 2.003860 
# 
# From -- ./inp_files/288753.got.cif
#   From: 2010.05.17/outbox.cif.g08.bks.cpg/sg2_145_cif.got.tgz:288753.got - 2010.06.03 11:33:40.
