data_PCOD9025264
_publ_section_title
;
Structure prediction by ZEFSAII (Michael W. Deem and Ramdas Pophale) SiO2 
 PCOD9025264
Probable space group: P -1
;
_chemical_formula_sum "Si O2"
_cell_formula_units_Z 16
_cell_length_a 5.098631
_cell_length_b 16.408965
_cell_length_c 9.115840
_cell_angle_alpha 82.528879
_cell_angle_beta 104.248206
_cell_angle_gamma 121.582514
_cell_volume 629.714457
_symmetry_space_group_name_H-M "P -1"
_symmetry_group_IT_number 2
_symmetry_cell_setting 'triclinic'
loop_
_space_group_symop_operation_xyz
x,y,z
-x,-y,-z
loop_
_atom_site_type_symbol
_atom_site_label
_atom_site_fract_x
_atom_site_fract_y
_atom_site_fract_z
Si Si1 0.234233 0.228608 0.274522
Si Si2 0.247445 0.348892 0.009810
Si Si3 0.635642 0.767402 0.187259
Si Si4 0.640356 0.091835 0.393544
Si Si5 0.305775 0.094654 0.075936
Si Si6 0.794801 0.239860 0.609370
Si Si7 0.099987 0.490761 0.858266
Si Si8 0.917442 0.405633 0.419812
O O1 0.267002 0.162330 0.172797
O O2 0.554901 0.321379 0.356468
O O3 0.005284 0.161261 0.385336
O O4 0.072312 0.273913 0.135279
O O5 0.404909 0.310893 0.922892
O O6 0.060252 0.386219 0.878157
O O7 0.525943 0.438080 0.113358
O O8 0.434648 0.749563 0.311213
O O9 0.992094 0.798388 0.279029
O O10 0.580970 0.842572 0.070641
O O11 0.496841 0.063189 0.216256
O O12 0.592404 0.164855 0.471159
O O13 0.500000 0.000000 0.500000
O O14 0.000000 0.000000 0.000000
O O15 0.027242 0.342555 0.538246
O O16 0.949397 0.538269 0.726300
O O17 0.000000 0.500000 0.000000
O O18 0.000000 0.500000 0.500000
#
# Coordination Sequence:
#
# PCOD9025264 Si02
#       8
#     2   2   2   2   2   2   2   2
#     4  10  24  47  75 112 161 208 265 335 396 489
#     4   9  22  41  68 104 145 204 262 326 385 459
#     4  11  27  47  77 109 156 208 267 327 398 488
#     4  12  28  49  82 114 162 212 260 344 421 483
#     4  11  26  48  80 111 149 210 274 331 404 487
#     4  12  27  50  74 118 163 209 266 338 409 482
#     4  10  22  40  68 103 145 202 270 325 382 467
#     4  11  24  46  74 114 158 217 262 325 406 476
#
# _framework density 25.408345000000001
#
# number of rings (size 3 to 8) (size 9 to 14) (size 15 to 20)
#    0.000    1.250    1.250    2.250   10.500    1.000 
#    2.250    3.125    0.000    0.000    0.000    0.000 
#    0.000    0.000    0.000    0.000    0.000    0.000 
#
# Total GULP energy -89128.857065 kJ/mol
# GULP energy per Si atom -5570.553567 kJ/mol
# Density = 2.535051 g / cm^3
# Si number density = 25.408345 Si / 1000 Ang^3
#
#
#
# Elastic Constant Matrix: (Units=GPa)
#
#
# Indices 1 2 3 4 5 6 
#
# 1 72.6056 -0.3700 17.7307 3.0172 -9.1410 8.6680
# 2 -0.3700 103.6734 36.3600 7.7385 2.6699 -0.6244
# 3 17.7307 36.3600 139.3585 -18.1622 -0.1462 3.6822
# 4 3.0172 7.7385 -18.1622 68.5458 5.7570 7.7866
# 5 -9.1410 2.6699 -0.1462 5.7570 43.6610 5.8629
# 6 8.6680 -0.6244 3.6822 7.7866 5.8629 20.1638
#
#
#
# Elastic Compliance Matrix: (Units=1/GPa)
#
#
# Indices 1 2 3 4 5 6 
#
# 1 0.015742 0.000702 -0.002102 -0.000865 0.004339 -0.007289
# 2 0.000702 0.011000 -0.003303 -0.002299 -0.000457 0.001662
# 3 -0.002102 -0.003303 0.008748 0.003025 -0.000358 -0.001860
# 4 -0.000865 -0.002299 0.003025 0.016511 -0.001371 -0.006229
# 5 0.004339 -0.000457 -0.000358 -0.001371 0.025175 -0.008604
# 6 -0.007289 0.001662 -0.001860 -0.006229 -0.008604 0.058026
#
#
# Mechanical properties :
#
#
# Convention : Reuss Voigt Hill
#
# Bulk Modulus (GPa) = 38.33666 47.00878 42.67272
# Shear Modulus (GPa) = 32.61530 43.93522 38.27526
#
# Velocity S-wave (km/s) = 3.58669 4.16283 3.88545
# Velocity P-wave (km/s) = 5.68097 6.45345 6.07949
#
# Compressibility (1/GPa) = 0.02608470
#
# Stress axis : x y z
#
# Youngs Moduli (GPa) = 63.52301 90.90856 114.31178
#
# Poissons Ratio (x) = -0.06384 0.24026
# Poissons Ratio (y) = -0.04461 0.37761
# Poissons Ratio (z) = 0.13351 0.30030
#
# Static dielectric constant tensor:
#      x y z
#    x 2.094870 0.030780 0.052800 
#    y 0.030780 2.058650 0.019170 
#    z 0.052800 0.019170 2.055920 
# 
# From -- ./inp_files/138974.got.cif
#   From: 2010.05.17/outbox.cif.g08.bks.cpg/sg2_70_cif.got.tgz:138974.got - 2010.06.03 11:33:40.
