data_PCOD9025560
_publ_section_title
;
Structure prediction by ZEFSAII (Michael W. Deem and Ramdas Pophale) SiO2 
 PCOD9025560
Probable space group: P -1
;
_chemical_formula_sum "Si O2"
_cell_formula_units_Z 16
_cell_length_a 23.651482
_cell_length_b 9.265017
_cell_length_c 20.672401
_cell_angle_alpha 29.215015
_cell_angle_beta 19.223598
_cell_angle_gamma 39.754717
_cell_volume 683.470313
_symmetry_space_group_name_H-M "P -1"
_symmetry_group_IT_number 2
_symmetry_cell_setting 'triclinic'
loop_
_space_group_symop_operation_xyz
x,y,z
-x,-y,-z
loop_
_atom_site_type_symbol
_atom_site_label
_atom_site_fract_x
_atom_site_fract_y
_atom_site_fract_z
Si Si1 0.233025 0.751372 0.414898
Si Si2 0.933840 0.809329 0.501681
Si Si3 0.415966 0.159451 0.934428
Si Si4 0.966631 0.625845 0.329863
Si Si5 0.783778 0.661656 0.219062
Si Si6 0.679422 0.435996 0.811797
Si Si7 0.116235 0.460608 0.982583
Si Si8 0.583704 0.295718 0.339844
O O1 0.378663 0.654558 0.336294
O O2 0.069581 0.475702 0.666041
O O3 0.187476 0.009639 0.404927
O O4 0.328217 0.934108 0.176396
O O5 0.818563 0.545715 0.678525
O O6 0.997157 0.637100 0.559821
O O7 0.073066 0.103592 0.196152
O O8 0.319531 0.408373 0.927211
O O9 0.390126 0.926818 0.992949
O O10 0.783891 0.641808 0.556779
O O11 0.121200 0.961316 0.035924
O O12 0.580159 0.614642 0.483181
O O13 0.926164 0.533604 0.154912
O O14 0.793374 0.523301 0.191693
O O15 0.500000 0.500000 0.000000
O O16 0.264077 0.706505 0.772456
O O17 0.500000 0.000000 0.500000
#
# Coordination Sequence:
#
# PCOD9025560 Si02
#       8
#     2   2   2   2   2   2   2   2
#     4  10  22  40  69  97 141 175 218 294 348 410
#     4  12  23  43  72 103 132 178 229 288 351 411
#     4  10  23  44  64 105 138 175 236 280 346 418
#     4  11  25  41  67 102 138 178 230 287 348 409
#     4  11  27  49  71 102 145 188 239 293 350 424
#     4  11  22  41  69 102 132 180 227 288 346 415
#     4  11  26  50  73 101 143 187 237 291 359 423
#     4  12  29  47  72 103 142 196 237 287 352 429
#
# _framework density 23.409941
#
# number of rings (size 3 to 8) (size 9 to 14) (size 15 to 20)
#    0.000    1.000    2.500    3.375    7.000    0.500 
#    2.250    0.000    0.000    0.000    0.000    0.000 
#    0.000    0.000    0.000    0.000    0.000    0.000 
#
# Total GULP energy -89396.897444 kJ/mol
# GULP energy per Si atom -5587.306090 kJ/mol
# Density = 2.335666 g / cm^3
# Si number density = 23.409941 Si / 1000 Ang^3
#
#
#
# Elastic Constant Matrix: (Units=GPa)
#
#
# Indices 1 2 3 4 5 6 
#
# 1 142.5224 36.0753 32.2054 -5.9870 -40.9489 9.5975
# 2 36.0753 58.5397 7.6634 1.9699 -6.3791 5.8066
# 3 32.2054 7.6634 56.8739 -1.3288 -15.0600 -1.8528
# 4 -5.9870 1.9699 -1.3288 44.1305 2.9741 -7.2727
# 5 -40.9489 -6.3791 -15.0600 2.9741 34.3483 -12.9108
# 6 9.5975 5.8066 -1.8528 -7.2727 -12.9108 40.3226
#
#
#
# Elastic Compliance Matrix: (Units=1/GPa)
#
#
# Indices 1 2 3 4 5 6 
#
# 1 0.013278 -0.006568 -0.002758 0.001461 0.014202 0.002469
# 2 -0.006568 0.021063 -0.000718 -0.002083 -0.005410 -0.003611
# 3 -0.002758 -0.000718 0.021377 0.000494 0.007499 0.004232
# 4 0.001461 -0.002083 0.000494 0.023646 0.001271 0.004647
# 5 0.014202 -0.005410 0.007499 0.001271 0.053948 0.015246
# 6 0.002469 -0.003611 0.004232 0.004647 0.015246 0.030646
#
#
# Mechanical properties :
#
#
# Convention : Reuss Voigt Hill
#
# Bulk Modulus (GPa) = 28.06732 45.53602 36.80167
# Shear Modulus (GPa) = 25.52038 35.89306 30.70672
#
# Velocity S-wave (km/s) = 3.30533 3.91991 3.62566
# Velocity P-wave (km/s) = 5.15581 6.32308 5.76905
#
# Compressibility (1/GPa) = 0.03562862
#
# Stress axis : x y z
#
# Youngs Moduli (GPa) = 75.31430 47.47750 46.78032
#
# Poissons Ratio (x) = 0.31183 0.12904
# Poissons Ratio (y) = 0.49465 0.03358
# Poissons Ratio (z) = 0.20775 0.03408
#
# Static dielectric constant tensor:
#      x y z
#    x 1.935980 0.011150 -0.042920 
#    y 0.011150 1.884960 0.046320 
#    z -0.042920 0.046320 1.974000 
# 
# From -- ./inp_files/601915.got.cif
#   From: 2010.05.17/outbox.cif.g08.bks.cpg/sg2_301_cif.got.tgz:601915.got - 2010.06.03 11:33:40.
