data_PCOD9025662
_publ_section_title
;
Structure prediction by ZEFSAII (Michael W. Deem and Ramdas Pophale) SiO2 
 PCOD9025662
Probable space group: P -1
;
_chemical_formula_sum "Si O2"
_cell_formula_units_Z 14
_cell_length_a 9.422661
_cell_length_b 18.266255
_cell_length_c 12.858513
_cell_angle_alpha 42.975041
_cell_angle_beta 127.932608
_cell_angle_gamma 152.413074
_cell_volume 694.654975
_symmetry_space_group_name_H-M "P -1"
_symmetry_group_IT_number 2
_symmetry_cell_setting 'triclinic'
loop_
_space_group_symop_operation_xyz
x,y,z
-x,-y,-z
loop_
_atom_site_type_symbol
_atom_site_label
_atom_site_fract_x
_atom_site_fract_y
_atom_site_fract_z
Si Si1 0.534376 0.889424 0.146852
Si Si2 0.980924 0.485738 0.815218
Si Si3 0.543044 0.905430 0.568751
Si Si4 0.038061 0.985443 0.180782
Si Si5 0.428281 0.317140 0.867555
Si Si6 0.669939 0.554073 0.911980
Si Si7 0.832060 0.025081 0.358252
O O1 0.234726 0.679851 0.192601
O O2 0.815090 0.977909 0.112711
O O3 0.619874 0.905918 0.286513
O O4 0.500000 0.000000 0.000000
O O5 0.753313 0.444521 0.828892
O O6 0.240338 0.686256 0.673653
O O7 0.152585 0.472744 0.966019
O O8 0.500000 0.000000 0.500000
O O9 0.813441 0.980959 0.680036
O O10 0.633901 0.966087 0.428013
O O11 0.824967 0.796419 0.220517
O O12 0.304809 0.155986 0.046934
O O13 0.456160 0.428309 0.845742
O O14 0.911732 0.764079 0.777692
O O15 0.500000 0.500000 0.000000
O O16 0.000000 0.000000 0.500000
#
# Coordination Sequence:
#
# PCOD9025662 Si02
#       7
#     2   2   2   2   2   2   2
#     4  11  23  44  72 103 135 176 236 285 332 404
#     4  11  24  43  69  99 134 175 238 280 325 415
#     4  12  26  44  66  99 143 181 222 280 353 405
#     4  10  22  42  66 100 136 173 225 285 331 406
#     4  10  22  40  70  94 128 173 229 281 326 390
#     4  12  23  41  71 100 131 177 232 282 335 406
#     4  12  25  44  67  96 142 180 216 283 353 398
#
# _framework density 20.153888999999999
#
# number of rings (size 3 to 8) (size 9 to 14) (size 15 to 20)
#    0.000    0.857    4.286    3.000    2.000    1.714 
#    2.571    2.143    0.000    0.000    0.000    0.000 
#    0.000    0.000    0.000    0.000    0.000    0.000 
#
# Total GULP energy -78269.323434 kJ/mol
# GULP energy per Si atom -5590.665960 kJ/mol
# Density = 2.010802 g / cm^3
# Si number density = 20.153889 Si / 1000 Ang^3
#
#
#
# Elastic Constant Matrix: (Units=GPa)
#
#
# Indices 1 2 3 4 5 6 
#
# 1 113.5022 62.1401 39.5578 -9.2205 -21.2809 -16.2861
# 2 62.1401 146.2677 52.9982 -5.6238 -14.6698 -21.5050
# 3 39.5578 52.9982 96.3799 -16.4661 -14.6048 -2.0144
# 4 -9.2205 -5.6238 -16.4661 42.0857 -3.6315 -7.2396
# 5 -21.2809 -14.6698 -14.6048 -3.6315 43.5117 3.4141
# 6 -16.2861 -21.5050 -2.0144 -7.2396 3.4141 36.4247
#
#
#
# Elastic Compliance Matrix: (Units=1/GPa)
#
#
# Indices 1 2 3 4 5 6 
#
# 1 0.013162 -0.003728 -0.002179 0.002540 0.004374 0.003658
# 2 -0.003728 0.010576 -0.004262 -0.000340 -0.000052 0.004279
# 3 -0.002179 -0.004262 0.014826 0.004666 0.003022 -0.002026
# 4 0.002540 -0.000340 0.004666 0.027561 0.004504 0.006249
# 5 0.004374 -0.000052 0.003022 0.004504 0.026454 0.000508
# 6 0.003658 0.004279 -0.002026 0.006249 0.000508 0.032698
#
#
# Mechanical properties :
#
#
# Convention : Reuss Voigt Hill
#
# Bulk Modulus (GPa) = 54.86575 73.94912 64.40743
# Shear Modulus (GPa) = 32.96172 37.83467 35.39820
#
# Velocity S-wave (km/s) = 4.04852 4.33747 4.19548
# Velocity P-wave (km/s) = 7.00975 7.86491 7.44961
#
# Compressibility (1/GPa) = 0.01822631
#
# Stress axis : x y z
#
# Youngs Moduli (GPa) = 75.97500 94.55768 67.44771
#
# Poissons Ratio (x) = 0.35252 0.14697
# Poissons Ratio (y) = 0.28324 0.28745
# Poissons Ratio (z) = 0.16555 0.40298
#
# Static dielectric constant tensor:
#      x y z
#    x 1.643860 0.010080 0.050590 
#    y 0.010080 1.751900 0.021010 
#    z 0.050590 0.021010 1.643750 
# 
# From -- ./inp_files/149914.got.cif
#   From: 2010.05.17/outbox.cif.g08.bks.cpg/sg2_75_cif.got.tgz:149914.got - 2010.06.03 11:33:40.
