data_PCOD9025973
_publ_section_title
;
Structure prediction by ZEFSAII (Michael W. Deem and Ramdas Pophale) SiO2 
 PCOD9025973
Probable space group: P -1
;
_chemical_formula_sum "Si O2"
_cell_formula_units_Z 10
_cell_length_a 8.345709
_cell_length_b 8.489906
_cell_length_c 11.294470
_cell_angle_alpha 139.594905
_cell_angle_beta 69.288300
_cell_angle_gamma 129.697091
_cell_volume 384.729410
_symmetry_space_group_name_H-M "P -1"
_symmetry_group_IT_number 2
_symmetry_cell_setting 'triclinic'
loop_
_space_group_symop_operation_xyz
x,y,z
-x,-y,-z
loop_
_atom_site_type_symbol
_atom_site_label
_atom_site_fract_x
_atom_site_fract_y
_atom_site_fract_z
Si Si1 0.955050 0.162438 0.390341
Si Si2 0.527107 0.183638 0.788656
Si Si3 0.753196 0.227349 0.195603
Si Si4 0.276721 0.356528 0.203002
Si Si5 0.284526 0.449295 0.812679
O O1 0.058705 0.461478 0.612399
O O2 0.111724 0.257770 0.293814
O O3 0.711117 0.004254 0.318095
O O4 0.929063 0.893848 0.318745
O O5 0.686337 0.395109 0.760491
O O6 0.458243 0.912016 0.744939
O O7 0.632219 0.445030 0.013518
O O8 0.738020 0.324570 0.124494
O O9 0.779555 0.957540 0.020321
O O10 0.519596 0.525865 0.285969
#
# Coordination Sequence:
#
# PCOD9025973 Si02
#       5
#     2   2   2   2   2
#     4  11  23  40  64  90 117 158 204 244 293 354
#     4  10  22  41  62  88 122 157 199 247 294 354
#     4  11  22  40  63  89 122 156 198 249 296 351
#     4  10  22  41  64  86 121 161 197 244 299 353
#     4  10  22  41  60  88 126 155 194 250 298 352
#
# _framework density 25.992294000000001
#
# number of rings (size 3 to 8) (size 9 to 14) (size 15 to 20)
#    0.000    1.600    0.000    9.000    0.000    9.600 
#    0.000   14.000    0.000    2.400    0.000    0.000 
#    0.000    0.000    0.000    0.000    0.000    0.000 
#
# Total GULP energy -55734.418159 kJ/mol
# GULP energy per Si atom -5573.441816 kJ/mol
# Density = 2.593313 g / cm^3
# Si number density = 25.992294 Si / 1000 Ang^3
#
#
#
# Elastic Constant Matrix: (Units=GPa)
#
#
# Indices 1 2 3 4 5 6 
#
# 1 44.7180 72.0325 34.9281 -13.2453 7.7269 -6.2772
# 2 72.0325 257.3846 94.4135 24.6014 6.3922 1.0782
# 3 34.9281 94.4135 138.0025 12.1797 24.8567 13.5932
# 4 -13.2453 24.6014 12.1797 48.8263 -1.6307 -4.3272
# 5 7.7269 6.3922 24.8567 -1.6307 20.3666 -2.4906
# 6 -6.2772 1.0782 13.5932 -4.3272 -2.4906 44.8589
#
#
#
# Elastic Compliance Matrix: (Units=1/GPa)
#
#
# Indices 1 2 3 4 5 6 
#
# 1 0.080041 -0.022783 -0.008092 0.036463 -0.008310 0.017256
# 2 -0.022783 0.012057 -0.002189 -0.011825 0.006143 -0.003614
# 3 -0.008092 -0.002189 0.014831 -0.005937 -0.015677 -0.007017
# 4 0.036463 -0.011825 -0.005937 0.038840 0.001581 0.011020
# 5 -0.008310 0.006143 -0.015677 0.001581 0.070503 0.007507
# 6 0.017256 -0.003614 -0.007017 0.011020 0.007507 0.028400
#
#
# Mechanical properties :
#
#
# Convention : Reuss Voigt Hill
#
# Bulk Modulus (GPa) = 24.50993 93.65039 59.08016
# Shear Modulus (GPa) = 15.41297 38.72575 27.06936
#
# Velocity S-wave (km/s) = 2.43776 3.86410 3.23063
# Velocity P-wave (km/s) = 4.16818 7.48443 6.05766
#
# Compressibility (1/GPa) = 0.04079978
#
# Stress axis : x y z
#
# Youngs Moduli (GPa) = 12.49361 82.93685 67.42579
#
# Poissons Ratio (x) = 1.88957 0.54562
# Poissons Ratio (y) = 0.28465 0.14762
# Poissons Ratio (z) = 0.10110 0.18158
#
# Static dielectric constant tensor:
#      x y z
#    x 2.199080 0.013580 -0.052920 
#    y 0.013580 2.089470 0.007540 
#    z -0.052920 0.007540 2.084070 
# 
# From -- ./inp_files/246680.got.cif
#   From: 2010.05.17/outbox.cif.g08.bks.cpg/sg2_124_cif.got.tgz:246680.got - 2010.06.03 11:33:40.
