data_PCOD9025922
_publ_section_title
;
Structure prediction by ZEFSAII (Michael W. Deem and Ramdas Pophale) SiO2 
 PCOD9025922
Probable space group: P -1
;
_chemical_formula_sum "Si O2"
_cell_formula_units_Z 14
_cell_length_a 10.673404
_cell_length_b 9.547244
_cell_length_c 8.981639
_cell_angle_alpha 41.134977
_cell_angle_beta 67.382184
_cell_angle_gamma 89.014213
_cell_volume 496.694782
_symmetry_space_group_name_H-M "P -1"
_symmetry_group_IT_number 2
_symmetry_cell_setting 'triclinic'
loop_
_space_group_symop_operation_xyz
x,y,z
-x,-y,-z
loop_
_atom_site_type_symbol
_atom_site_label
_atom_site_fract_x
_atom_site_fract_y
_atom_site_fract_z
Si Si1 0.639217 0.220392 0.682638
Si Si2 0.771548 0.739324 0.171422
Si Si3 0.851870 0.248838 0.779233
Si Si4 0.363871 0.934784 0.498889
Si Si5 0.274867 0.460568 0.224107
Si Si6 0.943901 0.050867 0.323509
Si Si7 0.588029 0.591881 0.081817
O O1 0.698058 0.492931 0.491676
O O2 0.786988 0.191798 0.685845
O O3 0.618456 0.226618 0.511419
O O4 0.500000 0.000000 0.000000
O O5 0.642825 0.680945 0.150789
O O6 0.917756 0.771121 0.982923
O O7 0.827521 0.983974 0.042507
O O8 0.745517 0.317635 0.880053
O O9 0.000000 0.500000 0.500000
O O10 0.189254 0.864781 0.678426
O O11 0.500000 0.000000 0.500000
O O12 0.397442 0.171157 0.198390
O O13 0.310481 0.487777 0.007953
O O14 0.127007 0.210998 0.508936
O O15 0.412500 0.424128 0.263992
O O16 0.000000 0.000000 0.500000
#
# Coordination Sequence:
#
# PCOD9025922 Si02
#       7
#     2   2   2   2   2   2   2
#     4  12  30  55  77 121 174 227 291 359 436 521
#     4  12  26  50  86 122 168 235 282 356 444 519
#     4  12  26  51  78 118 175 222 280 349 445 526
#     4  11  25  47  84 128 169 220 296 363 435 513
#     4  10  22  40  78 114 165 211 274 354 413 506
#     4  11  21  46  82 125 174 220 288 365 431 522
#     4  10  22  46  79 119 162 217 296 346 429 518
#
# _framework density 28.186322000000001
#
# number of rings (size 3 to 8) (size 9 to 14) (size 15 to 20)
#    0.000    0.857    5.714    0.857    6.000    1.714 
#    5.143    1.429    0.000    0.000    0.000    0.000 
#    0.000    0.000    0.000    0.000    0.000    0.000 
#
# Total GULP energy -78337.753626 kJ/mol
# GULP energy per Si atom -5595.553830 kJ/mol
# Density = 2.812217 g / cm^3
# Si number density = 28.186322 Si / 1000 Ang^3
#
#
#
# Elastic Constant Matrix: (Units=GPa)
#
#
# Indices 1 2 3 4 5 6 
#
# 1 143.1749 40.7155 48.5656 1.2503 -21.6641 6.4321
# 2 40.7155 148.0534 53.1938 -20.3747 6.4530 -16.1543
# 3 48.5656 53.1938 190.3491 -18.5477 -27.6417 -6.7254
# 4 1.2503 -20.3747 -18.5477 61.9772 4.0414 1.9131
# 5 -21.6641 6.4530 -27.6417 4.0414 51.3046 0.0487
# 6 6.4321 -16.1543 -6.7254 1.9131 0.0487 54.0533
#
#
#
# Elastic Compliance Matrix: (Units=1/GPa)
#
#
# Indices 1 2 3 4 5 6 
#
# 1 0.008749 -0.002532 -0.001239 -0.001547 0.003469 -0.001900
# 2 -0.002532 0.008969 -0.002027 0.002539 -0.003492 0.002643
# 3 -0.001239 -0.002027 0.006735 0.001151 0.003269 0.000336
# 4 -0.001547 0.002539 0.001151 0.017443 -0.001727 0.000470
# 5 0.003469 -0.003492 0.003269 -0.001727 0.023294 -0.001009
# 6 -0.001900 0.002643 0.000336 0.000470 -0.001009 0.019542
#
#
# Mechanical properties :
#
#
# Convention : Reuss Voigt Hill
#
# Bulk Modulus (GPa) = 77.77835 85.16970 81.47403
# Shear Modulus (GPa) = 49.69574 56.07385 52.88480
#
# Velocity S-wave (km/s) = 4.20350 4.46511 4.33628
# Velocity P-wave (km/s) = 7.15636 7.54090 7.35115
#
# Compressibility (1/GPa) = 0.01285705
#
# Stress axis : x y z
#
# Youngs Moduli (GPa) = 114.30485 111.49706 148.48713
#
# Poissons Ratio (x) = 0.28235 0.18391
# Poissons Ratio (y) = 0.28946 0.30091
# Poissons Ratio (z) = 0.14157 0.22595
#
# Static dielectric constant tensor:
#      x y z
#    x 2.296790 -0.070130 0.075530 
#    y -0.070130 2.324320 -0.080250 
#    z 0.075530 -0.080250 2.262370 
# 
# From -- ./inp_files/427232.got.cif
#   From: 2010.05.17/outbox.cif.g08.bks.cpg/sg2_214_cif.got.tgz:427232.got - 2010.06.03 11:33:40.
