data_PCOD9025406
_publ_section_title
;
Structure prediction by ZEFSAII (Michael W. Deem and Ramdas Pophale) SiO2 
 PCOD9025406
Probable space group: P -1
;
_chemical_formula_sum "Si O2"
_cell_formula_units_Z 16
_cell_length_a 8.973850
_cell_length_b 11.417893
_cell_length_c 13.509409
_cell_angle_alpha 123.804830
_cell_angle_beta 46.937044
_cell_angle_gamma 90.338450
_cell_volume 661.952762
_symmetry_space_group_name_H-M "P -1"
_symmetry_group_IT_number 2
_symmetry_cell_setting 'triclinic'
loop_
_space_group_symop_operation_xyz
x,y,z
-x,-y,-z
loop_
_atom_site_type_symbol
_atom_site_label
_atom_site_fract_x
_atom_site_fract_y
_atom_site_fract_z
Si Si1 0.735305 0.256264 0.026529
Si Si2 0.910675 0.923768 0.925224
Si Si3 0.424615 0.614283 0.466967
Si Si4 0.202386 0.353461 0.564897
Si Si5 0.847793 0.162187 0.492412
Si Si6 0.604346 0.941191 0.812698
Si Si7 0.240804 0.103183 0.600843
Si Si8 0.348195 0.478104 0.141610
O O1 0.825084 0.074028 0.951155
O O2 0.587925 0.420999 0.249387
O O3 0.533268 0.320252 0.059299
O O4 0.990663 0.217379 0.841659
O O5 0.659304 0.940455 0.075656
O O6 0.000000 0.000000 0.000000
O O7 0.138237 0.721014 0.694580
O O8 0.604300 0.609989 0.465834
O O9 0.329107 0.759893 0.490588
O O10 0.232480 0.220861 0.573544
O O11 0.895046 0.510968 0.776697
O O12 0.284136 0.255997 0.374352
O O13 0.763341 0.341612 0.664398
O O14 0.786020 0.037463 0.506161
O O15 0.155943 0.055955 0.303489
O O16 0.500000 0.000000 0.000000
O O17 0.500000 0.000000 0.500000
O O18 0.500000 0.500000 0.000000
#
# Coordination Sequence:
#
# PCOD9025406 Si02
#       8
#     2   2   2   2   2   2   2   2
#     4  11  25  44  71 103 141 182 231 289 355 411
#     4  12  24  47  76  97 138 185 240 292 341 413
#     4  11  22  44  70 104 138 177 236 290 346 410
#     4  11  23  40  68 101 140 183 232 287 348 418
#     4  10  22  40  68  98 138 184 227 285 346 412
#     4  11  22  41  67  95 136 185 223 288 348 399
#     4  12  22  41  72 107 139 181 236 286 355 418
#     4  10  22  42  62  97 145 184 224 285 348 419
#
# _framework density 24.170909000000002
#
# number of rings (size 3 to 8) (size 9 to 14) (size 15 to 20)
#    0.000    1.000    6.250    0.000    0.000    4.000 
#    2.250    8.125    0.000    0.000    0.000    0.000 
#    0.000    0.000    0.000    0.000    0.000    0.000 
#
# Total GULP energy -89296.130182 kJ/mol
# GULP energy per Si atom -5581.008136 kJ/mol
# Density = 2.411590 g / cm^3
# Si number density = 24.170909 Si / 1000 Ang^3
#
#
#
# Elastic Constant Matrix: (Units=GPa)
#
#
# Indices 1 2 3 4 5 6 
#
# 1 151.4644 27.3483 46.8811 2.4666 -31.7092 -8.5358
# 2 27.3483 101.1817 35.8635 13.9252 -12.8680 -10.2094
# 3 46.8811 35.8635 143.8136 18.5712 -27.9880 -8.2950
# 4 2.4666 13.9252 18.5712 33.4366 4.3161 2.6189
# 5 -31.7092 -12.8680 -27.9880 4.3161 47.5403 -2.2659
# 6 -8.5358 -10.2094 -8.2950 2.6189 -2.2659 31.5668
#
#
#
# Elastic Compliance Matrix: (Units=1/GPa)
#
#
# Indices 1 2 3 4 5 6 
#
# 1 0.008276 -0.000936 -0.001460 -0.000140 0.004510 0.001887
# 2 -0.000936 0.011973 -0.001372 -0.004768 0.002424 0.003828
# 3 -0.001460 -0.001372 0.009576 -0.005467 0.004907 0.002484
# 4 -0.000140 -0.004768 -0.005467 0.036523 -0.008235 -0.006638
# 5 0.004510 0.002424 0.004907 -0.008235 0.028623 0.006031
# 6 0.001887 0.003828 0.002484 -0.006638 0.006031 0.035063
#
#
# Mechanical properties :
#
#
# Convention : Reuss Voigt Hill
#
# Bulk Modulus (GPa) = 44.86739 68.51616 56.69177
# Shear Modulus (GPa) = 34.48269 41.59984 38.04126
#
# Velocity S-wave (km/s) = 3.78116 4.15308 3.97148
# Velocity P-wave (km/s) = 6.13724 7.16976 6.67350
#
# Compressibility (1/GPa) = 0.02228790
#
# Stress axis : x y z
#
# Youngs Moduli (GPa) = 120.83407 83.51811 104.42995
#
# Poissons Ratio (x) = 0.07820 0.15245
# Poissons Ratio (y) = 0.11314 0.14333
# Poissons Ratio (z) = 0.17639 0.11462
#
# Static dielectric constant tensor:
#      x y z
#    x 1.957430 -0.005560 0.005850 
#    y -0.005560 1.941480 -0.026150 
#    z 0.005850 -0.026150 2.015100 
# 
# From -- ./inp_files/504257.got.cif
#   From: 2010.05.17/outbox.cif.g08.bks.cpg/sg2_253_cif.got.tgz:504257.got - 2010.06.03 11:33:40.
