data_PCOD9025371
_publ_section_title
;
Structure prediction by ZEFSAII (Michael W. Deem and Ramdas Pophale) SiO2 
 PCOD9025371
Probable space group: P -1
;
_chemical_formula_sum "Si O2"
_cell_formula_units_Z 15
_cell_length_a 9.130621
_cell_length_b 9.133429
_cell_length_c 27.151669
_cell_angle_alpha 31.974032
_cell_angle_beta 31.149495
_cell_angle_gamma 50.181682
_cell_volume 589.135193
_symmetry_space_group_name_H-M "P -1"
_symmetry_group_IT_number 2
_symmetry_cell_setting 'triclinic'
loop_
_space_group_symop_operation_xyz
x,y,z
-x,-y,-z
loop_
_atom_site_type_symbol
_atom_site_label
_atom_site_fract_x
_atom_site_fract_y
_atom_site_fract_z
Si Si1 0.209593 0.603548 0.362267
Si Si2 0.425165 0.045576 0.631421
Si Si3 0.925977 0.198741 0.861493
Si Si4 0.688389 0.292044 0.335071
Si Si5 0.000000 0.000000 0.000000
Si Si6 0.288353 0.776284 0.846184
Si Si7 0.986417 0.562289 0.331173
Si Si8 0.477900 0.747122 0.900673
O O1 0.510565 0.524386 0.309318
O O2 0.000000 0.500000 0.500000
O O3 0.107342 0.488018 0.369957
O O4 0.281083 0.947954 0.243080
O O5 0.747400 0.270211 0.461796
O O6 0.212450 0.236724 0.651378
O O7 0.266022 0.828931 0.696184
O O8 0.458743 0.864910 0.720964
O O9 0.051494 0.515662 0.760673
O O10 0.801776 0.009669 0.000304
O O11 0.808318 0.261818 0.823323
O O12 0.185793 0.057059 0.811004
O O13 0.500000 0.000000 0.500000
O O14 0.158937 0.792387 0.987944
O O15 0.483872 0.700788 0.854021
O O16 0.000000 0.500000 0.000000
O O17 0.500000 0.500000 0.000000
#
# Coordination Sequence:
#
# PCOD9025371 Si02
#       8
#     2   2   2   2   1   2   2   2
#     4  12  26  45  70 104 148 185 240 311 357 431
#     4  10  22  40  70  96 134 186 234 287 360 426
#     4  10  22  42  66  97 136 183 235 290 354 436
#     4  12  23  42  68 100 135 186 235 282 368 428
#     4  10  22  46  74  92 148 190 232 300 354 436
#     4  10  22  40  68  96 135 185 235 289 363 430
#     4  10  22  43  68  97 139 180 238 298 351 427
#     4  11  26  47  71 109 142 191 245 299 371 432
#
# _framework density 25.461048999999999
#
# number of rings (size 3 to 8) (size 9 to 14) (size 15 to 20)
#    0.000    1.333    4.000    1.600    9.333    1.600 
#    2.400    0.667    0.000    0.000    0.000    0.000 
#    0.000    0.000    0.000    0.000    0.000    0.000 
#
# Total GULP energy -83576.923619 kJ/mol
# GULP energy per Si atom -5571.794908 kJ/mol
# Density = 2.540310 g / cm^3
# Si number density = 25.461049 Si / 1000 Ang^3
#
#
#
# Elastic Constant Matrix: (Units=GPa)
#
#
# Indices 1 2 3 4 5 6 
#
# 1 144.8978 41.1815 28.7929 -0.3717 33.5987 17.1613
# 2 41.1815 69.2351 30.1082 -11.2273 4.8704 13.5724
# 3 28.7929 30.1082 117.2404 -22.8049 23.5848 12.6743
# 4 -0.3717 -11.2273 -22.8049 38.7628 11.7853 4.9689
# 5 33.5987 4.8704 23.5848 11.7853 55.6132 -4.0861
# 6 17.1613 13.5724 12.6743 4.9689 -4.0861 44.4350
#
#
#
# Elastic Compliance Matrix: (Units=1/GPa)
#
#
# Indices 1 2 3 4 5 6 
#
# 1 0.010083 -0.004963 0.000787 0.001552 -0.006568 -0.003380
# 2 -0.004963 0.019972 -0.003026 0.003991 0.001420 -0.003636
# 3 0.000787 -0.003026 0.013334 0.010181 -0.008397 -0.005093
# 4 0.001552 0.003991 0.010181 0.038722 -0.014574 -0.010393
# 5 -0.006568 0.001420 -0.008397 -0.014574 0.029122 0.008806
# 6 -0.003380 -0.003636 -0.005093 -0.010393 0.008806 0.028346
#
#
# Mechanical properties :
#
#
# Convention : Reuss Voigt Hill
#
# Bulk Modulus (GPa) = 34.50275 59.05983 46.78129
# Shear Modulus (GPa) = 30.55419 43.18157 36.86788
#
# Velocity S-wave (km/s) = 3.46791 4.12270 3.80940
# Velocity P-wave (km/s) = 5.44204 6.77560 6.14510
#
# Compressibility (1/GPa) = 0.02898320
#
# Stress axis : x y z
#
# Youngs Moduli (GPa) = 99.17737 50.07058 74.99861
#
# Poissons Ratio (x) = 0.24851 -0.05902
# Poissons Ratio (y) = 0.49224 0.22697
# Poissons Ratio (z) = -0.07805 0.15153
#
# Static dielectric constant tensor:
#      x y z
#    x 1.881670 -0.206470 -0.371740 
#    y -0.206470 1.798740 -0.356420 
#    z -0.371740 -0.356420 1.207370 
# 
# From -- ./inp_files/616578.got.cif
#   From: 2010.05.17/outbox.cif.g08.bks.cpg/sg2_309_cif.got.tgz:616578.got - 2010.06.03 11:33:40.
