data_PCOD9025921
_publ_section_title
;
Structure prediction by ZEFSAII (Michael W. Deem and Ramdas Pophale) SiO2 
 PCOD9025921
Probable space group: P -1
;
_chemical_formula_sum "Si O2"
_cell_formula_units_Z 13
_cell_length_a 11.409214
_cell_length_b 9.590728
_cell_length_c 11.674165
_cell_angle_alpha 94.417802
_cell_angle_beta 26.615109
_cell_angle_gamma 99.087209
_cell_volume 559.116659
_symmetry_space_group_name_H-M "P -1"
_symmetry_group_IT_number 2
_symmetry_cell_setting 'triclinic'
loop_
_space_group_symop_operation_xyz
x,y,z
-x,-y,-z
loop_
_atom_site_type_symbol
_atom_site_label
_atom_site_fract_x
_atom_site_fract_y
_atom_site_fract_z
Si Si1 0.083125 0.897287 0.522236
Si Si2 0.500000 0.000000 0.000000
Si Si3 0.240122 0.411503 0.285332
Si Si4 0.696611 0.612681 0.504254
Si Si5 0.758007 0.080041 0.215424
Si Si6 0.784801 0.387477 0.248682
Si Si7 0.149537 0.888495 0.114199
O O1 0.892471 0.743434 0.663751
O O2 0.385661 0.909571 0.216570
O O3 0.000000 0.000000 0.500000
O O4 0.005241 0.983900 0.705446
O O5 0.339298 0.873529 0.053836
O O6 0.332574 0.388943 0.333860
O O7 0.000000 0.500000 0.500000
O O8 0.500000 0.500000 0.000000
O O9 0.742659 0.459611 0.410415
O O10 0.467579 0.637152 0.617955
O O11 0.939855 0.741963 0.274776
O O12 0.858716 0.235760 0.189606
O O13 0.500000 0.000000 0.500000
O O14 0.693489 0.089733 0.138970
O O15 0.000000 0.000000 0.000000
O O16 0.000000 0.500000 0.000000
#
# Coordination Sequence:
#
# PCOD9025921 Si02
#       7
#     2   1   2   2   2   2   2
#     4  10  23  43  73 107 142 197 262 295 370 474
#     4  10  22  40  78 110 132 194 272 296 364 446
#     4  12  30  48  73 118 164 200 244 330 407 449
#     4  11  25  49  78 111 151 205 267 315 377 473
#     4  12  29  49  74 115 158 193 252 328 399 441
#     4  11  26  48  82 106 141 211 271 307 372 470
#     4  11  24  44  78 104 146 199 254 315 367 467
#
# _framework density 23.250959999999999
#
# number of rings (size 3 to 8) (size 9 to 14) (size 15 to 20)
#    0.000    0.923    4.615    0.923   12.923    2.462 
#    0.000    0.000    0.000    0.000    0.000    0.000 
#    0.000    0.000    0.000    0.000    0.000    0.000 
#
# Total GULP energy -72404.803727 kJ/mol
# GULP energy per Si atom -5569.600287 kJ/mol
# Density = 2.319804 g / cm^3
# Si number density = 23.250960 Si / 1000 Ang^3
#
#
#
# Elastic Constant Matrix: (Units=GPa)
#
#
# Indices 1 2 3 4 5 6 
#
# 1 70.8832 30.7220 29.3388 -5.1873 6.9506 35.2739
# 2 30.7220 205.8316 67.2541 1.7930 -1.9760 20.7261
# 3 29.3388 67.2541 163.1500 -20.4496 22.7086 11.7255
# 4 -5.1873 1.7930 -20.4496 45.1433 6.2903 -0.7706
# 5 6.9506 -1.9760 22.7086 6.2903 48.4662 0.7932
# 6 35.2739 20.7261 11.7255 -0.7706 0.7932 36.5764
#
#
#
# Elastic Compliance Matrix: (Units=1/GPa)
#
#
# Indices 1 2 3 4 5 6 
#
# 1 0.029296 -0.001000 -0.002198 0.002381 -0.003082 -0.026865
# 2 -0.001000 0.006103 -0.002720 -0.001889 0.001940 -0.001704
# 3 -0.002198 -0.002720 0.008756 0.004466 -0.004495 0.001046
# 4 0.002381 -0.001889 0.004466 0.025292 -0.005761 -0.002000
# 5 -0.003082 0.001940 -0.004495 -0.005761 0.023964 0.002673
# 6 -0.026865 -0.001704 0.001046 -0.002000 0.002673 0.053778
#
#
# Mechanical properties :
#
#
# Convention : Reuss Voigt Hill
#
# Bulk Modulus (GPa) = 30.94129 77.16609 54.05369
# Shear Modulus (GPa) = 29.44657 46.87384 38.16020
#
# Velocity S-wave (km/s) = 3.56261 4.49486 4.05561
# Velocity P-wave (km/s) = 5.50085 7.75878 6.72525
#
# Compressibility (1/GPa) = 0.03231928
#
# Stress axis : x y z
#
# Youngs Moduli (GPa) = 34.13439 163.85187 114.20328
#
# Poissons Ratio (x) = 0.16380 0.25102
# Poissons Ratio (y) = 0.03412 0.31067
# Poissons Ratio (z) = 0.07503 0.44574
#
# Static dielectric constant tensor:
#      x y z
#    x 2.112420 0.016620 -0.112250 
#    y 0.016620 1.915380 0.062530 
#    z -0.112250 0.062530 1.971900 
# 
# From -- ./inp_files/417488.got.cif
#   From: 2010.05.17/outbox.cif.g08.bks.cpg/sg2_209_cif.got.tgz:417488.got - 2010.06.03 11:33:40.
