data_PCOD9025396
_publ_section_title
;
Structure prediction by ZEFSAII (Michael W. Deem and Ramdas Pophale) SiO2 
 PCOD9025396
Probable space group: P -1
;
_chemical_formula_sum "Si O2"
_cell_formula_units_Z 16
_cell_length_a 7.363943
_cell_length_b 8.637414
_cell_length_c 15.742649
_cell_angle_alpha 135.582515
_cell_angle_beta 111.841780
_cell_angle_gamma 72.758964
_cell_volume 649.771687
_symmetry_space_group_name_H-M "P -1"
_symmetry_group_IT_number 2
_symmetry_cell_setting 'triclinic'
loop_
_space_group_symop_operation_xyz
x,y,z
-x,-y,-z
loop_
_atom_site_type_symbol
_atom_site_label
_atom_site_fract_x
_atom_site_fract_y
_atom_site_fract_z
Si Si1 0.965984 0.252203 0.872223
Si Si2 0.554732 0.883703 0.372245
Si Si3 0.322460 0.793731 0.061118
Si Si4 0.166963 0.265943 0.218568
Si Si5 0.640459 0.687065 0.563561
Si Si6 0.866610 0.618052 0.218739
Si Si7 0.436600 0.529512 0.698482
Si Si8 0.344412 0.001464 0.896548
O O1 0.017341 0.244838 0.778745
O O2 0.131606 0.118408 0.903375
O O3 0.751253 0.217901 0.859073
O O4 0.000000 0.500000 0.000000
O O5 0.764894 0.793499 0.335195
O O6 0.479933 0.637609 0.280931
O O7 0.500000 0.000000 0.500000
O O8 0.482900 0.081791 0.375842
O O9 0.538242 0.873829 0.109085
O O10 0.187804 0.010147 0.091381
O O11 0.282536 0.554820 0.919094
O O12 0.181008 0.280802 0.329277
O O13 0.374977 0.360811 0.264528
O O14 0.010581 0.438137 0.219396
O O15 0.500000 0.500000 0.500000
O O16 0.684522 0.605165 0.443906
O O17 0.306300 0.742770 0.784272
O O18 0.500000 0.000000 0.000000
#
# Coordination Sequence:
#
# PCOD9025396 Si02
#       8
#     2   2   2   2   2   2   2   2
#     4  10  26  43  63 103 150 182 232 292 343 419
#     4  10  22  43  69  96 132 179 231 290 341 409
#     4  10  24  43  69 101 149 180 232 284 348 421
#     4  10  22  40  68  98 132 186 224 281 352 413
#     4   9  20  42  66  91 130 174 232 283 335 410
#     4  11  24  42  65  99 145 179 226 290 355 405
#     4   9  21  40  68  95 134 172 236 288 338 418
#     4  11  24  41  74 105 136 195 231 274 367 418
#
# _framework density 24.624034999999999
#
# number of rings (size 3 to 8) (size 9 to 14) (size 15 to 20)
#    0.000    2.000    0.000    1.125   15.750    3.000 
#    2.250    8.125    0.000    0.000    0.000    0.000 
#    0.000    0.000    0.000    0.000    0.000    0.000 
#
# Total GULP energy -89148.133746 kJ/mol
# GULP energy per Si atom -5571.758359 kJ/mol
# Density = 2.456799 g / cm^3
# Si number density = 24.624035 Si / 1000 Ang^3
#
#
#
# Elastic Constant Matrix: (Units=GPa)
#
#
# Indices 1 2 3 4 5 6 
#
# 1 89.9870 19.0963 21.9583 -7.6047 -17.1364 20.1981
# 2 19.0963 135.8238 40.4663 23.1068 -12.3296 -8.0434
# 3 21.9583 40.4663 87.1864 18.9962 -20.5537 -16.6001
# 4 -7.6047 23.1068 18.9962 43.1499 2.4873 -9.5764
# 5 -17.1364 -12.3296 -20.5537 2.4873 35.2207 7.7006
# 6 20.1981 -8.0434 -16.6001 -9.5764 7.7006 48.2123
#
#
#
# Elastic Compliance Matrix: (Units=1/GPa)
#
#
# Indices 1 2 3 4 5 6 
#
# 1 0.015894 -0.001456 -0.004131 0.003082 0.006509 -0.008751
# 2 -0.001456 0.009170 -0.002703 -0.003992 0.001156 0.000231
# 3 -0.004131 -0.002703 0.017686 -0.006335 0.006711 0.005039
# 4 0.003082 -0.003992 -0.006335 0.029618 -0.006288 0.002749
# 5 0.006509 0.001156 0.006711 -0.006288 0.037972 -0.007537
# 6 -0.008751 0.000231 0.005039 0.002749 -0.007537 0.027931
#
#
# Mechanical properties :
#
#
# Convention : Reuss Voigt Hill
#
# Bulk Modulus (GPa) = 38.20940 52.89321 45.55130
# Shear Modulus (GPa) = 30.56724 40.74833 35.65779
#
# Velocity S-wave (km/s) = 3.52711 4.07236 3.80950
# Velocity P-wave (km/s) = 5.66905 6.60599 6.15537
#
# Compressibility (1/GPa) = 0.02617157
#
# Stress axis : x y z
#
# Youngs Moduli (GPa) = 62.91846 109.04693 56.54061
#
# Poissons Ratio (x) = 0.15873 0.23354
# Poissons Ratio (y) = 0.09159 0.15284
# Poissons Ratio (z) = 0.25988 0.29478
#
# Static dielectric constant tensor:
#      x y z
#    x 1.954080 -1.312760 0.475610 
#    y -1.312760 -16.057300 6.350820 
#    z 0.475610 6.350820 -0.234380 
# 
# From -- ./inp_files/557684.got.cif
#   From: 2010.05.17/outbox.cif.g08.bks.cpg/sg2_279_cif.got.tgz:557684.got - 2010.06.03 11:33:40.
