data_PCOD9025566
_publ_section_title
;
Structure prediction by ZEFSAII (Michael W. Deem and Ramdas Pophale) SiO2 
 PCOD9025566
Probable space group: P -1
;
_chemical_formula_sum "Si O2"
_cell_formula_units_Z 16
_cell_length_a 23.065727
_cell_length_b 12.235395
_cell_length_c 7.290195
_cell_angle_alpha 59.028687
_cell_angle_beta 57.672438
_cell_angle_gamma 22.194344
_cell_volume 655.507473
_symmetry_space_group_name_H-M "P -1"
_symmetry_group_IT_number 2
_symmetry_cell_setting 'triclinic'
loop_
_space_group_symop_operation_xyz
x,y,z
-x,-y,-z
loop_
_atom_site_type_symbol
_atom_site_label
_atom_site_fract_x
_atom_site_fract_y
_atom_site_fract_z
Si Si1 0.471099 0.231609 0.674355
Si Si2 0.979755 0.071783 0.680428
Si Si3 0.823601 0.734508 0.084593
Si Si4 0.245612 0.799264 0.414608
Si Si5 0.700071 0.653536 0.827028
Si Si6 0.263320 0.889300 0.897815
Si Si7 0.068985 0.652218 0.013063
Si Si8 0.412108 0.759097 0.254368
O O1 0.352152 0.495537 0.508866
O O2 0.555032 0.205829 0.661677
O O3 0.587506 0.931457 0.660323
O O4 0.385556 0.294827 0.926880
O O5 0.803999 0.390976 0.753229
O O6 0.000000 0.000000 0.500000
O O7 0.079526 0.032845 0.568182
O O8 0.045596 0.842775 0.877577
O O9 0.861024 0.526523 0.139345
O O10 0.000000 0.500000 0.000000
O O11 0.740084 0.950680 0.206503
O O12 0.705347 0.973081 0.916199
O O13 0.241805 0.862757 0.161782
O O14 0.319909 0.783182 0.430439
O O15 0.810125 0.563403 0.839541
O O16 0.425061 0.559793 0.837557
O O17 0.103374 0.118415 0.868886
#
# Coordination Sequence:
#
# PCOD9025566 Si02
#       8
#     2   2   2   2   2   2   2   2
#     4  11  24  44  67  95 134 172 217 271 325 387
#     4  12  25  44  65  98 131 167 220 273 329 388
#     4   9  19  36  62  94 126 162 212 261 314 379
#     4  11  23  41  64  97 132 170 215 270 322 387
#     4  11  25  45  66  97 129 174 222 267 326 391
#     4  10  22  40  69  98 131 173 216 268 321 386
#     4  11  20  42  69  91 126 173 218 266 321 387
#     4  11  22  43  66  96 132 173 221 261 327 388
#
# _framework density 24.408570000000001
#
# number of rings (size 3 to 8) (size 9 to 14) (size 15 to 20)
#    0.000    1.250    3.750    3.000    1.750    0.000 
#    4.500    1.250    0.000    0.000    0.000    0.000 
#    0.000    0.000    0.000    0.000    0.000    0.000 
#
# Total GULP energy -89401.383083 kJ/mol
# GULP energy per Si atom -5587.586443 kJ/mol
# Density = 2.435302 g / cm^3
# Si number density = 24.408570 Si / 1000 Ang^3
#
#
#
# Elastic Constant Matrix: (Units=GPa)
#
#
# Indices 1 2 3 4 5 6 
#
# 1 78.7126 5.3901 17.4512 7.9256 -8.7110 6.0800
# 2 5.3901 126.7595 33.5822 -4.8884 -5.5603 31.5826
# 3 17.4512 33.5822 40.4467 1.4651 -5.8238 6.7677
# 4 7.9256 -4.8884 1.4651 25.6993 -1.3113 4.1648
# 5 -8.7110 -5.5603 -5.8238 -1.3113 30.7784 -4.0012
# 6 6.0800 31.5826 6.7677 4.1648 -4.0012 43.4916
#
#
#
# Elastic Compliance Matrix: (Units=1/GPa)
#
#
# Indices 1 2 3 4 5 6 
#
# 1 0.014927 0.001587 -0.006961 -0.003507 0.002842 -0.001559
# 2 0.001587 0.012657 -0.009963 0.003817 -0.000057 -0.008234
# 3 -0.006961 -0.009963 0.036040 -0.002136 0.003363 0.003113
# 4 -0.003507 0.003817 -0.002136 0.041817 0.000304 -0.005926
# 5 0.002842 -0.000057 0.003363 0.000304 0.034225 0.002240
# 6 -0.001559 -0.008234 0.003113 -0.005926 0.002240 0.029479
#
#
# Mechanical properties :
#
#
# Convention : Reuss Voigt Hill
#
# Bulk Modulus (GPa) = 30.34817 39.86286 35.10551
# Shear Modulus (GPa) = 23.71899 32.62687 28.17293
#
# Velocity S-wave (km/s) = 3.12067 3.66005 3.40107
# Velocity P-wave (km/s) = 5.04432 5.85049 5.46230
#
# Compressibility (1/GPa) = 0.03295092
#
# Stress axis : x y z
#
# Youngs Moduli (GPa) = 66.99168 79.00791 27.74714
#
# Poissons Ratio (x) = -0.12541 0.19316
# Poissons Ratio (y) = -0.10634 0.27643
# Poissons Ratio (z) = 0.46635 0.78712
#
# Static dielectric constant tensor:
#      x y z
#    x 1.974610 0.007810 -0.016910 
#    y 0.007810 1.964370 -0.027810 
#    z -0.016910 -0.027810 2.005400 
# 
# From -- ./inp_files/307976.got.cif
#   From: 2010.05.17/outbox.cif.g08.bks.cpg/sg2_154_cif.got.tgz:307976.got - 2010.06.03 11:33:40.
