data_PCOD9025065
_publ_section_title
;
Structure prediction by ZEFSAII (Michael W. Deem and Ramdas Pophale) SiO2 
 PCOD9025065
Probable space group: P -1
;
_chemical_formula_sum "Si O2"
_cell_formula_units_Z 16
_cell_length_a 6.750212
_cell_length_b 17.249788
_cell_length_c 12.652754
_cell_angle_alpha 130.934405
_cell_angle_beta 131.464361
_cell_angle_gamma 74.519279
_cell_volume 796.969740
_symmetry_space_group_name_H-M "P -1"
_symmetry_group_IT_number 2
_symmetry_cell_setting 'triclinic'
loop_
_space_group_symop_operation_xyz
x,y,z
-x,-y,-z
loop_
_atom_site_type_symbol
_atom_site_label
_atom_site_fract_x
_atom_site_fract_y
_atom_site_fract_z
Si Si1 0.349095 0.276991 0.504834
Si Si2 0.845758 0.313689 0.105420
Si Si3 0.050315 0.458520 0.596028
Si Si4 0.498462 0.153674 0.014480
Si Si5 0.922482 0.026885 0.667453
Si Si6 0.921532 0.046219 0.120857
Si Si7 0.471296 0.307110 0.335116
Si Si8 0.458707 0.823247 0.320600
O O1 0.233456 0.377250 0.576868
O O2 0.093621 0.169625 0.310138
O O3 0.491495 0.284968 0.447330
O O4 0.518781 0.252452 0.641745
O O5 0.804529 0.431192 0.193540
O O6 0.705484 0.244447 0.096289
O O7 0.176065 0.330716 0.239804
O O8 0.702033 0.245218 0.893826
O O9 0.000000 0.500000 0.500000
O O10 0.749899 0.398879 0.484807
O O11 0.455449 0.212043 0.160297
O O12 0.620222 0.057351 0.002679
O O13 0.223673 0.097169 0.799161
O O14 0.992249 0.015559 0.806420
O O15 0.760843 0.904724 0.469177
O O16 0.717203 0.097154 0.636825
O O17 0.000000 0.000000 0.000000
#
# Coordination Sequence:
#
# PCOD9025065 Si02
#       8
#     2   2   2   2   2   2   2   2
#     4  11  24  43  65  98 139 172 215 276 323 397
#     4  12  24  42  71  96 134 175 218 277 326 397
#     4  12  23  42  70 105 126 167 227 274 332 385
#     4  12  22  40  69 107 127 168 231 268 332 384
#     4  10  22  40  67  89 135 180 215 269 322 397
#     4  11  20  39  66 101 133 166 223 278 324 380
#     4  12  21  42  72  96 132 168 217 279 326 374
#     4  10  24  46  61  96 139 178 220 261 336 396
#
# _framework density 20.076044
#
# number of rings (size 3 to 8) (size 9 to 14) (size 15 to 20)
#    0.000    0.750    6.250    2.250    0.000    1.000 
#    2.250    0.625    0.000    0.000    0.000    0.000 
#    0.000    0.000    0.000    0.000    0.000    0.000 
#
# Total GULP energy -89293.753665 kJ/mol
# GULP energy per Si atom -5580.859604 kJ/mol
# Density = 2.003035 g / cm^3
# Si number density = 20.076044 Si / 1000 Ang^3
#
#
#
# Elastic Constant Matrix: (Units=GPa)
#
#
# Indices 1 2 3 4 5 6 
#
# 1 87.4534 48.3269 26.5574 -12.1388 2.3534 6.3244
# 2 48.3269 142.3518 34.1548 -11.8477 -7.6077 -1.7362
# 3 26.5574 34.1548 68.3221 4.3334 -4.5384 14.3160
# 4 -12.1388 -11.8477 4.3334 22.2087 1.6634 -2.0791
# 5 2.3534 -7.6077 -4.5384 1.6634 37.1283 4.7036
# 6 6.3244 -1.7362 14.3160 -2.0791 4.7036 29.9402
#
#
#
# Elastic Compliance Matrix: (Units=1/GPa)
#
#
# Indices 1 2 3 4 5 6 
#
# 1 0.016279 -0.003788 -0.005078 0.008052 -0.002760 -0.000238
# 2 -0.003788 0.009822 -0.004393 0.004283 0.001068 0.003600
# 3 -0.005078 -0.004393 0.022087 -0.010770 0.004013 -0.011121
# 4 0.008052 0.004283 -0.010770 0.054917 -0.004450 0.008210
# 5 -0.002760 0.001068 0.004013 -0.004450 0.028791 -0.006106
# 6 -0.000238 0.003600 -0.011121 0.008210 -0.006106 0.040506
#
#
# Mechanical properties :
#
#
# Convention : Reuss Voigt Hill
#
# Bulk Modulus (GPa) = 46.14839 57.35617 51.75228
# Shear Modulus (GPa) = 24.25483 30.46132 27.35807
#
# Velocity S-wave (km/s) = 3.47961 3.89948 3.69551
# Velocity P-wave (km/s) = 6.25942 6.99328 6.63650
#
# Compressibility (1/GPa) = 0.02166923
#
# Stress axis : x y z
#
# Youngs Moduli (GPa) = 61.42707 101.80766 45.27642
#
# Poissons Ratio (x) = 0.38569 0.22993
# Poissons Ratio (y) = 0.23271 0.19889
# Poissons Ratio (z) = 0.31195 0.44722
#
# Static dielectric constant tensor:
#      x y z
#    x 1.655310 0.006360 0.040720 
#    y 0.006360 1.719800 0.019240 
#    z 0.040720 0.019240 1.739790 
# 
# From -- ./inp_files/123555.got.cif
#   From: 2010.05.17/outbox.cif.g08.bks.cpg/sg2_62_cif.got.tgz:123555.got - 2010.06.03 11:33:40.
