data_PCOD9025077
_publ_section_title
;
Structure prediction by ZEFSAII (Michael W. Deem and Ramdas Pophale) SiO2 
 PCOD9025077
Probable space group: P -1
;
_chemical_formula_sum "Si O2"
_cell_formula_units_Z 14
_cell_length_a 12.042969
_cell_length_b 9.379583
_cell_length_c 9.891761
_cell_angle_alpha 134.335190
_cell_angle_beta 59.741090
_cell_angle_gamma 111.395109
_cell_volume 690.172467
_symmetry_space_group_name_H-M "P -1"
_symmetry_group_IT_number 2
_symmetry_cell_setting 'triclinic'
loop_
_space_group_symop_operation_xyz
x,y,z
-x,-y,-z
loop_
_atom_site_type_symbol
_atom_site_label
_atom_site_fract_x
_atom_site_fract_y
_atom_site_fract_z
Si Si1 0.042527 0.544085 0.850565
Si Si2 0.137327 0.112596 0.466326
Si Si3 0.820692 0.029797 0.947300
Si Si4 0.670200 0.092722 0.603892
Si Si5 0.345785 0.471261 0.066771
Si Si6 0.100274 0.372467 0.269954
Si Si7 0.630758 0.973389 0.265813
O O1 0.114484 0.347526 0.627054
O O2 0.929085 0.583048 0.839411
O O3 0.123747 0.748002 0.934386
O O4 0.000000 0.500000 0.000000
O O5 0.198078 0.033141 0.237878
O O6 0.229818 0.057657 0.495745
O O7 0.000000 0.000000 0.500000
O O8 0.914369 0.859138 0.835557
O O9 0.699492 0.017213 0.112045
O O10 0.692409 0.305911 0.805217
O O11 0.522052 0.019265 0.657814
O O12 0.682528 0.112357 0.446997
O O13 0.251729 0.431957 0.228356
O O14 0.500000 0.500000 0.000000
O O15 0.336620 0.253717 0.858622
O O16 0.000000 0.500000 0.500000
#
# Coordination Sequence:
#
# PCOD9025077 Si02
#       7
#     2   2   2   2   2   2   2
#     4  12  26  41  62  92 129 171 207 257 322 381
#     4  12  25  40  60  95 130 164 209 261 319 376
#     4  11  25  41  63  93 131 163 212 260 319 377
#     4  10  22  40  67  91 128 163 213 265 309 385
#     4   9  20  38  63  90 122 163 208 255 312 375
#     4  11  23  41  66  95 127 165 214 267 314 375
#     4   9  22  42  64  95 120 169 216 256 317 377
#
# _framework density 20.284786
#
# number of rings (size 3 to 8) (size 9 to 14) (size 15 to 20)
#    0.000    1.429    2.857    1.286    6.000    0.571 
#    0.000    0.714    0.000    0.000    0.000    0.000 
#    0.000    0.000    0.000    0.000    0.000    0.000 
#
# Total GULP energy -78027.062890 kJ/mol
# GULP energy per Si atom -5573.361635 kJ/mol
# Density = 2.023862 g / cm^3
# Si number density = 20.284786 Si / 1000 Ang^3
#
#
#
# Elastic Constant Matrix: (Units=GPa)
#
#
# Indices 1 2 3 4 5 6 
#
# 1 77.7378 36.5188 34.9294 -1.6729 -0.9927 -3.9460
# 2 36.5188 113.3794 39.8620 14.3410 3.1097 4.5678
# 3 34.9294 39.8620 94.4516 -8.9231 -1.7936 21.1720
# 4 -1.6729 14.3410 -8.9231 58.0733 -5.2865 -0.0246
# 5 -0.9927 3.1097 -1.7936 -5.2865 31.0908 -0.5592
# 6 -3.9460 4.5678 21.1720 -0.0246 -0.5592 21.5409
#
#
#
# Elastic Compliance Matrix: (Units=1/GPa)
#
#
# Indices 1 2 3 4 5 6 
#
# 1 0.018928 -0.003806 -0.008094 0.000319 0.000793 0.012251
# 2 -0.003806 0.012089 -0.004317 -0.003962 -0.002237 0.000920
# 3 -0.008094 -0.004317 0.020445 0.004119 0.001682 -0.020613
# 4 0.000319 -0.003962 0.004119 0.019189 0.003852 -0.003028
# 5 0.000793 -0.002237 0.001682 0.003852 0.033162 -0.000169
# 6 0.012251 0.000920 -0.020613 -0.003028 -0.000169 0.068725
#
#
# Mechanical properties :
#
#
# Convention : Reuss Voigt Hill
#
# Bulk Modulus (GPa) = 52.56130 56.46546 54.51338
# Shear Modulus (GPa) = 23.66124 33.75822 28.70973
#
# Velocity S-wave (km/s) = 3.41904 4.08390 3.76617
# Velocity P-wave (km/s) = 6.44627 7.08057 6.77085
#
# Compressibility (1/GPa) = 0.01902540
#
# Stress axis : x y z
#
# Youngs Moduli (GPa) = 52.83273 82.71799 48.91252
#
# Poissons Ratio (x) = 0.31485 0.39591
# Poissons Ratio (y) = 0.20110 0.21118
# Poissons Ratio (z) = 0.42764 0.35713
#
# Static dielectric constant tensor:
#      x y z
#    x 2.063670 -0.432180 0.042430 
#    y -0.432180 2.328380 -0.060850 
#    z 0.042430 -0.060850 1.768890 
# 
# From -- ./inp_files/186343.got.cif
#   From: 2010.05.17/outbox.cif.g08.bks.cpg/sg2_94_cif.got.tgz:186343.got - 2010.06.03 11:33:40.
