data_PCOD9025102
_publ_section_title
;
Structure prediction by ZEFSAII (Michael W. Deem and Ramdas Pophale) SiO2 
 PCOD9025102
Probable space group: P -1
;
_chemical_formula_sum "Si O2"
_cell_formula_units_Z 14
_cell_length_a 18.470695
_cell_length_b 10.259926
_cell_length_c 6.307312
_cell_angle_alpha 97.640836
_cell_angle_beta 84.270161
_cell_angle_gamma 146.027794
_cell_volume 661.866807
_symmetry_space_group_name_H-M "P -1"
_symmetry_group_IT_number 2
_symmetry_cell_setting 'triclinic'
loop_
_space_group_symop_operation_xyz
x,y,z
-x,-y,-z
loop_
_atom_site_type_symbol
_atom_site_label
_atom_site_fract_x
_atom_site_fract_y
_atom_site_fract_z
Si Si1 0.462562 0.910443 0.243036
Si Si2 0.581091 0.683429 0.707967
Si Si3 0.122049 0.525494 0.845406
Si Si4 0.807165 0.422698 0.595120
Si Si5 0.876867 0.730656 0.923979
Si Si6 0.394817 0.533758 0.052396
Si Si7 0.850683 0.229499 0.758637
O O1 0.319284 0.758085 0.262824
O O2 0.500000 0.000000 0.500000
O O3 0.462326 0.751798 0.208995
O O4 0.500000 0.000000 0.000000
O O5 0.500000 0.500000 0.500000
O O6 0.482876 0.635426 0.845030
O O7 0.717327 0.958606 0.676350
O O8 0.614000 0.613282 0.843656
O O9 0.221138 0.638227 0.655640
O O10 0.117225 0.392819 0.967441
O O11 0.976921 0.327312 0.753223
O O12 0.159844 0.715959 0.995619
O O13 0.878581 0.396544 0.637624
O O14 0.875234 0.664324 0.673807
O O15 0.747930 0.621888 0.983289
O O16 0.000000 0.000000 0.000000
#
# Coordination Sequence:
#
# PCOD9025102 Si02
#       7
#     2   2   2   2   2   2   2
#     4  11  26  42  72 101 139 185 228 289 351 415
#     4  11  25  41  64  92 134 182 221 287 345 423
#     4  10  22  40  67  93 127 175 222 294 339 418
#     4  10  23  37  64  96 125 171 228 280 347 408
#     4  10  22  41  63  91 130 168 225 287 349 413
#     4  10  25  42  60  98 131 172 236 273 355 414
#     4  10  22  41  62  93 133 168 236 274 353 402
#
# _framework density 21.152291000000002
#
# number of rings (size 3 to 8) (size 9 to 14) (size 15 to 20)
#    0.000    1.714    0.000    2.143   12.000    4.000 
#    0.000    0.000    0.000    0.000    0.000    0.000 
#    0.000    0.000    0.000    0.000    0.000    0.000 
#
# Total GULP energy -77964.648712 kJ/mol
# GULP energy per Si atom -5568.903479 kJ/mol
# Density = 2.110415 g / cm^3
# Si number density = 21.152291 Si / 1000 Ang^3
#
#
#
# Elastic Constant Matrix: (Units=GPa)
#
#
# Indices 1 2 3 4 5 6 
#
# 1 114.2521 36.3291 16.7475 9.1653 -11.0383 2.9822
# 2 36.3291 103.5008 48.0876 24.0811 -10.2396 15.0598
# 3 16.7475 48.0876 110.6892 12.4411 -24.9502 8.9039
# 4 9.1653 24.0811 12.4411 27.4427 1.2292 3.8579
# 5 -11.0383 -10.2396 -24.9502 1.2292 34.3912 3.1765
# 6 2.9822 15.0598 8.9039 3.8579 3.1765 25.6370
#
#
#
# Elastic Compliance Matrix: (Units=1/GPa)
#
#
# Indices 1 2 3 4 5 6 
#
# 1 0.010063 -0.003433 0.000623 -0.000809 0.002649 0.000423
# 2 -0.003433 0.016504 -0.004666 -0.010400 0.001379 -0.006281
# 3 0.000623 -0.004666 0.013445 -0.002219 0.008900 -0.002770
# 4 -0.000809 -0.010400 -0.002219 0.047040 -0.006714 0.000727
# 5 0.002649 0.001379 0.008900 -0.006714 0.037763 -0.007878
# 6 0.000423 -0.006281 -0.002770 0.000727 -0.007878 0.044476
#
#
# Mechanical properties :
#
#
# Convention : Reuss Voigt Hill
#
# Bulk Modulus (GPa) = 39.90163 58.97452 49.43808
# Shear Modulus (GPa) = 25.96108 32.64602 29.30355
#
# Velocity S-wave (km/s) = 3.50714 3.93285 3.72608
# Velocity P-wave (km/s) = 5.94180 6.96882 6.47571
#
# Compressibility (1/GPa) = 0.02506163
#
# Stress axis : x y z
#
# Youngs Moduli (GPa) = 99.37817 60.58966 74.37453
#
# Poissons Ratio (x) = 0.20798 -0.04633
# Poissons Ratio (y) = 0.34112 0.34701
# Poissons Ratio (z) = -0.06190 0.28270
#
# Static dielectric constant tensor:
#      x y z
#    x 1.782400 0.025450 0.020800 
#    y 0.025450 1.795310 0.030150 
#    z 0.020800 0.030150 1.878300 
# 
# From -- ./inp_files/47526.got.cif
#   From: 2010.05.17/outbox.cif.g08.bks.cpg/sg2_24_cif.got.tgz:47526.got - 2010.06.03 11:33:40.
