data_PCOD9025412
_publ_section_title
;
Structure prediction by ZEFSAII (Michael W. Deem and Ramdas Pophale) SiO2 
 PCOD9025412
Probable space group: P -1
;
_chemical_formula_sum "Si O2"
_cell_formula_units_Z 13
_cell_length_a 10.225181
_cell_length_b 10.098812
_cell_length_c 11.212521
_cell_angle_alpha 76.484299
_cell_angle_beta 86.709019
_cell_angle_gamma 28.248985
_cell_volume 504.337275
_symmetry_space_group_name_H-M "P -1"
_symmetry_group_IT_number 2
_symmetry_cell_setting 'triclinic'
loop_
_space_group_symop_operation_xyz
x,y,z
-x,-y,-z
loop_
_atom_site_type_symbol
_atom_site_label
_atom_site_fract_x
_atom_site_fract_y
_atom_site_fract_z
Si Si1 0.000000 0.000000 0.000000
Si Si2 0.249157 0.528746 0.701102
Si Si3 0.102707 0.643174 0.429080
Si Si4 0.956684 0.445641 0.899926
Si Si5 0.164929 0.874457 0.294423
Si Si6 0.492592 0.764190 0.007434
Si Si7 0.520033 0.880199 0.634494
O O1 0.973738 0.024558 0.848344
O O2 0.691654 0.200676 0.981477
O O3 0.178086 0.520063 0.583387
O O4 0.493654 0.413520 0.679172
O O5 0.378036 0.325620 0.848782
O O6 0.968072 0.865700 0.696352
O O7 0.086584 0.820224 0.393063
O O8 0.347927 0.379149 0.376115
O O9 0.801699 0.854630 0.360179
O O10 0.757547 0.701725 0.757597
O O11 0.750302 0.515006 0.948964
O O12 0.000000 0.500000 0.000000
O O13 0.260750 0.097740 0.918919
O O14 0.500000 0.000000 0.500000
#
# Coordination Sequence:
#
# PCOD9025412 Si02
#       7
#     1   2   2   2   2   2   2
#     4  10  22  40  68  98 144 168 230 280 340 428
#     4  11  24  40  69 103 140 181 222 280 335 432
#     4  12  25  44  71  94 146 174 232 281 347 412
#     4  12  27  47  73  99 141 181 238 290 342 417
#     4  11  22  40  65 104 139 184 221 273 350 408
#     4  11  25  43  71 104 137 184 231 281 361 397
#     4  12  28  46  71 100 129 184 234 291 348 391
#
# _framework density 25.776402000000001
#
# number of rings (size 3 to 8) (size 9 to 14) (size 15 to 20)
#    0.000    0.615    0.000    8.308    4.308    6.769 
#    0.000    0.000    0.000    0.000    0.000    0.000 
#    0.000    0.000    0.000    0.000    0.000    0.000 
#
# Total GULP energy -72677.680141 kJ/mol
# GULP energy per Si atom -5590.590780 kJ/mol
# Density = 2.571773 g / cm^3
# Si number density = 25.776402 Si / 1000 Ang^3
#
#
#
# Elastic Constant Matrix: (Units=GPa)
#
#
# Indices 1 2 3 4 5 6 
#
# 1 45.1713 -4.4486 15.7075 -6.2077 -9.5883 -7.9777
# 2 -4.4486 60.9891 18.1300 4.9406 -0.2810 -6.0469
# 3 15.7075 18.1300 190.5784 8.1284 24.3946 4.2728
# 4 -6.2077 4.9406 8.1284 34.2194 5.1104 -1.2134
# 5 -9.5883 -0.2810 24.3946 5.1104 40.3906 13.2135
# 6 -7.9777 -6.0469 4.2728 -1.2134 13.2135 22.5856
#
#
#
# Elastic Compliance Matrix: (Units=1/GPa)
#
#
# Indices 1 2 3 4 5 6 
#
# 1 0.026991 0.003510 -0.003626 0.004754 0.005301 0.008314
# 2 0.003510 0.018005 -0.002136 -0.001296 0.000396 0.006163
# 3 -0.003626 -0.002136 0.006376 -0.001228 -0.004389 -0.000557
# 4 0.004754 -0.001296 -0.001228 0.031346 -0.003917 0.005540
# 5 0.005301 0.000396 -0.004389 -0.003917 0.035018 -0.017889
# 6 0.008314 0.006163 -0.000557 0.005540 -0.017889 0.059731
#
#
# Mechanical properties :
#
#
# Convention : Reuss Voigt Hill
#
# Bulk Modulus (GPa) = 21.33601 39.50185 30.41893
# Shear Modulus (GPa) = 25.30440 37.26244 31.28342
#
# Velocity S-wave (km/s) = 3.13659 3.80623 3.48752
# Velocity P-wave (km/s) = 4.62741 5.88852 5.29564
#
# Compressibility (1/GPa) = 0.04686912
#
# Stress axis : x y z
#
# Youngs Moduli (GPa) = 37.04875 55.53955 156.84031
#
# Poissons Ratio (x) = -0.19496 0.56874
# Poissons Ratio (y) = -0.13005 0.33498
# Poissons Ratio (z) = 0.13435 0.11862
#
# Static dielectric constant tensor:
#      x y z
#    x 2.071450 0.053590 -0.039520 
#    y 0.053590 1.963190 -0.010340 
#    z -0.039520 -0.010340 2.054490 
# 
# From -- ./inp_files/428162.got.cif
#   From: 2010.05.17/outbox.cif.g08.bks.cpg/sg2_215_cif.got.tgz:428162.got - 2010.06.03 11:33:40.
