data_PCOD9025045
_publ_section_title
;
Structure prediction by ZEFSAII (Michael W. Deem and Ramdas Pophale) SiO2 
 PCOD9025045
Probable space group: P -1
;
_chemical_formula_sum "Si O2"
_cell_formula_units_Z 16
_cell_length_a 9.204558
_cell_length_b 18.647969
_cell_length_c 11.115462
_cell_angle_alpha 45.678379
_cell_angle_beta 105.737460
_cell_angle_gamma 140.840834
_cell_volume 690.336463
_symmetry_space_group_name_H-M "P -1"
_symmetry_group_IT_number 2
_symmetry_cell_setting 'triclinic'
loop_
_space_group_symop_operation_xyz
x,y,z
-x,-y,-z
loop_
_atom_site_type_symbol
_atom_site_label
_atom_site_fract_x
_atom_site_fract_y
_atom_site_fract_z
Si Si1 0.539689 0.411503 0.295058
Si Si2 0.212656 0.422686 0.188336
Si Si3 0.056875 0.574048 0.292130
Si Si4 0.264965 0.009244 0.060147
Si Si5 0.942228 0.970187 0.220806
Si Si6 0.174533 0.763829 0.453169
Si Si7 0.359704 0.207725 0.243640
Si Si8 0.303729 0.948900 0.611037
O O1 0.470993 0.490015 0.181242
O O2 0.422572 0.301256 0.271381
O O3 0.855916 0.552705 0.233140
O O4 0.337239 0.248226 0.543526
O O5 0.013909 0.300802 0.402914
O O6 0.009504 0.276338 0.203017
O O7 0.348506 0.608096 0.981802
O O8 0.390921 0.787343 0.101290
O O9 0.000000 0.500000 0.500000
O O10 0.946697 0.415530 0.378999
O O11 0.144516 0.989753 0.934305
O O12 0.144251 0.008786 0.144138
O O13 0.158537 0.835353 0.259242
O O14 0.103284 0.096458 0.229414
O O15 0.510122 0.948175 0.347509
O O16 0.293194 0.056235 0.437242
O O17 0.500000 0.000000 0.500000
#
# Coordination Sequence:
#
# PCOD9025045 Si02
#       8
#     2   2   2   2   2   2   2   2
#     4  12  24  48  69 108 149 183 236 306 356 423
#     4  11  25  44  71 109 141 192 246 285 361 438
#     4  12  27  47  70 107 145 185 240 300 357 419
#     4  11  25  48  74 101 144 193 242 288 354 432
#     4  11  23  47  75 102 142 194 240 293 352 431
#     4  11  24  45  73 102 143 195 237 292 355 435
#     4  12  24  43  72 107 145 187 237 302 365 409
#     4  10  22  40  67 103 145 184 234 293 353 432
#
# _framework density 23.177104
#
# number of rings (size 3 to 8) (size 9 to 14) (size 15 to 20)
#    0.000    0.750    5.000    2.250    1.750    3.500 
#    2.250    2.500    0.000    0.000    0.000    0.000 
#    0.000    0.000    0.000    0.000    0.000    0.000 
#
# Total GULP energy -89538.715820 kJ/mol
# GULP energy per Si atom -5596.169739 kJ/mol
# Density = 2.312435 g / cm^3
# Si number density = 23.177104 Si / 1000 Ang^3
#
#
#
# Elastic Constant Matrix: (Units=GPa)
#
#
# Indices 1 2 3 4 5 6 
#
# 1 60.7594 40.6907 4.0861 -5.3897 -15.0617 24.5520
# 2 40.6907 84.5556 13.6537 9.5851 -6.0253 27.6520
# 3 4.0861 13.6537 99.5728 -5.1182 -9.2337 15.9450
# 4 -5.3897 9.5851 -5.1182 41.5193 -3.6367 -2.5496
# 5 -15.0617 -6.0253 -9.2337 -3.6367 23.0708 -8.1046
# 6 24.5520 27.6520 15.9450 -2.5496 -8.1046 30.4553
#
#
#
# Elastic Compliance Matrix: (Units=1/GPa)
#
#
# Indices 1 2 3 4 5 6 
#
# 1 0.036006 -0.013318 0.004733 0.009114 0.018541 -0.013716
# 2 -0.013318 0.022884 -0.001940 -0.008803 -0.009169 -0.012202
# 3 0.004733 -0.001940 0.011802 0.002586 0.005404 -0.006578
# 4 0.009114 -0.008803 0.002586 0.028852 0.010848 0.004594
# 5 0.018541 -0.009169 0.005404 0.010848 0.059487 0.007287
# 6 -0.013716 -0.012202 -0.006578 0.004594 0.007287 0.060739
#
#
# Mechanical properties :
#
#
# Convention : Reuss Voigt Hill
#
# Bulk Modulus (GPa) = 20.14444 40.19430 30.16937
# Shear Modulus (GPa) = 19.42748 31.43957 25.43352
#
# Velocity S-wave (km/s) = 2.89834 3.68706 3.31623
# Velocity P-wave (km/s) = 4.46216 5.95867 5.26387
#
# Compressibility (1/GPa) = 0.04964149
#
# Stress axis : x y z
#
# Youngs Moduli (GPa) = 27.77316 43.69913 84.73000
#
# Poissons Ratio (x) = 0.58198 -0.40101
# Poissons Ratio (y) = 0.36988 0.16439
# Poissons Ratio (z) = -0.13145 0.08478
#
# Static dielectric constant tensor:
#      x y z
#    x 1.910970 -0.016590 -0.033750 
#    y -0.016590 1.901400 0.005110 
#    z -0.033750 0.005110 1.833820 
# 
# From -- ./inp_files/405419.got.cif
#   From: 2010.05.17/outbox.cif.g08.bks.cpg/sg2_203_cif.got.tgz:405419.got - 2010.06.03 11:33:40.
