data_PCOD9025704
_publ_section_title
;
Structure prediction by ZEFSAII (Michael W. Deem and Ramdas Pophale) SiO2 
 PCOD9025704
Probable space group: P -1
;
_chemical_formula_sum "Si O2"
_cell_formula_units_Z 14
_cell_length_a 7.151990
_cell_length_b 13.893180
_cell_length_c 8.391185
_cell_angle_alpha 130.569310
_cell_angle_beta 118.698293
_cell_angle_gamma 64.374679
_cell_volume 546.443777
_symmetry_space_group_name_H-M "P -1"
_symmetry_group_IT_number 2
_symmetry_cell_setting 'triclinic'
loop_
_space_group_symop_operation_xyz
x,y,z
-x,-y,-z
loop_
_atom_site_type_symbol
_atom_site_label
_atom_site_fract_x
_atom_site_fract_y
_atom_site_fract_z
Si Si1 0.998897 0.113907 0.395964
Si Si2 0.887773 0.586149 0.909795
Si Si3 0.693939 0.512799 0.471712
Si Si4 0.550935 0.871149 0.485411
Si Si5 0.534306 0.375135 0.998079
Si Si6 0.513696 0.198078 0.284294
Si Si7 0.130108 0.141303 0.849681
O O1 0.189600 0.156019 0.419186
O O2 0.088017 0.119473 0.620733
O O3 0.500000 0.000000 0.500000
O O4 0.968203 0.965348 0.207680
O O5 0.889478 0.502619 0.662143
O O6 0.658012 0.631472 0.956810
O O7 0.984424 0.709558 0.031786
O O8 0.000000 0.500000 0.000000
O O9 0.500000 0.500000 0.500000
O O10 0.711962 0.410806 0.230719
O O11 0.616338 0.663794 0.558067
O O12 0.455754 0.892609 0.645551
O O13 0.459685 0.754958 0.238737
O O14 0.500000 0.500000 0.000000
O O15 0.764939 0.198842 0.349356
O O16 0.364379 0.150708 0.036466
#
# Coordination Sequence:
#
# PCOD9025704 Si02
#       7
#     2   2   2   2   2   2   2
#     4  11  24  44  73 100 138 192 237 283 360 422
#     4  10  22  40  70  98 131 178 235 290 347 422
#     4   9  21  40  70  99 129 184 232 281 358 416
#     4  12  26  44  71 107 145 186 238 292 353 421
#     4  11  22  42  67  96 140 180 228 290 353 413
#     4  11  24  45  73  99 146 183 233 300 351 418
#     4  10  22  43  68 102 138 183 240 286 350 425
#
# _framework density 25.620201999999999
#
# number of rings (size 3 to 8) (size 9 to 14) (size 15 to 20)
#    0.000    1.429    2.857    2.143    4.000    1.714 
#    0.000    2.143   25.143    0.000    0.000    0.000 
#    0.000    0.000    0.000    0.000    0.000    0.000 
#
# Total GULP energy -78162.304071 kJ/mol
# GULP energy per Si atom -5583.021719 kJ/mol
# Density = 2.556189 g / cm^3
# Si number density = 25.620202 Si / 1000 Ang^3
#
#
#
# Elastic Constant Matrix: (Units=GPa)
#
#
# Indices 1 2 3 4 5 6 
#
# 1 117.5968 7.4494 44.9289 5.7678 22.0492 0.5685
# 2 7.4494 128.9248 72.4685 4.6926 21.0318 9.8949
# 3 44.9289 72.4685 185.6147 5.0165 31.8821 -4.0010
# 4 5.7678 4.6926 5.0165 41.1590 0.2058 11.2604
# 5 22.0492 21.0318 31.8821 0.2058 32.8013 -6.0491
# 6 0.5685 9.8949 -4.0010 11.2604 -6.0491 39.2611
#
#
#
# Elastic Compliance Matrix: (Units=1/GPa)
#
#
# Indices 1 2 3 4 5 6 
#
# 1 0.010458 0.001792 -0.002144 -0.000959 -0.006371 -0.001528
# 2 0.001792 0.011016 -0.003933 0.000101 -0.005189 -0.004032
# 3 -0.002144 -0.003933 0.008118 -0.000623 -0.003653 0.001465
# 4 -0.000959 0.000101 -0.000623 0.026624 -0.000416 -0.007775
# 5 -0.006371 -0.005189 -0.003653 -0.000416 0.043086 0.007785
# 6 -0.001528 -0.004032 0.001465 -0.007775 0.007785 0.030088
#
#
# Mechanical properties :
#
#
# Convention : Reuss Voigt Hill
#
# Bulk Modulus (GPa) = 47.56699 75.75887 61.66293
# Shear Modulus (GPa) = 34.49068 43.13023 38.81046
#
# Velocity S-wave (km/s) = 3.67308 4.10743 3.89631
# Velocity P-wave (km/s) = 6.04940 7.22003 6.66048
#
# Compressibility (1/GPa) = 0.02102298
#
# Stress axis : x y z
#
# Youngs Moduli (GPa) = 95.61872 90.77744 123.18406
#
# Poissons Ratio (x) = -0.16271 0.26409
# Poissons Ratio (y) = -0.17138 0.48448
# Poissons Ratio (z) = 0.20500 0.35703
#
# Static dielectric constant tensor:
#      x y z
#    x 2.213820 -0.175240 0.022620 
#    y -0.175240 2.105850 -0.022490 
#    z 0.022620 -0.022490 1.971220 
# 
# From -- ./inp_files/269031.got.cif
#   From: 2010.05.17/outbox.cif.g08.bks.cpg/sg2_135_cif.got.tgz:269031.got - 2010.06.03 11:33:40.
