data_PCOD9025911
_publ_section_title
;
Structure prediction by ZEFSAII (Michael W. Deem and Ramdas Pophale) SiO2 
 PCOD9025911
Probable space group: P -1
;
_chemical_formula_sum "Si O2"
_cell_formula_units_Z 16
_cell_length_a 8.662136
_cell_length_b 13.760121
_cell_length_c 8.869533
_cell_angle_alpha 76.161647
_cell_angle_beta 83.913466
_cell_angle_gamma 46.428552
_cell_volume 741.104668
_symmetry_space_group_name_H-M "P -1"
_symmetry_group_IT_number 2
_symmetry_cell_setting 'triclinic'
loop_
_space_group_symop_operation_xyz
x,y,z
-x,-y,-z
loop_
_atom_site_type_symbol
_atom_site_label
_atom_site_fract_x
_atom_site_fract_y
_atom_site_fract_z
Si Si1 0.026862 0.918076 0.877137
Si Si2 0.740499 0.711563 0.323263
Si Si3 0.326523 0.578427 0.357624
Si Si4 0.000046 0.393688 0.411942
Si Si5 0.458023 0.687230 0.737097
Si Si6 0.740679 0.858101 0.022655
Si Si7 0.160869 0.357609 0.126256
Si Si8 0.297908 0.810885 0.363474
O O1 0.264192 0.785536 0.840523
O O2 0.905025 0.030549 0.711803
O O3 0.899897 0.872573 0.945422
O O4 0.000000 0.000000 0.000000
O O5 0.903519 0.547332 0.340194
O O6 0.800985 0.785135 0.204585
O O7 0.505163 0.776703 0.289306
O O8 0.767636 0.714601 0.497030
O O9 0.500000 0.500000 0.500000
O O10 0.142978 0.596824 0.453451
O O11 0.432524 0.470688 0.248745
O O12 0.269274 0.720553 0.304660
O O13 0.023892 0.347339 0.257800
O O14 0.657168 0.662505 0.794227
O O15 0.359654 0.761156 0.552380
O O16 0.735892 0.762568 0.955874
O O17 0.500000 0.000000 0.000000
O O18 0.000000 0.500000 0.000000
#
# Coordination Sequence:
#
# PCOD9025911 Si02
#       8
#     2   2   2   2   2   2   2   2
#     4  12  29  48  70 101 150 190 231 292 359 422
#     4  11  21  42  72  97 140 181 238 284 345 415
#     4  10  22  40  75 103 137 175 237 289 351 411
#     4  11  21  42  71 103 137 180 234 295 348 411
#     4  11  24  49  69 109 140 184 239 292 356 424
#     4  12  27  47  69 101 144 191 233 287 360 421
#     4  12  26  44  74 105 141 183 238 297 353 418
#     4  11  23  46  74 102 141 190 232 292 346 427
#
# _framework density 21.589392
#
# number of rings (size 3 to 8) (size 9 to 14) (size 15 to 20)
#    0.000    0.750    6.250    1.875    5.250    0.000 
#    0.000    2.500    0.000    0.000    0.000    0.000 
#    0.000    0.000    0.000    0.000    0.000    0.000 
#
# Total GULP energy -89179.362703 kJ/mol
# GULP energy per Si atom -5573.710169 kJ/mol
# Density = 2.154025 g / cm^3
# Si number density = 21.589392 Si / 1000 Ang^3
#
#
#
# Elastic Constant Matrix: (Units=GPa)
#
#
# Indices 1 2 3 4 5 6 
#
# 1 115.9336 60.8939 37.7199 5.1562 -4.6108 -1.6534
# 2 60.8939 135.4620 58.3471 5.5009 -7.8638 -2.1057
# 3 37.7199 58.3471 105.5066 4.1560 -1.0232 -5.5824
# 4 5.1562 5.5009 4.1560 40.9804 1.4435 -1.5065
# 5 -4.6108 -7.8638 -1.0232 1.4435 34.7656 2.9023
# 6 -1.6534 -2.1057 -5.5824 -1.5065 2.9023 28.9427
#
#
#
# Elastic Compliance Matrix: (Units=1/GPa)
#
#
# Indices 1 2 3 4 5 6 
#
# 1 0.011533 -0.004415 -0.001652 -0.000712 0.000518 -0.000070
# 2 -0.004415 0.011566 -0.004805 -0.000600 0.001961 -0.000565
# 3 -0.001652 -0.004805 0.012841 -0.000333 -0.001092 0.002125
# 4 -0.000712 -0.000600 -0.000333 0.024701 -0.001372 0.001275
# 5 0.000518 0.001961 -0.001092 -0.001372 0.029558 -0.003074
# 6 -0.000070 -0.000565 0.002125 0.001275 -0.003074 0.035290
#
#
# Mechanical properties :
#
#
# Convention : Reuss Voigt Hill
#
# Bulk Modulus (GPa) = 70.44469 74.53600 72.49035
# Shear Modulus (GPa) = 32.90208 34.26716 33.58462
#
# Velocity S-wave (km/s) = 3.90807 3.98832 3.94840
# Velocity P-wave (km/s) = 7.28452 7.47049 7.37809
#
# Compressibility (1/GPa) = 0.01419553
#
# Stress axis : x y z
#
# Youngs Moduli (GPa) = 86.70413 86.46142 77.87529
#
# Poissons Ratio (x) = 0.38173 0.12868
# Poissons Ratio (y) = 0.38280 0.37419
# Poissons Ratio (z) = 0.14327 0.41545
#
# Static dielectric constant tensor:
#      x y z
#    x 1.475880 0.110420 -0.105420 
#    y 0.110420 1.779390 0.027540 
#    z -0.105420 0.027540 1.755380 
# 
# From -- ./inp_files/186643.got.cif
#   From: 2010.05.17/outbox.cif.g08.bks.cpg/sg2_94_cif.got.tgz:186643.got - 2010.06.03 11:33:40.
