data_PCOD9025145
_publ_section_title
;
Structure prediction by ZEFSAII (Michael W. Deem and Ramdas Pophale) SiO2 
 PCOD9025145
Probable space group: P -1
;
_chemical_formula_sum "Si O2"
_cell_formula_units_Z 14
_cell_length_a 12.800856
_cell_length_b 5.973406
_cell_length_c 14.408545
_cell_angle_alpha 64.035895
_cell_angle_beta 125.065828
_cell_angle_gamma 79.382747
_cell_volume 653.308242
_symmetry_space_group_name_H-M "P -1"
_symmetry_group_IT_number 2
_symmetry_cell_setting 'triclinic'
loop_
_space_group_symop_operation_xyz
x,y,z
-x,-y,-z
loop_
_atom_site_type_symbol
_atom_site_label
_atom_site_fract_x
_atom_site_fract_y
_atom_site_fract_z
Si Si1 0.904986 0.961690 0.259550
Si Si2 0.161924 0.333286 0.397560
Si Si3 0.317799 0.211595 0.841355
Si Si4 0.795024 0.235806 0.454178
Si Si5 0.669742 0.393757 0.572493
Si Si6 0.867320 0.530149 0.107534
Si Si7 0.912423 0.855864 0.932670
O O1 0.754637 0.964472 0.201822
O O2 0.035111 0.643315 0.332229
O O3 0.016097 0.929434 0.405853
O O4 0.857993 0.254980 0.119914
O O5 0.303911 0.345036 0.439203
O O6 0.053427 0.366467 0.251668
O O7 0.216516 0.033164 0.537790
O O8 0.278636 0.471862 0.701129
O O9 0.224197 0.367930 0.860711
O O10 0.500000 0.000000 0.000000
O O11 0.707093 0.329866 0.492983
O O12 0.500000 0.500000 0.500000
O O13 0.802437 0.097133 0.753514
O O14 0.811385 0.828088 0.965044
O O15 0.000000 0.500000 0.000000
O O16 0.000000 0.000000 0.000000
#
# Coordination Sequence:
#
# PCOD9025145 Si02
#       7
#     2   2   2   2   2   2   2
#     4   9  20  40  66  89 122 166 220 272 334 411
#     4   9  18  40  65  90 124 163 221 275 330 414
#     4  11  25  41  62  94 133 170 218 290 348 411
#     4  10  22  42  65  91 125 174 228 272 346 417
#     4  11  25  42  64 100 137 181 228 293 357 412
#     4  10  22  40  67  96 125 176 231 273 341 409
#     4  12  25  46  76 105 143 189 240 294 345 428
#
# _framework density 21.429395
#
# number of rings (size 3 to 8) (size 9 to 14) (size 15 to 20)
#    0.000    1.714    1.429    3.000    4.000    8.571 
#    2.571    0.000    0.000    0.000    0.000    0.000 
#    0.000    0.000    0.000    0.000    0.000    0.000 
#
# Total GULP energy -78021.448949 kJ/mol
# GULP energy per Si atom -5572.960639 kJ/mol
# Density = 2.138062 g / cm^3
# Si number density = 21.429395 Si / 1000 Ang^3
#
#
#
# Elastic Constant Matrix: (Units=GPa)
#
#
# Indices 1 2 3 4 5 6 
#
# 1 154.7287 64.2411 77.6125 -0.4497 -5.3544 33.1605
# 2 64.2411 117.5820 43.9798 -12.1374 -5.9093 36.7729
# 3 77.6125 43.9798 103.4156 -6.2801 -10.8146 26.9543
# 4 -0.4497 -12.1374 -6.2801 19.1714 11.8259 -13.8151
# 5 -5.3544 -5.9093 -10.8146 11.8259 51.9847 -0.1121
# 6 33.1605 36.7729 26.9543 -13.8151 -0.1121 51.1096
#
#
#
# Elastic Compliance Matrix: (Units=1/GPa)
#
#
# Indices 1 2 3 4 5 6 
#
# 1 0.012365 -0.003679 -0.007096 -0.007747 0.001133 -0.003724
# 2 -0.003679 0.013010 -0.001159 0.004005 -0.000064 -0.005280
# 3 -0.007096 -0.001159 0.016592 0.000841 0.002391 -0.003080
# 4 -0.007747 0.004005 0.000841 0.084310 -0.019294 0.024448
# 5 0.001133 -0.000064 0.002391 -0.019294 0.024217 -0.007113
# 6 -0.003724 -0.005280 -0.003080 0.024448 -0.007113 0.033998
#
#
# Mechanical properties :
#
#
# Convention : Reuss Voigt Hill
#
# Bulk Modulus (GPa) = 55.25445 83.04368 69.14907
# Shear Modulus (GPa) = 23.32170 37.11266 30.21718
#
# Velocity S-wave (km/s) = 3.30252 4.16607 3.75918
# Velocity P-wave (km/s) = 6.35473 7.87261 7.15404
#
# Compressibility (1/GPa) = 0.01809809
#
# Stress axis : x y z
#
# Youngs Moduli (GPa) = 80.87409 76.86571 60.26969
#
# Poissons Ratio (x) = 0.28281 0.42769
# Poissons Ratio (y) = 0.29756 0.06984
# Poissons Ratio (z) = 0.57390 0.08907
#
# Static dielectric constant tensor:
#      x y z
#    x 1.835090 -0.013720 -0.058890 
#    y -0.013720 1.982530 0.041120 
#    z -0.058890 0.041120 1.800080 
# 
# From -- ./inp_files/510769.got.cif
#   From: 2010.05.17/outbox.cif.g08.bks.cpg/sg2_256_cif.got.tgz:510769.got - 2010.06.03 11:33:40.
