data_PCOD9025261
_publ_section_title
;
Structure prediction by ZEFSAII (Michael W. Deem and Ramdas Pophale) SiO2 
 PCOD9025261
Probable space group: P -1
;
_chemical_formula_sum "Si O2"
_cell_formula_units_Z 14
_cell_length_a 9.456071
_cell_length_b 11.559429
_cell_length_c 15.752653
_cell_angle_alpha 25.872167
_cell_angle_beta 133.026683
_cell_angle_gamma 125.822515
_cell_volume 547.051120
_symmetry_space_group_name_H-M "P -1"
_symmetry_group_IT_number 2
_symmetry_cell_setting 'triclinic'
loop_
_space_group_symop_operation_xyz
x,y,z
-x,-y,-z
loop_
_atom_site_type_symbol
_atom_site_label
_atom_site_fract_x
_atom_site_fract_y
_atom_site_fract_z
Si Si1 0.339097 0.575812 0.118281
Si Si2 0.994993 0.856904 0.881779
Si Si3 0.026640 0.218038 0.794841
Si Si4 0.053750 0.752868 0.540331
Si Si5 0.589067 0.860506 0.270491
Si Si6 0.417901 0.658019 0.493218
Si Si7 0.283916 0.519112 0.933936
O O1 0.289275 0.549527 0.017009
O O2 0.144503 0.621338 0.064387
O O3 0.433825 0.856984 0.970833
O O4 0.477688 0.347424 0.370298
O O5 0.110800 0.059603 0.851652
O O6 0.904292 0.011417 0.661139
O O7 0.832689 0.743007 0.948708
O O8 0.812011 0.325652 0.604213
O O9 0.115424 0.471953 0.703474
O O10 0.000000 0.000000 0.000000
O O11 0.159359 0.742072 0.680749
O O12 0.819317 0.784156 0.432681
O O13 0.480979 0.868510 0.311356
O O14 0.517629 0.624658 0.339933
O O15 0.500000 0.500000 0.000000
#
# Coordination Sequence:
#
# PCOD9025261 Si02
#       7
#     2   2   2   2   2   2   2
#     4  11  25  44  70  99 137 181 229 274 337 409
#     4  11  25  46  72 102 134 183 229 281 343 408
#     4  11  23  43  74 103 138 176 224 290 345 399
#     4  10  23  46  69 101 137 179 230 276 350 400
#     4   9  21  40  69 102 132 178 221 288 335 403
#     4  10  22  40  68 103 140 171 223 281 347 394
#     4  12  28  45  67  99 142 185 230 279 332 410
#
# _framework density 25.591759
#
# number of rings (size 3 to 8) (size 9 to 14) (size 15 to 20)
#    0.000    1.429    1.429    2.143    8.000    4.000 
#    0.000    0.000    0.000    0.000    0.000    0.000 
#    0.000    0.000    0.000    0.000    0.000    0.000 
#
# Total GULP energy -78451.772244 kJ/mol
# GULP energy per Si atom -5603.698017 kJ/mol
# Density = 2.553351 g / cm^3
# Si number density = 25.591759 Si / 1000 Ang^3
#
#
#
# Elastic Constant Matrix: (Units=GPa)
#
#
# Indices 1 2 3 4 5 6 
#
# 1 109.8298 26.1015 14.0772 15.9576 -0.2669 3.9838
# 2 26.1015 62.6333 14.3804 21.4985 2.0464 -12.8118
# 3 14.0772 14.3804 92.9026 36.8323 -15.3271 1.1869
# 4 15.9576 21.4985 36.8323 47.3529 -5.4839 -12.6484
# 5 -0.2669 2.0464 -15.3271 -5.4839 37.4886 -4.7560
# 6 3.9838 -12.8118 1.1869 -12.6484 -4.7560 41.3976
#
#
#
# Elastic Compliance Matrix: (Units=1/GPa)
#
#
# Indices 1 2 3 4 5 6 
#
# 1 0.010579 -0.004153 0.000036 -0.002603 -0.000464 -0.003153
# 2 -0.004153 0.021149 -0.000207 -0.007006 -0.001708 0.004614
# 3 0.000036 -0.000207 0.017048 -0.013806 0.004421 -0.004267
# 4 -0.002603 -0.007006 -0.013806 0.038944 0.001758 0.010579
# 5 -0.000464 -0.001708 0.004421 0.001758 0.029246 0.003286
# 6 -0.003153 0.004614 -0.004267 0.010579 0.003286 0.029619
#
#
# Mechanical properties :
#
#
# Convention : Reuss Voigt Hill
#
# Bulk Modulus (GPa) = 24.92151 41.60933 33.26542
# Shear Modulus (GPa) = 29.65417 39.30161 34.47789
#
# Velocity S-wave (km/s) = 3.40772 3.92307 3.67444
# Velocity P-wave (km/s) = 5.02421 6.06752 5.57034
#
# Compressibility (1/GPa) = 0.04012597
#
# Stress axis : x y z
#
# Youngs Moduli (GPa) = 94.52791 47.28422 58.65771
#
# Poissons Ratio (x) = 0.19637 -0.00209
# Poissons Ratio (y) = 0.39258 0.01217
# Poissons Ratio (z) = -0.00337 0.00981
#
# Static dielectric constant tensor:
#      x y z
#    x 2.005410 -0.019120 0.023690 
#    y -0.019120 2.098960 -0.036430 
#    z 0.023690 -0.036430 1.984970 
# 
# From -- ./inp_files/403252.got.cif
#   From: 2010.05.17/outbox.cif.g08.bks.cpg/sg2_202_cif.got.tgz:403252.got - 2010.06.03 11:33:40.
