data_PCOD9025988
_publ_section_title
;
Structure prediction by ZEFSAII (Michael W. Deem and Ramdas Pophale) SiO2 
 PCOD9025988
Probable space group: P -1
;
_chemical_formula_sum "Si O2"
_cell_formula_units_Z 12
_cell_length_a 5.355497
_cell_length_b 12.110075
_cell_length_c 7.338447
_cell_angle_alpha 107.479018
_cell_angle_beta 65.705578
_cell_angle_gamma 110.739871
_cell_volume 398.946463
_symmetry_space_group_name_H-M "P -1"
_symmetry_group_IT_number 2
_symmetry_cell_setting 'triclinic'
loop_
_space_group_symop_operation_xyz
x,y,z
-x,-y,-z
loop_
_atom_site_type_symbol
_atom_site_label
_atom_site_fract_x
_atom_site_fract_y
_atom_site_fract_z
Si Si1 0.540672 0.713106 0.306068
Si Si2 0.024850 0.154306 0.034688
Si Si3 0.722843 0.566247 0.658940
Si Si4 0.142106 0.547219 0.792075
Si Si5 0.449277 0.926824 0.292448
Si Si6 0.637788 0.857224 0.725717
O O1 0.818471 0.744288 0.111429
O O2 0.401609 0.571603 0.294481
O O3 0.340669 0.785919 0.299955
O O4 0.614985 0.780563 0.509486
O O5 0.235729 0.064793 0.879317
O O6 0.016024 0.385707 0.264395
O O7 0.689029 0.148589 0.118507
O O8 0.458637 0.620878 0.782090
O O9 0.805595 0.552250 0.418479
O O10 0.865580 0.827023 0.778688
O O11 0.000000 0.500000 0.000000
O O12 0.500000 0.000000 0.500000
O O13 0.262731 0.997973 0.273863
#
# Coordination Sequence:
#
# PCOD9025988 Si02
#       6
#     2   2   2   2   2   2
#     4   9  23  39  58  92 122 153 197 251 287 346
#     4  10  23  36  60  82 116 161 204 246 288 339
#     4  10  22  41  60  94 121 149 194 244 291 353
#     4  10  22  41  68  87 117 157 190 235 300 365
#     4   8  18  40  56  85 117 163 198 245 288 339
#     4  11  21  41  58  85 118 166 202 240 290 343
#
# _framework density 30.079225000000001
#
# number of rings (size 3 to 8) (size 9 to 14) (size 15 to 20)
#    1.000    1.333    0.000    1.500    0.000    6.667 
#    0.000    3.333    0.000    0.000    0.000    0.000 
#    0.000    0.000    0.000    0.000    0.000    0.000 
#
# Total GULP energy -67142.008199 kJ/mol
# GULP energy per Si atom -5595.167350 kJ/mol
# Density = 3.001076 g / cm^3
# Si number density = 30.079225 Si / 1000 Ang^3
#
#
#
# Elastic Constant Matrix: (Units=GPa)
#
#
# Indices 1 2 3 4 5 6 
#
# 1 190.6830 44.7824 31.8046 -11.8758 -25.1361 -44.0132
# 2 44.7824 130.7285 -0.4078 19.1842 -18.3654 -42.2316
# 3 31.8046 -0.4078 168.0177 -5.9985 -2.3948 -16.3755
# 4 -11.8758 19.1842 -5.9985 41.2009 2.5476 3.9147
# 5 -25.1361 -18.3654 -2.3948 2.5476 50.5165 0.2507
# 6 -44.0132 -42.2316 -16.3755 3.9147 0.2507 53.1028
#
#
#
# Elastic Compliance Matrix: (Units=1/GPa)
#
#
# Indices 1 2 3 4 5 6 
#
# 1 0.007223 -0.000583 -0.000764 0.001551 0.003242 0.005158
# 2 -0.000583 0.013106 0.000995 -0.007449 0.004844 0.010773
# 3 -0.000764 0.000995 0.006308 0.000018 0.000269 0.002101
# 4 0.001551 -0.007449 0.000018 0.029040 -0.003366 -0.006757
# 5 0.003242 0.004844 0.000269 -0.003366 0.023319 0.006761
# 6 0.005158 0.010773 0.002101 -0.006757 0.006761 0.032788
#
#
# Mechanical properties :
#
#
# Convention : Reuss Voigt Hill
#
# Bulk Modulus (GPa) = 38.56004 71.30974 54.93489
# Shear Modulus (GPa) = 41.27719 56.51404 48.89562
#
# Velocity S-wave (km/s) = 3.70845 4.33926 4.03620
# Velocity P-wave (km/s) = 5.58428 6.99030 6.32647
#
# Compressibility (1/GPa) = 0.02593358
#
# Stress axis : x y z
#
# Youngs Moduli (GPa) = 138.44195 76.30088 158.52673
#
# Poissons Ratio (x) = 0.04446 0.12118
# Poissons Ratio (y) = 0.08067 -0.15777
# Poissons Ratio (z) = 0.10583 -0.07593
#
# Static dielectric constant tensor:
#      x y z
#    x 2.349750 -0.043740 -0.028320 
#    y -0.043740 2.665320 0.038040 
#    z -0.028320 0.038040 2.318410 
# 
# From -- ./inp_files/517043.got.cif
#   From: 2010.05.17/outbox.cif.g08.bks.cpg/sg2_259_cif.got.tgz:517043.got - 2010.06.03 11:33:40.
