data_PCOD9025655
_publ_section_title
;
Structure prediction by ZEFSAII (Michael W. Deem and Ramdas Pophale) SiO2 
 PCOD9025655
Probable space group: P -1
;
_chemical_formula_sum "Si O2"
_cell_formula_units_Z 15
_cell_length_a 5.416730
_cell_length_b 23.354410
_cell_length_c 8.462757
_cell_angle_alpha 140.996453
_cell_angle_beta 119.175166
_cell_angle_gamma 56.110764
_cell_volume 556.307348
_symmetry_space_group_name_H-M "P -1"
_symmetry_group_IT_number 2
_symmetry_cell_setting 'triclinic'
loop_
_space_group_symop_operation_xyz
x,y,z
-x,-y,-z
loop_
_atom_site_type_symbol
_atom_site_label
_atom_site_fract_x
_atom_site_fract_y
_atom_site_fract_z
Si Si1 0.000000 0.500000 0.500000
Si Si2 0.384464 0.538546 0.871598
Si Si3 0.116055 0.407360 0.951779
Si Si4 0.177066 0.136157 0.144039
Si Si5 0.808166 0.252158 0.508266
Si Si6 0.318103 0.930875 0.592363
Si Si7 0.817589 0.704541 0.731465
Si Si8 0.809732 0.845870 0.299311
O O1 0.625981 0.535582 0.423197
O O2 0.015435 0.600490 0.625233
O O3 0.500000 0.500000 0.000000
O O4 0.536312 0.611844 0.007112
O O5 0.018388 0.567201 0.855996
O O6 0.982670 0.327253 0.679258
O O7 0.000000 0.500000 0.000000
O O8 0.473123 0.129052 0.325441
O O9 0.050160 0.229364 0.195102
O O10 0.924779 0.152733 0.234494
O O11 0.250262 0.039831 0.861659
O O12 0.463300 0.300121 0.470180
O O13 0.940772 0.226139 0.666084
O O14 0.531979 0.903351 0.446847
O O15 0.007501 0.909019 0.430654
O O16 0.710888 0.777917 0.002804
#
# Coordination Sequence:
#
# PCOD9025655 Si02
#       8
#     1   2   2   2   2   2   2   2
#     4  12  28  46  72 104 156 190 254 300 364 424
#     4  10  23  45  66  98 128 193 235 293 349 418
#     4  10  22  40  70  93 135 187 241 281 355 408
#     4  10  25  44  80 106 149 190 250 298 387 435
#     4  11  25  46  71 106 149 194 245 312 357 450
#     4  10  24  50  78 112 146 195 237 318 371 451
#     4  12  27  47  71 111 146 201 247 307 364 448
#     4  11  26  47  77 109 153 187 250 299 380 443
#
# _framework density 26.963512000000001
#
# number of rings (size 3 to 8) (size 9 to 14) (size 15 to 20)
#    0.000    1.333    1.333    2.400    9.333    5.333 
#    2.400    0.000    0.000    0.000    0.000    0.000 
#    0.000    0.000    0.000    0.000    0.000    0.000 
#
# Total GULP energy -83636.598400 kJ/mol
# GULP energy per Si atom -5575.773227 kJ/mol
# Density = 2.690214 g / cm^3
# Si number density = 26.963512 Si / 1000 Ang^3
#
#
#
# Elastic Constant Matrix: (Units=GPa)
#
#
# Indices 1 2 3 4 5 6 
#
# 1 153.4849 7.6397 42.2278 2.8641 8.9425 8.1883
# 2 7.6397 117.1872 9.8140 -13.0473 4.2489 -1.9290
# 3 42.2278 9.8140 136.4694 -3.3066 2.0886 -10.7225
# 4 2.8641 -13.0473 -3.3066 47.3178 -9.2499 -0.2781
# 5 8.9425 4.2489 2.0886 -9.2499 51.6742 -1.6840
# 6 8.1883 -1.9290 -10.7225 -0.2781 -1.6840 26.0009
#
#
#
# Elastic Compliance Matrix: (Units=1/GPa)
#
#
# Indices 1 2 3 4 5 6 
#
# 1 0.007544 -0.000398 -0.002590 -0.001057 -0.001474 -0.003580
# 2 -0.000398 0.008879 -0.000404 0.002410 -0.000193 0.000631
# 3 -0.002590 -0.000404 0.008510 0.000746 0.000412 0.004330
# 4 -0.001057 0.002410 0.000746 0.022717 0.004064 0.001325
# 5 -0.001474 -0.000193 0.000412 0.004064 0.020398 0.001984
# 6 -0.003580 0.000631 0.004330 0.001325 0.001984 0.041563
#
#
# Mechanical properties :
#
#
# Convention : Reuss Voigt Hill
#
# Bulk Modulus (GPa) = 55.10231 58.50049 56.80140
# Shear Modulus (GPa) = 40.83433 48.16259 44.49846
#
# Velocity S-wave (km/s) = 3.89579 4.23095 4.06682
# Velocity P-wave (km/s) = 6.38095 6.75360 6.56992
#
# Compressibility (1/GPa) = 0.01814806
#
# Stress axis : x y z
#
# Youngs Moduli (GPa) = 132.54972 112.62681 117.50629
#
# Poissons Ratio (x) = 0.04483 0.30436
# Poissons Ratio (y) = 0.05276 0.04753
# Poissons Ratio (z) = 0.34333 0.04555
#
# Static dielectric constant tensor:
#      x y z
#    x 2.573650 -0.785410 2.092670 
#    y -0.785410 4.322330 -5.787110 
#    z 2.092670 -5.787110 18.106080 
# 
# From -- ./inp_files/142445.got.cif
#   From: 2010.05.17/outbox.cif.g08.bks.cpg/sg2_72_cif.got.tgz:142445.got - 2010.06.03 11:33:40.
