data_PCOD9025851
_publ_section_title
;
Structure prediction by ZEFSAII (Michael W. Deem and Ramdas Pophale) SiO2 
 PCOD9025851
Probable space group: P -1
;
_chemical_formula_sum "Si O2"
_cell_formula_units_Z 9
_cell_length_a 5.172764
_cell_length_b 8.191544
_cell_length_c 8.574312
_cell_angle_alpha 104.071107
_cell_angle_beta 103.912706
_cell_angle_gamma 83.553038
_cell_volume 341.518965
_symmetry_space_group_name_H-M "P -1"
_symmetry_group_IT_number 2
_symmetry_cell_setting 'triclinic'
loop_
_space_group_symop_operation_xyz
x,y,z
-x,-y,-z
loop_
_atom_site_type_symbol
_atom_site_label
_atom_site_fract_x
_atom_site_fract_y
_atom_site_fract_z
Si Si1 0.214878 0.439237 0.391497
Si Si2 0.630203 0.232345 0.979740
Si Si3 0.948491 0.687088 0.175810
Si Si4 0.000000 0.000000 0.500000
Si Si5 0.493005 0.125135 0.265883
O O1 0.500000 0.500000 0.500000
O O2 0.114471 0.534194 0.245104
O O3 0.252129 0.237255 0.335436
O O4 0.000000 0.500000 0.500000
O O5 0.905106 0.282227 0.958293
O O6 0.603900 0.042486 0.866363
O O7 0.365390 0.333174 0.898474
O O8 0.609799 0.229575 0.162840
O O9 0.974614 0.849617 0.327616
O O10 0.287139 0.914089 0.581596
#
# Coordination Sequence:
#
# PCOD9025851 Si02
#       5
#     2   2   2   1   2
#     4  12  26  43  69 105 137 178 224 288 339 403
#     4  10  25  44  70 101 135 182 224 283 337 405
#     4  11  24  43  67 103 135 180 225 275 349 397
#     4  10  22  40  72  96 134 178 224 278 322 408
#     4  10  24  45  71 102 139 178 232 278 341 405
#
# _framework density 26.352854000000001
#
# number of rings (size 3 to 8) (size 9 to 14) (size 15 to 20)
#    0.000    1.333    2.222    1.333    3.111   13.333 
#    0.000    0.000    0.000    0.000    0.000    0.000 
#    0.000    0.000    0.000    0.000    0.000    0.000 
#
# Total GULP energy -50327.420249 kJ/mol
# GULP energy per Si atom -5591.935583 kJ/mol
# Density = 2.629287 g / cm^3
# Si number density = 26.352854 Si / 1000 Ang^3
#
#
#
# Elastic Constant Matrix: (Units=GPa)
#
#
# Indices 1 2 3 4 5 6 
#
# 1 134.3183 49.7744 67.5070 20.0316 -6.9953 -24.9220
# 2 49.7744 111.0987 27.7878 14.8178 6.7869 -51.3649
# 3 67.5070 27.7878 119.5318 27.1432 5.2785 -8.4678
# 4 20.0316 14.8178 27.1432 37.5001 -1.3968 -9.9229
# 5 -6.9953 6.7869 5.2785 -1.3968 39.4561 5.5433
# 6 -24.9220 -51.3649 -8.4678 -9.9229 5.5433 47.4113
#
#
#
# Elastic Compliance Matrix: (Units=1/GPa)
#
#
# Indices 1 2 3 4 5 6 
#
# 1 0.012284 -0.003792 -0.006083 -0.000322 0.003523 0.000783
# 2 -0.003792 0.021628 -0.000933 -0.000278 -0.007379 0.022076
# 3 -0.006083 -0.000933 0.013522 -0.007051 -0.002559 -0.002970
# 4 -0.000322 -0.000278 -0.007051 0.033456 0.001401 0.005108
# 5 0.003523 -0.007379 -0.002559 0.001401 0.028993 -0.009696
# 6 0.000783 0.022076 -0.002970 0.005108 -0.009696 0.047092
#
#
# Mechanical properties :
#
#
# Convention : Reuss Voigt Hill
#
# Bulk Modulus (GPa) = 38.73434 72.78748 55.76091
# Shear Modulus (GPa) = 26.70968 39.53213 33.12091
#
# Velocity S-wave (km/s) = 3.18707 3.87732 3.54902
# Velocity P-wave (km/s) = 5.31728 6.90834 6.16436
#
# Compressibility (1/GPa) = 0.02581689
#
# Stress axis : x y z
#
# Youngs Moduli (GPa) = 81.40383 46.23705 73.95321
#
# Poissons Ratio (x) = 0.17535 0.44987
# Poissons Ratio (y) = 0.30872 0.06901
# Poissons Ratio (z) = 0.49519 0.04314
#
# Static dielectric constant tensor:
#      x y z
#    x 2.002620 0.121800 -0.054920 
#    y 0.121800 2.192130 -0.018880 
#    z -0.054920 -0.018880 1.983500 
# 
# From -- ./inp_files/129157.got.cif
#   From: 2010.05.17/outbox.cif.g08.bks.cpg/sg2_65_cif.got.tgz:129157.got - 2010.06.03 11:33:40.
