data_PCOD9025565
_publ_section_title
;
Structure prediction by ZEFSAII (Michael W. Deem and Ramdas Pophale) SiO2 
 PCOD9025565
Probable space group: P -1
;
_chemical_formula_sum "Si O2"
_cell_formula_units_Z 14
_cell_length_a 9.646358
_cell_length_b 12.558978
_cell_length_c 12.633724
_cell_angle_alpha 53.126480
_cell_angle_beta 126.929223
_cell_angle_gamma 145.745550
_cell_volume 670.221295
_symmetry_space_group_name_H-M "P -1"
_symmetry_group_IT_number 2
_symmetry_cell_setting 'triclinic'
loop_
_space_group_symop_operation_xyz
x,y,z
-x,-y,-z
loop_
_atom_site_type_symbol
_atom_site_label
_atom_site_fract_x
_atom_site_fract_y
_atom_site_fract_z
Si Si1 0.435299 0.238470 0.583052
Si Si2 0.122013 0.330626 0.377858
Si Si3 0.312775 0.986412 0.490838
Si Si4 0.403191 0.321998 0.996353
Si Si5 0.774210 0.473785 0.898559
Si Si6 0.643817 0.946647 0.134914
Si Si7 0.973699 0.019628 0.817466
O O1 0.228873 0.240984 0.493700
O O2 0.691460 0.458493 0.604619
O O3 0.352732 0.076642 0.724264
O O4 0.445648 0.175438 0.510360
O O5 0.131490 0.361857 0.237400
O O6 0.854795 0.191282 0.396963
O O7 0.117436 0.946789 0.343814
O O8 0.500000 0.000000 0.500000
O O9 0.500000 0.500000 0.000000
O O10 0.656574 0.429341 0.985303
O O11 0.182376 0.211888 0.871160
O O12 0.268806 0.146436 0.121200
O O13 0.543200 0.276103 0.851025
O O14 0.000000 0.500000 0.000000
O O15 0.897690 0.046319 0.127989
O O16 0.500000 0.000000 0.000000
#
# Coordination Sequence:
#
# PCOD9025565 Si02
#       7
#     2   2   2   2   2   2   2
#     4  10  23  43  69  98 126 182 225 275 339 391
#     4  10  23  45  69  94 133 171 234 278 324 408
#     4  12  27  41  68  99 138 180 219 278 343 400
#     4  10  24  42  67  90 130 179 209 271 337 385
#     4  10  24  40  63 101 127 167 228 274 326 398
#     4  10  22  40  69  98 131 171 221 281 332 394
#     4  10  24  45  61 101 133 170 230 269 329 408
#
# _framework density 20.888622000000002
#
# number of rings (size 3 to 8) (size 9 to 14) (size 15 to 20)
#    0.000    1.714    1.429    0.429   10.000    2.857 
#    2.571    0.000    0.000    0.000    0.000    0.000 
#    0.000    0.000    0.000    0.000    0.000    0.000 
#
# Total GULP energy -78058.665956 kJ/mol
# GULP energy per Si atom -5575.618997 kJ/mol
# Density = 2.084108 g / cm^3
# Si number density = 20.888622 Si / 1000 Ang^3
#
#
#
# Elastic Constant Matrix: (Units=GPa)
#
#
# Indices 1 2 3 4 5 6 
#
# 1 176.4273 52.3374 48.9006 -6.7670 -25.7543 14.1353
# 2 52.3374 97.0750 11.6943 -7.8447 -18.6010 -3.6927
# 3 48.9006 11.6943 110.0635 -14.2439 -8.6755 4.2861
# 4 -6.7670 -7.8447 -14.2439 27.5600 -3.5051 -14.0043
# 5 -25.7543 -18.6010 -8.6755 -3.5051 31.5993 1.0379
# 6 14.1353 -3.6927 4.2861 -14.0043 1.0379 39.9312
#
#
#
# Elastic Compliance Matrix: (Units=1/GPa)
#
#
# Indices 1 2 3 4 5 6 
#
# 1 0.008431 -0.003779 -0.003183 -0.002134 0.003663 -0.003836
# 2 -0.003779 0.014118 0.001395 0.007045 0.006237 0.004802
# 3 -0.003183 0.001395 0.011317 0.006956 0.002026 0.002428
# 4 -0.002134 0.007045 0.006956 0.052053 0.009479 0.018669
# 5 0.003663 0.006237 0.002026 0.009479 0.039867 0.001351
# 6 -0.003836 0.004802 0.002428 0.018669 0.001351 0.033097
#
#
# Mechanical properties :
#
#
# Convention : Reuss Voigt Hill
#
# Bulk Modulus (GPa) = 43.98729 67.71448 55.85089
# Shear Modulus (GPa) = 28.15430 37.86033 33.00732
#
# Velocity S-wave (km/s) = 3.67526 4.26195 3.97943
# Velocity P-wave (km/s) = 6.25410 7.53035 6.92171
#
# Compressibility (1/GPa) = 0.02273384
#
# Stress axis : x y z
#
# Youngs Moduli (GPa) = 118.60509 70.83293 88.36436
#
# Poissons Ratio (x) = 0.26766 0.28122
# Poissons Ratio (y) = 0.44818 -0.12329
# Poissons Ratio (z) = 0.37746 -0.09883
#
# Static dielectric constant tensor:
#      x y z
#    x 1.649780 0.105610 0.172400 
#    y 0.105610 1.511270 -0.359260 
#    z 0.172400 -0.359260 1.231870 
# 
# From -- ./inp_files/256155.got.cif
#   From: 2010.05.17/outbox.cif.g08.bks.cpg/sg2_129_cif.got.tgz:256155.got - 2010.06.03 11:33:40.
