data_PCOD9025695
_publ_section_title
;
Structure prediction by ZEFSAII (Michael W. Deem and Ramdas Pophale) SiO2 
 PCOD9025695
Probable space group: P -1
;
_chemical_formula_sum "Si O2"
_cell_formula_units_Z 14
_cell_length_a 11.108450
_cell_length_b 8.939687
_cell_length_c 15.000100
_cell_angle_alpha 125.883846
_cell_angle_beta 29.347791
_cell_angle_gamma 130.139674
_cell_volume 556.950953
_symmetry_space_group_name_H-M "P -1"
_symmetry_group_IT_number 2
_symmetry_cell_setting 'triclinic'
loop_
_space_group_symop_operation_xyz
x,y,z
-x,-y,-z
loop_
_atom_site_type_symbol
_atom_site_label
_atom_site_fract_x
_atom_site_fract_y
_atom_site_fract_z
Si Si1 0.456254 0.342730 0.685385
Si Si2 0.774705 0.403252 0.840018
Si Si3 0.043546 0.108404 0.603777
Si Si4 0.140269 0.793955 0.971269
Si Si5 0.420044 0.689409 0.597280
Si Si6 0.563269 0.761392 0.828890
Si Si7 0.642264 0.775146 0.091985
O O1 0.594002 0.286051 0.491516
O O2 0.608966 0.570511 0.689946
O O3 0.408757 0.228708 0.770366
O O4 0.154393 0.309553 0.840791
O O5 0.999137 0.315270 0.688949
O O6 0.640475 0.313383 0.802884
O O7 0.563094 0.308284 0.019489
O O8 0.796262 0.628499 0.911906
O O9 0.323652 0.135851 0.472472
O O10 0.807331 0.955427 0.755832
O O11 0.000000 0.000000 0.500000
O O12 0.192649 0.685582 0.811058
O O13 0.354084 0.796884 0.908366
O O14 0.199538 0.013818 0.975221
O O15 0.500000 0.500000 0.500000
#
# Coordination Sequence:
#
# PCOD9025695 Si02
#       7
#     2   2   2   2   2   2   2
#     4  11  25  44  68 101 141 179 219 281 340 400
#     4  10  22  40  70  97 133 177 225 278 335 399
#     4  12  22  41  68 102 133 167 225 294 328 391
#     4  12  23  44  69 102 137 177 227 280 333 408
#     4  12  26  42  71 105 134 174 229 286 341 388
#     4  11  22  41  69  99 128 172 232 276 332 389
#     4  10  23  42  64 100 138 179 225 268 336 415
#
# _framework density 25.136862000000001
#
# number of rings (size 3 to 8) (size 9 to 14) (size 15 to 20)
#    0.000    0.857    4.286    2.143    6.000    0.571 
#    0.000    0.000    3.143    5.143    0.000    0.000 
#    0.000    0.000    0.000    0.000    0.000    0.000 
#
# Total GULP energy -78425.640403 kJ/mol
# GULP energy per Si atom -5601.831457 kJ/mol
# Density = 2.507965 g / cm^3
# Si number density = 25.136862 Si / 1000 Ang^3
#
#
#
# Elastic Constant Matrix: (Units=GPa)
#
#
# Indices 1 2 3 4 5 6 
#
# 1 103.0793 -2.2456 1.0523 -15.5189 14.1144 5.8860
# 2 -2.2456 119.3164 4.8239 -0.1471 6.1270 -18.4312
# 3 1.0523 4.8239 81.2227 -4.9586 18.2084 -1.5490
# 4 -15.5189 -0.1471 -4.9586 30.4897 9.3227 -0.2108
# 5 14.1144 6.1270 18.2084 9.3227 48.8590 -0.8480
# 6 5.8860 -18.4312 -1.5490 -0.2108 -0.8480 29.2780
#
#
#
# Elastic Compliance Matrix: (Units=1/GPa)
#
#
# Indices 1 2 3 4 5 6 
#
# 1 0.011769 0.000094 0.001520 0.007912 -0.005528 -0.002330
# 2 0.000094 0.009348 -0.000166 0.000449 -0.001122 0.005828
# 3 0.001520 -0.000166 0.014107 0.005100 -0.006645 0.000180
# 4 0.007912 0.000449 0.005100 0.041366 -0.012155 -0.001092
# 5 -0.005528 -0.001122 -0.006645 -0.012155 0.027013 0.000748
# 6 -0.002330 0.005828 0.000180 -0.001092 0.000748 0.038316
#
#
# Mechanical properties :
#
#
# Convention : Reuss Voigt Hill
#
# Bulk Modulus (GPa) = 26.23426 34.54218 30.38822
# Shear Modulus (GPa) = 32.95334 41.72455 37.33894
#
# Velocity S-wave (km/s) = 3.62464 4.07860 3.85830
# Velocity P-wave (km/s) = 5.28929 5.99595 5.65367
#
# Compressibility (1/GPa) = 0.03811810
#
# Stress axis : x y z
#
# Youngs Moduli (GPa) = 84.96921 106.97497 70.88904
#
# Poissons Ratio (x) = -0.01003 -0.10774
# Poissons Ratio (y) = -0.00797 0.01179
# Poissons Ratio (z) = -0.12914 0.01779
#
# Static dielectric constant tensor:
#      x y z
#    x 2.017110 0.032900 -0.030390 
#    y 0.032900 2.032970 -0.008220 
#    z -0.030390 -0.008220 2.048870 
# 
# From -- ./inp_files/238559.got.cif
#   From: 2010.05.17/outbox.cif.g08.bks.cpg/sg2_120_cif.got.tgz:238559.got - 2010.06.03 11:33:40.
