data_PCOD9025501
_publ_section_title
;
Structure prediction by ZEFSAII (Michael W. Deem and Ramdas Pophale) SiO2 
 PCOD9025501
Probable space group: P -1
;
_chemical_formula_sum "Si O2"
_cell_formula_units_Z 16
_cell_length_a 5.368522
_cell_length_b 16.498716
_cell_length_c 15.071002
_cell_angle_alpha 146.527784
_cell_angle_beta 109.913926
_cell_angle_gamma 57.815522
_cell_volume 607.534216
_symmetry_space_group_name_H-M "P -1"
_symmetry_group_IT_number 2
_symmetry_cell_setting 'triclinic'
loop_
_space_group_symop_operation_xyz
x,y,z
-x,-y,-z
loop_
_atom_site_type_symbol
_atom_site_label
_atom_site_fract_x
_atom_site_fract_y
_atom_site_fract_z
Si Si1 0.856318 0.059755 0.134783
Si Si2 0.467399 0.264300 0.778024
Si Si3 0.267123 0.174645 0.399737
Si Si4 0.167663 0.096886 0.698343
Si Si5 0.713534 0.486107 0.695144
Si Si6 0.349399 0.365807 0.428843
Si Si7 0.543322 0.491448 0.142999
Si Si8 0.168800 0.219843 0.012008
O O1 0.563838 0.244405 0.267190
O O2 0.092778 0.077241 0.249254
O O3 0.769242 0.925286 0.043696
O O4 0.000000 0.000000 0.000000
O O5 0.253211 0.189962 0.716679
O O6 0.377746 0.391696 0.801801
O O7 0.823825 0.128158 0.679636
O O8 0.458180 0.381740 0.966711
O O9 0.393989 0.223704 0.375097
O O10 0.030184 0.352055 0.571412
O O11 0.531407 0.080014 0.416404
O O12 0.175824 0.166119 0.861535
O O13 0.490325 0.470586 0.585406
O O14 0.699141 0.417042 0.727490
O O15 0.657530 0.673411 0.867236
O O16 0.000000 0.500000 0.500000
O O17 0.826430 0.361069 0.114525
#
# Coordination Sequence:
#
# PCOD9025501 Si02
#       8
#     2   2   2   2   2   2   2   2
#     4  11  27  50  78 111 147 197 262 325 389 469
#     4  10  23  39  74 111 160 192 260 320 379 449
#     4  11  25  48  73 101 150 204 248 308 396 463
#     4  11  22  45  74 108 152 203 255 315 378 460
#     4  11  25  45  77 105 152 194 256 308 398 464
#     4  11  27  53  74 108 150 201 251 325 398 469
#     4  10  22  40  69 114 148 197 247 315 383 448
#     4  11  23  45  78 109 147 195 256 313 379 463
#
# _framework density 26.335965000000002
#
# number of rings (size 3 to 8) (size 9 to 14) (size 15 to 20)
#    0.000    1.250    2.500    2.250    3.500    7.000 
#    4.500    3.750    0.000    0.000    0.000    0.000 
#    0.000    0.000    0.000    0.000    0.000    0.000 
#
# Total GULP energy -89621.792116 kJ/mol
# GULP energy per Si atom -5601.362007 kJ/mol
# Density = 2.627602 g / cm^3
# Si number density = 26.335965 Si / 1000 Ang^3
#
#
#
# Elastic Constant Matrix: (Units=GPa)
#
#
# Indices 1 2 3 4 5 6 
#
# 1 114.9375 49.2965 53.5414 0.7775 -5.4699 14.2661
# 2 49.2965 142.0683 39.1962 14.2144 -6.2823 19.4354
# 3 53.5414 39.1962 110.0322 2.5472 0.9856 2.3256
# 4 0.7775 14.2144 2.5472 29.1747 4.7164 -4.6978
# 5 -5.4699 -6.2823 0.9856 4.7164 46.9001 -2.8692
# 6 14.2661 19.4354 2.3256 -4.6978 -2.8692 62.3956
#
#
#
# Elastic Compliance Matrix: (Units=1/GPa)
#
#
# Indices 1 2 3 4 5 6 
#
# 1 0.012511 -0.002762 -0.005101 0.001026 0.000990 -0.001687
# 2 -0.002762 0.009412 -0.001852 -0.004974 0.001322 -0.002545
# 3 -0.005101 -0.001852 0.012205 0.000347 -0.001057 0.001266
# 4 0.001026 -0.004974 0.000347 0.037948 -0.004127 0.003969
# 5 0.000990 0.001322 -0.001057 -0.004127 0.022058 0.000105
# 6 -0.001687 -0.002545 0.001266 0.003969 0.000105 0.017462
#
#
# Mechanical properties :
#
#
# Convention : Reuss Voigt Hill
#
# Bulk Modulus (GPa) = 68.03347 72.34513 70.18930
# Shear Modulus (GPa) = 36.78505 42.69433 39.73969
#
# Velocity S-wave (km/s) = 3.74138 4.03071 3.88874
# Velocity P-wave (km/s) = 6.67480 7.01369 6.84634
#
# Compressibility (1/GPa) = 0.01469865
#
# Stress axis : x y z
#
# Youngs Moduli (GPa) = 79.93218 106.24197 81.93593
#
# Poissons Ratio (x) = 0.29342 0.41794
# Poissons Ratio (y) = 0.22076 0.15174
# Poissons Ratio (z) = 0.40771 0.19676
#
# Static dielectric constant tensor:
#      x y z
#    x 2.174660 -0.042920 -0.048790 
#    y -0.042920 2.022900 0.008760 
#    z -0.048790 0.008760 2.116850 
# 
# From -- ./inp_files/484486.got.cif
#   From: 2010.05.17/outbox.cif.g08.bks.cpg/sg2_243_cif.got.tgz:484486.got - 2010.06.03 11:33:40.
