data_PCOD9025074
_publ_section_title
;
Structure prediction by ZEFSAII (Michael W. Deem and Ramdas Pophale) SiO2 
 PCOD9025074
Probable space group: P -1
;
_chemical_formula_sum "Si O2"
_cell_formula_units_Z 14
_cell_length_a 19.375762
_cell_length_b 8.842645
_cell_length_c 7.217122
_cell_angle_alpha 95.481152
_cell_angle_beta 122.807525
_cell_angle_gamma 40.532638
_cell_volume 550.670857
_symmetry_space_group_name_H-M "P -1"
_symmetry_group_IT_number 2
_symmetry_cell_setting 'triclinic'
loop_
_space_group_symop_operation_xyz
x,y,z
-x,-y,-z
loop_
_atom_site_type_symbol
_atom_site_label
_atom_site_fract_x
_atom_site_fract_y
_atom_site_fract_z
Si Si1 0.385523 0.724600 0.654392
Si Si2 0.110142 0.888052 0.914412
Si Si3 0.504712 0.232722 0.885771
Si Si4 0.183823 0.334907 0.895289
Si Si5 0.109194 0.010416 0.520943
Si Si6 0.127491 0.192726 0.059884
Si Si7 0.335883 0.312932 0.378542
O O1 0.482886 0.416708 0.743329
O O2 0.247358 0.885161 0.610993
O O3 0.294108 0.927892 0.369318
O O4 0.483034 0.706294 0.889734
O O5 0.959941 0.016979 0.710169
O O6 0.149514 0.868709 0.756868
O O7 0.254622 0.578303 0.181455
O O8 0.073887 0.104034 0.980354
O O9 0.375456 0.314757 0.641568
O O10 0.668261 0.898016 0.046901
O O11 0.145003 0.224633 0.880818
O O12 0.228676 0.342127 0.159231
O O13 0.041724 0.647490 0.643095
O O14 0.000000 0.500000 0.000000
O O15 0.500000 0.000000 0.500000
#
# Coordination Sequence:
#
# PCOD9025074 Si02
#       7
#     2   2   2   2   2   2   2
#     4  11  23  40  60  92 130 157 204 254 310 357
#     4  10  22  40  67  91 121 162 213 248 310 370
#     4  10  22  41  61  86 123 169 199 250 304 368
#     4  10  22  40  68  88 124 162 208 253 307 364
#     4  10  22  42  66  93 119 163 207 262 302 360
#     4  12  24  38  61  99 125 160 204 257 308 368
#     4   9  19  42  64  88 118 162 211 250 297 369
#
# _framework density 25.423532999999999
#
# number of rings (size 3 to 8) (size 9 to 14) (size 15 to 20)
#    0.000    1.714    2.857    0.857    2.000    3.429 
#   10.286    0.714    0.000    0.000    0.000    0.000 
#    0.000    0.000    0.000    0.000    0.000    0.000 
#
# Total GULP energy -78298.544974 kJ/mol
# GULP energy per Si atom -5592.753212 kJ/mol
# Density = 2.536567 g / cm^3
# Si number density = 25.423533 Si / 1000 Ang^3
#
#
#
# Elastic Constant Matrix: (Units=GPa)
#
#
# Indices 1 2 3 4 5 6 
#
# 1 56.3554 11.7443 18.5368 -8.9304 -1.3425 0.2452
# 2 11.7443 118.8187 55.3107 -14.9741 15.4478 20.0501
# 3 18.5368 55.3107 132.2533 0.6880 18.7072 5.9472
# 4 -8.9304 -14.9741 0.6880 70.6063 10.6010 11.9289
# 5 -1.3425 15.4478 18.7072 10.6010 26.4962 -6.6487
# 6 0.2452 20.0501 5.9472 11.9289 -6.6487 32.3048
#
#
#
# Elastic Compliance Matrix: (Units=1/GPa)
#
#
# Indices 1 2 3 4 5 6 
#
# 1 0.019185 -0.000980 -0.002774 0.001605 0.003117 0.001022
# 2 -0.000980 0.015307 -0.003855 0.007478 -0.012802 -0.014179
# 3 -0.002774 -0.003855 0.010299 -0.000445 -0.005078 -0.000363
# 4 0.001605 0.007478 -0.000445 0.021063 -0.016334 -0.015711
# 5 0.003117 -0.012802 -0.005078 -0.016334 0.062444 0.027740
# 6 0.001022 -0.014179 -0.000363 -0.015711 0.027740 0.051325
#
#
# Mechanical properties :
#
#
# Convention : Reuss Voigt Hill
#
# Bulk Modulus (GPa) = 33.81460 53.17900 43.49680
# Shear Modulus (GPa) = 24.42599 40.67049 32.54824
#
# Velocity S-wave (km/s) = 3.10298 4.00399 3.58193
# Velocity P-wave (km/s) = 5.11541 6.50681 5.85260
#
# Compressibility (1/GPa) = 0.02957302
#
# Stress axis : x y z
#
# Youngs Moduli (GPa) = 52.12271 65.32989 97.09590
#
# Poissons Ratio (x) = 0.06405 0.26937
# Poissons Ratio (y) = 0.05110 0.37427
# Poissons Ratio (z) = 0.14460 0.25182
#
# Static dielectric constant tensor:
#      x y z
#    x 1.986990 -0.001970 0.009000 
#    y -0.001970 2.057230 0.083000 
#    z 0.009000 0.083000 1.999960 
# 
# From -- ./inp_files/167534.got.cif
#   From: 2010.05.17/outbox.cif.g08.bks.cpg/sg2_84_cif.got.tgz:167534.got - 2010.06.03 11:33:40.
