data_PCOD9025534
_publ_section_title
;
Structure prediction by ZEFSAII (Michael W. Deem and Ramdas Pophale) SiO2 
 PCOD9025534
Probable space group: P -1
;
_chemical_formula_sum "Si O2"
_cell_formula_units_Z 16
_cell_length_a 8.188868
_cell_length_b 16.429677
_cell_length_c 8.835719
_cell_angle_alpha 35.728606
_cell_angle_beta 93.095226
_cell_angle_gamma 102.818007
_cell_volume 660.065412
_symmetry_space_group_name_H-M "P -1"
_symmetry_group_IT_number 2
_symmetry_cell_setting 'triclinic'
loop_
_space_group_symop_operation_xyz
x,y,z
-x,-y,-z
loop_
_atom_site_type_symbol
_atom_site_label
_atom_site_fract_x
_atom_site_fract_y
_atom_site_fract_z
Si Si1 0.809242 0.769631 0.015008
Si Si2 0.680880 0.286153 0.452390
Si Si3 0.666901 0.775258 0.309234
Si Si4 0.690863 0.005189 0.456517
Si Si5 0.076974 0.794005 0.616828
Si Si6 0.046925 0.478779 0.704783
Si Si7 0.795711 0.531792 0.849723
Si Si8 0.872342 0.006984 0.173754
O O1 0.668246 0.735955 0.192442
O O2 0.848814 0.640574 0.117789
O O3 0.751934 0.878120 0.734621
O O4 0.982676 0.840066 0.018872
O O5 0.510392 0.220237 0.636059
O O6 0.761791 0.178013 0.530674
O O7 0.821819 0.374192 0.445200
O O8 0.675975 0.405663 0.141052
O O9 0.711676 0.645057 0.598977
O O10 0.804233 0.932036 0.124159
O O11 0.712853 0.998585 0.288139
O O12 0.500000 0.000000 0.500000
O O13 0.832598 0.152991 0.299182
O O14 0.950449 0.634113 0.807536
O O15 0.964426 0.897763 0.417622
O O16 0.000000 0.500000 0.500000
O O17 0.877398 0.461146 0.825494
#
# Coordination Sequence:
#
# PCOD9025534 Si02
#       8
#     2   2   2   2   2   2   2   2
#     4  11  24  44  69  93 135 174 217 267 328 394
#     4  11  24  39  68  94 138 172 216 276 318 387
#     4  11  23  45  60 101 135 172 215 273 334 380
#     4  11  24  43  66 101 128 168 220 281 325 376
#     4   9  19  39  65  93 125 163 224 266 313 382
#     4  11  23  44  67 100 129 173 221 264 325 394
#     4  10  22  40  69  95 129 178 223 261 322 395
#     4  10  23  41  72  92 123 173 227 267 316 394
#
# _framework density 24.240020999999999
#
# number of rings (size 3 to 8) (size 9 to 14) (size 15 to 20)
#    0.000    1.500    1.250    4.500    8.750    0.500 
#    4.500    3.125    0.000    0.000    0.000    0.000 
#    0.000    0.000    0.000    0.000    0.000    0.000 
#
# Total GULP energy -89441.296848 kJ/mol
# GULP energy per Si atom -5590.081053 kJ/mol
# Density = 2.418485 g / cm^3
# Si number density = 24.240021 Si / 1000 Ang^3
#
#
#
# Elastic Constant Matrix: (Units=GPa)
#
#
# Indices 1 2 3 4 5 6 
#
# 1 73.6349 6.8392 4.8503 3.0444 -9.9364 -34.6213
# 2 6.8392 122.8276 5.5065 14.0933 1.7446 -28.3636
# 3 4.8503 5.5065 48.9906 9.5846 6.6504 -1.9727
# 4 3.0444 14.0933 9.5846 34.3813 -11.5633 -4.1940
# 5 -9.9364 1.7446 6.6504 -11.5633 34.8500 6.3854
# 6 -34.6213 -28.3636 -1.9727 -4.1940 6.3854 42.7026
#
#
#
# Elastic Compliance Matrix: (Units=1/GPa)
#
#
# Indices 1 2 3 4 5 6 
#
# 1 0.023743 0.003486 -0.002561 0.000938 0.003546 0.021009
# 2 0.003486 0.010814 0.000124 -0.004534 -0.002908 0.010004
# 3 -0.002561 0.000124 0.023539 -0.009208 -0.008176 -0.000589
# 4 0.000938 -0.004534 -0.009208 0.038399 0.015208 -0.001179
# 5 0.003546 -0.002908 -0.008176 0.015208 0.037096 -0.003488
# 6 0.021009 0.010004 -0.000589 -0.001179 -0.003488 0.047474
#
#
# Mechanical properties :
#
#
# Convention : Reuss Voigt Hill
#
# Bulk Modulus (GPa) = 16.61309 31.09390 23.85350
# Shear Modulus (GPa) = 25.12159 37.60394 31.36276
#
# Velocity S-wave (km/s) = 3.22276 3.94295 3.60090
# Velocity P-wave (km/s) = 4.55156 5.79521 5.21062
#
# Compressibility (1/GPa) = 0.06019348
#
# Stress axis : x y z
#
# Youngs Moduli (GPa) = 42.11778 92.47694 42.48220
#
# Poissons Ratio (x) = -0.32239 0.10881
# Poissons Ratio (y) = -0.14683 -0.00527
# Poissons Ratio (z) = 0.10788 -0.01147
#
# Static dielectric constant tensor:
#      x y z
#    x 1.921910 -0.008570 -0.020420 
#    y -0.008570 1.908990 -0.020630 
#    z -0.020420 -0.020630 2.050000 
# 
# From -- ./inp_files/205250.got.cif
#   From: 2010.05.17/outbox.cif.g08.bks.cpg/sg2_103_cif.got.tgz:205250.got - 2010.06.03 11:33:40.
