data_PCOD9025758
_publ_section_title
;
Structure prediction by ZEFSAII (Michael W. Deem and Ramdas Pophale) SiO2 
 PCOD9025758
Probable space group: P -1
;
_chemical_formula_sum "Si O2"
_cell_formula_units_Z 13
_cell_length_a 8.967811
_cell_length_b 12.682194
_cell_length_c 5.094386
_cell_angle_alpha 80.021271
_cell_angle_beta 81.253672
_cell_angle_gamma 75.959025
_cell_volume 549.896072
_symmetry_space_group_name_H-M "P -1"
_symmetry_group_IT_number 2
_symmetry_cell_setting 'triclinic'
loop_
_space_group_symop_operation_xyz
x,y,z
-x,-y,-z
loop_
_atom_site_type_symbol
_atom_site_label
_atom_site_fract_x
_atom_site_fract_y
_atom_site_fract_z
Si Si1 0.000000 0.000000 0.500000
Si Si2 0.807398 0.814108 0.739642
Si Si3 0.997253 0.424199 0.282766
Si Si4 0.315181 0.897947 0.150768
Si Si5 0.552856 0.357789 0.743410
Si Si6 0.635452 0.918544 0.250442
Si Si7 0.673443 0.438805 0.180288
O O1 0.150945 0.926373 0.325498
O O2 0.935396 0.887918 0.638245
O O3 0.875587 0.687395 0.718044
O O4 0.681035 0.858948 0.534033
O O5 0.728147 0.839854 0.032749
O O6 0.000000 0.500000 0.500000
O O7 0.834044 0.392263 0.297271
O O8 0.000000 0.500000 0.000000
O O9 0.390517 0.770006 0.160433
O O10 0.452189 0.939817 0.247270
O O11 0.302080 0.969279 0.854275
O O12 0.563488 0.384698 0.420926
O O13 0.383743 0.429446 0.835068
O O14 0.659909 0.409870 0.893350
#
# Coordination Sequence:
#
# PCOD9025758 Si02
#       7
#     1   2   2   2   2   2   2
#     4  10  24  44  72 102 134 180 232 288 346 410
#     4  11  25  46  70 102 140 184 231 285 348 416
#     4  12  26  42  69  99 141 183 226 284 338 414
#     4  10  23  43  72 102 138 182 227 291 350 410
#     4  10  22  40  71  93 138 176 220 287 334 412
#     4  10  25  44  67 104 138 177 234 278 350 422
#     4  10  23  43  61 104 131 175 234 270 341 402
#
# _framework density 23.640833000000001
#
# number of rings (size 3 to 8) (size 9 to 14) (size 15 to 20)
#    0.000    1.538    0.000    2.769    4.308   14.154 
#    0.000    0.000    0.000    0.000    0.000    0.000 
#    0.000    0.000    0.000    0.000    0.000    0.000 
#
# Total GULP energy -72410.236834 kJ/mol
# GULP energy per Si atom -5570.018218 kJ/mol
# Density = 2.358703 g / cm^3
# Si number density = 23.640833 Si / 1000 Ang^3
#
#
#
# Elastic Constant Matrix: (Units=GPa)
#
#
# Indices 1 2 3 4 5 6 
#
# 1 44.1160 -9.6209 5.2268 11.4231 -14.2764 -9.4111
# 2 -9.6209 180.9874 37.5307 -1.8805 3.1587 -40.9602
# 3 5.2268 37.5307 100.7815 17.3140 10.3882 -2.4964
# 4 11.4231 -1.8805 17.3140 23.5950 -8.3315 1.7914
# 5 -14.2764 3.1587 10.3882 -8.3315 35.7983 -5.0321
# 6 -9.4111 -40.9602 -2.4964 1.7914 -5.0321 32.0649
#
#
#
# Elastic Compliance Matrix: (Units=1/GPa)
#
#
# Indices 1 2 3 4 5 6 
#
# 1 0.038339 0.008047 -0.004263 -0.010730 0.016753 0.024428
# 2 0.008047 0.010581 -0.004865 0.001512 0.006346 0.016410
# 3 -0.004263 -0.004865 0.014793 -0.011937 -0.009342 -0.007113
# 4 -0.010730 0.001512 -0.011937 0.061249 0.012806 -0.003559
# 5 0.016753 0.006346 -0.009342 0.012806 0.042308 0.018220
# 6 0.024428 0.016410 -0.007113 -0.003559 0.018220 0.061823
#
#
# Mechanical properties :
#
#
# Convention : Reuss Voigt Hill
#
# Bulk Modulus (GPa) = 16.24727 43.57312 29.91019
# Shear Modulus (GPa) = 19.85925 37.80819 28.83372
#
# Velocity S-wave (km/s) = 2.90149 4.00343 3.49615
# Velocity P-wave (km/s) = 4.25586 6.31199 5.38301
#
# Compressibility (1/GPa) = 0.06154881
#
# Stress axis : x y z
#
# Youngs Moduli (GPa) = 26.08339 94.51201 67.60062
#
# Poissons Ratio (x) = -0.76050 0.28819
# Poissons Ratio (y) = -0.20988 0.32888
# Poissons Ratio (z) = 0.11120 0.45980
#
# Static dielectric constant tensor:
#      x y z
#    x 2.106350 0.023070 -0.176710 
#    y 0.023070 1.877960 0.043350 
#    z -0.176710 0.043350 2.056780 
# 
# From -- ./inp_files/26713.got.cif
#   From: 2010.05.17/outbox.cif.g08.bks.cpg/sg2_14_cif.got.tgz:26713.got - 2010.06.03 11:33:40.
