data_PCOD9025659
_publ_section_title
;
Structure prediction by ZEFSAII (Michael W. Deem and Ramdas Pophale) SiO2 
 PCOD9025659
Probable space group: P -1
;
_chemical_formula_sum "Si O2"
_cell_formula_units_Z 16
_cell_length_a 17.512838
_cell_length_b 9.490625
_cell_length_c 5.737524
_cell_angle_alpha 109.983708
_cell_angle_beta 125.899563
_cell_angle_gamma 61.805122
_cell_volume 678.016847
_symmetry_space_group_name_H-M "P -1"
_symmetry_group_IT_number 2
_symmetry_cell_setting 'triclinic'
loop_
_space_group_symop_operation_xyz
x,y,z
-x,-y,-z
loop_
_atom_site_type_symbol
_atom_site_label
_atom_site_fract_x
_atom_site_fract_y
_atom_site_fract_z
Si Si1 0.882254 0.616002 0.824140
Si Si2 0.468809 0.142463 0.838702
Si Si3 0.739463 0.276532 0.812775
Si Si4 0.086153 0.926302 0.304332
Si Si5 0.426730 0.398040 0.279628
Si Si6 0.903706 0.741356 0.423736
Si Si7 0.590470 0.109225 0.637396
Si Si8 0.891926 0.324245 0.456783
O O1 0.873581 0.716335 0.622905
O O2 0.835295 0.484671 0.589364
O O3 0.855186 0.691901 0.076872
O O4 0.000000 0.500000 0.000000
O O5 0.574413 0.126005 0.893870
O O6 0.399454 0.070939 0.516553
O O7 0.424434 0.315671 0.978156
O O8 0.500000 0.000000 0.000000
O O9 0.811241 0.196871 0.685065
O O10 0.678506 0.465300 0.772639
O O11 0.669473 0.175411 0.699376
O O12 0.813764 0.265710 0.152663
O O13 0.046949 0.821131 0.347660
O O14 0.113356 0.072633 0.531982
O O15 0.000000 0.000000 0.000000
O O16 0.500000 0.500000 0.500000
O O17 0.480444 0.241535 0.443199
O O18 0.026242 0.652616 0.563508
#
# Coordination Sequence:
#
# PCOD9025659 Si02
#       8
#     2   2   2   2   2   2   2   2
#     4  10  22  40  70  94 125 177 239 294 356 416
#     4   9  18  38  72  94 128 173 218 266 340 422
#     4  11  25  39  63 100 135 170 231 291 338 414
#     4  12  25  43  67  91 139 184 240 287 353 408
#     4   9  20  39  65  95 130 168 212 270 345 405
#     4  11  23  42  70  93 130 188 239 289 353 414
#     4   9  20  41  69  98 130 174 217 272 347 411
#     4  11  24  40  67  95 130 176 236 295 352 409
#
# _framework density 23.598231999999999
#
# number of rings (size 3 to 8) (size 9 to 14) (size 15 to 20)
#    0.000    1.750    1.250    3.375    3.500    6.000 
#    2.250    0.000    0.000    0.000    0.000    0.000 
#    0.000    0.000    0.000    0.000    0.000    0.000 
#
# Total GULP energy -89184.927023 kJ/mol
# GULP energy per Si atom -5574.057939 kJ/mol
# Density = 2.354452 g / cm^3
# Si number density = 23.598232 Si / 1000 Ang^3
#
#
#
# Elastic Constant Matrix: (Units=GPa)
#
#
# Indices 1 2 3 4 5 6 
#
# 1 82.0399 43.8709 23.9605 -0.1493 -16.0351 7.4054
# 2 43.8709 115.6405 43.4396 38.0451 -12.3143 3.1728
# 3 23.9605 43.4396 81.1670 23.7769 -18.3680 2.6365
# 4 -0.1493 38.0451 23.7769 51.5692 1.3510 -10.0741
# 5 -16.0351 -12.3143 -18.3680 1.3510 27.3135 0.7031
# 6 7.4054 3.1728 2.6365 -10.0741 0.7031 46.3515
#
#
#
# Elastic Compliance Matrix: (Units=1/GPa)
#
#
# Indices 1 2 3 4 5 6 
#
# 1 0.017922 -0.007500 -0.001715 0.006025 0.005715 -0.001030
# 2 -0.007500 0.016571 -0.002823 -0.011439 0.001794 -0.002289
# 3 -0.001715 -0.002823 0.019097 -0.007487 0.010996 -0.002413
# 4 0.006025 -0.011439 -0.007487 0.032996 -0.008481 0.007546
# 5 0.005715 0.001794 0.010996 -0.008481 0.048699 -0.004244
# 6 -0.001030 -0.002289 -0.002413 0.007546 -0.004244 0.023737
#
#
# Mechanical properties :
#
#
# Convention : Reuss Voigt Hill
#
# Bulk Modulus (GPa) = 33.88237 55.70992 44.79615
# Shear Modulus (GPa) = 25.91532 36.21859 31.06695
#
# Velocity S-wave (km/s) = 3.31749 3.92190 3.63229
# Velocity P-wave (km/s) = 5.39106 6.64585 6.05107
#
# Compressibility (1/GPa) = 0.02951387
#
# Stress axis : x y z
#
# Youngs Moduli (GPa) = 55.79828 60.34791 52.36386
#
# Poissons Ratio (x) = 0.45262 0.08978
# Poissons Ratio (y) = 0.41850 0.14782
# Poissons Ratio (z) = 0.09567 0.17036
#
# Static dielectric constant tensor:
#      x y z
#    x 1.977220 0.012120 -0.030870 
#    y 0.012120 1.917200 0.000740 
#    z -0.030870 0.000740 2.314450 
# 
# From -- ./inp_files/107431.got.cif
#   From: 2010.05.17/outbox.cif.g08.bks.cpg/sg2_54_cif.got.tgz:107431.got - 2010.06.03 11:33:40.
