data_PCOD9025665
_publ_section_title
;
Structure prediction by ZEFSAII (Michael W. Deem and Ramdas Pophale) SiO2 
 PCOD9025665
Probable space group: P -1
;
_chemical_formula_sum "Si O2"
_cell_formula_units_Z 16
_cell_length_a 18.712189
_cell_length_b 9.953761
_cell_length_c 5.615346
_cell_angle_alpha 60.574730
_cell_angle_beta 127.829585
_cell_angle_gamma 121.830498
_cell_volume 679.552686
_symmetry_space_group_name_H-M "P -1"
_symmetry_group_IT_number 2
_symmetry_cell_setting 'triclinic'
loop_
_space_group_symop_operation_xyz
x,y,z
-x,-y,-z
loop_
_atom_site_type_symbol
_atom_site_label
_atom_site_fract_x
_atom_site_fract_y
_atom_site_fract_z
Si Si1 0.982367 0.232386 0.204102
Si Si2 0.316950 0.230348 0.880497
Si Si3 0.593939 0.154653 0.119402
Si Si4 0.917251 0.455999 0.171814
Si Si5 0.125836 0.095948 0.911175
Si Si6 0.770696 0.616450 0.832014
Si Si7 0.385898 0.936942 0.260777
Si Si8 0.419867 0.504343 0.149769
O O1 0.911069 0.285659 0.186557
O O2 0.052625 0.162139 0.557058
O O3 0.924539 0.097781 0.013159
O O4 0.047835 0.399367 0.076236
O O5 0.226782 0.138353 0.944164
O O6 0.277978 0.345522 0.535328
O O7 0.411766 0.363067 0.066401
O O8 0.349829 0.084702 0.972813
O O9 0.652296 0.117989 0.498027
O O10 0.635805 0.184513 0.906638
O O11 0.566249 0.307513 0.028559
O O12 0.500000 0.000000 0.000000
O O13 0.000000 0.500000 0.500000
O O14 0.822232 0.481595 0.052202
O O15 0.151309 0.207263 0.099489
O O16 0.686803 0.563802 0.898458
O O17 0.500000 0.000000 0.500000
O O18 0.500000 0.500000 0.500000
#
# Coordination Sequence:
#
# PCOD9025665 Si02
#       8
#     2   2   2   2   2   2   2   2
#     4  10  22  40  70  94 136 172 225 272 353 412
#     4  11  25  44  68  96 141 177 235 293 347 419
#     4  10  23  44  67  96 132 174 236 290 355 420
#     4  11  22  42  66  98 135 180 218 282 343 418
#     4  10  22  43  64 101 130 178 221 285 338 423
#     4  11  25  42  68  99 138 175 238 280 350 419
#     4  10  23  42  68  94 133 179 229 291 354 413
#     4  11  26  44  72  98 135 186 234 290 355 420
#
# _framework density 23.544899000000001
#
# number of rings (size 3 to 8) (size 9 to 14) (size 15 to 20)
#    0.000    1.500    2.500    1.500    8.750    3.000 
#    2.250    0.000    0.000    0.000    0.000    0.000 
#    0.000    0.000    0.000    0.000    0.000    0.000 
#
# Total GULP energy -89273.621277 kJ/mol
# GULP energy per Si atom -5579.601330 kJ/mol
# Density = 2.349131 g / cm^3
# Si number density = 23.544899 Si / 1000 Ang^3
#
#
#
# Elastic Constant Matrix: (Units=GPa)
#
#
# Indices 1 2 3 4 5 6 
#
# 1 60.8271 14.0839 0.5286 -0.9597 18.6635 -17.3728
# 2 14.0839 112.2335 4.5858 8.1566 14.4960 -5.0540
# 3 0.5286 4.5858 83.1573 6.4733 7.6265 -11.2317
# 4 -0.9597 8.1566 6.4733 35.2571 -11.8165 2.2900
# 5 18.6635 14.4960 7.6265 -11.8165 39.9486 -3.4485
# 6 -17.3728 -5.0540 -11.2317 2.2900 -3.4485 31.1514
#
#
#
# Elastic Compliance Matrix: (Units=1/GPa)
#
#
# Indices 1 2 3 4 5 6 
#
# 1 0.023919 -0.000681 0.003124 -0.004562 -0.011717 0.013394
# 2 -0.000681 0.009884 0.000320 -0.003909 -0.004387 0.001141
# 3 0.003124 0.000320 0.013682 -0.004595 -0.004985 0.006514
# 4 -0.004562 -0.003909 -0.004595 0.035167 0.014325 -0.005834
# 5 -0.011717 -0.004387 -0.004985 0.014325 0.036767 -0.006027
# 6 0.013394 0.001141 0.006514 -0.005834 -0.006027 0.041866
#
#
# Mechanical properties :
#
#
# Convention : Reuss Voigt Hill
#
# Bulk Modulus (GPa) = 18.86355 32.73494 25.79925
# Shear Modulus (GPa) = 28.82997 37.07273 32.95135
#
# Velocity S-wave (km/s) = 3.50304 3.97237 3.74506
# Velocity P-wave (km/s) = 4.93871 5.91380 5.44811
#
# Compressibility (1/GPa) = 0.05301229
#
# Stress axis : x y z
#
# Youngs Moduli (GPa) = 41.80744 101.16878 73.08614
#
# Poissons Ratio (x) = 0.06891 -0.22834
# Poissons Ratio (y) = 0.02848 -0.02338
# Poissons Ratio (z) = -0.13062 -0.03237
#
# Static dielectric constant tensor:
#      x y z
#    x 2.065290 -0.064990 -0.065600 
#    y -0.064990 1.958000 -0.045480 
#    z -0.065600 -0.045480 1.895940 
# 
# From -- ./inp_files/39413.got.cif
#   From: 2010.05.17/outbox.cif.g08.bks.cpg/sg2_20_cif.got.tgz:39413.got - 2010.06.03 11:33:40.
