data_PCOD9025352
_publ_section_title
;
Structure prediction by ZEFSAII (Michael W. Deem and Ramdas Pophale) SiO2 
 PCOD9025352
Probable space group: P -1
;
_chemical_formula_sum "Si O2"
_cell_formula_units_Z 16
_cell_length_a 11.093683
_cell_length_b 10.281771
_cell_length_c 7.169356
_cell_angle_alpha 106.064068
_cell_angle_beta 88.045388
_cell_angle_gamma 74.381828
_cell_volume 751.581052
_symmetry_space_group_name_H-M "P -1"
_symmetry_group_IT_number 2
_symmetry_cell_setting 'triclinic'
loop_
_space_group_symop_operation_xyz
x,y,z
-x,-y,-z
loop_
_atom_site_type_symbol
_atom_site_label
_atom_site_fract_x
_atom_site_fract_y
_atom_site_fract_z
Si Si1 0.367833 0.355999 0.468889
Si Si2 0.191185 0.859001 0.828857
Si Si3 0.038307 0.624668 0.295198
Si Si4 0.294572 0.649481 0.401606
Si Si5 0.530401 0.146428 0.092971
Si Si6 0.485063 0.356652 0.850415
Si Si7 0.108407 0.319311 0.317149
Si Si8 0.044990 0.167670 0.941983
O O1 0.373828 0.498218 0.420276
O O2 0.471039 0.222777 0.319476
O O3 0.383927 0.376142 0.696573
O O4 0.232646 0.338537 0.413480
O O5 0.235881 0.745658 0.617803
O O6 0.320540 0.870182 0.918436
O O7 0.111086 0.009621 0.807925
O O8 0.093640 0.820756 0.962655
O O9 0.182545 0.623737 0.275378
O O10 0.039100 0.463520 0.265491
O O11 0.980898 0.699812 0.520039
O O12 0.964441 0.714012 0.165401
O O13 0.384178 0.709824 0.293142
O O14 0.467417 0.255300 0.974781
O O15 0.500000 0.000000 0.000000
O O16 0.500000 0.500000 0.000000
O O17 0.128327 0.195021 0.120125
#
# Coordination Sequence:
#
# PCOD9025352 Si02
#       8
#     2   2   2   2   2   2   2   2
#     4  11  24  42  70  99 143 172 227 284 333 406
#     4  11  24  43  69  94 136 177 225 281 330 399
#     4  10  22  40  68  95 130 175 221 275 338 395
#     4  11  21  45  69 100 132 171 228 288 329 396
#     4  12  26  46  67 102 142 181 222 280 343 408
#     4  12  24  44  75  99 129 184 226 275 344 399
#     4  10  22  42  63 100 135 171 216 284 334 397
#     4  11  23  44  67  96 131 180 226 272 335 402
#
# _framework density 21.288454000000002
#
# number of rings (size 3 to 8) (size 9 to 14) (size 15 to 20)
#    0.000    1.000    3.750    3.000    0.000    3.000 
#    4.500    0.000    0.000    0.000    0.000    0.000 
#    0.000    0.000    0.000    0.000    0.000    0.000 
#
# Total GULP energy -89423.543191 kJ/mol
# GULP energy per Si atom -5588.971449 kJ/mol
# Density = 2.124000 g / cm^3
# Si number density = 21.288454 Si / 1000 Ang^3
#
#
#
# Elastic Constant Matrix: (Units=GPa)
#
#
# Indices 1 2 3 4 5 6 
#
# 1 70.0408 16.0813 24.0359 -5.0351 12.5571 2.5295
# 2 16.0813 77.6151 66.1938 4.6895 6.4716 0.2668
# 3 24.0359 66.1938 90.4063 6.7193 16.4446 4.4671
# 4 -5.0351 4.6895 6.7193 39.5531 -3.8277 -1.7531
# 5 12.5571 6.4716 16.4446 -3.8277 28.4498 4.8289
# 6 2.5295 0.2668 4.4671 -1.7531 4.8289 22.8251
#
#
#
# Elastic Compliance Matrix: (Units=1/GPa)
#
#
# Indices 1 2 3 4 5 6 
#
# 1 0.016582 -0.000047 -0.003655 0.002266 -0.004906 0.000090
# 2 -0.000047 0.036141 -0.028117 0.001383 0.007630 0.003577
# 3 -0.003655 -0.028117 0.035404 -0.004520 -0.012398 -0.003919
# 4 0.002266 0.001383 -0.004520 0.026695 0.004602 0.001694
# 5 -0.004906 0.007630 -0.012398 0.004602 0.044411 -0.006161
# 6 0.000090 0.003577 -0.003919 0.001694 -0.006161 0.045960
#
#
# Mechanical properties :
#
#
# Convention : Reuss Voigt Hill
#
# Bulk Modulus (GPa) = 40.83285 50.07605 45.45445
# Shear Modulus (GPa) = 18.05097 26.94900 22.49998
#
# Velocity S-wave (km/s) = 2.91507 3.56180 3.25454
# Velocity P-wave (km/s) = 5.52744 6.36309 5.95993
#
# Compressibility (1/GPa) = 0.02449009
#
# Stress axis : x y z
#
# Youngs Moduli (GPa) = 60.30797 27.66932 28.24521
#
# Poissons Ratio (x) = 0.00130 0.10323
# Poissons Ratio (y) = 0.00283 0.79417
# Poissons Ratio (z) = 0.22040 0.77797
#
# Static dielectric constant tensor:
#      x y z
#    x 1.795250 -0.012250 0.016140 
#    y -0.012250 1.747820 0.010130 
#    z 0.016140 0.010130 1.763090 
# 
# From -- ./inp_files/71845.got.cif
#   From: 2010.05.17/outbox.cif.g08.bks.cpg/sg2_36_cif.got.tgz:71845.got - 2010.06.03 11:33:40.
