data_PCOD9025513
_publ_section_title
;
Structure prediction by ZEFSAII (Michael W. Deem and Ramdas Pophale) SiO2 
 PCOD9025513
Probable space group: P -1
;
_chemical_formula_sum "Si O2"
_cell_formula_units_Z 16
_cell_length_a 9.074690
_cell_length_b 5.333567
_cell_length_c 19.422824
_cell_angle_alpha 113.348343
_cell_angle_beta 61.186819
_cell_angle_gamma 91.716858
_cell_volume 740.929075
_symmetry_space_group_name_H-M "P -1"
_symmetry_group_IT_number 2
_symmetry_cell_setting 'triclinic'
loop_
_space_group_symop_operation_xyz
x,y,z
-x,-y,-z
loop_
_atom_site_type_symbol
_atom_site_label
_atom_site_fract_x
_atom_site_fract_y
_atom_site_fract_z
Si Si1 0.919161 0.960735 0.587928
Si Si2 0.131870 0.203339 0.746276
Si Si3 0.138137 0.677703 0.625290
Si Si4 0.346364 0.335274 0.432924
Si Si5 0.915608 0.426158 0.939254
Si Si6 0.292558 0.094370 0.064077
Si Si7 0.161139 0.535750 0.255880
Si Si8 0.464949 0.189107 0.597218
O O1 0.819910 0.709078 0.575494
O O2 0.078608 0.875340 0.594210
O O3 0.790421 0.226659 0.679699
O O4 0.000000 0.000000 0.500000
O O5 0.269837 0.301772 0.676997
O O6 0.088025 0.324396 0.843658
O O7 0.945858 0.286867 0.761773
O O8 0.187674 0.872072 0.694042
O O9 0.286001 0.448834 0.535127
O O10 0.974603 0.571657 0.676635
O O11 0.438128 0.558932 0.403014
O O12 0.457055 0.029794 0.385195
O O13 0.796308 0.690780 0.953867
O O14 0.807456 0.170493 0.940410
O O15 0.000000 0.500000 0.000000
O O16 0.266548 0.272962 0.161592
O O17 0.500000 0.000000 0.000000
O O18 0.500000 0.000000 0.500000
#
# Coordination Sequence:
#
# PCOD9025513 Si02
#       8
#     2   2   2   2   2   2   2   2
#     4  11  23  38  60  91 129 170 222 271 323 387
#     4  10  23  41  66  94 124 176 227 260 326 411
#     4  11  20  38  65  85 123 177 226 261 314 401
#     4  12  25  38  58  89 131 170 210 271 322 362
#     4  11  24  47  77 105 139 180 230 291 357 424
#     4  11  24  47  77 106 139 178 230 293 357 422
#     4  10  22  40  69  93 124 173 226 267 322 416
#     4  12  25  39  60  87 130 170 218 264 313 386
#
# _framework density 21.594508999999999
#
# number of rings (size 3 to 8) (size 9 to 14) (size 15 to 20)
#    0.000    1.000    3.750    3.000    3.500    0.000 
#    2.250    0.000    0.000    0.000    0.000    0.000 
#    0.000    0.000    0.000    0.000    0.000    0.000 
#
# Total GULP energy -89205.164547 kJ/mol
# GULP energy per Si atom -5575.322784 kJ/mol
# Density = 2.154536 g / cm^3
# Si number density = 21.594509 Si / 1000 Ang^3
#
#
#
# Elastic Constant Matrix: (Units=GPa)
#
#
# Indices 1 2 3 4 5 6 
#
# 1 78.5309 47.8103 47.3069 11.9969 -5.3106 5.7250
# 2 47.8103 155.2066 44.9124 10.9932 -5.9250 16.0459
# 3 47.3069 44.9124 137.4906 18.8054 1.9948 11.5844
# 4 11.9969 10.9932 18.8054 25.8824 0.6894 0.7228
# 5 -5.3106 -5.9250 1.9948 0.6894 36.7537 -1.6803
# 6 5.7250 16.0459 11.5844 0.7228 -1.6803 47.5601
#
#
#
# Elastic Compliance Matrix: (Units=1/GPa)
#
#
# Indices 1 2 3 4 5 6 
#
# 1 0.018741 -0.004114 -0.004679 -0.003614 0.002385 0.000411
# 2 -0.004114 0.008302 -0.001022 -0.000839 0.000723 -0.002018
# 3 -0.004679 -0.001022 0.009990 -0.004577 -0.001366 -0.001504
# 4 -0.003614 -0.000839 -0.004577 0.043994 -0.001183 0.001123
# 5 0.002385 0.000723 -0.001366 -0.001183 0.027802 0.000802
# 6 0.000411 -0.002018 -0.001504 0.001123 0.000802 0.022035
#
#
# Mechanical properties :
#
#
# Convention : Reuss Voigt Hill
#
# Bulk Modulus (GPa) = 57.46611 72.36527 64.91569
# Shear Modulus (GPa) = 31.99083 37.45246 34.72165
#
# Velocity S-wave (km/s) = 3.85312 4.16907 4.01420
# Velocity P-wave (km/s) = 6.81649 7.53383 7.18412
#
# Compressibility (1/GPa) = 0.01740156
#
# Stress axis : x y z
#
# Youngs Moduli (GPa) = 53.35916 120.45500 100.10509
#
# Poissons Ratio (x) = 0.49561 0.46840
# Poissons Ratio (y) = 0.21954 0.10229
# Poissons Ratio (z) = 0.24967 0.12308
#
# Static dielectric constant tensor:
#      x y z
#    x 1.342770 -0.352590 0.751940 
#    y -0.352590 1.689750 0.495190 
#    z 0.751940 0.495190 0.691400 
# 
# From -- ./inp_files/55273.got.cif
#   From: 2010.05.17/outbox.cif.g08.bks.cpg/sg2_28_cif.got.tgz:55273.got - 2010.06.03 11:33:40.
