data_PCOD9025978
_publ_section_title
;
Structure prediction by ZEFSAII (Michael W. Deem and Ramdas Pophale) SiO2 
 PCOD9025978
Probable space group: P -1
;
_chemical_formula_sum "Si O2"
_cell_formula_units_Z 16
_cell_length_a 11.513138
_cell_length_b 5.160544
_cell_length_c 12.766430
_cell_angle_alpha 99.217031
_cell_angle_beta 115.999005
_cell_angle_gamma 85.496918
_cell_volume 672.914219
_symmetry_space_group_name_H-M "P -1"
_symmetry_group_IT_number 2
_symmetry_cell_setting 'triclinic'
loop_
_space_group_symop_operation_xyz
x,y,z
-x,-y,-z
loop_
_atom_site_type_symbol
_atom_site_label
_atom_site_fract_x
_atom_site_fract_y
_atom_site_fract_z
Si Si1 0.113538 0.719409 0.567743
Si Si2 0.108474 0.448944 0.952087
Si Si3 0.607476 0.669755 0.928083
Si Si4 0.440818 0.147753 0.855042
Si Si5 0.944759 0.106264 0.209811
Si Si6 0.561677 0.272952 0.579507
Si Si7 0.345314 0.353498 0.634472
Si Si8 0.188349 0.975265 0.403137
O O1 0.105149 0.834687 0.688980
O O2 0.261791 0.614405 0.616349
O O3 0.105146 0.872199 0.463152
O O4 0.000000 0.500000 0.500000
O O5 0.106589 0.685997 0.882315
O O6 0.080156 0.184804 0.859754
O O7 0.249113 0.401282 0.056533
O O8 0.000000 0.500000 0.000000
O O9 0.537274 0.396254 0.906655
O O10 0.515306 0.874881 0.842984
O O11 0.619889 0.836865 0.052598
O O12 0.332574 0.214725 0.731541
O O13 0.099547 0.109750 0.289620
O O14 0.500000 0.500000 0.500000
O O15 0.498305 0.343449 0.670472
O O16 0.714510 0.239460 0.622801
O O17 0.500000 0.000000 0.500000
O O18 0.276878 0.188112 0.507176
#
# Coordination Sequence:
#
# PCOD9025978 Si02
#       8
#     2   2   2   2   2   2   2   2
#     4  12  24  42  68 105 153 190 234 281 350 432
#     4  12  28  50  74 100 138 186 246 299 359 418
#     4  10  23  45  65  97 134 168 238 299 344 401
#     4  10  23  40  70  99 129 178 227 291 354 400
#     4  12  27  44  74 106 140 193 231 293 362 416
#     4  10  22  41  60  90 134 188 219 274 321 400
#     4  11  24  40  69 101 145 186 233 276 355 428
#     4  11  25  42  67 104 156 181 238 281 348 439
#
# _framework density 23.777173999999999
#
# number of rings (size 3 to 8) (size 9 to 14) (size 15 to 20)
#    0.000    1.000    2.500    3.000    5.250    3.000 
#    0.000    0.000    0.000    0.000    0.000    0.000 
#    0.000    0.000    0.000    0.000    0.000    0.000 
#
# Total GULP energy -89385.816306 kJ/mol
# GULP energy per Si atom -5586.613519 kJ/mol
# Density = 2.372306 g / cm^3
# Si number density = 23.777174 Si / 1000 Ang^3
#
#
#
# Elastic Constant Matrix: (Units=GPa)
#
#
# Indices 1 2 3 4 5 6 
#
# 1 104.2486 21.0454 0.8691 15.4499 -11.0362 -19.1606
# 2 21.0454 104.2712 2.3008 -2.5963 -14.9631 -10.3627
# 3 0.8691 2.3008 48.7334 -7.1489 1.6601 -10.4277
# 4 15.4499 -2.5963 -7.1489 43.2210 -3.7763 -1.1094
# 5 -11.0362 -14.9631 1.6601 -3.7763 33.7097 0.5413
# 6 -19.1606 -10.3627 -10.4277 -1.1094 0.5413 32.5694
#
#
#
# Elastic Compliance Matrix: (Units=1/GPa)
#
#
# Indices 1 2 3 4 5 6 
#
# 1 0.011952 -0.001482 0.000607 -0.003857 0.002687 0.006578
# 2 -0.001482 0.010826 0.000166 0.001664 0.004457 0.002608
# 3 0.000607 0.000166 0.022738 0.003706 -0.000558 0.007825
# 4 -0.003857 0.001664 0.003706 0.025423 0.002137 0.000277
# 5 0.002687 0.004457 -0.000558 0.002137 0.032752 0.002349
# 6 0.006578 0.002608 0.007825 0.000277 0.002349 0.037879
#
#
# Mechanical properties :
#
#
# Convention : Reuss Voigt Hill
#
# Bulk Modulus (GPa) = 22.67746 33.96486 28.32116
# Shear Modulus (GPa) = 31.70814 37.43588 34.57201
#
# Velocity S-wave (km/s) = 3.65575 3.97223 3.81727
# Velocity P-wave (km/s) = 5.23235 5.94591 5.60051
#
# Compressibility (1/GPa) = 0.04409665
#
# Stress axis : x y z
#
# Youngs Moduli (GPa) = 83.66929 92.36975 43.97877
#
# Poissons Ratio (x) = 0.13693 -0.02669
# Poissons Ratio (y) = 0.12403 -0.00729
# Poissons Ratio (z) = -0.05078 -0.01530
#
# Static dielectric constant tensor:
#      x y z
#    x 2.055190 0.002950 -0.023430 
#    y 0.002950 1.940700 0.015700 
#    z -0.023430 0.015700 1.936150 
# 
# From -- ./inp_files/410620.got.cif
#   From: 2010.05.17/outbox.cif.g08.bks.cpg/sg2_206_cif.got.tgz:410620.got - 2010.06.03 11:33:40.
