data_PCOD9025823
_publ_section_title
;
Structure prediction by ZEFSAII (Michael W. Deem and Ramdas Pophale) SiO2 
 PCOD9025823
Probable space group: P -1
;
_chemical_formula_sum "Si O2"
_cell_formula_units_Z 15
_cell_length_a 9.645014
_cell_length_b 14.375678
_cell_length_c 5.556963
_cell_angle_alpha 66.701780
_cell_angle_beta 84.208689
_cell_angle_gamma 56.639569
_cell_volume 584.195851
_symmetry_space_group_name_H-M "P -1"
_symmetry_group_IT_number 2
_symmetry_cell_setting 'triclinic'
loop_
_space_group_symop_operation_xyz
x,y,z
-x,-y,-z
loop_
_atom_site_type_symbol
_atom_site_label
_atom_site_fract_x
_atom_site_fract_y
_atom_site_fract_z
Si Si1 0.319740 0.126307 0.400738
Si Si2 0.796311 0.337044 0.841174
Si Si3 0.890356 0.676017 0.419680
Si Si4 0.818887 0.418792 0.210276
Si Si5 0.500000 0.500000 0.500000
Si Si6 0.697781 0.166698 0.887896
Si Si7 0.324635 0.332364 0.902223
Si Si8 0.816934 0.024990 0.512627
O O1 0.259829 0.189016 0.609513
O O2 0.330717 0.220451 0.134664
O O3 0.500000 0.000000 0.500000
O O4 0.193041 0.092158 0.365484
O O5 0.595331 0.449510 0.786436
O O6 0.811807 0.219698 0.841112
O O7 0.962401 0.335724 0.752663
O O8 0.827367 0.319746 0.142293
O O9 0.995942 0.620784 0.702724
O O10 0.807033 0.619242 0.344655
O O11 0.698153 0.432557 0.437197
O O12 0.729892 0.560195 0.008527
O O13 0.729869 0.098454 0.700300
O O14 0.505490 0.285859 0.804248
O O15 0.727576 0.093220 0.205259
O O16 0.000000 0.000000 0.500000
#
# Coordination Sequence:
#
# PCOD9025823 Si02
#       8
#     2   2   2   2   1   2   2   2
#     4  12  27  50  74 107 150 204 257 325 388 468
#     4  11  25  45  75 110 153 196 260 318 389 463
#     4  11  27  46  75 107 154 200 260 320 389 465
#     4  11  25  47  73 114 150 204 253 323 389 467
#     4  10  22  40  72 104 150 192 248 312 378 464
#     4  12  28  48  80 116 151 207 259 330 392 471
#     4  12  27  46  76 109 158 202 259 315 396 469
#     4  12  29  50  79 114 154 202 269 324 396 461
#
# _framework density 25.676321999999999
#
# number of rings (size 3 to 8) (size 9 to 14) (size 15 to 20)
#    0.000    0.533    2.667    3.600    9.333    5.333 
#    0.000    0.000    0.000    0.000    0.000    0.000 
#    0.000    0.000    0.000    0.000    0.000    0.000 
#
# Total GULP energy -83591.523650 kJ/mol
# GULP energy per Si atom -5572.768243 kJ/mol
# Density = 2.561788 g / cm^3
# Si number density = 25.676322 Si / 1000 Ang^3
#
#
#
# Elastic Constant Matrix: (Units=GPa)
#
#
# Indices 1 2 3 4 5 6 
#
# 1 114.9390 8.5844 2.1837 13.9561 9.0106 -10.7423
# 2 8.5844 81.5477 18.3281 7.5917 4.9121 1.8115
# 3 2.1837 18.3281 63.7536 7.9480 12.8589 -2.0709
# 4 13.9561 7.5917 7.9480 37.6018 0.4268 0.0537
# 5 9.0106 4.9121 12.8589 0.4268 31.8469 -5.6488
# 6 -10.7423 1.8115 -2.0709 0.0537 -5.6488 61.3754
#
#
#
# Elastic Compliance Matrix: (Units=1/GPa)
#
#
# Indices 1 2 3 4 5 6 
#
# 1 0.009514 -0.000751 0.000911 -0.003544 -0.002634 0.001479
# 2 -0.000751 0.013334 -0.003517 -0.001663 -0.000524 -0.000690
# 3 0.000911 -0.003517 0.018540 -0.003467 -0.007113 0.000237
# 4 -0.003544 -0.001663 -0.003467 0.028955 0.002180 -0.000513
# 5 -0.002634 -0.000524 -0.007113 0.002180 0.035527 0.002582
# 6 0.001479 -0.000690 0.000237 -0.000513 0.002582 0.016818
#
#
# Mechanical properties :
#
#
# Convention : Reuss Voigt Hill
#
# Bulk Modulus (GPa) = 28.83908 35.38142 32.11025
# Shear Modulus (GPa) = 35.47134 41.57444 38.52289
#
# Velocity S-wave (km/s) = 3.72086 4.02826 3.87761
# Velocity P-wave (km/s) = 5.45123 5.95362 5.70795
#
# Compressibility (1/GPa) = 0.03467517
#
# Stress axis : x y z
#
# Youngs Moduli (GPa) = 105.10721 74.99645 53.93835
#
# Poissons Ratio (x) = 0.05629 -0.04914
# Poissons Ratio (y) = 0.07888 0.18969
# Poissons Ratio (z) = -0.09576 0.26375
#
# Static dielectric constant tensor:
#      x y z
#    x 2.690310 0.461230 0.070120 
#    y 0.461230 2.359260 -0.212230 
#    z 0.070120 -0.212230 3.306850 
# 
# From -- ./inp_files/37366.got.cif
#   From: 2010.05.17/outbox.cif.g08.bks.cpg/sg2_19_cif.got.tgz:37366.got - 2010.06.03 11:33:40.
