data_PCOD9025653
_publ_section_title
;
Structure prediction by ZEFSAII (Michael W. Deem and Ramdas Pophale) SiO2 
 PCOD9025653
Probable space group: P -1
;
_chemical_formula_sum "Si O2"
_cell_formula_units_Z 14
_cell_length_a 11.156391
_cell_length_b 13.259381
_cell_length_c 10.233789
_cell_angle_alpha 97.053547
_cell_angle_beta 56.840297
_cell_angle_gamma 50.524089
_cell_volume 670.473847
_symmetry_space_group_name_H-M "P -1"
_symmetry_group_IT_number 2
_symmetry_cell_setting 'triclinic'
loop_
_space_group_symop_operation_xyz
x,y,z
-x,-y,-z
loop_
_atom_site_type_symbol
_atom_site_label
_atom_site_fract_x
_atom_site_fract_y
_atom_site_fract_z
Si Si1 0.237711 0.592460 0.208818
Si Si2 0.468926 0.839671 0.772561
Si Si3 0.901764 0.266335 0.132257
Si Si4 0.140379 0.336455 0.986061
Si Si5 0.369659 0.491822 0.403117
Si Si6 0.795887 0.620242 0.766795
Si Si7 0.649755 0.932855 0.535428
O O1 0.209856 0.614805 0.386570
O O2 0.271244 0.451031 0.149698
O O3 0.957539 0.783998 0.333473
O O4 0.500000 0.500000 0.000000
O O5 0.568240 0.666513 0.650452
O O6 0.527124 0.821306 0.888718
O O7 0.624608 0.839014 0.609022
O O8 0.156461 0.040105 0.958479
O O9 0.664800 0.364326 0.202525
O O10 0.777623 0.370958 0.363449
O O11 0.014924 0.303920 0.017811
O O12 0.459204 0.132159 0.745383
O O13 0.100800 0.381010 0.170339
O O14 0.000000 0.500000 0.000000
O O15 0.000000 0.500000 0.500000
O O16 0.500000 0.000000 0.500000
#
# Coordination Sequence:
#
# PCOD9025653 Si02
#       7
#     2   2   2   2   2   2   2
#     4  11  25  42  67  95 138 173 223 281 347 402
#     4  10  22  40  70  93 127 174 238 272 334 407
#     4  10  23  40  66  96 131 174 223 280 336 407
#     4  11  25  40  69  99 134 174 232 287 337 406
#     4  10  23  42  65  95 135 177 217 285 338 400
#     4  11  22  43  70  97 130 181 225 282 337 405
#     4  11  25  42  68 100 133 181 227 279 346 409
#
# _framework density 20.880754
#
# number of rings (size 3 to 8) (size 9 to 14) (size 15 to 20)
#    0.000    1.429    1.429    3.000   10.000    1.143 
#    0.000    0.714    0.000    0.000    0.000    0.000 
#    0.000    0.000    0.000    0.000    0.000    0.000 
#
# Total GULP energy -78111.155749 kJ/mol
# GULP energy per Si atom -5579.368268 kJ/mol
# Density = 2.083323 g / cm^3
# Si number density = 20.880754 Si / 1000 Ang^3
#
#
#
# Elastic Constant Matrix: (Units=GPa)
#
#
# Indices 1 2 3 4 5 6 
#
# 1 111.0153 31.1378 37.8622 6.1174 -17.0017 -12.7558
# 2 31.1378 93.7703 32.5729 5.7911 -5.7484 -9.0263
# 3 37.8622 32.5729 105.2348 6.5428 -20.7068 -2.9919
# 4 6.1174 5.7911 6.5428 13.8247 -4.8328 -7.5165
# 5 -17.0017 -5.7484 -20.7068 -4.8328 46.9857 -3.1920
# 6 -12.7558 -9.0263 -2.9919 -7.5165 -3.1920 38.1087
#
#
#
# Elastic Compliance Matrix: (Units=1/GPa)
#
#
# Indices 1 2 3 4 5 6 
#
# 1 0.011412 -0.002353 -0.002721 0.000016 0.002868 0.003292
# 2 -0.002353 0.012748 -0.003067 -0.002323 -0.000783 0.001467
# 3 -0.002721 -0.003067 0.012298 -0.002482 0.003747 -0.000847
# 4 0.000016 -0.002323 -0.002482 0.086831 0.008721 0.017117
# 5 0.002868 -0.000783 0.003747 0.008721 0.025106 0.004892
# 6 0.003292 0.001467 -0.000847 0.017117 0.004892 0.031410
#
#
# Mechanical properties :
#
#
# Convention : Reuss Voigt Hill
#
# Bulk Modulus (GPa) = 49.56118 57.01846 53.28982
# Shear Modulus (GPa) = 24.65340 33.68033 29.16686
#
# Velocity S-wave (km/s) = 3.43982 4.02055 3.74147
# Velocity P-wave (km/s) = 6.28994 6.99422 6.65141
#
# Compressibility (1/GPa) = 0.02017708
#
# Stress axis : x y z
#
# Youngs Moduli (GPa) = 87.62517 78.44508 81.31123
#
# Poissons Ratio (x) = 0.18456 0.22123
# Poissons Ratio (y) = 0.20616 0.24939
# Poissons Ratio (z) = 0.23841 0.24060
#
# Static dielectric constant tensor:
#      x y z
#    x 1.791150 -0.021750 0.007280 
#    y -0.021750 1.754080 0.002720 
#    z 0.007280 0.002720 1.871350 
# 
# From -- ./inp_files/425903.got.cif
#   From: 2010.05.17/outbox.cif.g08.bks.cpg/sg2_213_cif.got.tgz:425903.got - 2010.06.03 11:33:40.
