data_PCOD9025060
_publ_section_title
;
Structure prediction by ZEFSAII (Michael W. Deem and Ramdas Pophale) SiO2 
 PCOD9025060
Probable space group: P -1
;
_chemical_formula_sum "Si O2"
_cell_formula_units_Z 16
_cell_length_a 13.202526
_cell_length_b 9.247478
_cell_length_c 18.507639
_cell_angle_alpha 118.323255
_cell_angle_beta 22.223416
_cell_angle_gamma 121.579571
_cell_volume 727.690878
_symmetry_space_group_name_H-M "P -1"
_symmetry_group_IT_number 2
_symmetry_cell_setting 'triclinic'
loop_
_space_group_symop_operation_xyz
x,y,z
-x,-y,-z
loop_
_atom_site_type_symbol
_atom_site_label
_atom_site_fract_x
_atom_site_fract_y
_atom_site_fract_z
Si Si1 0.322217 0.749837 0.448069
Si Si2 0.278594 0.612532 0.601512
Si Si3 0.823746 0.059731 0.193944
Si Si4 0.911861 0.659946 0.231387
Si Si5 0.290348 0.106797 0.306690
Si Si6 0.579689 0.461196 0.165000
Si Si7 0.737963 0.757295 0.790177
Si Si8 0.797723 0.983906 0.934157
O O1 0.219642 0.670864 0.574999
O O2 0.525332 0.639574 0.259513
O O3 0.050888 0.736974 0.576250
O O4 0.512100 0.940173 0.373196
O O5 0.200426 0.746608 0.741144
O O6 0.607218 0.628930 0.392176
O O7 0.128759 0.424795 0.682886
O O8 0.000000 0.000000 0.000000
O O9 0.980411 0.032726 0.157274
O O10 0.116949 0.566393 0.032452
O O11 0.059405 0.857770 0.174168
O O12 0.374083 0.310753 0.311838
O O13 0.290929 0.104139 0.218021
O O14 0.536404 0.031302 0.154414
O O15 0.000000 0.000000 0.500000
O O16 0.479403 0.407873 0.136376
O O17 0.697382 0.820491 0.911357
#
# Coordination Sequence:
#
# PCOD9025060 Si02
#       8
#     2   2   2   2   2   2   2   2
#     4  12  22  42  66  93 134 165 216 265 323 386
#     4  11  23  43  65  99 125 171 215 268 325 379
#     4  12  26  42  68  97 129 169 215 272 326 386
#     4  10  22  43  64  94 132 166 219 263 322 383
#     4   9  22  40  64  97 125 170 219 261 317 377
#     4   9  23  41  62  91 128 171 204 265 315 371
#     4  10  22  40  67  88 131 169 215 259 317 379
#     4  11  21  45  68  92 129 174 214 263 325 377
#
# _framework density 21.987359000000001
#
# number of rings (size 3 to 8) (size 9 to 14) (size 15 to 20)
#    0.750    0.750    2.500    2.625    1.750    1.500 
#    9.000    0.625    0.000    0.000    0.000    0.000 
#    0.000    0.000    0.000    0.000    0.000    0.000 
#
# Total GULP energy -89297.966220 kJ/mol
# GULP energy per Si atom -5581.122889 kJ/mol
# Density = 2.193731 g / cm^3
# Si number density = 21.987359 Si / 1000 Ang^3
#
#
#
# Elastic Constant Matrix: (Units=GPa)
#
#
# Indices 1 2 3 4 5 6 
#
# 1 53.9472 16.3649 14.6688 5.6855 -4.4965 -1.9948
# 2 16.3649 63.8390 15.5233 1.7932 3.9703 -3.4388
# 3 14.6688 15.5233 80.1166 1.4564 -28.9408 -2.4777
# 4 5.6855 1.7932 1.4564 39.2284 -8.0713 7.3680
# 5 -4.4965 3.9703 -28.9408 -8.0713 32.2625 8.5940
# 6 -1.9948 -3.4388 -2.4777 7.3680 8.5940 18.8848
#
#
#
# Elastic Compliance Matrix: (Units=1/GPa)
#
#
# Indices 1 2 3 4 5 6 
#
# 1 0.021116 -0.004285 -0.003295 -0.003525 -0.001143 0.002913
# 2 -0.004285 0.020260 -0.007845 -0.004917 -0.014175 0.010576
# 3 -0.003295 -0.007845 0.024222 0.008548 0.028321 -0.014822
# 4 -0.003525 -0.004917 0.008548 0.035248 0.023103 -0.024412
# 5 -0.001143 -0.014175 0.028321 0.023103 0.074986 -0.042124
# 6 0.002913 0.010576 -0.014822 -0.024412 -0.042124 0.081936
#
#
# Mechanical properties :
#
#
# Convention : Reuss Voigt Hill
#
# Bulk Modulus (GPa) = 28.77823 32.33519 30.55671
# Shear Modulus (GPa) = 16.65552 28.16486 22.41019
#
# Velocity S-wave (km/s) = 2.75527 3.58293 3.19600
# Velocity P-wave (km/s) = 4.82068 5.64400 5.24851
#
# Compressibility (1/GPa) = 0.03474849
#
# Stress axis : x y z
#
# Youngs Moduli (GPa) = 47.35687 49.35865 41.28519
#
# Poissons Ratio (x) = 0.21150 0.13602
# Poissons Ratio (y) = 0.20292 0.32388
# Poissons Ratio (z) = 0.15603 0.38722
#
# Static dielectric constant tensor:
#      x y z
#    x 1.790910 -0.003490 0.035710 
#    y -0.003490 1.798380 0.023350 
#    z 0.035710 0.023350 1.828800 
# 
# From -- ./inp_files/597411.got.cif
#   From: 2010.05.17/outbox.cif.g08.bks.cpg/sg2_299_cif.got.tgz:597411.got - 2010.06.03 11:33:40.
