data_PCOD9025619
_publ_section_title
;
Structure prediction by ZEFSAII (Michael W. Deem and Ramdas Pophale) SiO2 
 PCOD9025619
Probable space group: P -1
;
_chemical_formula_sum "Si O2"
_cell_formula_units_Z 15
_cell_length_a 18.504167
_cell_length_b 21.168889
_cell_length_c 17.174810
_cell_angle_alpha 158.943278
_cell_angle_beta 18.843348
_cell_angle_gamma 163.247596
_cell_volume 599.414748
_symmetry_space_group_name_H-M "P -1"
_symmetry_group_IT_number 2
_symmetry_cell_setting 'triclinic'
loop_
_space_group_symop_operation_xyz
x,y,z
-x,-y,-z
loop_
_atom_site_type_symbol
_atom_site_label
_atom_site_fract_x
_atom_site_fract_y
_atom_site_fract_z
Si Si1 0.709699 0.748391 0.024509
Si Si2 0.109411 0.900263 0.530534
Si Si3 0.032121 0.683769 0.122141
Si Si4 0.485696 0.535007 0.708526
Si Si5 0.500000 0.000000 0.500000
Si Si6 0.785973 0.657812 0.006990
Si Si7 0.464015 0.127863 0.293628
Si Si8 0.234222 0.662914 0.241477
O O1 0.501187 0.807660 0.324657
O O2 0.813723 0.677052 0.906965
O O3 0.564026 0.561055 0.889168
O O4 0.000000 0.000000 0.000000
O O5 0.130194 0.108264 0.780526
O O6 0.392021 0.007281 0.311746
O O7 0.071939 0.739437 0.451769
O O8 0.824961 0.734985 0.576877
O O9 0.712339 0.564976 0.280823
O O10 0.220056 0.927156 0.253399
O O11 0.224804 0.743737 0.916674
O O12 0.000000 0.500000 0.000000
O O13 0.429659 0.318578 0.555837
O O14 0.391431 0.635496 0.981277
O O15 0.445241 0.864959 0.319730
O O16 0.925318 0.568596 0.810726
#
# Coordination Sequence:
#
# PCOD9025619 Si02
#       8
#     2   2   2   2   1   2   2   2
#     4  10  22  44  71 100 143 193 259 319 375 444
#     4  12  26  48  73 111 155 198 251 316 377 455
#     4  11  26  51  77 115 148 197 250 306 378 465
#     4  12  26  46  74 112 153 196 249 316 377 453
#     4  10  22  40  70 102 138 198 250 302 366 428
#     4  10  23  45  70 103 145 195 252 310 381 440
#     4  11  25  47  78 107 152 200 245 305 387 451
#     4  11  24  46  69 107 152 199 259 309 375 446
#
# _framework density 25.024408999999999
#
# number of rings (size 3 to 8) (size 9 to 14) (size 15 to 20)
#    0.000    1.067    2.667    2.800    3.733    5.333 
#    7.200    8.667    0.000    0.000    0.000    0.000 
#    0.000    0.000    0.000    0.000    0.000    0.000 
#
# Total GULP energy -83604.282406 kJ/mol
# GULP energy per Si atom -5573.618827 kJ/mol
# Density = 2.496745 g / cm^3
# Si number density = 25.024409 Si / 1000 Ang^3
#
#
#
# Elastic Constant Matrix: (Units=GPa)
#
#
# Indices 1 2 3 4 5 6 
#
# 1 89.8102 55.9428 30.0906 7.3095 -23.6768 -8.7984
# 2 55.9428 138.8427 59.2581 22.3033 -13.6179 8.2461
# 3 30.0906 59.2581 98.4877 46.2572 -5.5586 -4.4731
# 4 7.3095 22.3033 46.2572 39.1894 -0.8436 -5.1246
# 5 -23.6768 -13.6179 -5.5586 -0.8436 42.5623 17.4252
# 6 -8.7984 8.2461 -4.4731 -5.1246 17.4252 45.4651
#
#
#
# Elastic Compliance Matrix: (Units=1/GPa)
#
#
# Indices 1 2 3 4 5 6 
#
# 1 0.017494 -0.005712 -0.003646 0.004701 0.006691 0.002028
# 2 -0.005712 0.012509 -0.006226 0.000729 0.001927 -0.004643
# 3 -0.003646 -0.006226 0.029137 -0.030157 -0.000911 0.000240
# 4 0.004701 0.000729 -0.030157 0.060486 -0.002118 0.005440
# 5 0.006691 0.001927 -0.000911 -0.002118 0.032523 -0.011848
# 6 0.002028 -0.004643 0.000240 0.005440 -0.011848 0.028407
#
#
# Mechanical properties :
#
#
# Convention : Reuss Voigt Hill
#
# Bulk Modulus (GPa) = 35.75077 68.63596 52.19337
# Shear Modulus (GPa) = 22.61950 37.56665 30.09307
#
# Velocity S-wave (km/s) = 3.00975 3.87874 3.47154
# Velocity P-wave (km/s) = 5.13766 6.89540 6.08038
#
# Compressibility (1/GPa) = 0.02797142
#
# Stress axis : x y z
#
# Youngs Moduli (GPa) = 57.16155 79.94538 34.32083
#
# Poissons Ratio (x) = 0.45664 0.12515
# Poissons Ratio (y) = 0.32650 0.21367
# Poissons Ratio (z) = 0.20844 0.49772
#
# Static dielectric constant tensor:
#      x y z
#    x 2.025000 -0.052330 -0.027180 
#    y -0.052330 1.877870 -0.145690 
#    z -0.027180 -0.145690 1.993400 
# 
# From -- ./inp_files/576380.got.cif
#   From: 2010.05.17/outbox.cif.g08.bks.cpg/sg2_289_cif.got.tgz:576380.got - 2010.06.03 11:33:40.
