data_PCOD9025975
_publ_section_title
;
Structure prediction by ZEFSAII (Michael W. Deem and Ramdas Pophale) SiO2 
 PCOD9025975
Probable space group: P -1
;
_chemical_formula_sum "Si O2"
_cell_formula_units_Z 16
_cell_length_a 20.662901
_cell_length_b 21.201810
_cell_length_c 8.945275
_cell_angle_alpha 38.755876
_cell_angle_beta 39.716978
_cell_angle_gamma 19.905007
_cell_volume 823.237893
_symmetry_space_group_name_H-M "P -1"
_symmetry_group_IT_number 2
_symmetry_cell_setting 'triclinic'
loop_
_space_group_symop_operation_xyz
x,y,z
-x,-y,-z
loop_
_atom_site_type_symbol
_atom_site_label
_atom_site_fract_x
_atom_site_fract_y
_atom_site_fract_z
Si Si1 0.081722 0.538605 0.142201
Si Si2 0.855670 0.349073 0.426997
Si Si3 0.895591 0.982709 0.186276
Si Si4 0.923013 0.174689 0.347761
Si Si5 0.764555 0.018336 0.047507
Si Si6 0.274169 0.176626 0.544641
Si Si7 0.345232 0.459150 0.019296
Si Si8 0.470462 0.403856 0.228133
O O1 0.187188 0.342116 0.297753
O O2 0.201178 0.495663 0.142042
O O3 0.865011 0.704950 0.280154
O O4 0.098440 0.594096 0.863352
O O5 0.867113 0.244495 0.487133
O O6 0.648889 0.528386 0.540911
O O7 0.001124 0.196295 0.582425
O O8 0.884266 0.971960 0.050024
O O9 0.678847 0.177470 0.269356
O O10 0.000000 0.000000 0.000000
O O11 0.740683 0.365967 0.221766
O O12 0.000000 0.000000 0.500000
O O13 0.107640 0.085638 0.136270
O O14 0.558642 0.247186 0.976859
O O15 0.741525 0.921898 0.312289
O O16 0.500000 0.000000 0.500000
O O17 0.361143 0.461759 0.163624
O O18 0.500000 0.500000 0.000000
#
# Coordination Sequence:
#
# PCOD9025975 Si02
#       8
#     2   2   2   2   2   2   2   2
#     4  10  23  41  64  96 120 161 209 269 319 363
#     4  11  23  40  60  93 128 163 208 259 314 367
#     4  11  23  40  64  88 130 174 210 244 311 378
#     4  11  24  38  60  91 129 162 206 262 316 364
#     4  11  22  41  65  93 119 170 212 258 310 378
#     4  11  21  40  70  93 122 160 212 263 326 369
#     4  10  22  41  60  90 124 161 215 250 310 375
#     4  11  24  38  63  88 125 172 210 248 303 379
#
# _framework density 19.435452000000002
#
# number of rings (size 3 to 8) (size 9 to 14) (size 15 to 20)
#    0.000    1.250    5.000    1.500    3.500    3.500 
#    0.000    0.625    0.000    2.250    0.000    0.000 
#    0.000    0.000    0.000    0.000    0.000    0.000 
#
# Total GULP energy -89315.111114 kJ/mol
# GULP energy per Si atom -5582.194445 kJ/mol
# Density = 1.939122 g / cm^3
# Si number density = 19.435452 Si / 1000 Ang^3
#
#
#
# Elastic Constant Matrix: (Units=GPa)
#
#
# Indices 1 2 3 4 5 6 
#
# 1 58.8995 23.8602 11.3945 8.0865 -5.4892 -4.6689
# 2 23.8602 133.3566 40.8269 -4.8394 15.7422 -3.8634
# 3 11.3945 40.8269 100.8174 -8.6655 -0.5105 -6.0275
# 4 8.0865 -4.8394 -8.6655 42.2134 16.0106 -2.7705
# 5 -5.4892 15.7422 -0.5105 16.0106 24.4163 1.2988
# 6 -4.6689 -3.8634 -6.0275 -2.7705 1.2988 27.8797
#
#
#
# Elastic Compliance Matrix: (Units=1/GPa)
#
#
# Indices 1 2 3 4 5 6 
#
# 1 0.022844 -0.006148 -0.000946 -0.011508 0.016580 0.000853
# 2 -0.006148 0.011516 -0.003364 0.007020 -0.013543 0.001167
# 3 -0.000946 -0.003364 0.011692 0.002048 0.000747 0.002072
# 4 -0.011508 0.007020 0.002048 0.040243 -0.033729 0.005059
# 5 0.016580 -0.013543 0.000747 -0.033729 0.075858 -0.005824
# 6 0.000853 0.001167 0.002072 0.005059 -0.005824 0.037395
#
#
# Mechanical properties :
#
#
# Convention : Reuss Voigt Hill
#
# Bulk Modulus (GPa) = 39.78393 49.47072 44.62733
# Shear Modulus (GPa) = 21.84901 33.36801 27.60851
#
# Velocity S-wave (km/s) = 3.35652 4.14800 3.77307
# Velocity P-wave (km/s) = 5.96120 6.96063 6.48021
#
# Compressibility (1/GPa) = 0.02513577
#
# Stress axis : x y z
#
# Youngs Moduli (GPa) = 43.77440 86.83751 85.52954
#
# Poissons Ratio (x) = 0.53385 0.08095
# Poissons Ratio (y) = 0.26911 0.28772
# Poissons Ratio (z) = 0.04143 0.29212
#
# Static dielectric constant tensor:
#      x y z
#    x 1.705770 -0.012760 -0.037060 
#    y -0.012760 1.703260 -0.006680 
#    z -0.037060 -0.006680 1.717780 
# 
# From -- ./inp_files/349693.got.cif
#   From: 2010.05.17/outbox.cif.g08.bks.cpg/sg2_175_cif.got.tgz:349693.got - 2010.06.03 11:33:40.
