data_PCOD9025757
_publ_section_title
;
Structure prediction by ZEFSAII (Michael W. Deem and Ramdas Pophale) SiO2 
 PCOD9025757
Probable space group: P -1
;
_chemical_formula_sum "Si O2"
_cell_formula_units_Z 14
_cell_length_a 9.046691
_cell_length_b 11.906703
_cell_length_c 12.259577
_cell_angle_alpha 132.525743
_cell_angle_beta 55.903335
_cell_angle_gamma 143.718649
_cell_volume 575.526647
_symmetry_space_group_name_H-M "P -1"
_symmetry_group_IT_number 2
_symmetry_cell_setting 'triclinic'
loop_
_space_group_symop_operation_xyz
x,y,z
-x,-y,-z
loop_
_atom_site_type_symbol
_atom_site_label
_atom_site_fract_x
_atom_site_fract_y
_atom_site_fract_z
Si Si1 0.670238 0.923913 0.776412
Si Si2 0.350489 0.613007 0.989726
Si Si3 0.819726 0.289180 0.083224
Si Si4 0.191239 0.916740 0.407371
Si Si5 0.864314 0.704204 0.592314
Si Si6 0.604203 0.914065 0.267575
Si Si7 0.460501 0.342004 0.677949
O O1 0.374565 0.778815 0.787833
O O2 0.723982 0.780405 0.680133
O O3 0.818192 0.082443 0.717242
O O4 0.763597 0.079596 0.941558
O O5 0.278116 0.671016 0.953797
O O6 0.392574 0.467851 0.834077
O O7 0.581125 0.817990 0.097164
O O8 0.115931 0.484397 0.086289
O O9 0.434251 0.962585 0.366490
O O10 0.961127 0.714014 0.438622
O O11 0.242174 0.119192 0.560057
O O12 0.682368 0.489971 0.596258
O O13 0.115645 0.882747 0.675908
O O14 0.491032 0.732867 0.286180
#
# Coordination Sequence:
#
# PCOD9025757 Si02
#       7
#     2   2   2   2   2   2   2
#     4  11  22  44  66 103 128 175 218 275 333 387
#     4  11  22  44  65 100 129 173 220 276 323 389
#     4  10  22  40  71  93 137 165 222 275 328 388
#     4  11  25  44  67  95 138 176 220 267 329 394
#     4  11  24  42  68  98 138 171 218 275 327 391
#     4  11  25  45  67  96 133 180 220 267 332 391
#     4  11  24  43  66 101 135 169 224 270 326 394
#
# _framework density 24.325545000000002
#
# number of rings (size 3 to 8) (size 9 to 14) (size 15 to 20)
#    0.000    1.143    2.857    4.286    0.000    5.714 
#    0.000    0.000    0.000    0.000    0.000    0.000 
#    0.000    0.000    0.000    0.000    0.000    0.000 
#
# Total GULP energy -78388.322776 kJ/mol
# GULP energy per Si atom -5599.165913 kJ/mol
# Density = 2.427018 g / cm^3
# Si number density = 24.325545 Si / 1000 Ang^3
#
#
#
# Elastic Constant Matrix: (Units=GPa)
#
#
# Indices 1 2 3 4 5 6 
#
# 1 50.8846 23.9986 25.1408 -18.2779 -2.0737 -5.8316
# 2 23.9986 135.6165 18.4022 -25.1236 10.2599 -2.0489
# 3 25.1408 18.4022 94.6981 -6.9757 -13.1583 2.9132
# 4 -18.2779 -25.1236 -6.9757 33.1220 0.7153 -6.2510
# 5 -2.0737 10.2599 -13.1583 0.7153 28.9392 -1.9686
# 6 -5.8316 -2.0489 2.9132 -6.2510 -1.9686 30.9856
#
#
#
# Elastic Compliance Matrix: (Units=1/GPa)
#
#
# Indices 1 2 3 4 5 6 
#
# 1 0.030675 -0.001289 -0.007029 0.016291 -0.000289 0.009617
# 2 -0.001289 0.009356 -0.001635 0.006426 -0.004205 0.001559
# 3 -0.007029 -0.001635 0.013458 -0.002965 0.006071 -0.002909
# 4 0.016291 0.006426 -0.002965 0.045917 -0.002719 0.012860
# 5 -0.000289 -0.004205 0.006071 -0.002719 0.038922 0.001021
# 6 0.009617 0.001559 -0.002909 0.012860 0.001021 0.037119
#
#
# Mechanical properties :
#
#
# Convention : Reuss Voigt Hill
#
# Bulk Modulus (GPa) = 29.77722 46.25361 38.01541
# Shear Modulus (GPa) = 24.20743 32.85322 28.53033
#
# Velocity S-wave (km/s) = 3.15801 3.67899 3.42841
# Velocity P-wave (km/s) = 5.05619 6.09117 5.59765
#
# Compressibility (1/GPa) = 0.03358272
#
# Stress axis : x y z
#
# Youngs Moduli (GPa) = 32.59940 106.88521 74.30352
#
# Poissons Ratio (x) = 0.13781 0.52230
# Poissons Ratio (y) = 0.04203 0.12147
# Poissons Ratio (z) = 0.22915 0.17473
#
# Static dielectric constant tensor:
#      x y z
#    x 1.884380 0.027050 0.005970 
#    y 0.027050 1.974220 -0.018000 
#    z 0.005970 -0.018000 1.995890 
# 
# From -- ./inp_files/390313.got.cif
#   From: 2010.05.17/outbox.cif.g08.bks.cpg/sg2_196_cif.got.tgz:390313.got - 2010.06.03 11:33:40.
