data_PCOD9025495
_publ_section_title
;
Structure prediction by ZEFSAII (Michael W. Deem and Ramdas Pophale) SiO2 
 PCOD9025495
Probable space group: P -1
;
_chemical_formula_sum "Si O2"
_cell_formula_units_Z 16
_cell_length_a 10.239989
_cell_length_b 31.402295
_cell_length_c 13.408631
_cell_angle_alpha 20.593607
_cell_angle_beta 147.784821
_cell_angle_gamma 154.901573
_cell_volume 643.252279
_symmetry_space_group_name_H-M "P -1"
_symmetry_group_IT_number 2
_symmetry_cell_setting 'triclinic'
loop_
_space_group_symop_operation_xyz
x,y,z
-x,-y,-z
loop_
_atom_site_type_symbol
_atom_site_label
_atom_site_fract_x
_atom_site_fract_y
_atom_site_fract_z
Si Si1 0.289129 0.835093 0.675811
Si Si2 0.787033 0.331436 0.686484
Si Si3 0.213161 0.223340 0.675924
Si Si4 0.695317 0.471702 0.909158
Si Si5 0.366299 0.164781 0.285260
Si Si6 0.217795 0.882471 0.201619
Si Si7 0.137643 0.836638 0.034416
Si Si8 0.228986 0.499651 0.870920
O O1 0.510817 0.831059 0.752485
O O2 0.032112 0.824243 0.465553
O O3 0.500000 0.000000 0.500000
O O4 0.087822 0.674571 0.958251
O O5 0.490534 0.235612 0.776110
O O6 0.925424 0.243945 0.938919
O O7 0.753645 0.374696 0.458217
O O8 0.000000 0.500000 0.500000
O O9 0.325175 0.390345 0.417203
O O10 0.027483 0.124885 0.868662
O O11 0.433088 0.325384 0.000291
O O12 0.705217 0.455740 0.068947
O O13 0.000000 0.500000 0.000000
O O14 0.589466 0.156050 0.521784
O O15 0.998607 0.066092 0.266782
O O16 0.073311 0.780884 0.231278
O O17 0.488672 0.052841 0.970844
O O18 0.500000 0.500000 0.000000
#
# Coordination Sequence:
#
# PCOD9025495 Si02
#       8
#     2   2   2   2   2   2   2   2
#     4  10  22  40  69 107 134 176 233 278 345 419
#     4  12  26  43  62 101 140 174 230 284 341 410
#     4  10  22  43  65  95 138 179 220 289 350 398
#     4  11  18  39  70  98 125 171 231 279 337 405
#     4  11  22  43  71  96 134 177 231 284 341 411
#     4  10  23  46  67  93 134 180 228 283 349 401
#     4  11  26  42  67 102 131 179 234 280 338 419
#     4  11  22  43  70 100 133 183 228 282 343 400
#
# _framework density 24.8736
#
# number of rings (size 3 to 8) (size 9 to 14) (size 15 to 20)
#    0.000    1.250    6.250    1.875    0.000    5.500 
#    2.250    1.875    0.000    0.000    0.000    0.875 
#    0.000    0.000    0.000    0.000    0.000    0.000 
#
# Total GULP energy -89287.187811 kJ/mol
# GULP energy per Si atom -5580.449238 kJ/mol
# Density = 2.481699 g / cm^3
# Si number density = 24.873600 Si / 1000 Ang^3
#
#
#
# Elastic Constant Matrix: (Units=GPa)
#
#
# Indices 1 2 3 4 5 6 
#
# 1 252.3396 51.0728 35.1556 -0.1929 14.7623 25.4862
# 2 51.0728 77.3772 15.0574 -9.7118 7.5382 -12.7581
# 3 35.1556 15.0574 45.3239 -2.7603 -6.9831 -4.2508
# 4 -0.1929 -9.7118 -2.7603 39.3739 -3.9957 9.2632
# 5 14.7623 7.5382 -6.9831 -3.9957 42.8143 0.0701
# 6 25.4862 -12.7581 -4.2508 9.2632 0.0701 41.8661
#
#
#
# Elastic Compliance Matrix: (Units=1/GPa)
#
#
# Indices 1 2 3 4 5 6 
#
# 1 0.005954 -0.003790 -0.004174 -0.000196 -0.002076 -0.005156
# 2 -0.003790 0.017508 -0.002392 0.002312 -0.001962 0.006891
# 3 -0.004174 -0.002392 0.027557 0.000941 0.006436 0.004391
# 4 -0.000196 0.002312 0.000941 0.027491 0.002388 -0.005167
# 5 -0.002076 -0.001962 0.006436 0.002388 0.025689 0.000748
# 6 -0.005156 0.006891 0.004391 -0.005167 0.000748 0.030712
#
#
# Mechanical properties :
#
#
# Convention : Reuss Voigt Hill
#
# Bulk Modulus (GPa) = 32.99666 64.17914 48.58790
# Shear Modulus (GPa) = 30.17042 43.06119 36.61580
#
# Velocity S-wave (km/s) = 3.48652 4.16528 3.84093
# Velocity P-wave (km/s) = 5.43160 6.99935 6.26471
#
# Compressibility (1/GPa) = 0.03030610
#
# Stress axis : x y z
#
# Youngs Moduli (GPa) = 167.96526 57.11603 36.28900
#
# Poissons Ratio (x) = 0.21646 0.15148
# Poissons Ratio (y) = 0.63657 0.08680
# Poissons Ratio (z) = 0.70113 0.13662
#
# Static dielectric constant tensor:
#      x y z
#    x 2.046210 0.330220 -0.277900 
#    y 0.330220 3.331090 -0.936950 
#    z -0.277900 -0.936950 2.701210 
# 
# From -- ./inp_files/239951.got.cif
#   From: 2010.05.17/outbox.cif.g08.bks.cpg/sg2_120_cif.got.tgz:239951.got - 2010.06.03 11:33:40.
