data_PCOD9025985
_publ_section_title
;
Structure prediction by ZEFSAII (Michael W. Deem and Ramdas Pophale) SiO2 
 PCOD9025985
Probable space group: P -1
;
_chemical_formula_sum "Si O2"
_cell_formula_units_Z 16
_cell_length_a 8.476098
_cell_length_b 16.350836
_cell_length_c 5.487538
_cell_angle_alpha 97.237360
_cell_angle_beta 83.391001
_cell_angle_gamma 123.303798
_cell_volume 629.592653
_symmetry_space_group_name_H-M "P -1"
_symmetry_group_IT_number 2
_symmetry_cell_setting 'triclinic'
loop_
_space_group_symop_operation_xyz
x,y,z
-x,-y,-z
loop_
_atom_site_type_symbol
_atom_site_label
_atom_site_fract_x
_atom_site_fract_y
_atom_site_fract_z
Si Si1 0.992033 0.861522 0.432314
Si Si2 0.007052 0.402436 0.986869
Si Si3 0.425662 0.701314 0.965366
Si Si4 0.277465 0.940217 0.041132
Si Si5 0.068532 0.742750 0.670991
Si Si6 0.817148 0.950108 0.240719
Si Si7 0.526647 0.210177 0.512755
Si Si8 0.404044 0.504404 0.767315
O O1 0.934201 0.761495 0.532773
O O2 0.879653 0.872943 0.236481
O O3 0.021165 0.944515 0.642962
O O4 0.200075 0.901780 0.307597
O O5 0.177383 0.423312 0.790185
O O6 0.785108 0.320223 0.978100
O O7 0.045591 0.362276 0.213786
O O8 0.000000 0.500000 0.000000
O O9 0.521603 0.775937 0.749380
O O10 0.418403 0.607061 0.832502
O O11 0.494074 0.728218 0.242185
O O12 0.166590 0.839981 0.864626
O O13 0.224850 0.017475 0.991787
O O14 0.500000 0.000000 0.000000
O O15 0.254095 0.754055 0.522690
O O16 0.622224 0.899600 0.410909
O O17 0.500000 0.500000 0.500000
O O18 0.500000 0.500000 0.000000
#
# Coordination Sequence:
#
# PCOD9025985 Si02
#       8
#     2   2   2   2   2   2   2   2
#     4  10  22  41  60  91 136 177 240 280 355 421
#     4   9  22  45  72  98 138 183 227 290 353 423
#     4  10  24  44  67 101 136 179 232 287 350 428
#     4  11  22  38  65  94 134 174 235 289 342 408
#     4  10  23  40  65 100 126 180 236 289 344 417
#     4  10  23  39  61  91 134 190 223 289 355 417
#     4  11  23  41  67  98 135 176 235 288 344 415
#     4  11  24  46  72 102 138 178 229 288 360 430
#
# _framework density 25.413257000000002
#
# number of rings (size 3 to 8) (size 9 to 14) (size 15 to 20)
#    0.000    1.750    0.000    2.625    8.750    5.000 
#    4.500    7.500    0.000    0.000    0.000    0.000 
#    0.000    0.000    0.000    0.000    0.000    0.000 
#
# Total GULP energy -89232.558439 kJ/mol
# GULP energy per Si atom -5577.034902 kJ/mol
# Density = 2.535542 g / cm^3
# Si number density = 25.413257 Si / 1000 Ang^3
#
#
#
# Elastic Constant Matrix: (Units=GPa)
#
#
# Indices 1 2 3 4 5 6 
#
# 1 106.2630 32.0479 54.5491 -18.5180 -17.2866 -17.4554
# 2 32.0479 105.2276 70.5864 -17.3143 -0.4359 -26.8248
# 3 54.5491 70.5864 152.9413 -12.4630 -30.0303 -13.1205
# 4 -18.5180 -17.3143 -12.4630 54.7048 -10.2230 2.6045
# 5 -17.2866 -0.4359 -30.0303 -10.2230 39.2155 -17.6383
# 6 -17.4554 -26.8248 -13.1205 2.6045 -17.6383 43.5286
#
#
#
# Elastic Compliance Matrix: (Units=1/GPa)
#
#
# Indices 1 2 3 4 5 6 
#
# 1 0.014758 0.000317 -0.001915 0.006258 0.011001 0.009620
# 2 0.000317 0.016607 -0.006967 0.003284 -0.000645 0.007804
# 3 -0.001915 -0.006967 0.013050 0.002032 0.011054 0.003230
# 4 0.006258 0.003284 0.002032 0.024252 0.015084 0.009807
# 5 0.011001 -0.000645 0.011054 0.015084 0.055809 0.029058
# 6 0.009620 0.007804 0.003230 0.009807 0.029058 0.043801
#
#
# Mechanical properties :
#
#
# Convention : Reuss Voigt Hill
#
# Bulk Modulus (GPa) = 36.64948 75.42207 56.03578
# Shear Modulus (GPa) = 25.70643 41.30636 33.50640
#
# Velocity S-wave (km/s) = 3.18392 4.03598 3.63500
# Velocity P-wave (km/s) = 5.28859 7.17367 6.30201
#
# Compressibility (1/GPa) = 0.02728552
#
# Stress axis : x y z
#
# Youngs Moduli (GPa) = 67.75903 60.21426 76.62644
#
# Poissons Ratio (x) = -0.01911 0.14675
# Poissons Ratio (y) = -0.02150 0.53389
# Poissons Ratio (z) = 0.12976 0.41954
#
# Static dielectric constant tensor:
#      x y z
#    x 2.093780 0.009250 0.068650 
#    y 0.009250 2.042500 -0.004590 
#    z 0.068650 -0.004590 2.115370 
# 
# From -- ./inp_files/44603.got.cif
#   From: 2010.05.17/outbox.cif.g08.bks.cpg/sg2_23_cif.got.tgz:44603.got - 2010.06.03 11:33:40.
