data_PCOD9025121
_publ_section_title
;
Structure prediction by ZEFSAII (Michael W. Deem and Ramdas Pophale) SiO2 
 PCOD9025121
Probable space group: P -1
;
_chemical_formula_sum "Si O2"
_cell_formula_units_Z 15
_cell_length_a 9.455691
_cell_length_b 23.736276
_cell_length_c 13.624523
_cell_angle_alpha 156.116661
_cell_angle_beta 30.547636
_cell_angle_gamma 138.168789
_cell_volume 615.789569
_symmetry_space_group_name_H-M "P -1"
_symmetry_group_IT_number 2
_symmetry_cell_setting 'triclinic'
loop_
_space_group_symop_operation_xyz
x,y,z
-x,-y,-z
loop_
_atom_site_type_symbol
_atom_site_label
_atom_site_fract_x
_atom_site_fract_y
_atom_site_fract_z
Si Si1 0.270181 0.898147 0.969700
Si Si2 0.000000 0.000000 0.500000
Si Si3 0.201593 0.541715 0.863898
Si Si4 0.973143 0.744552 0.149363
Si Si5 0.535506 0.767606 0.096708
Si Si6 0.413122 0.232062 0.159834
Si Si7 0.014399 0.046692 0.177791
Si Si8 0.036865 0.652907 0.755230
O O1 0.044433 0.956026 0.282024
O O2 0.312160 0.725883 0.689302
O O3 0.149742 0.922134 0.970816
O O4 0.500000 0.000000 0.000000
O O5 0.761697 0.888906 0.481505
O O6 0.346152 0.400654 0.491847
O O7 0.020783 0.657507 0.081151
O O8 0.425169 0.620647 0.908554
O O9 0.000000 0.500000 0.000000
O O10 0.251253 0.825226 0.105740
O O11 0.989729 0.648013 0.892090
O O12 0.276422 0.877761 0.475090
O O13 0.617416 0.800908 0.989116
O O14 0.786616 0.747956 0.992796
O O15 0.213225 0.163250 0.238246
O O16 0.000000 0.000000 0.000000
O O17 0.000000 0.500000 0.500000
#
# Coordination Sequence:
#
# PCOD9025121 Si02
#       8
#     2   1   2   2   2   2   2   2
#     4  11  25  45  73 101 136 189 242 295 348 424
#     4  10  22  42  66  98 136 174 242 280 346 412
#     4  11  21  41  71 100 131 172 241 291 347 420
#     4  10  22  40  67  94 131 183 225 286 348 415
#     4  11  24  43  69 101 140 188 226 293 362 417
#     4  11  22  42  70  97 135 175 237 294 345 422
#     4  12  26  42  67 105 141 183 240 291 354 427
#     4  11  23  44  68 100 144 184 228 287 368 426
#
# _framework density 24.358969999999999
#
# number of rings (size 3 to 8) (size 9 to 14) (size 15 to 20)
#    0.000    1.067    1.333    7.200    0.000    6.400 
#    0.000    0.667    0.000    0.000    0.000    0.000 
#    0.000    0.000    0.000    0.000    0.000    0.000 
#
# Total GULP energy -83650.059162 kJ/mol
# GULP energy per Si atom -5576.670611 kJ/mol
# Density = 2.430353 g / cm^3
# Si number density = 24.358970 Si / 1000 Ang^3
#
#
#
# Elastic Constant Matrix: (Units=GPa)
#
#
# Indices 1 2 3 4 5 6 
#
# 1 137.5343 51.1943 23.1619 -13.4475 31.1362 -27.2886
# 2 51.1943 177.5100 48.2835 13.2527 1.5638 -16.4445
# 3 23.1619 48.2835 116.3597 -0.4389 26.2062 -6.5742
# 4 -13.4475 13.2527 -0.4389 45.4916 7.9463 11.0141
# 5 31.1362 1.5638 26.2062 7.9463 42.8893 -0.4010
# 6 -27.2886 -16.4445 -6.5742 11.0141 -0.4010 49.9954
#
#
#
# Elastic Compliance Matrix: (Units=1/GPa)
#
#
# Indices 1 2 3 4 5 6 
#
# 1 0.012359 -0.004028 0.001966 0.005728 -0.011047 0.004329
# 2 -0.004028 0.008290 -0.003933 -0.004963 0.005956 0.001152
# 3 0.001966 -0.003933 0.011949 0.003316 -0.009194 0.000546
# 4 0.005728 -0.004963 0.003316 0.028178 -0.011265 -0.004368
# 5 -0.011047 0.005956 -0.009194 -0.011265 0.038800 -0.002487
# 6 0.004329 0.001152 0.000546 -0.004368 -0.002487 0.023758
#
#
# Mechanical properties :
#
#
# Convention : Reuss Voigt Hill
#
# Bulk Modulus (GPa) = 48.52846 75.18704 61.85775
# Shear Modulus (GPa) = 35.16320 48.25953 41.71137
#
# Velocity S-wave (km/s) = 3.80352 4.45587 4.14256
# Velocity P-wave (km/s) = 6.26534 7.57670 6.95201
#
# Compressibility (1/GPa) = 0.02060647
#
# Stress axis : x y z
#
# Youngs Moduli (GPa) = 80.91086 120.62981 83.69108
#
# Poissons Ratio (x) = 0.48594 -0.16451
# Poissons Ratio (y) = 0.32594 0.32915
# Poissons Ratio (z) = -0.15904 0.47443
#
# Static dielectric constant tensor:
#      x y z
#    x 1.936250 0.058660 -0.064970 
#    y 0.058660 2.074600 0.052820 
#    z -0.064970 0.052820 2.104410 
# 
# From -- ./inp_files/405648.got.cif
#   From: 2010.05.17/outbox.cif.g08.bks.cpg/sg2_203_cif.got.tgz:405648.got - 2010.06.03 11:33:40.
