data_PCOD9025897
_publ_section_title
;
Structure prediction by ZEFSAII (Michael W. Deem and Ramdas Pophale) SiO2 
 PCOD9025897
Probable space group: P -1
;
_chemical_formula_sum "Si O2"
_cell_formula_units_Z 13
_cell_length_a 13.928154
_cell_length_b 16.769095
_cell_length_c 9.406269
_cell_angle_alpha 126.618002
_cell_angle_beta 45.071356
_cell_angle_gamma 156.433178
_cell_volume 611.768044
_symmetry_space_group_name_H-M "P -1"
_symmetry_group_IT_number 2
_symmetry_cell_setting 'triclinic'
loop_
_space_group_symop_operation_xyz
x,y,z
-x,-y,-z
loop_
_atom_site_type_symbol
_atom_site_label
_atom_site_fract_x
_atom_site_fract_y
_atom_site_fract_z
Si Si1 0.618097 0.486004 0.455124
Si Si2 0.500000 0.000000 0.000000
Si Si3 0.351443 0.320611 0.871147
Si Si4 0.247361 0.040273 0.793696
Si Si5 0.832035 0.148589 0.573914
Si Si6 0.714288 0.344745 0.053666
Si Si7 0.796833 0.330331 0.651270
O O1 0.500000 0.500000 0.500000
O O2 0.480509 0.396745 0.660227
O O3 0.589026 0.363323 0.272962
O O4 0.946858 0.709294 0.377886
O O5 0.471049 0.870941 0.964285
O O6 0.541273 0.974801 0.771224
O O7 0.369320 0.227305 0.836270
O O8 0.500000 0.500000 0.000000
O O9 0.021821 0.129610 0.006746
O O10 0.490178 0.127470 0.692159
O O11 0.149395 0.934566 0.632418
O O12 0.892089 0.284640 0.562431
O O13 0.780883 0.394891 0.870529
O O14 0.000000 0.500000 0.000000
O O15 0.000000 0.500000 0.500000
#
# Coordination Sequence:
#
# PCOD9025897 Si02
#       7
#     2   1   2   2   2   2   2
#     4  12  26  43  73 105 142 188 231 289 357 421
#     4  10  22  40  74  92 138 184 226 282 358 404
#     4  11  25  47  70  95 143 187 230 290 345 416
#     4  11  25  43  73 100 137 183 239 282 352 417
#     4  11  23  44  66 105 138 183 227 293 354 404
#     4  11  24  47  68 100 142 184 231 289 355 406
#     4  11  25  41  74 106 136 183 236 289 347 418
#
# _framework density 21.249884999999999
#
# number of rings (size 3 to 8) (size 9 to 14) (size 15 to 20)
#    0.000    0.923    4.615    2.308    4.308    2.462 
#    0.000    2.308    0.000    0.000    0.000    0.000 
#    0.000    0.000    0.000    0.000    0.000    0.000 
#
# Total GULP energy -72421.036108 kJ/mol
# GULP energy per Si atom -5570.848931 kJ/mol
# Density = 2.120152 g / cm^3
# Si number density = 21.249885 Si / 1000 Ang^3
#
#
#
# Elastic Constant Matrix: (Units=GPa)
#
#
# Indices 1 2 3 4 5 6 
#
# 1 98.3720 29.4511 21.0679 -1.9923 -8.5373 -8.6578
# 2 29.4511 57.7952 34.9868 12.6534 -1.6499 -12.5670
# 3 21.0679 34.9868 142.9983 19.2780 19.9187 -33.3046
# 4 -1.9923 12.6534 19.2780 35.0794 -9.5096 0.1227
# 5 -8.5373 -1.6499 19.9187 -9.5096 45.0058 -3.2679
# 6 -8.6578 -12.5670 -33.3046 0.1227 -3.2679 27.1364
#
#
#
# Elastic Compliance Matrix: (Units=1/GPa)
#
#
# Indices 1 2 3 4 5 6 
#
# 1 0.012931 -0.006731 -0.001629 0.005137 0.003974 -0.000535
# 2 -0.006731 0.025497 -0.002527 -0.008353 -0.000514 0.006535
# 3 -0.001629 -0.002527 0.013114 -0.008327 -0.006977 0.013602
# 4 0.005137 -0.008353 -0.008327 0.039658 0.011920 -0.011193
# 5 0.003974 -0.000514 -0.006977 0.011920 0.028257 -0.004185
# 6 -0.000535 0.006535 0.013602 -0.011193 -0.004185 0.055947
#
#
# Mechanical properties :
#
#
# Convention : Reuss Voigt Hill
#
# Bulk Modulus (GPa) = 33.59279 52.24190 42.91734
# Shear Modulus (GPa) = 24.14287 35.68833 29.91560
#
# Velocity S-wave (km/s) = 3.37433 4.10257 3.75614
# Velocity P-wave (km/s) = 5.56994 6.86144 6.24914
#
# Compressibility (1/GPa) = 0.02976829
#
# Stress axis : x y z
#
# Youngs Moduli (GPa) = 77.33185 39.22020 76.25609
#
# Poissons Ratio (x) = 0.26399 0.12422
# Poissons Ratio (y) = 0.52051 0.19269
# Poissons Ratio (z) = 0.12598 0.09911
#
# Static dielectric constant tensor:
#      x y z
#    x 1.754470 0.032840 -0.026440 
#    y 0.032840 1.815500 -0.056100 
#    z -0.026440 -0.056100 1.817610 
# 
# From -- ./inp_files/274005.got.cif
#   From: 2010.05.17/outbox.cif.g08.bks.cpg/sg2_138_cif.got.tgz:274005.got - 2010.06.03 11:33:40.
