data_PCOD9025801
_publ_section_title
;
Structure prediction by ZEFSAII (Michael W. Deem and Ramdas Pophale) SiO2 
 PCOD9025801
Probable space group: P -1
;
_chemical_formula_sum "Si O2"
_cell_formula_units_Z 16
_cell_length_a 13.280261
_cell_length_b 11.715679
_cell_length_c 8.059409
_cell_angle_alpha 97.184901
_cell_angle_beta 126.321656
_cell_angle_gamma 124.586724
_cell_volume 597.672230
_symmetry_space_group_name_H-M "P -1"
_symmetry_group_IT_number 2
_symmetry_cell_setting 'triclinic'
loop_
_space_group_symop_operation_xyz
x,y,z
-x,-y,-z
loop_
_atom_site_type_symbol
_atom_site_label
_atom_site_fract_x
_atom_site_fract_y
_atom_site_fract_z
Si Si1 0.356576 0.234003 0.818179
Si Si2 0.156447 0.772336 0.695409
Si Si3 0.913133 0.783805 0.326762
Si Si4 0.590331 0.221354 0.194911
Si Si5 0.120496 0.868523 0.024863
Si Si6 0.773861 0.275195 0.732291
Si Si7 0.506467 0.247586 0.612055
Si Si8 0.730415 0.624158 0.772980
O O1 0.277709 0.307253 0.766714
O O2 0.429395 0.243572 0.709893
O O3 0.532141 0.311639 0.127671
O O4 0.135470 0.010174 0.613728
O O5 0.220153 0.687576 0.714937
O O6 0.969019 0.691295 0.393211
O O7 0.119621 0.788877 0.848306
O O8 0.373500 0.997280 0.895122
O O9 0.842723 0.758611 0.067564
O O10 0.657622 0.229822 0.444075
O O11 0.178799 0.824899 0.224489
O O12 0.307888 0.097100 0.265803
O O13 0.894529 0.755881 0.809559
O O14 0.620004 0.207184 0.715759
O O15 0.000000 0.500000 0.000000
O O16 0.684625 0.458585 0.744916
O O17 0.500000 0.500000 0.500000
#
# Coordination Sequence:
#
# PCOD9025801 Si02
#       8
#     2   2   2   2   2   2   2   2
#     4  10  23  43  74 101 139 192 238 289 361 426
#     4  10  22  40  72 101 136 191 234 290 359 418
#     4  10  23  46  69 103 145 182 236 300 352 430
#     4  10  22  41  69 106 140 182 243 290 350 433
#     4  12  25  48  74 103 146 189 241 294 357 432
#     4  12  25  44  72 106 151 183 235 302 359 419
#     4  12  26  46  74 104 137 195 236 290 363 425
#     4  12  29  47  71 105 147 185 244 298 353 429
#
# _framework density 26.770524999999999
#
# number of rings (size 3 to 8) (size 9 to 14) (size 15 to 20)
#    0.000    1.000    3.750    1.875    7.000    2.000 
#    2.250    1.250    0.000    0.000    0.000    0.000 
#    0.000    0.000    0.000    0.000    0.000    0.000 
#
# Total GULP energy -89576.609154 kJ/mol
# GULP energy per Si atom -5598.538072 kJ/mol
# Density = 2.670959 g / cm^3
# Si number density = 26.770525 Si / 1000 Ang^3
#
#
#
# Elastic Constant Matrix: (Units=GPa)
#
#
# Indices 1 2 3 4 5 6 
#
# 1 178.0469 6.7145 58.7966 -20.2162 44.7803 28.0245
# 2 6.7145 35.9560 22.4472 1.3290 12.3645 2.0801
# 3 58.7966 22.4472 113.3502 -21.5024 45.1034 6.6669
# 4 -20.2162 1.3290 -21.5024 54.6024 6.2849 9.1232
# 5 44.7803 12.3645 45.1034 6.2849 53.5551 -3.1191
# 6 28.0245 2.0801 6.6669 9.1232 -3.1191 40.8491
#
#
#
# Elastic Compliance Matrix: (Units=1/GPa)
#
#
# Indices 1 2 3 4 5 6 
#
# 1 0.010453 0.001838 0.000418 0.006864 -0.010887 -0.009697
# 2 0.001838 0.032802 -0.006171 -0.001807 -0.003806 -0.001811
# 3 0.000418 -0.006171 0.018762 0.010693 -0.016369 -0.006673
# 4 0.006864 -0.001807 0.010693 0.029664 -0.018647 -0.014411
# 5 -0.010887 -0.003806 -0.016369 -0.018647 0.045677 0.017987
# 6 -0.009697 -0.001811 -0.006673 -0.014411 0.017987 0.036906
#
#
# Mechanical properties :
#
#
# Convention : Reuss Voigt Hill
#
# Bulk Modulus (GPa) = 18.45470 55.91885 37.18678
# Shear Modulus (GPa) = 24.98063 45.76098 35.37081
#
# Velocity S-wave (km/s) = 3.05805 4.13895 3.63886
# Velocity P-wave (km/s) = 4.40199 6.61625 5.61926
#
# Compressibility (1/GPa) = 0.05418673
#
# Stress axis : x y z
#
# Youngs Moduli (GPa) = 95.66726 30.48638 53.30008
#
# Poissons Ratio (x) = -0.05603 -0.02231
# Poissons Ratio (y) = -0.17583 0.32892
# Poissons Ratio (z) = -0.04004 0.18814
#
# Static dielectric constant tensor:
#      x y z
#    x 2.196770 -0.091180 -0.026250 
#    y -0.091180 2.180830 -0.014150 
#    z -0.026250 -0.014150 2.041660 
# 
# From -- ./inp_files/273881.got.cif
#   From: 2010.05.17/outbox.cif.g08.bks.cpg/sg2_137_cif.got.tgz:273881.got - 2010.06.03 11:33:40.
