data_PCOD9025955
_publ_section_title
;
Structure prediction by ZEFSAII (Michael W. Deem and Ramdas Pophale) SiO2 
 PCOD9025955
Probable space group: P -1
;
_chemical_formula_sum "Si O2"
_cell_formula_units_Z 16
_cell_length_a 9.725680
_cell_length_b 11.971814
_cell_length_c 17.698803
_cell_angle_alpha 149.974627
_cell_angle_beta 118.467295
_cell_angle_gamma 47.072828
_cell_volume 718.221215
_symmetry_space_group_name_H-M "P -1"
_symmetry_group_IT_number 2
_symmetry_cell_setting 'triclinic'
loop_
_space_group_symop_operation_xyz
x,y,z
-x,-y,-z
loop_
_atom_site_type_symbol
_atom_site_label
_atom_site_fract_x
_atom_site_fract_y
_atom_site_fract_z
Si Si1 0.819265 0.265994 0.817024
Si Si2 0.962077 0.307644 0.724532
Si Si3 0.080259 0.711126 0.991274
Si Si4 0.269290 0.858822 0.947108
Si Si5 0.404470 0.894684 0.567720
Si Si6 0.474030 0.064093 0.846812
Si Si7 0.563959 0.687965 0.252190
Si Si8 0.472482 0.335065 0.242925
O O1 0.930183 0.193006 0.724814
O O2 0.653768 0.221241 0.748326
O O3 0.944539 0.129400 0.845504
O O4 0.701928 0.603928 0.993725
O O5 0.761808 0.485366 0.728225
O O6 0.004719 0.529331 0.883346
O O7 0.168591 0.054363 0.594069
O O8 0.305917 0.498582 0.896939
O O9 0.948207 0.916789 0.009295
O O10 0.322832 0.553791 0.796291
O O11 0.412876 0.822179 0.896183
O O12 0.332961 0.954329 0.091725
O O13 0.508578 0.566187 0.400594
O O14 0.460994 0.966683 0.703650
O O15 0.442964 0.039974 0.596571
O O16 0.462742 0.875315 0.794216
#
# Coordination Sequence:
#
# PCOD9025955 Si02
#       8
#     2   2   2   2   2   2   2   2
#     4  11  21  37  68  93 122 157 205 258 304 355
#     4  11  21  39  61  94 118 162 205 255 299 359
#     4  11  21  36  64  96 122 152 208 257 306 354
#     4  11  23  37  66  91 125 156 204 259 302 355
#     4  11  26  40  64  87 128 168 203 241 305 376
#     4  11  21  39  63  91 121 158 203 259 303 348
#     4  10  22  41  59  92 124 165 197 250 307 367
#     4  12  23  41  61  94 126 161 202 254 308 354
#
# _framework density 22.277259999999998
#
# number of rings (size 3 to 8) (size 9 to 14) (size 15 to 20)
#    0.000    1.000    6.250    3.000    3.500    0.500 
#    0.000    0.000    0.000    0.750    0.000    0.000 
#    0.000    0.000    0.000    0.000    0.000    0.000 
#
# Total GULP energy -89423.446255 kJ/mol
# GULP energy per Si atom -5588.965391 kJ/mol
# Density = 2.222656 g / cm^3
# Si number density = 22.277260 Si / 1000 Ang^3
#
#
#
# Elastic Constant Matrix: (Units=GPa)
#
#
# Indices 1 2 3 4 5 6 
#
# 1 125.2974 25.9233 23.1971 6.2164 22.6037 24.1597
# 2 25.9233 79.5215 2.0557 -2.3573 4.2509 15.7703
# 3 23.1971 2.0557 47.6910 5.1159 13.6426 -2.6839
# 4 6.2164 -2.3573 5.1159 21.2850 10.2736 -0.2528
# 5 22.6037 4.2509 13.6426 10.2736 21.4402 3.4624
# 6 24.1597 15.7703 -2.6839 -0.2528 3.4624 22.3968
#
#
#
# Elastic Compliance Matrix: (Units=1/GPa)
#
#
# Indices 1 2 3 4 5 6 
#
# 1 0.013045 -0.001143 -0.004454 0.001545 -0.009443 -0.012324
# 2 -0.001143 0.014909 -0.000543 0.002569 -0.001164 -0.009121
# 3 -0.004454 -0.000543 0.028101 0.002330 -0.015979 0.011051
# 4 0.001545 0.002569 0.002330 0.062771 -0.034150 0.002792
# 5 -0.009443 -0.001164 -0.015979 -0.034150 0.084051 -0.004289
# 6 -0.012324 -0.009121 0.011051 0.002792 -0.004289 0.066384
#
#
# Mechanical properties :
#
#
# Convention : Reuss Voigt Hill
#
# Bulk Modulus (GPa) = 22.84373 39.42912 31.13642
# Shear Modulus (GPa) = 16.88434 26.44666 21.66550
#
# Velocity S-wave (km/s) = 2.75602 3.44926 3.12194
# Velocity P-wave (km/s) = 4.51708 5.79662 5.19639
#
# Compressibility (1/GPa) = 0.04377569
#
# Stress axis : x y z
#
# Youngs Moduli (GPa) = 76.65728 67.07332 35.58591
#
# Poissons Ratio (x) = 0.07666 0.15850
# Poissons Ratio (y) = 0.08761 0.01931
# Poissons Ratio (z) = 0.34144 0.03640
#
# Static dielectric constant tensor:
#      x y z
#    x 1.836220 -0.006380 0.004130 
#    y -0.006380 1.839430 -0.017500 
#    z 0.004130 -0.017500 1.837740 
# 
# From -- ./inp_files/263195.got.cif
#   From: 2010.05.17/outbox.cif.g08.bks.cpg/sg2_132_cif.got.tgz:263195.got - 2010.06.03 11:33:40.
