data_PCOD9025972
_publ_section_title
;
Structure prediction by ZEFSAII (Michael W. Deem and Ramdas Pophale) SiO2 
 PCOD9025972
Probable space group: P -1
;
_chemical_formula_sum "Si O2"
_cell_formula_units_Z 16
_cell_length_a 6.327378
_cell_length_b 24.731612
_cell_length_c 9.122419
_cell_angle_alpha 139.838576
_cell_angle_beta 50.592333
_cell_angle_gamma 107.985187
_cell_volume 665.304859
_symmetry_space_group_name_H-M "P -1"
_symmetry_group_IT_number 2
_symmetry_cell_setting 'triclinic'
loop_
_space_group_symop_operation_xyz
x,y,z
-x,-y,-z
loop_
_atom_site_type_symbol
_atom_site_label
_atom_site_fract_x
_atom_site_fract_y
_atom_site_fract_z
Si Si1 0.445166 0.588647 0.406610
Si Si2 0.952195 0.854661 0.809331
Si Si3 0.810966 0.417380 0.207593
Si Si4 0.428496 0.000225 0.206183
Si Si5 0.433608 0.405361 0.936289
Si Si6 0.389114 0.272990 0.249673
Si Si7 0.386510 0.727375 0.160412
Si Si8 0.071527 0.866173 0.123477
O O1 0.185798 0.606851 0.672723
O O2 0.375111 0.632895 0.370165
O O3 0.675287 0.625833 0.459385
O O4 0.533707 0.483335 0.117370
O O5 0.811108 0.777095 0.700694
O O6 0.203812 0.822474 0.509399
O O7 0.726768 0.951124 0.061476
O O8 0.025811 0.853452 0.945482
O O9 0.500000 0.500000 0.500000
O O10 0.797984 0.331582 0.947848
O O11 0.096666 0.441937 0.105684
O O12 0.244075 0.935715 0.182984
O O13 0.223962 0.092176 0.563609
O O14 0.500000 0.000000 0.000000
O O15 0.458367 0.331738 0.892545
O O16 0.414510 0.266416 0.049923
O O17 0.710697 0.219218 0.063816
#
# Coordination Sequence:
#
# PCOD9025972 Si02
#       8
#     2   2   2   2   2   2   2   2
#     4  10  22  41  60  88 121 164 208 264 314 365
#     4  11  23  41  64  94 129 163 206 252 311 371
#     4  11  23  42  61  87 122 163 213 267 314 366
#     4  10  22  41  68  94 128 162 200 252 303 370
#     4  11  23  40  61  88 120 162 219 264 314 373
#     4  10  23  41  59  89 128 164 205 260 312 365
#     4  11  24  39  60  90 122 166 213 257 314 370
#     4  10  22  41  63  95 126 160 207 249 306 373
#
# _framework density 24.049126000000001
#
# number of rings (size 3 to 8) (size 9 to 14) (size 15 to 20)
#    0.000    1.500    1.250    3.000    0.000    6.000 
#    9.000    0.000    0.000    0.000    0.000    0.000 
#    0.000    0.000    0.000    0.000    0.000    0.000 
#
# Total GULP energy -89395.736113 kJ/mol
# GULP energy per Si atom -5587.233507 kJ/mol
# Density = 2.399439 g / cm^3
# Si number density = 24.049126 Si / 1000 Ang^3
#
#
#
# Elastic Constant Matrix: (Units=GPa)
#
#
# Indices 1 2 3 4 5 6 
#
# 1 44.5857 6.5033 42.6399 -5.9045 -11.7712 -15.8004
# 2 6.5033 86.5860 17.2379 -23.0016 -11.0091 -21.4850
# 3 42.6399 17.2379 113.8034 -23.4980 13.3870 -18.7035
# 4 -5.9045 -23.0016 -23.4980 40.9755 -12.5347 15.1461
# 5 -11.7712 -11.0091 13.3870 -12.5347 23.6144 -2.8386
# 6 -15.8004 -21.4850 -18.7035 15.1461 -2.8386 48.3043
#
#
#
# Elastic Compliance Matrix: (Units=1/GPa)
#
#
# Indices 1 2 3 4 5 6 
#
# 1 0.107309 0.030792 -0.047520 0.030197 0.114135 0.027636
# 2 0.030792 0.027461 -0.014974 0.021837 0.049741 0.012564
# 3 -0.047520 -0.014974 0.031583 -0.010363 -0.055272 -0.009974
# 4 0.030197 0.021837 -0.010363 0.052160 0.059118 0.002697
# 5 0.114135 0.049741 -0.055272 0.059118 0.188825 0.030616
# 6 0.027636 0.012564 -0.009974 0.002697 0.030616 0.032422
#
#
# Mechanical properties :
#
#
# Convention : Reuss Voigt Hill
#
# Bulk Modulus (GPa) = 9.71360 41.97081 25.84220
# Shear Modulus (GPa) = 9.30270 34.48511 21.89391
#
# Velocity S-wave (km/s) = 1.96891 3.79085 3.02053
# Velocity P-wave (km/s) = 3.03589 6.05399 4.78891
#
# Compressibility (1/GPa) = 0.10294846
#
# Stress axis : x y z
#
# Youngs Moduli (GPa) = 9.31889 36.41579 31.66287
#
# Poissons Ratio (x) = -1.12130 1.50461
# Poissons Ratio (y) = -0.28694 0.47412
# Poissons Ratio (z) = 0.44283 0.54529
#
# Static dielectric constant tensor:
#      x y z
#    x 1.947920 -0.014010 -0.016980 
#    y -0.014010 1.892320 0.010510 
#    z -0.016980 0.010510 1.919690 
# 
# From -- ./inp_files/143153.got.cif
#   From: 2010.05.17/outbox.cif.g08.bks.cpg/sg2_72_cif.got.tgz:143153.got - 2010.06.03 11:33:40.
