data_PCOD9025432
_publ_section_title
;
Structure prediction by ZEFSAII (Michael W. Deem and Ramdas Pophale) SiO2 
 PCOD9025432
Probable space group: P -1
;
_chemical_formula_sum "Si O2"
_cell_formula_units_Z 12
_cell_length_a 11.435307
_cell_length_b 5.683406
_cell_length_c 7.459979
_cell_angle_alpha 94.541991
_cell_angle_beta 95.779400
_cell_angle_gamma 93.587540
_cell_volume 479.637850
_symmetry_space_group_name_H-M "P -1"
_symmetry_group_IT_number 2
_symmetry_cell_setting 'triclinic'
loop_
_space_group_symop_operation_xyz
x,y,z
-x,-y,-z
loop_
_atom_site_type_symbol
_atom_site_label
_atom_site_fract_x
_atom_site_fract_y
_atom_site_fract_z
Si Si1 0.359685 0.986218 0.737094
Si Si2 0.133534 0.334980 0.354666
Si Si3 0.624204 0.653821 0.538682
Si Si4 0.915565 0.191012 0.828889
Si Si5 0.899594 0.122601 0.242354
Si Si6 0.429771 0.296443 0.086255
O O1 0.395070 0.115176 0.566244
O O2 0.228853 0.870903 0.697074
O O3 0.467354 0.839738 0.809537
O O4 0.353251 0.159136 0.916855
O O5 0.243285 0.390580 0.508614
O O6 0.125991 0.571216 0.248678
O O7 0.997365 0.269214 0.385228
O O8 0.150285 0.065648 0.255948
O O9 0.500000 0.500000 0.500000
O O10 0.646500 0.639298 0.753850
O O11 0.905089 0.214518 0.043533
O O12 0.049190 0.136657 0.790369
O O13 0.500000 0.500000 0.000000
#
# Coordination Sequence:
#
# PCOD9025432 Si02
#       6
#     2   2   2   2   2   2
#     4  11  25  46  72 104 139 185 238 293 358 428
#     4  10  22  40  68  99 141 184 230 295 354 419
#     4  12  26  46  70 104 143 187 239 294 358 423
#     4   9  20  39  66 106 137 183 230 294 350 429
#     4   9  21  38  67 101 137 181 235 289 362 414
#     4  11  25  45  70 102 138 186 235 292 347 428
#
# _framework density 25.018875000000001
#
# number of rings (size 3 to 8) (size 9 to 14) (size 15 to 20)
#    1.000    0.667    1.667    2.000    2.333    4.667 
#    0.000    0.833    0.000    0.000    0.000    0.000 
#    0.000    0.000    0.000    0.000    0.000    0.000 
#
# Total GULP energy -66847.901910 kJ/mol
# GULP energy per Si atom -5570.658492 kJ/mol
# Density = 2.496193 g / cm^3
# Si number density = 25.018875 Si / 1000 Ang^3
#
#
#
# Elastic Constant Matrix: (Units=GPa)
#
#
# Indices 1 2 3 4 5 6 
#
# 1 173.1430 33.7430 23.3668 -0.3582 35.0947 29.0248
# 2 33.7430 111.7058 51.6006 -21.2592 8.1400 6.3999
# 3 23.3668 51.6006 100.4797 -17.1332 -8.6636 1.7981
# 4 -0.3582 -21.2592 -17.1332 56.4524 -4.6626 8.4454
# 5 35.0947 8.1400 -8.6636 -4.6626 34.0802 -6.8512
# 6 29.0248 6.3999 1.7981 8.4454 -6.8512 23.4878
#
#
#
# Elastic Compliance Matrix: (Units=1/GPa)
#
#
# Indices 1 2 3 4 5 6 
#
# 1 0.014911 0.001164 -0.005364 0.000839 -0.021913 -0.025026
# 2 0.001164 0.013562 -0.007124 0.003542 -0.007375 -0.008013
# 3 -0.005364 -0.007124 0.016141 0.001711 0.013717 0.010719
# 4 0.000839 0.003542 0.001711 0.021007 -0.000370 -0.009794
# 5 -0.021913 -0.007375 0.013717 -0.000370 0.066679 0.047620
# 6 -0.025026 -0.008013 0.010719 -0.009794 0.047620 0.092276
#
#
# Mechanical properties :
#
#
# Convention : Reuss Voigt Hill
#
# Bulk Modulus (GPa) = 45.52431 66.97213 56.24822
# Shear Modulus (GPa) = 19.64288 41.24530 30.44409
#
# Velocity S-wave (km/s) = 2.80504 4.06466 3.49211
# Velocity P-wave (km/s) = 5.35971 6.98966 6.22824
#
# Compressibility (1/GPa) = 0.02196629
#
# Stress axis : x y z
#
# Youngs Moduli (GPa) = 67.06362 73.73642 61.95550
#
# Poissons Ratio (x) = -0.08581 0.33231
# Poissons Ratio (y) = -0.07804 0.44135
# Poissons Ratio (z) = 0.35971 0.52528
#
# Static dielectric constant tensor:
#      x y z
#    x 1.871410 -0.096550 -0.039510 
#    y -0.096550 2.075050 0.075850 
#    z -0.039510 0.075850 1.996640 
# 
# From -- ./inp_files/228246.got.cif
#   From: 2010.05.17/outbox.cif.g08.bks.cpg/sg2_115_cif.got.tgz:228246.got - 2010.06.03 11:33:40.
