data_PCOD9025002
_publ_section_title
;
Structure prediction by ZEFSAII (Michael W. Deem and Ramdas Pophale) SiO2 
 PCOD9025002
Probable space group: P -1
;
_chemical_formula_sum "Si O2"
_cell_formula_units_Z 14
_cell_length_a 25.339728
_cell_length_b 30.739477
_cell_length_c 14.965261
_cell_angle_alpha 160.536130
_cell_angle_beta 160.822761
_cell_angle_gamma 9.323390
_cell_volume 607.391908
_symmetry_space_group_name_H-M "P -1"
_symmetry_group_IT_number 2
_symmetry_cell_setting 'triclinic'
loop_
_space_group_symop_operation_xyz
x,y,z
-x,-y,-z
loop_
_atom_site_type_symbol
_atom_site_label
_atom_site_fract_x
_atom_site_fract_y
_atom_site_fract_z
Si Si1 0.287654 0.006083 0.855653
Si Si2 0.818325 0.403358 0.518728
Si Si3 0.970187 0.688885 0.513412
Si Si4 0.031376 0.620785 0.101620
Si Si5 0.191976 0.678517 0.008807
Si Si6 0.231611 0.212473 0.335145
Si Si7 0.286408 0.765113 0.624307
O O1 0.155292 0.169602 0.870677
O O2 0.004392 0.111095 0.647809
O O3 0.609099 0.688689 0.735062
O O4 0.343920 0.070892 0.146675
O O5 0.036232 0.263377 0.686199
O O6 0.001127 0.266800 0.452087
O O7 0.537872 0.489070 0.235443
O O8 0.224217 0.578067 0.773176
O O9 0.589107 0.984544 0.512461
O O10 0.032631 0.488270 0.218108
O O11 0.435242 0.353247 0.213747
O O12 0.001901 0.718227 0.848910
O O13 0.931386 0.986350 0.178133
O O14 0.000000 0.500000 0.500000
O O15 0.500000 0.500000 0.500000
#
# Coordination Sequence:
#
# PCOD9025002 Si02
#       7
#     2   2   2   2   2   2   2
#     4  10  22  40  67 100 129 170 220 273 321 396
#     4  11  24  46  65  97 133 176 220 263 328 398
#     4  12  25  42  67  95 136 176 214 272 328 386
#     4  11  21  40  69  95 132 171 220 271 327 378
#     4  11  23  44  67  92 134 176 212 270 336 380
#     4  12  25  41  67 101 133 168 226 271 329 389
#     4   9  19  35  66  95 122 163 219 264 321 379
#
# _framework density 23.049368000000001
#
# number of rings (size 3 to 8) (size 9 to 14) (size 15 to 20)
#    0.000    1.143    2.857    3.000    4.000    2.857 
#    5.143    0.714    0.000    0.000    0.000    0.000 
#    0.000    0.000    0.000    0.000    0.000    0.000 
#
# Total GULP energy -78293.463490 kJ/mol
# GULP energy per Si atom -5592.390249 kJ/mol
# Density = 2.299691 g / cm^3
# Si number density = 23.049368 Si / 1000 Ang^3
#
#
#
# Elastic Constant Matrix: (Units=GPa)
#
#
# Indices 1 2 3 4 5 6 
#
# 1 91.4082 2.1783 14.4455 -4.8227 -7.2851 6.7646
# 2 2.1783 40.0110 12.0142 -8.4479 10.1533 1.9583
# 3 14.4455 12.0142 103.0107 -6.5461 -10.2126 8.3593
# 4 -4.8227 -8.4479 -6.5461 19.4843 4.1919 1.8316
# 5 -7.2851 10.1533 -10.2126 4.1919 42.4405 -2.6149
# 6 6.7646 1.9583 8.3593 1.8316 -2.6149 34.7232
#
#
#
# Elastic Compliance Matrix: (Units=1/GPa)
#
#
# Indices 1 2 3 4 5 6 
#
# 1 0.011502 -0.000027 -0.001167 0.002340 0.001347 -0.001980
# 2 -0.000027 0.031943 -0.003568 0.015062 -0.010147 -0.002496
# 3 -0.001167 -0.003568 0.010835 0.001349 0.003003 -0.002025
# 4 0.002340 0.015062 0.001349 0.061408 -0.009286 -0.005568
# 5 0.001347 -0.010147 0.003003 -0.009286 0.027995 0.002185
# 6 -0.001980 -0.002496 -0.002025 -0.005568 0.002185 0.030271
#
#
# Mechanical properties :
#
#
# Convention : Reuss Voigt Hill
#
# Bulk Modulus (GPa) = 22.34268 32.41179 27.37724
# Shear Modulus (GPa) = 25.20191 33.04905 29.12548
#
# Velocity S-wave (km/s) = 3.31023 3.79071 3.55859
# Velocity P-wave (km/s) = 4.93200 5.76643 5.36546
#
# Compressibility (1/GPa) = 0.04475739
#
# Stress axis : x y z
#
# Youngs Moduli (GPa) = 86.93887 31.30556 92.29138
#
# Poissons Ratio (x) = 0.00083 0.10770
# Poissons Ratio (y) = 0.00232 0.32930
# Poissons Ratio (z) = 0.10146 0.11170
#
# Static dielectric constant tensor:
#      x y z
#    x 1.880930 -0.018740 -0.016800 
#    y -0.018740 1.871040 -0.040910 
#    z -0.016800 -0.040910 1.892820 
# 
# From -- ./inp_files/186313.got.cif
#   From: 2010.05.17/outbox.cif.g08.bks.cpg/sg2_94_cif.got.tgz:186313.got - 2010.06.03 11:33:40.
