data_PCOD9025652
_publ_section_title
;
Structure prediction by ZEFSAII (Michael W. Deem and Ramdas Pophale) SiO2 
 PCOD9025652
Probable space group: P -1
;
_chemical_formula_sum "Si O2"
_cell_formula_units_Z 15
_cell_length_a 16.381280
_cell_length_b 17.060709
_cell_length_c 7.746460
_cell_angle_alpha 51.565892
_cell_angle_beta 138.291008
_cell_angle_gamma 153.947718
_cell_volume 623.648378
_symmetry_space_group_name_H-M "P -1"
_symmetry_group_IT_number 2
_symmetry_cell_setting 'triclinic'
loop_
_space_group_symop_operation_xyz
x,y,z
-x,-y,-z
loop_
_atom_site_type_symbol
_atom_site_label
_atom_site_fract_x
_atom_site_fract_y
_atom_site_fract_z
Si Si1 0.756679 0.183079 0.019537
Si Si2 0.500000 0.500000 0.500000
Si Si3 0.074370 0.363004 0.591879
Si Si4 0.438394 0.772630 0.539854
Si Si5 0.120449 0.419555 0.975869
Si Si6 0.218180 0.116191 0.587642
Si Si7 0.444220 0.809309 0.879184
Si Si8 0.909253 0.046684 0.749593
O O1 0.879052 0.253850 0.298221
O O2 0.330893 0.765790 0.229243
O O3 0.945157 0.288181 0.030272
O O4 0.554164 0.970855 0.944242
O O5 0.296817 0.448424 0.225598
O O6 0.334066 0.296540 0.464945
O O7 0.295953 0.573967 0.604321
O O8 0.016485 0.349070 0.716547
O O9 0.096573 0.258473 0.766594
O O10 0.695069 0.928607 0.687288
O O11 0.402827 0.807493 0.616403
O O12 0.241519 0.610289 0.916011
O O13 0.374612 0.157168 0.900153
O O14 0.168793 0.013256 0.488424
O O15 0.000000 0.000000 0.500000
O O16 0.000000 0.000000 0.000000
#
# Coordination Sequence:
#
# PCOD9025652 Si02
#       8
#     2   1   2   2   2   2   2   2
#     4  12  24  46  72 100 146 187 232 290 346 415
#     4  10  22  40  70  92 136 182 228 280 342 410
#     4  11  26  46  70 109 140 184 234 289 346 423
#     4  11  27  45  69 105 138 184 236 287 352 415
#     4  10  24  44  68 103 141 186 236 287 347 410
#     4  11  22  39  65  95 128 176 223 275 343 410
#     4  10  22  43  67  99 134 186 234 283 344 413
#     4  12  26  45  70 100 140 178 231 294 349 413
#
# _framework density 24.052015000000001
#
# number of rings (size 3 to 8) (size 9 to 14) (size 15 to 20)
#    0.000    1.067    1.333    4.000    3.733    4.267 
#    2.400    0.000    0.000    0.000    0.000    0.000 
#    0.000    0.000    0.000    0.000    0.000    0.000 
#
# Total GULP energy -83771.462089 kJ/mol
# GULP energy per Si atom -5584.764139 kJ/mol
# Density = 2.399727 g / cm^3
# Si number density = 24.052015 Si / 1000 Ang^3
#
#
#
# Elastic Constant Matrix: (Units=GPa)
#
#
# Indices 1 2 3 4 5 6 
#
# 1 63.6018 47.5922 29.9566 -8.3191 -7.4777 -5.0776
# 2 47.5922 141.0536 31.4306 14.0541 -13.8308 -22.4608
# 3 29.9566 31.4306 111.9644 -13.3807 -13.8465 2.9488
# 4 -8.3191 14.0541 -13.3807 31.3697 -15.9513 -5.6377
# 5 -7.4777 -13.8308 -13.8465 -15.9513 39.1856 -4.0039
# 6 -5.0776 -22.4608 2.9488 -5.6377 -4.0039 35.8275
#
#
#
# Elastic Compliance Matrix: (Units=1/GPa)
#
#
# Indices 1 2 3 4 5 6 
#
# 1 0.025944 -0.008795 -0.002034 0.013635 0.006805 0.001237
# 2 -0.008795 0.012113 -0.002326 -0.008410 -0.001129 0.005089
# 3 -0.002034 -0.002326 0.012019 0.008870 0.006587 -0.000604
# 4 0.013635 -0.008410 0.008870 0.058448 0.027397 0.008189
# 5 0.006805 -0.001129 0.006587 0.027397 0.040777 0.008583
# 6 0.001237 0.005089 -0.000604 0.008189 0.008583 0.033575
#
#
# Mechanical properties :
#
#
# Convention : Reuss Voigt Hill
#
# Bulk Modulus (GPa) = 42.07596 59.39763 50.73679
# Shear Modulus (GPa) = 23.02994 35.11925 29.07460
#
# Velocity S-wave (km/s) = 3.09772 3.82532 3.48058
# Velocity P-wave (km/s) = 5.50692 6.65281 6.10680
#
# Compressibility (1/GPa) = 0.02376654
#
# Stress axis : x y z
#
# Youngs Moduli (GPa) = 38.54416 82.55627 83.20021
#
# Poissons Ratio (x) = 0.72607 0.16924
# Poissons Ratio (y) = 0.33899 0.19352
# Poissons Ratio (z) = 0.07840 0.19202
#
# Static dielectric constant tensor:
#      x y z
#    x 1.924350 -0.016790 0.032490 
#    y -0.016790 1.929040 -0.048240 
#    z 0.032490 -0.048240 1.998300 
# 
# From -- ./inp_files/349254.got.cif
#   From: 2010.05.17/outbox.cif.g08.bks.cpg/sg2_175_cif.got.tgz:349254.got - 2010.06.03 11:33:40.
