data_PCOD9025055
_publ_section_title
;
Structure prediction by ZEFSAII (Michael W. Deem and Ramdas Pophale) SiO2 
 PCOD9025055
Probable space group: P -1
;
_chemical_formula_sum "Si O2"
_cell_formula_units_Z 14
_cell_length_a 11.848711
_cell_length_b 13.112676
_cell_length_c 10.805240
_cell_angle_alpha 148.240678
_cell_angle_beta 42.677576
_cell_angle_gamma 126.825972
_cell_volume 597.434651
_symmetry_space_group_name_H-M "P -1"
_symmetry_group_IT_number 2
_symmetry_cell_setting 'triclinic'
loop_
_space_group_symop_operation_xyz
x,y,z
-x,-y,-z
loop_
_atom_site_type_symbol
_atom_site_label
_atom_site_fract_x
_atom_site_fract_y
_atom_site_fract_z
Si Si1 0.236295 0.311242 0.877548
Si Si2 0.312987 0.496372 0.593712
Si Si3 0.196719 0.117899 0.180497
Si Si4 0.055743 0.831003 0.185621
Si Si5 0.908715 0.348996 0.505570
Si Si6 0.375405 0.151006 0.827521
Si Si7 0.394357 0.593297 0.348919
O O1 0.226916 0.184668 0.880795
O O2 0.429452 0.315397 0.691805
O O3 0.116829 0.239937 0.797647
O O4 0.167826 0.526980 0.190498
O O5 0.500000 0.500000 0.500000
O O6 0.246822 0.282623 0.407918
O O7 0.323713 0.562061 0.509649
O O8 0.182661 0.645409 0.925267
O O9 0.041149 0.195651 0.300381
O O10 0.149118 0.935147 0.106820
O O11 0.339595 0.086828 0.929521
O O12 0.000000 0.000000 0.500000
O O13 0.750145 0.291373 0.495732
O O14 0.000000 0.500000 0.500000
O O15 0.500000 0.000000 0.500000
O O16 0.423080 0.375954 0.040300
#
# Coordination Sequence:
#
# PCOD9025055 Si02
#       7
#     2   2   2   2   2   2   2
#     4  11  23  42  67 103 147 189 235 294 364 445
#     4  11  26  50  77  99 144 204 250 305 374 429
#     4  11  25  46  78 106 148 195 240 306 370 444
#     4  12  30  49  71 110 145 199 264 303 357 438
#     4  11  17  43  73 105 144 180 237 290 378 445
#     4  10  22  40  67 115 145 178 235 298 375 435
#     4  10  23  42  74 106 143 195 232 294 376 454
#
# _framework density 23.433527000000002
#
# number of rings (size 3 to 8) (size 9 to 14) (size 15 to 20)
#    0.000    1.143    5.714    1.714    4.000    7.429 
#    2.571    0.000    0.000    0.000    0.000    0.000 
#    0.000    0.000    0.000    0.000    0.000    0.000 
#
# Total GULP energy -78293.836934 kJ/mol
# GULP energy per Si atom -5592.416924 kJ/mol
# Density = 2.338019 g / cm^3
# Si number density = 23.433527 Si / 1000 Ang^3
#
#
#
# Elastic Constant Matrix: (Units=GPa)
#
#
# Indices 1 2 3 4 5 6 
#
# 1 118.7618 7.3628 42.0933 14.3889 -1.9805 44.3359
# 2 7.3628 73.9777 5.1169 0.1406 -4.3033 22.8681
# 3 42.0933 5.1169 153.2668 5.9366 -2.7386 14.4555
# 4 14.3889 0.1406 5.9366 24.6743 -0.0254 1.3971
# 5 -1.9805 -4.3033 -2.7386 -0.0254 30.3017 -4.8421
# 6 44.3359 22.8681 14.4555 1.3971 -4.8421 44.1829
#
#
#
# Elastic Compliance Matrix: (Units=1/GPa)
#
#
# Indices 1 2 3 4 5 6 
#
# 1 0.016811 0.003992 -0.002770 -0.008146 -0.001457 -0.017932
# 2 0.003992 0.017081 -0.000405 -0.001614 0.000636 -0.012594
# 3 -0.002770 -0.000405 0.007250 -0.000165 0.000525 0.000679
# 4 -0.008146 -0.001614 -0.000165 0.044892 0.000491 0.007698
# 5 -0.001457 0.000636 0.000525 0.000491 0.033787 0.004648
# 6 -0.017932 -0.012594 0.000679 0.007698 0.004648 0.047189
#
#
# Mechanical properties :
#
#
# Convention : Reuss Voigt Hill
#
# Bulk Modulus (GPa) = 23.37644 50.57248 36.97446
# Shear Modulus (GPa) = 27.83423 39.26068 33.54745
#
# Velocity S-wave (km/s) = 3.45018 4.09761 3.78775
# Velocity P-wave (km/s) = 5.08615 6.63441 5.91119
#
# Compressibility (1/GPa) = 0.04277811
#
# Stress axis : x y z
#
# Youngs Moduli (GPa) = 59.48406 58.54351 137.92293
#
# Poissons Ratio (x) = -0.23372 0.38199
# Poissons Ratio (y) = -0.23747 0.05586
# Poissons Ratio (z) = 0.16475 0.02371
#
# Static dielectric constant tensor:
#      x y z
#    x 1.862240 0.008630 -0.007360 
#    y 0.008630 1.976260 -0.006450 
#    z -0.007360 -0.006450 1.955080 
# 
# From -- ./inp_files/433410.got.cif
#   From: 2010.05.17/outbox.cif.g08.bks.cpg/sg2_217_cif.got.tgz:433410.got - 2010.06.03 11:33:40.
