data_PCOD9025775
_publ_section_title
;
Structure prediction by ZEFSAII (Michael W. Deem and Ramdas Pophale) SiO2 
 PCOD9025775
Probable space group: P -1
;
_chemical_formula_sum "Si O2"
_cell_formula_units_Z 14
_cell_length_a 17.013576
_cell_length_b 9.240418
_cell_length_c 7.703316
_cell_angle_alpha 108.342952
_cell_angle_beta 59.270600
_cell_angle_gamma 149.066066
_cell_volume 513.771612
_symmetry_space_group_name_H-M "P -1"
_symmetry_group_IT_number 2
_symmetry_cell_setting 'triclinic'
loop_
_space_group_symop_operation_xyz
x,y,z
-x,-y,-z
loop_
_atom_site_type_symbol
_atom_site_label
_atom_site_fract_x
_atom_site_fract_y
_atom_site_fract_z
Si Si1 0.704593 0.771653 0.338269
Si Si2 0.228375 0.386519 0.263805
Si Si3 0.030212 0.720217 0.500863
Si Si4 0.338684 0.620932 0.863943
Si Si5 0.181531 0.700586 0.955900
Si Si6 0.317470 0.777151 0.496019
Si Si7 0.695669 0.818685 0.959945
O O1 0.500000 0.500000 0.500000
O O2 0.738939 0.638688 0.241021
O O3 0.796971 0.997807 0.471058
O O4 0.731765 0.868662 0.144469
O O5 0.320246 0.597109 0.402903
O O6 0.190744 0.155635 0.240663
O O7 0.063019 0.246982 0.334809
O O8 0.358408 0.596795 0.032259
O O9 0.000000 0.500000 0.500000
O O10 0.888875 0.502095 0.418012
O O11 0.203559 0.572311 0.983667
O O12 0.531069 0.939925 0.691652
O O13 0.322507 0.865160 0.707207
O O14 0.000000 0.500000 0.000000
O O15 0.244217 0.933669 0.087710
O O16 0.500000 0.500000 0.000000
#
# Coordination Sequence:
#
# PCOD9025775 Si02
#       7
#     2   2   2   2   2   2   2
#     4  11  25  44  72 102 135 185 233 287 347 411
#     4   9  24  41  77  95 137 178 237 277 349 398
#     4  10  22  40  71  97 141 175 234 279 344 406
#     4  11  23  43  72 104 137 184 238 284 346 415
#     4  12  28  42  71 102 147 186 230 284 354 410
#     4  10  23  45  68 101 139 185 228 288 345 405
#     4  11  25  47  66 101 138 179 226 287 345 409
#
# _framework density 27.249462000000001
#
# number of rings (size 3 to 8) (size 9 to 14) (size 15 to 20)
#    0.857    0.571    0.000    4.286    6.000    4.571 
#    0.000    1.429    0.000    0.000    0.000    0.000 
#    0.000    0.000    0.000    0.000    0.000    0.000 
#
# Total GULP energy -77956.604993 kJ/mol
# GULP energy per Si atom -5568.328928 kJ/mol
# Density = 2.718744 g / cm^3
# Si number density = 27.249462 Si / 1000 Ang^3
#
#
#
# Elastic Constant Matrix: (Units=GPa)
#
#
# Indices 1 2 3 4 5 6 
#
# 1 127.7090 80.3593 45.2934 18.8575 -21.8433 -5.1602
# 2 80.3593 197.5512 25.6252 22.1280 -20.1035 6.9953
# 3 45.2934 25.6252 59.6552 -13.6906 3.3405 -0.2783
# 4 18.8575 22.1280 -13.6906 41.2618 -18.5194 -17.6254
# 5 -21.8433 -20.1035 3.3405 -18.5194 35.9718 13.2554
# 6 -5.1602 6.9953 -0.2783 -17.6254 13.2554 64.7534
#
#
#
# Elastic Compliance Matrix: (Units=1/GPa)
#
#
# Indices 1 2 3 4 5 6 
#
# 1 0.017225 -0.003554 -0.013892 -0.008700 0.005983 -0.001896
# 2 -0.003554 0.007189 -0.001150 -0.002973 0.001218 -0.002123
# 3 -0.013892 -0.001150 0.032128 0.017558 -0.004837 0.004925
# 4 -0.008700 -0.002973 0.017558 0.044611 0.010845 0.009626
# 5 0.005983 0.001218 -0.004837 0.010845 0.039952 -0.004902
# 6 -0.001896 -0.002123 0.004925 0.009626 -0.004902 0.019166
#
#
# Mechanical properties :
#
#
# Convention : Reuss Voigt Hill
#
# Bulk Modulus (GPa) = 51.68015 76.38567 64.03291
# Shear Modulus (GPa) = 24.52022 43.97323 34.24673
#
# Velocity S-wave (km/s) = 3.00299 4.02148 3.54896
# Velocity P-wave (km/s) = 5.57052 7.04670 6.35164
#
# Compressibility (1/GPa) = 0.01934979
#
# Stress axis : x y z
#
# Youngs Moduli (GPa) = 58.05501 139.09979 31.12582
#
# Poissons Ratio (x) = 0.49440 0.43240
# Poissons Ratio (y) = 0.20635 0.03579
# Poissons Ratio (z) = 0.80649 0.15994
#
# Static dielectric constant tensor:
#      x y z
#    x 2.165540 -0.053030 0.097340 
#    y -0.053030 2.021820 -0.115000 
#    z 0.097340 -0.115000 3.738490 
# 
# From -- ./inp_files/329283.got.cif
#   From: 2010.05.17/outbox.cif.g08.bks.cpg/sg2_165_cif.got.tgz:329283.got - 2010.06.03 11:33:40.
