data_PCOD9025462
_publ_section_title
;
Structure prediction by ZEFSAII (Michael W. Deem and Ramdas Pophale) SiO2 
 PCOD9025462
Probable space group: P -1
;
_chemical_formula_sum "Si O2"
_cell_formula_units_Z 14
_cell_length_a 8.214016
_cell_length_b 14.056689
_cell_length_c 13.763558
_cell_angle_alpha 148.609121
_cell_angle_beta 124.599864
_cell_angle_gamma 75.206319
_cell_volume 575.637127
_symmetry_space_group_name_H-M "P -1"
_symmetry_group_IT_number 2
_symmetry_cell_setting 'triclinic'
loop_
_space_group_symop_operation_xyz
x,y,z
-x,-y,-z
loop_
_atom_site_type_symbol
_atom_site_label
_atom_site_fract_x
_atom_site_fract_y
_atom_site_fract_z
Si Si1 0.769588 0.471821 0.999505
Si Si2 0.711101 0.538505 0.675001
Si Si3 0.197713 0.865918 0.379213
Si Si4 0.319943 0.414803 0.718561
Si Si5 0.077736 0.020447 0.751590
Si Si6 0.127111 0.652060 0.766239
Si Si7 0.445398 0.923904 0.700002
O O1 0.731495 0.532055 0.144976
O O2 0.006864 0.668380 0.208429
O O3 0.759336 0.248825 0.795974
O O4 0.566185 0.439507 0.831155
O O5 0.500000 0.500000 0.500000
O O6 0.626560 0.320674 0.517828
O O7 0.932900 0.588671 0.727789
O O8 0.796861 0.745903 0.953202
O O9 0.413430 0.975711 0.622282
O O10 0.079462 0.986963 0.400211
O O11 0.312585 0.586215 0.799244
O O12 0.112865 0.172195 0.412381
O O13 0.266404 0.963395 0.734089
O O14 0.000000 0.500000 0.500000
O O15 0.289180 0.908379 0.029977
#
# Coordination Sequence:
#
# PCOD9025462 Si02
#       7
#     2   2   2   2   2   2   2
#     4  10  22  40  69 102 153 183 239 288 352 435
#     4  12  29  52  75 106 143 192 247 299 363 423
#     4  11  22  41  69 110 142 193 238 283 360 433
#     4  11  24  43  69 108 146 191 236 295 361 423
#     4  12  25  45  76 104 154 192 231 302 360 426
#     4  12  28  49  77 104 142 191 248 299 361 427
#     4  12  27  49  76 107 151 188 238 303 355 431
#
# _framework density 24.320876999999999
#
# number of rings (size 3 to 8) (size 9 to 14) (size 15 to 20)
#    0.000    0.571    2.857    4.714    8.000    3.429 
#    0.000    0.000    0.000    0.000    0.000    0.000 
#    0.000    0.000    0.000    0.000    0.000    0.000 
#
# Total GULP energy -78463.361596 kJ/mol
# GULP energy per Si atom -5604.525828 kJ/mol
# Density = 2.426552 g / cm^3
# Si number density = 24.320877 Si / 1000 Ang^3
#
#
#
# Elastic Constant Matrix: (Units=GPa)
#
#
# Indices 1 2 3 4 5 6 
#
# 1 48.4061 18.0956 38.2168 -4.8861 -1.9393 -4.5052
# 2 18.0956 74.8032 36.5894 2.6541 -2.7496 -17.8749
# 3 38.2168 36.5894 175.5093 15.1764 -10.0463 0.1450
# 4 -4.8861 2.6541 15.1764 37.1541 -3.8493 4.3939
# 5 -1.9393 -2.7496 -10.0463 -3.8493 38.5304 -3.0801
# 6 -4.5052 -17.8749 0.1450 4.3939 -3.0801 30.9581
#
#
#
# Elastic Compliance Matrix: (Units=1/GPa)
#
#
# Indices 1 2 3 4 5 6 
#
# 1 0.027259 -0.003804 -0.005652 0.006083 0.000312 0.000965
# 2 -0.003804 0.018210 -0.002763 -0.001787 0.001035 0.010330
# 3 -0.005652 -0.002763 0.007864 -0.003426 0.001078 -0.001861
# 4 0.006083 -0.001787 -0.003426 0.029938 0.001942 -0.004186
# 5 0.000312 0.001035 0.001078 0.001942 0.026760 0.003025
# 6 0.000965 0.010330 -0.001861 -0.004186 0.003025 0.039311
#
#
# Mechanical properties :
#
#
# Convention : Reuss Voigt Hill
#
# Bulk Modulus (GPa) = 34.60634 53.83580 44.22107
# Shear Modulus (GPa) = 27.26147 35.04965 31.15556
#
# Velocity S-wave (km/s) = 3.35163 3.80035 3.58302
# Velocity P-wave (km/s) = 5.40720 6.43743 5.94468
#
# Compressibility (1/GPa) = 0.02889644
#
# Stress axis : x y z
#
# Youngs Moduli (GPa) = 36.68564 54.91514 127.16491
#
# Poissons Ratio (x) = 0.20887 0.71868
# Poissons Ratio (y) = 0.13954 0.35134
# Poissons Ratio (z) = 0.20733 0.15172
#
# Static dielectric constant tensor:
#      x y z
#    x 1.923210 0.007540 0.003820 
#    y 0.007540 1.928430 -0.027770 
#    z 0.003820 -0.027770 1.990590 
# 
# From -- ./inp_files/314846.got.cif
#   From: 2010.05.17/outbox.cif.g08.bks.cpg/sg2_158_cif.got.tgz:314846.got - 2010.06.03 11:33:40.
