data_PCOD9025857
_publ_section_title
;
Structure prediction by ZEFSAII (Michael W. Deem and Ramdas Pophale) SiO2 
 PCOD9025857
Probable space group: P -1
;
_chemical_formula_sum "Si O2"
_cell_formula_units_Z 11
_cell_length_a 9.485949
_cell_length_b 12.613548
_cell_length_c 8.574225
_cell_angle_alpha 52.323960
_cell_angle_beta 51.628542
_cell_angle_gamma 40.477371
_cell_volume 502.270525
_symmetry_space_group_name_H-M "P -1"
_symmetry_group_IT_number 2
_symmetry_cell_setting 'triclinic'
loop_
_space_group_symop_operation_xyz
x,y,z
-x,-y,-z
loop_
_atom_site_type_symbol
_atom_site_label
_atom_site_fract_x
_atom_site_fract_y
_atom_site_fract_z
Si Si1 0.259095 0.548792 0.672068
Si Si2 0.500000 0.000000 0.000000
Si Si3 0.667428 0.528386 0.943697
Si Si4 0.819922 0.683536 0.259517
Si Si5 0.125317 0.060585 0.448187
Si Si6 0.481933 0.850606 0.622645
O O1 0.500000 0.500000 0.500000
O O2 0.219057 0.421903 0.738359
O O3 0.053969 0.737903 0.587325
O O4 0.276102 0.530830 0.863106
O O5 0.665868 0.982204 0.761280
O O6 0.275223 0.144098 0.920519
O O7 0.542705 0.729942 0.835362
O O8 0.915250 0.420649 0.790944
O O9 0.500000 0.500000 0.000000
O O10 0.668248 0.725647 0.477329
O O11 0.232746 0.948514 0.631855
O O12 0.000000 0.000000 0.500000
O O13 0.500000 0.000000 0.500000
#
# Coordination Sequence:
#
# PCOD9025857 Si02
#       6
#     2   1   2   2   2   2
#     4  12  25  45  74 104 139 194 247 290 354 439
#     4  10  22  40  72  98 132 182 242 288 346 404
#     4  12  25  44  69 107 145 184 234 299 368 427
#     4  11  24  44  72  97 142 187 243 286 356 440
#     4  11  23  45  70 102 143 185 242 292 351 439
#     4  11  26  45  70 102 145 182 233 305 373 413
#
# _framework density 21.900551
#
# number of rings (size 3 to 8) (size 9 to 14) (size 15 to 20)
#    0.000    0.727    1.818    6.545    5.091    1.455 
#    0.000    1.818    0.000    0.000    0.000    0.000 
#    0.000    0.000    0.000    0.000    0.000    0.000 
#
# Total GULP energy -61289.049894 kJ/mol
# GULP energy per Si atom -5571.731809 kJ/mol
# Density = 2.185070 g / cm^3
# Si number density = 21.900551 Si / 1000 Ang^3
#
#
#
# Elastic Constant Matrix: (Units=GPa)
#
#
# Indices 1 2 3 4 5 6 
#
# 1 116.0029 40.2914 -5.3067 1.6855 -18.0692 -19.2919
# 2 40.2914 92.6523 26.7388 -3.2207 4.5653 -34.7734
# 3 -5.3067 26.7388 42.6757 -5.4405 7.4958 -24.1984
# 4 1.6855 -3.2207 -5.4405 34.4743 -11.3703 9.8563
# 5 -18.0692 4.5653 7.4958 -11.3703 35.3760 -6.5220
# 6 -19.2919 -34.7734 -24.1984 9.8563 -6.5220 50.9921
#
#
#
# Elastic Compliance Matrix: (Units=1/GPa)
#
#
# Indices 1 2 3 4 5 6 
#
# 1 0.012993 -0.006223 0.007086 0.000879 0.007101 0.004773
# 2 -0.006223 0.018331 -0.008487 -0.002163 -0.003315 0.006113
# 3 0.007086 -0.008487 0.038210 0.000479 -0.000486 0.014872
# 4 0.000879 -0.002163 0.000479 0.034040 0.010432 -0.006161
# 5 0.007101 -0.003315 -0.000486 0.010432 0.036299 0.002822
# 6 0.004773 0.006113 0.014872 -0.006161 0.002822 0.034194
#
#
# Mechanical properties :
#
#
# Convention : Reuss Voigt Hill
#
# Bulk Modulus (GPa) = 18.42077 41.64200 30.03139
# Shear Modulus (GPa) = 24.10686 36.80898 30.45792
#
# Velocity S-wave (km/s) = 3.32134 4.10412 3.73331
# Velocity P-wave (km/s) = 4.81018 6.44312 5.68558
#
# Compressibility (1/GPa) = 0.05428654
#
# Stress axis : x y z
#
# Youngs Moduli (GPa) = 76.96306 54.55256 26.17112
#
# Poissons Ratio (x) = 0.33950 -0.18545
# Poissons Ratio (y) = 0.47897 0.22211
# Poissons Ratio (z) = -0.54538 0.46297
#
# Static dielectric constant tensor:
#      x y z
#    x 1.763610 0.000190 0.008200 
#    y 0.000190 1.839500 -0.031220 
#    z 0.008200 -0.031220 1.805710 
# 
# From -- ./inp_files/146644.got.cif
#   From: 2010.05.17/outbox.cif.g08.bks.cpg/sg2_74_cif.got.tgz:146644.got - 2010.06.03 11:33:40.
