data_PCOD9025943
_publ_section_title
;
Structure prediction by ZEFSAII (Michael W. Deem and Ramdas Pophale) SiO2 
 PCOD9025943
Probable space group: P -1
;
_chemical_formula_sum "Si O2"
_cell_formula_units_Z 16
_cell_length_a 19.377409
_cell_length_b 10.392822
_cell_length_c 7.935061
_cell_angle_alpha 74.812100
_cell_angle_beta 58.718790
_cell_angle_gamma 36.153048
_cell_volume 765.489877
_symmetry_space_group_name_H-M "P -1"
_symmetry_group_IT_number 2
_symmetry_cell_setting 'triclinic'
loop_
_space_group_symop_operation_xyz
x,y,z
-x,-y,-z
loop_
_atom_site_type_symbol
_atom_site_label
_atom_site_fract_x
_atom_site_fract_y
_atom_site_fract_z
Si Si1 0.158125 0.689347 0.730736
Si Si2 0.869941 0.041061 0.096410
Si Si3 0.766991 0.760054 0.660768
Si Si4 0.460895 0.783625 0.986490
Si Si5 0.382970 0.208372 0.445159
Si Si6 0.868093 0.085412 0.604453
Si Si7 0.972638 0.723054 0.379693
Si Si8 0.366588 0.663500 0.923421
O O1 0.159348 0.765787 0.880831
O O2 0.261010 0.433616 0.640128
O O3 0.198426 0.752658 0.528582
O O4 0.995817 0.866309 0.861804
O O5 0.936157 0.869436 0.223462
O O6 0.719843 0.187696 0.184793
O O7 0.683677 0.810925 0.590987
O O8 0.882512 0.711626 0.471121
O O9 0.864343 0.521758 0.715450
O O10 0.663529 0.968215 0.853303
O O11 0.555628 0.762114 0.771951
O O12 0.524605 0.603874 0.116677
O O13 0.420446 0.725141 0.920793
O O14 0.500000 0.000000 0.500000
O O15 0.754195 0.233556 0.839961
O O16 0.916747 0.873206 0.564898
O O17 0.000000 0.000000 0.500000
#
# Coordination Sequence:
#
# PCOD9025943 Si02
#       8
#     2   2   2   2   2   2   2   2
#     4  10  22  41  59 101 125 164 223 266 331 381
#     4  10  23  38  71  96 130 162 216 292 323 378
#     4  11  25  47  65  93 135 177 221 267 328 404
#     4  11  26  45  64  97 130 179 224 261 333 398
#     4  12  28  43  66  94 137 186 219 261 322 405
#     4  11  18  38  67  92 127 162 219 273 330 378
#     4  10  24  42  68  99 126 172 217 280 336 381
#     4  11  23  41  69  97 127 170 218 285 325 385
#
# _framework density 20.901647000000001
#
# number of rings (size 3 to 8) (size 9 to 14) (size 15 to 20)
#    0.000    1.250    3.750    1.125    5.250    0.000 
#    0.000    2.500    0.000    0.000    0.000    0.000 
#    0.000    0.000    0.000    0.000    0.000    0.000 
#
# Total GULP energy -89197.070783 kJ/mol
# GULP energy per Si atom -5574.816924 kJ/mol
# Density = 2.085407 g / cm^3
# Si number density = 20.901647 Si / 1000 Ang^3
#
#
#
# Elastic Constant Matrix: (Units=GPa)
#
#
# Indices 1 2 3 4 5 6 
#
# 1 117.7653 44.0925 2.7604 -2.2245 -8.1760 -6.2057
# 2 44.0925 117.4391 11.7195 23.9508 22.3407 -8.0521
# 3 2.7604 11.7195 41.0270 9.7648 3.8301 1.8801
# 4 -2.2245 23.9508 9.7648 36.1091 4.6166 0.5121
# 5 -8.1760 22.3407 3.8301 4.6166 21.5091 -2.7284
# 6 -6.2057 -8.0521 1.8801 0.5121 -2.7284 26.3376
#
#
#
# Elastic Compliance Matrix: (Units=1/GPa)
#
#
# Indices 1 2 3 4 5 6 
#
# 1 0.012405 -0.007665 -0.000936 0.004529 0.012101 0.001812
# 2 -0.007665 0.016904 -0.000491 -0.009251 -0.018183 0.001693
# 3 -0.000936 -0.000491 0.026550 -0.006427 -0.003511 -0.002505
# 4 0.004529 -0.009251 -0.006427 0.035265 0.004715 -0.001500
# 5 0.012101 -0.018183 -0.003511 0.004715 0.070191 0.004722
# 6 0.001812 0.001693 -0.002505 -0.001500 0.004722 0.039610
#
#
# Mechanical properties :
#
#
# Convention : Reuss Voigt Hill
#
# Bulk Modulus (GPa) = 26.54367 43.70848 35.12607
# Shear Modulus (GPa) = 21.58276 31.30175 26.44226
#
# Velocity S-wave (km/s) = 3.21687 3.87405 3.56065
# Velocity P-wave (km/s) = 5.15020 6.40062 5.80915
#
# Compressibility (1/GPa) = 0.03767377
#
# Stress axis : x y z
#
# Youngs Moduli (GPa) = 80.61563 59.15830 37.66520
#
# Poissons Ratio (x) = 0.45347 0.03524
# Poissons Ratio (y) = 0.61795 0.01850
# Poissons Ratio (z) = 0.07542 0.02906
#
# Static dielectric constant tensor:
#      x y z
#    x 1.859630 -0.076760 0.060970 
#    y -0.076760 1.817050 -0.053740 
#    z 0.060970 -0.053740 1.797140 
# 
# From -- ./inp_files/328847.got.cif
#   From: 2010.05.17/outbox.cif.g08.bks.cpg/sg2_165_cif.got.tgz:328847.got - 2010.06.03 11:33:40.
