data_PCOD9025931
_publ_section_title
;
Structure prediction by ZEFSAII (Michael W. Deem and Ramdas Pophale) SiO2 
 PCOD9025931
Probable space group: P -1
;
_chemical_formula_sum "Si O2"
_cell_formula_units_Z 14
_cell_length_a 8.028758
_cell_length_b 16.358132
_cell_length_c 8.711958
_cell_angle_alpha 120.583898
_cell_angle_beta 58.172630
_cell_angle_gamma 143.730420
_cell_volume 567.095461
_symmetry_space_group_name_H-M "P -1"
_symmetry_group_IT_number 2
_symmetry_cell_setting 'triclinic'
loop_
_space_group_symop_operation_xyz
x,y,z
-x,-y,-z
loop_
_atom_site_type_symbol
_atom_site_label
_atom_site_fract_x
_atom_site_fract_y
_atom_site_fract_z
Si Si1 0.032878 0.107384 0.990390
Si Si2 0.391372 0.852531 0.992152
Si Si3 0.206728 0.581165 0.832750
Si Si4 0.935972 0.356089 0.315116
Si Si5 0.752778 0.660170 0.653650
Si Si6 0.073922 0.865569 0.413739
Si Si7 0.367978 0.167259 0.602872
O O1 0.289873 0.188344 0.820623
O O2 0.107646 0.214565 0.176616
O O3 0.000000 0.000000 0.000000
O O4 0.721875 0.002746 0.952799
O O5 0.242440 0.860162 0.205039
O O6 0.401860 0.744198 0.924994
O O7 0.190957 0.770346 0.860094
O O8 0.041456 0.549789 0.726196
O O9 0.420515 0.569055 0.700532
O O10 0.000000 0.500000 0.000000
O O11 0.683928 0.281000 0.488446
O O12 0.210178 0.421845 0.342505
O O13 0.936229 0.747258 0.494817
O O14 0.823537 0.840612 0.433199
O O15 0.278738 0.024057 0.526085
#
# Coordination Sequence:
#
# PCOD9025931 Si02
#       7
#     2   2   2   2   2   2   2
#     4  12  21  36  59  95 129 164 201 239 309 368
#     4  10  22  41  57  93 126 165 200 249 309 360
#     4  10  23  47  65  85 121 160 209 266 310 350
#     4  10  23  40  62  94 117 167 204 250 306 363
#     4  12  23  39  65  95 124 160 207 249 306 376
#     4  11  21  35  60  90 130 169 195 243 308 368
#     4  11  21  36  58  88 138 166 191 248 303 370
#
# _framework density 24.687203
#
# number of rings (size 3 to 8) (size 9 to 14) (size 15 to 20)
#    0.857    0.286    4.286    3.429    2.000    3.429 
#    0.000    0.714    0.000    1.714    0.000    0.000 
#    0.000    0.000    0.000    0.000    0.000    0.000 
#
# Total GULP energy -78304.839729 kJ/mol
# GULP energy per Si atom -5593.202838 kJ/mol
# Density = 2.463101 g / cm^3
# Si number density = 24.687203 Si / 1000 Ang^3
#
#
#
# Elastic Constant Matrix: (Units=GPa)
#
#
# Indices 1 2 3 4 5 6 
#
# 1 172.5823 12.8827 31.7245 -27.5040 13.0729 -16.8801
# 2 12.8827 46.4775 26.4967 -2.3156 20.7578 -11.5049
# 3 31.7245 26.4967 146.7755 -26.1173 8.2732 -1.4943
# 4 -27.5040 -2.3156 -26.1173 55.8909 -7.9029 8.5223
# 5 13.0729 20.7578 8.2732 -7.9029 36.0942 -4.0690
# 6 -16.8801 -11.5049 -1.4943 8.5223 -4.0690 22.4180
#
#
#
# Elastic Compliance Matrix: (Units=1/GPa)
#
#
# Indices 1 2 3 4 5 6 
#
# 1 0.006813 0.000663 -0.001104 0.001965 -0.001676 0.004345
# 2 0.000663 0.038795 -0.007077 -0.007143 -0.020355 0.018957
# 3 -0.001104 -0.007077 0.008919 0.004506 0.002841 -0.005066
# 4 0.001965 -0.007143 0.004506 0.023010 0.006332 -0.009484
# 5 -0.001676 -0.020355 0.002841 0.006332 0.040002 -0.006665
# 6 0.004345 0.018957 -0.005066 -0.009484 -0.006665 0.059666
#
#
# Mechanical properties :
#
#
# Convention : Reuss Voigt Hill
#
# Bulk Modulus (GPa) = 25.32271 56.44924 40.88598
# Shear Modulus (GPa) = 24.34214 42.52938 33.43576
#
# Velocity S-wave (km/s) = 3.14351 4.15508 3.68418
# Velocity P-wave (km/s) = 4.84306 6.77754 5.89026
#
# Compressibility (1/GPa) = 0.03949024
#
# Stress axis : x y z
#
# Youngs Moduli (GPa) = 146.78173 25.77672 112.11524
#
# Poissons Ratio (x) = -0.01709 0.12377
# Poissons Ratio (y) = -0.09730 0.79347
# Poissons Ratio (z) = 0.16204 0.18243
#
# Static dielectric constant tensor:
#      x y z
#    x 2.066740 -0.029500 -0.016150 
#    y -0.029500 1.970430 0.073610 
#    z -0.016150 0.073610 1.908840 
# 
# From -- ./inp_files/215468.got.cif
#   From: 2010.05.17/outbox.cif.g08.bks.cpg/sg2_108_cif.got.tgz:215468.got - 2010.06.03 11:33:40.
