data_PCOD9025900
_publ_section_title
;
Structure prediction by ZEFSAII (Michael W. Deem and Ramdas Pophale) SiO2 
 PCOD9025900
Probable space group: P -1
;
_chemical_formula_sum "Si O2"
_cell_formula_units_Z 15
_cell_length_a 17.261412
_cell_length_b 7.982100
_cell_length_c 22.245425
_cell_angle_alpha 33.596770
_cell_angle_beta 22.079121
_cell_angle_gamma 43.681596
_cell_volume 619.803784
_symmetry_space_group_name_H-M "P -1"
_symmetry_group_IT_number 2
_symmetry_cell_setting 'triclinic'
loop_
_space_group_symop_operation_xyz
x,y,z
-x,-y,-z
loop_
_atom_site_type_symbol
_atom_site_label
_atom_site_fract_x
_atom_site_fract_y
_atom_site_fract_z
Si Si1 0.048074 0.326985 0.630601
Si Si2 0.875869 0.346889 0.193201
Si Si3 0.854083 0.482582 0.941388
Si Si4 0.451978 0.652486 0.165648
Si Si5 0.668022 0.574153 0.804392
Si Si6 0.579716 0.609396 0.476265
Si Si7 0.000000 0.000000 0.000000
Si Si8 0.139142 0.742506 0.555577
O O1 0.237751 0.534364 0.392315
O O2 0.052481 0.491350 0.642442
O O3 0.823466 0.339518 0.760005
O O4 0.078520 0.980616 0.721351
O O5 0.626953 0.300497 0.375317
O O6 0.971497 0.565546 0.117953
O O7 0.000000 0.500000 0.000000
O O8 0.830219 0.138723 0.036396
O O9 0.974010 0.723948 0.734409
O O10 0.649490 0.582014 0.081662
O O11 0.439439 0.439658 0.179048
O O12 0.500000 0.000000 0.000000
O O13 0.808891 0.916914 0.610696
O O14 0.500000 0.500000 0.000000
O O15 0.500000 0.500000 0.500000
O O16 0.651689 0.341480 0.542219
O O17 0.795533 0.869575 0.235629
#
# Coordination Sequence:
#
# PCOD9025900 Si02
#       8
#     2   2   2   2   2   2   1   2
#     4  12  27  46  68 106 141 182 238 302 364 420
#     4  12  28  44  71 105 153 189 237 300 367 429
#     4  11  24  44  69 100 137 185 237 283 355 426
#     4  12  25  44  73 101 142 178 233 300 369 421
#     4  12  26  46  73  98 137 186 238 291 358 436
#     4  11  24  46  73 103 145 189 248 287 359 432
#     4  10  22  40  74  96 134 182 244 282 342 418
#     4  11  25  44  73  98 136 184 241 289 349 432
#
# _framework density 24.201208000000001
#
# number of rings (size 3 to 8) (size 9 to 14) (size 15 to 20)
#    0.000    0.533    2.667    5.600    9.333    0.533 
#    0.000    0.000    0.000    0.000    0.000    0.000 
#    0.000    0.000    0.000    0.000    0.000    0.000 
#
# Total GULP energy -83774.500659 kJ/mol
# GULP energy per Si atom -5584.966711 kJ/mol
# Density = 2.414613 g / cm^3
# Si number density = 24.201208 Si / 1000 Ang^3
#
#
#
# Elastic Constant Matrix: (Units=GPa)
#
#
# Indices 1 2 3 4 5 6 
#
# 1 74.8620 -1.8212 17.4445 5.4809 5.1122 4.2647
# 2 -1.8212 120.5063 69.0545 9.8294 -0.2722 -34.9121
# 3 17.4445 69.0545 158.2904 21.7002 35.8722 -8.8560
# 4 5.4809 9.8294 21.7002 50.9337 2.5693 -5.9818
# 5 5.1122 -0.2722 35.8722 2.5693 46.5127 1.0683
# 6 4.2647 -34.9121 -8.8560 -5.9818 1.0683 44.5543
#
#
#
# Elastic Compliance Matrix: (Units=1/GPa)
#
#
# Indices 1 2 3 4 5 6 
#
# 1 0.013969 0.001140 -0.001969 -0.001002 0.000068 -0.000971
# 2 0.001140 0.015903 -0.007926 0.001162 0.005768 0.010794
# 3 -0.001969 -0.007926 0.012306 -0.003495 -0.009040 -0.003829
# 4 -0.001002 0.001162 -0.003495 0.021295 0.001564 0.003133
# 5 0.000068 0.005768 -0.009040 0.001564 0.028359 0.002247
# 6 -0.000971 0.010794 -0.003829 0.003133 0.002247 0.030602
#
#
# Mechanical properties :
#
#
# Convention : Reuss Voigt Hill
#
# Bulk Modulus (GPa) = 40.53997 58.11269 49.32633
# Shear Modulus (GPa) = 33.74603 46.33221 40.03912
#
# Velocity S-wave (km/s) = 3.73821 4.38020 4.07188
# Velocity P-wave (km/s) = 5.95146 7.04599 6.52173
#
# Compressibility (1/GPa) = 0.02466701
#
# Stress axis : x y z
#
# Youngs Moduli (GPa) = 71.58955 62.88160 81.26327
#
# Poissons Ratio (x) = -0.07168 0.16001
# Poissons Ratio (y) = -0.08160 0.64408
# Poissons Ratio (z) = 0.14096 0.49839
#
# Static dielectric constant tensor:
#      x y z
#    x 2.800200 -0.122010 -0.443500 
#    y -0.122010 3.490910 -0.334290 
#    z -0.443500 -0.334290 2.300000 
# 
# From -- ./inp_files/189736.got.cif
#   From: 2010.05.17/outbox.cif.g08.bks.cpg/sg2_95_cif.got.tgz:189736.got - 2010.06.03 11:33:40.
