data_PCOD9025221
_publ_section_title
;
Structure prediction by ZEFSAII (Michael W. Deem and Ramdas Pophale) SiO2 
 PCOD9025221
Probable space group: P -1
;
_chemical_formula_sum "Si O2"
_cell_formula_units_Z 16
_cell_length_a 28.539400
_cell_length_b 9.652390
_cell_length_c 9.090942
_cell_angle_alpha 64.856367
_cell_angle_beta 141.332457
_cell_angle_gamma 144.092794
_cell_volume 756.308046
_symmetry_space_group_name_H-M "P -1"
_symmetry_group_IT_number 2
_symmetry_cell_setting 'triclinic'
loop_
_space_group_symop_operation_xyz
x,y,z
-x,-y,-z
loop_
_atom_site_type_symbol
_atom_site_label
_atom_site_fract_x
_atom_site_fract_y
_atom_site_fract_z
Si Si1 0.217379 0.037275 0.390443
Si Si2 0.559725 0.402955 0.127279
Si Si3 0.255626 0.769033 0.694855
Si Si4 0.302757 0.678821 0.566197
Si Si5 0.970834 0.775400 0.074378
Si Si6 0.732616 0.840412 0.872814
Si Si7 0.010028 0.348932 0.519178
Si Si8 0.514857 0.724459 0.320933
O O1 0.353858 0.331576 0.680997
O O2 0.221194 0.107882 0.204102
O O3 0.211439 0.843777 0.460320
O O4 0.084583 0.867464 0.230630
O O5 0.659295 0.429688 0.324907
O O6 0.523086 0.406969 0.874570
O O7 0.416487 0.087914 0.988266
O O8 0.257788 0.634512 0.644126
O O9 0.146367 0.568166 0.650012
O O10 0.433700 0.015960 0.702426
O O11 0.181097 0.522372 0.229192
O O12 0.980984 0.757768 0.279199
O O13 0.000000 0.000000 0.000000
O O14 0.639597 0.836462 0.643516
O O15 0.622043 0.525141 0.802447
O O16 0.868590 0.084464 0.197590
O O17 0.000000 0.500000 0.500000
#
# Coordination Sequence:
#
# PCOD9025221 Si02
#       8
#     2   2   2   2   2   2   2   2
#     4  12  23  43  71 102 138 180 229 285 342 406
#     4  11  23  44  69 100 143 182 221 280 350 411
#     4  11  24  42  73 104 134 177 236 284 335 410
#     4  11  23  46  70  97 142 182 224 278 348 412
#     4  12  26  47  68  99 140 186 221 284 357 408
#     4  11  24  40  66 105 135 172 227 288 334 397
#     4  12  26  44  71 102 137 180 237 292 338 406
#     4  10  22  40  67  99 136 176 222 278 341 401
#
# _framework density 21.155401999999999
#
# number of rings (size 3 to 8) (size 9 to 14) (size 15 to 20)
#    0.000    0.750    5.000    4.125    0.000    3.000 
#    4.500    2.500    0.000    0.000    0.000    0.000 
#    0.000    0.000    0.000    0.000    0.000    0.000 
#
# Total GULP energy -89517.730089 kJ/mol
# GULP energy per Si atom -5594.858131 kJ/mol
# Density = 2.110725 g / cm^3
# Si number density = 21.155402 Si / 1000 Ang^3
#
#
#
# Elastic Constant Matrix: (Units=GPa)
#
#
# Indices 1 2 3 4 5 6 
#
# 1 115.6509 49.7790 42.4140 1.1275 2.8209 31.4567
# 2 49.7790 76.9537 23.0082 -8.2820 -11.5364 25.4545
# 3 42.4140 23.0082 141.3711 7.0687 -10.9592 22.1789
# 4 1.1275 -8.2820 7.0687 25.0718 1.6536 2.3505
# 5 2.8209 -11.5364 -10.9592 1.6536 39.3595 -0.0453
# 6 31.4567 25.4545 22.1789 2.3505 -0.0453 48.9580
#
#
#
# Elastic Compliance Matrix: (Units=1/GPa)
#
#
# Indices 1 2 3 4 5 6 
#
# 1 0.014138 -0.007960 -0.002580 -0.001929 -0.003988 -0.003688
# 2 -0.007960 0.022277 -0.000040 0.007923 0.006748 -0.006824
# 3 -0.002580 -0.000040 0.008495 -0.002273 0.002632 -0.002058
# 4 -0.001929 0.007923 -0.002273 0.043600 -0.000009 -0.003944
# 5 -0.003988 0.006748 0.002632 -0.000009 0.028401 -0.002112
# 6 -0.003688 -0.006824 -0.002058 -0.003944 -0.002112 0.027463
#
#
# Mechanical properties :
#
#
# Convention : Reuss Voigt Hill
#
# Bulk Modulus (GPa) = 42.10514 62.70867 52.40690
# Shear Modulus (GPa) = 28.82645 37.26282 33.04464
#
# Velocity S-wave (km/s) = 3.69535 4.20144 3.95650
# Velocity P-wave (km/s) = 6.17685 7.29674 6.76003
#
# Compressibility (1/GPa) = 0.02375007
#
# Stress axis : x y z
#
# Youngs Moduli (GPa) = 70.72998 44.88884 117.71926
#
# Poissons Ratio (x) = 0.35730 0.30377
# Poissons Ratio (y) = 0.56299 0.00471
# Poissons Ratio (z) = 0.18252 0.00179
#
# Static dielectric constant tensor:
#      x y z
#    x 1.747470 0.000720 0.022790 
#    y 0.000720 1.757160 0.013420 
#    z 0.022790 0.013420 1.780960 
# 
# From -- ./inp_files/297793.got.cif
#   From: 2010.05.17/outbox.cif.g08.bks.cpg/sg2_149_cif.got.tgz:297793.got - 2010.06.03 11:33:40.
