data_PCOD9025829
_publ_section_title
;
Structure prediction by ZEFSAII (Michael W. Deem and Ramdas Pophale) SiO2 
 PCOD9025829
Probable space group: P -1
;
_chemical_formula_sum "Si O2"
_cell_formula_units_Z 13
_cell_length_a 6.720448
_cell_length_b 11.975830
_cell_length_c 9.749607
_cell_angle_alpha 56.395939
_cell_angle_beta 64.267551
_cell_angle_gamma 91.510324
_cell_volume 550.297552
_symmetry_space_group_name_H-M "P -1"
_symmetry_group_IT_number 2
_symmetry_cell_setting 'triclinic'
loop_
_space_group_symop_operation_xyz
x,y,z
-x,-y,-z
loop_
_atom_site_type_symbol
_atom_site_label
_atom_site_fract_x
_atom_site_fract_y
_atom_site_fract_z
Si Si1 0.177073 0.653256 0.076782
Si Si2 0.817693 0.772802 0.456429
Si Si3 0.000000 0.500000 0.000000
Si Si4 0.293281 0.000288 0.161964
Si Si5 0.801470 0.783583 0.157533
Si Si6 0.472371 0.118895 0.328804
Si Si7 0.477832 0.450606 0.793040
O O1 0.020360 0.502945 0.160822
O O2 0.394899 0.639484 0.099394
O O3 0.033031 0.739497 0.133091
O O4 0.279957 0.744930 0.844562
O O5 0.752291 0.829823 0.291355
O O6 0.717669 0.827754 0.580018
O O7 0.680234 0.603911 0.605195
O O8 0.098189 0.842305 0.339543
O O9 0.749422 0.537925 0.067619
O O10 0.393325 0.059418 0.240966
O O11 0.500000 0.000000 0.000000
O O12 0.175370 0.101064 0.047468
O O13 0.606679 0.638428 0.260133
O O14 0.500000 0.000000 0.500000
#
# Coordination Sequence:
#
# PCOD9025829 Si02
#       7
#     2   2   1   2   2   2   2
#     4  11  23  44  73 102 150 194 237 294 374 434
#     4  12  26  44  73 112 144 185 253 306 348 440
#     4  10  22  40  72 106 142 192 230 302 364 430
#     4  12  26  50  75 103 148 202 240 300 375 435
#     4  11  25  48  74 104 150 198 238 298 375 435
#     4  12  25  45  72 108 144 187 250 305 355 437
#     4  11  24  46  75 107 149 190 246 296 372 426
#
# _framework density 23.623583
#
# number of rings (size 3 to 8) (size 9 to 14) (size 15 to 20)
#    0.000    0.615    3.077    4.615    0.000    1.846 
#    5.538    0.000    0.000    0.000    0.000    0.000 
#    0.000    0.000    0.000    0.000    0.000    0.000 
#
# Total GULP energy -72438.378182 kJ/mol
# GULP energy per Si atom -5572.182937 kJ/mol
# Density = 2.356981 g / cm^3
# Si number density = 23.623583 Si / 1000 Ang^3
#
#
#
# Elastic Constant Matrix: (Units=GPa)
#
#
# Indices 1 2 3 4 5 6 
#
# 1 118.8940 42.4705 30.1602 0.0511 -0.1688 -15.4560
# 2 42.4705 106.7851 39.0780 20.6865 -0.2356 16.0819
# 3 30.1602 39.0780 90.6660 3.5113 1.4831 1.1653
# 4 0.0511 20.6865 3.5113 51.5128 4.7545 5.3056
# 5 -0.1688 -0.2356 1.4831 4.7545 46.2961 4.9419
# 6 -15.4560 16.0819 1.1653 5.3056 4.9419 22.7555
#
#
#
# Elastic Compliance Matrix: (Units=1/GPa)
#
#
# Indices 1 2 3 4 5 6 
#
# 1 0.013152 -0.007101 -0.001532 0.001649 -0.001602 0.013993
# 2 -0.007101 0.017384 -0.004761 -0.005211 0.002478 -0.016188
# 3 -0.001532 -0.004761 0.013548 0.000894 -0.000724 0.001579
# 4 0.001649 -0.005211 0.000894 0.021632 -0.002293 0.000212
# 5 -0.001602 0.002478 -0.000724 -0.002293 0.022632 -0.007183
# 6 0.013993 -0.016188 0.001579 0.000212 -0.007183 0.066320
#
#
# Mechanical properties :
#
#
# Convention : Reuss Voigt Hill
#
# Bulk Modulus (GPa) = 57.81638 59.97359 58.89499
# Shear Modulus (GPa) = 26.70624 37.75533 32.23078
#
# Velocity S-wave (km/s) = 3.36592 4.00209 3.69771
# Velocity P-wave (km/s) = 6.29548 6.84090 6.57385
#
# Compressibility (1/GPa) = 0.01729614
#
# Stress axis : x y z
#
# Youngs Moduli (GPa) = 76.03392 57.52467 73.81028
#
# Poissons Ratio (x) = 0.40846 0.11309
# Poissons Ratio (y) = 0.53988 0.35143
# Poissons Ratio (z) = 0.11649 0.27389
#
# Static dielectric constant tensor:
#      x y z
#    x 1.867850 -0.030030 0.035520 
#    y -0.030030 1.912200 0.005990 
#    z 0.035520 0.005990 1.908370 
# 
# From -- ./inp_files/25897.got.cif
#   From: 2010.05.17/outbox.cif.g08.bks.cpg/sg2_13_cif.got.tgz:25897.got - 2010.06.03 11:33:40.
