data_PCOD9025286
_publ_section_title
;
Structure prediction by ZEFSAII (Michael W. Deem and Ramdas Pophale) SiO2 
 PCOD9025286
Probable space group: P -1
;
_chemical_formula_sum "Si O2"
_cell_formula_units_Z 16
_cell_length_a 9.644918
_cell_length_b 11.726250
_cell_length_c 16.929157
_cell_angle_alpha 41.895152
_cell_angle_beta 102.837022
_cell_angle_gamma 134.716091
_cell_volume 701.490582
_symmetry_space_group_name_H-M "P -1"
_symmetry_group_IT_number 2
_symmetry_cell_setting 'triclinic'
loop_
_space_group_symop_operation_xyz
x,y,z
-x,-y,-z
loop_
_atom_site_type_symbol
_atom_site_label
_atom_site_fract_x
_atom_site_fract_y
_atom_site_fract_z
Si Si1 0.552188 0.348366 0.454419
Si Si2 0.999869 0.338039 0.288377
Si Si3 0.636674 0.180175 0.679827
Si Si4 0.968960 0.604064 0.273072
Si Si5 0.465859 0.602069 0.238765
Si Si6 0.381459 0.309701 0.958830
Si Si7 0.312295 0.558539 0.927712
Si Si8 0.777540 0.196944 0.040514
O O1 0.664800 0.381384 0.531460
O O2 0.564983 0.563232 0.333988
O O3 0.704290 0.409572 0.371314
O O4 0.261087 0.006036 0.590105
O O5 0.953444 0.460968 0.271372
O O6 0.183658 0.387666 0.329470
O O7 0.151856 0.554941 0.119128
O O8 0.890532 0.364104 0.656557
O O9 0.509336 0.905094 0.752103
O O10 0.426334 0.991036 0.819268
O O11 0.149078 0.947234 0.106634
O O12 0.487741 0.542864 0.185312
O O13 0.640955 0.942055 0.090538
O O14 0.291276 0.399095 0.937892
O O15 0.568677 0.414899 0.994041
O O16 0.040384 0.370095 0.008093
#
# Coordination Sequence:
#
# PCOD9025286 Si02
#       8
#     2   2   2   2   2   2   2   2
#     4  12  28  42  67 100 145 183 223 274 349 405
#     4  12  24  46  69 105 133 179 232 281 341 403
#     4  11  24  45  69 101 137 180 234 275 338 408
#     4  11  23  46  71  98 136 182 229 283 334 410
#     4  12  26  45  69 104 139 181 221 291 337 402
#     4  10  23  42  70 103 139 170 234 288 336 396
#     4  10  22  40  68 107 130 175 225 289 338 389
#     4  12  23  43  77  97 131 183 235 282 331 403
#
# _framework density 22.808575000000001
#
# number of rings (size 3 to 8) (size 9 to 14) (size 15 to 20)
#    0.000    0.750    3.750    4.125    3.500    2.500 
#    0.000    1.250    0.000    0.000    0.000    0.000 
#    0.000    0.000    0.000    0.000    0.000    0.000 
#
# Total GULP energy -89615.974946 kJ/mol
# GULP energy per Si atom -5600.998434 kJ/mol
# Density = 2.275666 g / cm^3
# Si number density = 22.808575 Si / 1000 Ang^3
#
#
#
# Elastic Constant Matrix: (Units=GPa)
#
#
# Indices 1 2 3 4 5 6 
#
# 1 94.0487 -4.5626 22.1671 14.1816 4.2374 6.8627
# 2 -4.5626 34.2972 -0.2997 -6.4613 -1.1331 -5.5448
# 3 22.1671 -0.2997 48.5888 3.2851 -1.7872 3.3192
# 4 14.1816 -6.4613 3.2851 23.0144 -2.2307 -2.0198
# 5 4.2374 -1.1331 -1.7872 -2.2307 19.7519 3.4747
# 6 6.8627 -5.5448 3.3192 -2.0198 3.4747 41.9674
#
#
#
# Elastic Compliance Matrix: (Units=1/GPa)
#
#
# Indices 1 2 3 4 5 6 
#
# 1 0.013488 -0.000216 -0.005627 -0.008120 -0.004007 -0.001848
# 2 -0.000216 0.031768 -0.000599 0.009743 0.002110 0.004574
# 3 -0.005627 -0.000599 0.023349 0.000196 0.003534 -0.001289
# 4 -0.008120 0.009743 0.000196 0.052277 0.007431 0.004500
# 5 -0.004007 0.002110 0.003534 0.007431 0.053367 -0.003406
# 6 -0.001848 0.004574 -0.001289 0.004500 -0.003406 0.025335
#
#
# Mechanical properties :
#
#
# Convention : Reuss Voigt Hill
#
# Bulk Modulus (GPa) = 17.94648 23.50491 20.72570
# Shear Modulus (GPa) = 21.64109 27.58875 24.61492
#
# Velocity S-wave (km/s) = 3.08362 3.48167 3.28868
# Velocity P-wave (km/s) = 4.53472 5.14688 4.85047
#
# Compressibility (1/GPa) = 0.05572123
#
# Stress axis : x y z
#
# Youngs Moduli (GPa) = 74.13795 31.47852 42.82806
#
# Poissons Ratio (x) = 0.00679 0.24100
# Poissons Ratio (y) = 0.01598 0.02567
# Poissons Ratio (z) = 0.41718 0.01886
#
# Static dielectric constant tensor:
#      x y z
#    x 1.845280 -0.003410 0.014380 
#    y -0.003410 1.858110 0.027760 
#    z 0.014380 0.027760 1.825370 
# 
# From -- ./inp_files/186043.got.cif
#   From: 2010.05.17/outbox.cif.g08.bks.cpg/sg2_94_cif.got.tgz:186043.got - 2010.06.03 11:33:40.
