data_PCOD9025962
_publ_section_title
;
Structure prediction by ZEFSAII (Michael W. Deem and Ramdas Pophale) SiO2 
 PCOD9025962
Probable space group: P -1
;
_chemical_formula_sum "Si O2"
_cell_formula_units_Z 14
_cell_length_a 11.083803
_cell_length_b 15.449280
_cell_length_c 15.804323
_cell_angle_alpha 26.073365
_cell_angle_beta 52.572143
_cell_angle_gamma 35.635631
_cell_volume 608.924955
_symmetry_space_group_name_H-M "P -1"
_symmetry_group_IT_number 2
_symmetry_cell_setting 'triclinic'
loop_
_space_group_symop_operation_xyz
x,y,z
-x,-y,-z
loop_
_atom_site_type_symbol
_atom_site_label
_atom_site_fract_x
_atom_site_fract_y
_atom_site_fract_z
Si Si1 0.233929 0.757104 0.413025
Si Si2 0.110773 0.956645 0.850923
Si Si3 0.035325 0.320801 0.357256
Si Si4 0.043095 0.620885 0.945543
Si Si5 0.247929 0.764703 0.653057
Si Si6 0.718431 0.479448 0.687395
Si Si7 0.661559 0.909852 0.430574
O O1 0.500000 0.500000 0.500000
O O2 0.196749 0.583107 0.628202
O O3 0.048079 0.947185 0.246690
O O4 0.164898 0.016548 0.268892
O O5 0.326595 0.877950 0.794135
O O6 0.931788 0.251751 0.730512
O O7 0.204415 0.690621 0.105392
O O8 0.081856 0.349324 0.406406
O O9 0.067114 0.472697 0.149938
O O10 0.214443 0.973317 0.552630
O O11 0.254219 0.549983 0.886193
O O12 0.000000 0.500000 0.000000
O O13 0.490909 0.578651 0.667511
O O14 0.000000 0.000000 0.500000
O O15 0.644088 0.775699 0.479436
O O16 0.500000 0.000000 0.500000
#
# Coordination Sequence:
#
# PCOD9025962 Si02
#       7
#     2   2   2   2   2   2   2
#     4  10  24  43  68  92 138 181 218 276 339 404
#     4  10  25  44  64 101 133 177 219 270 340 401
#     4  10  22  41  60 100 131 169 225 274 334 393
#     4  11  23  39  64  96 131 169 229 276 327 399
#     4  11  23  39  64  97 131 171 220 276 333 387
#     4  11  24  43  70  95 136 174 221 277 331 403
#     4  11  22  41  67  95 131 173 222 271 326 398
#
# _framework density 22.991339
#
# number of rings (size 3 to 8) (size 9 to 14) (size 15 to 20)
#    0.000    1.429    2.857    1.286    6.000    1.143 
#    0.000    5.714    0.000    0.000    0.000    0.000 
#    0.000    0.000    0.000    0.000    0.000    0.000 
#
# Total GULP energy -78097.067878 kJ/mol
# GULP energy per Si atom -5578.361991 kJ/mol
# Density = 2.293901 g / cm^3
# Si number density = 22.991339 Si / 1000 Ang^3
#
#
#
# Elastic Constant Matrix: (Units=GPa)
#
#
# Indices 1 2 3 4 5 6 
#
# 1 98.2151 24.9517 41.7875 -4.0599 -7.8544 -10.8227
# 2 24.9517 87.1732 16.2425 10.3869 -15.8966 -10.7711
# 3 41.7875 16.2425 88.9020 28.2720 -7.1632 -4.7852
# 4 -4.0599 10.3869 28.2720 38.5303 0.4477 -1.9045
# 5 -7.8544 -15.8966 -7.1632 0.4477 46.2220 5.3405
# 6 -10.8227 -10.7711 -4.7852 -1.9045 5.3405 34.2527
#
#
#
# Elastic Compliance Matrix: (Units=1/GPa)
#
#
# Indices 1 2 3 4 5 6 
#
# 1 0.016102 -0.003663 -0.010014 0.010196 -0.000543 0.003188
# 2 -0.003663 0.013942 0.001219 -0.004964 0.004123 0.002478
# 3 -0.010014 0.001219 0.021294 -0.017090 0.002312 -0.001117
# 4 0.010196 -0.004964 -0.017090 0.041046 -0.003259 0.002063
# 5 -0.000543 0.004123 0.002312 -0.003259 0.023630 -0.002417
# 6 0.003188 0.002478 -0.001117 0.002063 -0.002417 0.031317
#
#
# Mechanical properties :
#
#
# Convention : Reuss Voigt Hill
#
# Bulk Modulus (GPa) = 37.84728 48.91708 43.38218
# Shear Modulus (GPa) = 27.61579 36.55492 32.08535
#
# Velocity S-wave (km/s) = 3.46950 3.99173 3.73975
# Velocity P-wave (km/s) = 5.70502 6.52440 6.12842
#
# Compressibility (1/GPa) = 0.02642198
#
# Stress axis : x y z
#
# Youngs Moduli (GPa) = 62.10235 71.72362 46.96192
#
# Poissons Ratio (x) = 0.26272 0.47028
# Poissons Ratio (y) = 0.22748 -0.05724
# Poissons Ratio (z) = 0.62190 -0.08742
#
# Static dielectric constant tensor:
#      x y z
#    x 1.913840 -0.008380 0.055320 
#    y -0.008380 1.895590 0.040550 
#    z 0.055320 0.040550 1.920570 
# 
# From -- ./inp_files/355050.got.cif
#   From: 2010.05.17/outbox.cif.g08.bks.cpg/sg2_178_cif.got.tgz:355050.got - 2010.06.03 11:33:40.
