data_PCOD9025648
_publ_section_title
;
Structure prediction by ZEFSAII (Michael W. Deem and Ramdas Pophale) SiO2 
 PCOD9025648
Probable space group: P -1
;
_chemical_formula_sum "Si O2"
_cell_formula_units_Z 16
_cell_length_a 9.279424
_cell_length_b 14.580361
_cell_length_c 8.894498
_cell_angle_alpha 36.790540
_cell_angle_beta 99.357875
_cell_angle_gamma 109.044819
_cell_volume 670.820643
_symmetry_space_group_name_H-M "P -1"
_symmetry_group_IT_number 2
_symmetry_cell_setting 'triclinic'
loop_
_space_group_symop_operation_xyz
x,y,z
-x,-y,-z
loop_
_atom_site_type_symbol
_atom_site_label
_atom_site_fract_x
_atom_site_fract_y
_atom_site_fract_z
Si Si1 0.855783 0.480866 0.614130
Si Si2 0.663428 0.856633 0.326176
Si Si3 0.146071 0.145553 0.892621
Si Si4 0.574342 0.430503 0.469305
Si Si5 0.151018 0.649836 0.876690
Si Si6 0.761149 0.742145 0.918579
Si Si7 0.039138 0.141202 0.444103
Si Si8 0.507156 0.148184 0.414836
O O1 0.854883 0.669661 0.389678
O O2 0.700294 0.366016 0.654120
O O3 0.000000 0.500000 0.500000
O O4 0.846850 0.391276 0.890336
O O5 0.708702 0.892080 0.111330
O O6 0.553781 0.672686 0.529508
O O7 0.830933 0.875998 0.399295
O O8 0.558918 0.918621 0.341405
O O9 0.154196 0.143210 0.078127
O O10 0.000000 0.000000 0.000000
O O11 0.500000 0.500000 0.500000
O O12 0.682083 0.576579 0.202892
O O13 0.327757 0.705625 0.767086
O O14 0.105163 0.806078 0.609022
O O15 0.000000 0.500000 0.000000
O O16 0.867078 0.713800 0.843228
O O17 0.629757 0.794314 0.748770
O O18 0.000000 0.000000 0.500000
O O19 0.500000 0.000000 0.500000
#
# Coordination Sequence:
#
# PCOD9025648 Si02
#       8
#     2   2   2   2   2   2   2   2
#     4  11  25  43  68 103 141 175 223 301 349 394
#     4  11  24  43  74  98 129 187 235 273 339 422
#     4  11  23  44  72 101 134 181 237 277 347 432
#     4  11  21  42  69  97 136 171 232 280 330 413
#     4  12  26  41  68 105 140 177 232 295 352 403
#     4  10  22  40  70  91 129 181 222 280 335 411
#     4  11  24  44  69  95 137 182 230 276 344 423
#     4  11  27  45  66  99 145 181 230 292 357 410
#
# _framework density 23.851381
#
# number of rings (size 3 to 8) (size 9 to 14) (size 15 to 20)
#    0.000    1.000    2.500    5.250    5.250    3.000 
#    0.000    0.625    0.000    0.000    0.000    0.000 
#    0.000    0.000    0.000    0.000    0.000    0.000 
#
# Total GULP energy -89097.703584 kJ/mol
# GULP energy per Si atom -5568.606474 kJ/mol
# Density = 2.379709 g / cm^3
# Si number density = 23.851381 Si / 1000 Ang^3
#
#
#
# Elastic Constant Matrix: (Units=GPa)
#
#
# Indices 1 2 3 4 5 6 
#
# 1 130.7209 38.5630 6.5199 7.7277 -11.6118 -4.9085
# 2 38.5630 95.4168 -9.2496 -12.5971 -2.9482 9.1117
# 3 6.5199 -9.2496 36.6042 2.7783 -5.2699 -4.7261
# 4 7.7277 -12.5971 2.7783 37.1743 -7.6472 -14.4215
# 5 -11.6118 -2.9482 -5.2699 -7.6472 40.2277 11.5250
# 6 -4.9085 9.1117 -4.7261 -14.4215 11.5250 52.5420
#
#
#
# Elastic Compliance Matrix: (Units=1/GPa)
#
#
# Indices 1 2 3 4 5 6 
#
# 1 0.009361 -0.004367 -0.002305 -0.002827 0.001448 0.000331
# 2 -0.004367 0.013454 0.003849 0.004968 0.001568 -0.001375
# 3 -0.002305 0.003849 0.029273 0.000744 0.003236 0.001245
# 4 -0.002827 0.004968 0.000744 0.032643 0.003828 0.007061
# 5 0.001448 0.001568 0.003236 0.003828 0.027954 -0.004927
# 6 0.000331 -0.001375 0.001245 0.007061 -0.004927 0.022433
#
#
# Mechanical properties :
#
#
# Convention : Reuss Voigt Hill
#
# Bulk Modulus (GPa) = 21.53270 37.15649 29.34459
# Shear Modulus (GPa) = 32.00103 41.11605 36.55854
#
# Velocity S-wave (km/s) = 3.66688 4.15642 3.91930
# Velocity P-wave (km/s) = 5.19379 6.21664 5.72809
#
# Compressibility (1/GPa) = 0.04644100
#
# Stress axis : x y z
#
# Youngs Moduli (GPa) = 106.82259 74.32687 34.16169
#
# Poissons Ratio (x) = 0.32459 0.07875
# Poissons Ratio (y) = 0.46649 -0.13148
# Poissons Ratio (z) = 0.24624 -0.28606
#
# Static dielectric constant tensor:
#      x y z
#    x 1.991990 0.041930 -0.158060 
#    y 0.041930 2.147740 0.041290 
#    z -0.158060 0.041290 1.992050 
# 
# From -- ./inp_files/205338.got.cif
#   From: 2010.05.17/outbox.cif.g08.bks.cpg/sg2_103_cif.got.tgz:205338.got - 2010.06.03 11:33:40.
