data_PCOD9025394
_publ_section_title
;
Structure prediction by ZEFSAII (Michael W. Deem and Ramdas Pophale) SiO2 
 PCOD9025394
Probable space group: P -1
;
_chemical_formula_sum "Si O2"
_cell_formula_units_Z 16
_cell_length_a 8.697396
_cell_length_b 12.272215
_cell_length_c 11.881349
_cell_angle_alpha 93.655804
_cell_angle_beta 129.413809
_cell_angle_gamma 55.123336
_cell_volume 708.526237
_symmetry_space_group_name_H-M "P -1"
_symmetry_group_IT_number 2
_symmetry_cell_setting 'triclinic'
loop_
_space_group_symop_operation_xyz
x,y,z
-x,-y,-z
loop_
_atom_site_type_symbol
_atom_site_label
_atom_site_fract_x
_atom_site_fract_y
_atom_site_fract_z
Si Si1 0.170647 0.612361 0.350790
Si Si2 0.180912 0.995410 0.317433
Si Si3 0.329007 0.687675 0.785456
Si Si4 0.943382 0.490415 0.104592
Si Si5 0.839739 0.214207 0.827590
Si Si6 0.759735 0.843312 0.803908
Si Si7 0.206331 0.523467 0.596016
Si Si8 0.687055 0.136627 0.393145
O O1 0.500000 0.500000 0.500000
O O2 0.068367 0.749117 0.235142
O O3 0.092291 0.637596 0.445762
O O4 0.067552 0.539836 0.240548
O O5 0.332568 0.033942 0.322786
O O6 0.909953 0.155155 0.253267
O O7 0.115635 0.927371 0.192230
O O8 0.332794 0.875415 0.482775
O O9 0.237754 0.597685 0.716915
O O10 0.384097 0.722626 0.689960
O O11 0.619045 0.593783 0.975425
O O12 0.093012 0.319952 0.187150
O O13 0.000000 0.500000 0.000000
O O14 0.516810 0.361981 0.708222
O O15 0.020743 0.185093 0.013833
O O16 0.499623 0.888224 0.748130
O O17 0.000000 0.500000 0.500000
O O18 0.000000 0.000000 0.500000
#
# Coordination Sequence:
#
# PCOD9025394 Si02
#       8
#     2   2   2   2   2   2   2   2
#     4  10  22  40  68  98 130 174 226 273 329 400
#     4  11  27  42  69  98 140 177 220 275 341 404
#     4  11  23  47  67 102 133 179 231 275 332 407
#     4  12  21  41  76 100 128 179 230 284 330 392
#     4  11  23  46  66  98 132 183 222 271 337 409
#     4  12  24  42  72  97 137 176 227 275 341 397
#     4  11  25  41  67 101 139 170 223 290 334 386
#     4  10  23  43  66  97 132 178 222 274 327 408
#
# _framework density 22.582083999999998
#
# number of rings (size 3 to 8) (size 9 to 14) (size 15 to 20)
#    0.000    1.000    3.750    2.250    5.250    3.500 
#    0.000    8.125    0.000    0.000    0.000    0.000 
#    0.000    0.000    0.000    0.000    0.000    0.000 
#
# Total GULP energy -89431.470016 kJ/mol
# GULP energy per Si atom -5589.466876 kJ/mol
# Density = 2.253069 g / cm^3
# Si number density = 22.582084 Si / 1000 Ang^3
#
#
#
# Elastic Constant Matrix: (Units=GPa)
#
#
# Indices 1 2 3 4 5 6 
#
# 1 80.3095 33.9009 35.4036 6.8253 8.2572 26.3017
# 2 33.9009 132.1954 36.7366 23.9595 23.8830 21.8958
# 3 35.4036 36.7366 118.6000 18.4967 28.3826 12.1970
# 4 6.8253 23.9595 18.4967 33.3441 13.2240 7.9314
# 5 8.2572 23.8830 28.3826 13.2240 41.9661 -2.5994
# 6 26.3017 21.8958 12.1970 7.9314 -2.5994 42.0471
#
#
#
# Elastic Compliance Matrix: (Units=1/GPa)
#
#
# Indices 1 2 3 4 5 6 
#
# 1 0.018170 -0.002288 -0.003894 0.002827 -0.001128 -0.009648
# 2 -0.002288 0.010327 -0.000587 -0.004335 -0.003863 -0.003198
# 3 -0.003894 -0.000587 0.011686 -0.002785 -0.005956 -0.000492
# 4 0.002827 -0.004335 -0.002785 0.039213 -0.008975 -0.006655
# 5 -0.001128 -0.003863 -0.005956 -0.008975 0.033614 0.008216
# 6 -0.009648 -0.003198 -0.000492 -0.006655 0.008216 0.033389
#
#
# Mechanical properties :
#
#
# Convention : Reuss Voigt Hill
#
# Bulk Modulus (GPa) = 37.52957 60.35411 48.94184
# Shear Modulus (GPa) = 29.61753 38.47574 34.04663
#
# Velocity S-wave (km/s) = 3.62546 4.13221 3.88710
# Velocity P-wave (km/s) = 5.84641 7.03928 6.47039
#
# Compressibility (1/GPa) = 0.02664566
#
# Stress axis : x y z
#
# Youngs Moduli (GPa) = 55.03703 96.82954 85.57142
#
# Poissons Ratio (x) = 0.22155 0.33321
# Poissons Ratio (y) = 0.12593 0.05020
# Poissons Ratio (z) = 0.21431 0.05681
#
# Static dielectric constant tensor:
#      x y z
#    x 1.922820 0.017140 -0.033630 
#    y 0.017140 1.803930 0.011620 
#    z -0.033630 0.011620 1.835640 
# 
# From -- ./inp_files/392644.got.cif
#   From: 2010.05.17/outbox.cif.g08.bks.cpg/sg2_197_cif.got.tgz:392644.got - 2010.06.03 11:33:40.
