data_PCOD9025535
_publ_section_title
;
Structure prediction by ZEFSAII (Michael W. Deem and Ramdas Pophale) SiO2 
 PCOD9025535
Probable space group: P -1
;
_chemical_formula_sum "Si O2"
_cell_formula_units_Z 12
_cell_length_a 5.058475
_cell_length_b 14.201599
_cell_length_c 9.111394
_cell_angle_alpha 102.168797
_cell_angle_beta 105.234847
_cell_angle_gamma 53.666196
_cell_volume 507.479638
_symmetry_space_group_name_H-M "P -1"
_symmetry_group_IT_number 2
_symmetry_cell_setting 'triclinic'
loop_
_space_group_symop_operation_xyz
x,y,z
-x,-y,-z
loop_
_atom_site_type_symbol
_atom_site_label
_atom_site_fract_x
_atom_site_fract_y
_atom_site_fract_z
Si Si1 0.309638 0.219363 0.126282
Si Si2 0.658948 0.053370 0.380743
Si Si3 0.242441 0.554089 0.700148
Si Si4 0.044641 0.585049 0.336979
Si Si5 0.385157 0.154040 0.673451
Si Si6 0.863716 0.128230 0.957057
O O1 0.580977 0.138086 0.263509
O O2 0.376691 0.488239 0.266708
O O3 0.015539 0.337710 0.199777
O O4 0.135823 0.156506 0.022536
O O5 0.389462 0.131658 0.493193
O O6 0.623910 0.950024 0.293950
O O7 0.000000 0.000000 0.500000
O O8 0.222683 0.447006 0.713825
O O9 0.127379 0.581380 0.521385
O O10 0.909996 0.712594 0.298541
O O11 0.468726 0.778277 0.967693
O O12 0.720254 0.136341 0.777237
O O13 0.000000 0.000000 0.000000
#
# Coordination Sequence:
#
# PCOD9025535 Si02
#       6
#     2   2   2   2   2   2
#     4  12  25  46  68  99 137 181 222 270 339 407
#     4  11  25  40  71  98 135 168 227 288 329 393
#     4  10  22  42  66  97 128 177 220 275 333 381
#     4  10  22  40  69  95 131 169 227 279 322 389
#     4  11  25  43  64 106 130 175 224 281 333 391
#     4  12  26  44  68  98 144 181 214 268 345 411
#
# _framework density 23.646270999999999
#
# number of rings (size 3 to 8) (size 9 to 14) (size 15 to 20)
#    0.000    1.000    3.333    2.500    7.000    1.333 
#    0.000    5.000    0.000    0.000    0.000    0.000 
#    0.000    0.000    0.000    0.000    0.000    0.000 
#
# Total GULP energy -67139.019551 kJ/mol
# GULP energy per Si atom -5594.918296 kJ/mol
# Density = 2.359245 g / cm^3
# Si number density = 23.646271 Si / 1000 Ang^3
#
#
#
# Elastic Constant Matrix: (Units=GPa)
#
#
# Indices 1 2 3 4 5 6 
#
# 1 101.5694 0.7575 24.0782 10.1579 -3.9791 -18.8776
# 2 0.7575 83.7662 20.6264 3.8016 -4.6661 -23.4760
# 3 24.0782 20.6264 76.2958 11.6823 -0.2048 -6.2431
# 4 10.1579 3.8016 11.6823 21.5960 -1.4250 -1.9327
# 5 -3.9791 -4.6661 -0.2048 -1.4250 44.6545 10.5758
# 6 -18.8776 -23.4760 -6.2431 -1.9327 10.5758 30.5436
#
#
#
# Elastic Compliance Matrix: (Units=1/GPa)
#
#
# Indices 1 2 3 4 5 6 
#
# 1 0.012948 0.003786 -0.003672 -0.003919 -0.001024 0.010269
# 2 0.003786 0.017195 -0.004435 -0.001156 -0.001498 0.015095
# 3 -0.003672 -0.004435 0.016247 -0.006539 -0.000292 -0.002670
# 4 -0.003919 -0.001156 -0.006539 0.051823 0.001610 -0.001926
# 5 -0.001024 -0.001498 -0.000292 0.001610 0.024629 -0.010270
# 6 0.010269 0.015095 -0.002670 -0.001926 -0.010270 0.053577
#
#
# Mechanical properties :
#
#
# Convention : Reuss Voigt Hill
#
# Bulk Modulus (GPa) = 26.49222 39.17284 32.83253
# Shear Modulus (GPa) = 25.29786 33.77011 29.53399
#
# Velocity S-wave (km/s) = 3.27440 3.78317 3.53794
# Velocity P-wave (km/s) = 5.05207 5.97372 5.53212
#
# Compressibility (1/GPa) = 0.03774694
#
# Stress axis : x y z
#
# Youngs Moduli (GPa) = 77.23155 58.15479 61.55050
#
# Poissons Ratio (x) = -0.22016 0.22603
# Poissons Ratio (y) = -0.29238 0.27299
# Poissons Ratio (z) = 0.28361 0.25793
#
# Static dielectric constant tensor:
#      x y z
#    x 1.927050 -0.035490 -0.046890 
#    y -0.035490 1.879750 0.004320 
#    z -0.046890 0.004320 1.888880 
# 
# From -- ./inp_files/364900.got.cif
#   From: 2010.05.17/outbox.cif.g08.bks.cpg/sg2_183_cif.got.tgz:364900.got - 2010.06.03 11:33:40.
