data_PCOD9025179
_publ_section_title
;
Structure prediction by ZEFSAII (Michael W. Deem and Ramdas Pophale) SiO2 
 PCOD9025179
Probable space group: P -1
;
_chemical_formula_sum "Si O2"
_cell_formula_units_Z 14
_cell_length_a 11.942515
_cell_length_b 8.919562
_cell_length_c 8.483802
_cell_angle_alpha 108.148544
_cell_angle_beta 116.235540
_cell_angle_gamma 102.825010
_cell_volume 698.352397
_symmetry_space_group_name_H-M "P -1"
_symmetry_group_IT_number 2
_symmetry_cell_setting 'triclinic'
loop_
_space_group_symop_operation_xyz
x,y,z
-x,-y,-z
loop_
_atom_site_type_symbol
_atom_site_label
_atom_site_fract_x
_atom_site_fract_y
_atom_site_fract_z
Si Si1 0.108493 0.112696 0.234434
Si Si2 0.681753 0.448628 0.172347
Si Si3 0.976501 0.670680 0.493863
Si Si4 0.782248 0.047061 0.470712
Si Si5 0.588589 0.706759 0.614741
Si Si6 0.444030 0.290551 0.752527
Si Si7 0.429371 0.853510 0.773542
O O1 0.249039 0.238486 0.275356
O O2 0.055022 0.231125 0.345094
O O3 0.149895 0.992119 0.342496
O O4 0.000000 0.000000 0.000000
O O5 0.591186 0.543597 0.216191
O O6 0.680334 0.312877 0.257247
O O7 0.834299 0.587650 0.279142
O O8 0.590553 0.338717 0.935809
O O9 0.097930 0.818702 0.519601
O O10 0.000000 0.500000 0.500000
O O11 0.658732 0.110010 0.407724
O O12 0.686629 0.852146 0.283137
O O13 0.500000 0.500000 0.500000
O O14 0.556880 0.767402 0.445150
O O15 0.544554 0.803086 0.754031
O O16 0.500000 0.000000 0.000000
#
# Coordination Sequence:
#
# PCOD9025179 Si02
#       7
#     2   2   2   2   2   2   2
#     4  11  27  46  66  97 137 181 222 267 342 394
#     4  11  21  41  65  99 130 172 226 266 332 399
#     4  12  24  43  70  97 136 176 223 277 325 403
#     4  11  24  43  67  98 136 175 222 273 332 401
#     4  11  23  44  69  94 136 173 222 281 324 396
#     4  10  22  40  67  97 129 176 223 271 332 391
#     4  12  24  41  70 103 133 170 225 279 342 390
#
# _framework density 20.047184999999999
#
# number of rings (size 3 to 8) (size 9 to 14) (size 15 to 20)
#    0.000    0.857    7.143    0.429    2.000    3.429 
#    2.571    0.714    0.000    0.000    0.000    0.000 
#    0.000    0.000    0.000    0.000    0.000    0.000 
#
# Total GULP energy -77994.069312 kJ/mol
# GULP energy per Si atom -5571.004951 kJ/mol
# Density = 2.000156 g / cm^3
# Si number density = 20.047185 Si / 1000 Ang^3
#
#
#
# Elastic Constant Matrix: (Units=GPa)
#
#
# Indices 1 2 3 4 5 6 
#
# 1 119.4642 51.8582 61.9170 15.5077 7.6363 16.4384
# 2 51.8582 120.0133 44.4607 8.2805 9.5452 4.1407
# 3 61.9170 44.4607 143.5074 10.4715 21.1074 7.8483
# 4 15.5077 8.2805 10.4715 26.7685 -4.0332 15.2311
# 5 7.6363 9.5452 21.1074 -4.0332 31.5324 6.2358
# 6 16.4384 4.1407 7.8483 15.2311 6.2358 34.1212
#
#
#
# Elastic Compliance Matrix: (Units=1/GPa)
#
#
# Indices 1 2 3 4 5 6 
#
# 1 0.013000 -0.003871 -0.004236 -0.002113 0.001406 -0.004132
# 2 -0.003871 0.010731 -0.001302 -0.002153 -0.002153 0.002217
# 3 -0.004236 -0.001302 0.010267 -0.003628 -0.006437 0.002633
# 4 -0.002113 -0.002153 -0.003628 0.058503 0.016415 -0.027001
# 5 0.001406 -0.002153 -0.006437 0.016415 0.041159 -0.013785
# 6 -0.004132 0.002217 0.002633 -0.027001 -0.013785 0.044995
#
#
# Mechanical properties :
#
#
# Convention : Reuss Voigt Hill
#
# Bulk Modulus (GPa) = 65.87961 77.71739 71.79850
# Shear Modulus (GPa) = 24.68730 33.46769 29.07750
#
# Velocity S-wave (km/s) = 3.51302 4.09032 3.81261
# Velocity P-wave (km/s) = 7.02771 7.82042 7.43464
#
# Compressibility (1/GPa) = 0.01517920
#
# Stress axis : x y z
#
# Youngs Moduli (GPa) = 76.92429 93.18952 97.40227
#
# Poissons Ratio (x) = 0.36077 0.41260
# Poissons Ratio (y) = 0.29781 0.12678
# Poissons Ratio (z) = 0.32585 0.12130
#
# Static dielectric constant tensor:
#      x y z
#    x 1.745870 -0.030550 0.012740 
#    y -0.030550 1.821780 -0.010440 
#    z 0.012740 -0.010440 1.731220 
# 
# From -- ./inp_files/202127.got.cif
#   From: 2010.05.17/outbox.cif.g08.bks.cpg/sg2_102_cif.got.tgz:202127.got - 2010.06.03 11:33:40.
