data_PCOD9025466
_publ_section_title
;
Structure prediction by ZEFSAII (Michael W. Deem and Ramdas Pophale) SiO2 
 PCOD9025466
Probable space group: P -1
;
_chemical_formula_sum "Si O2"
_cell_formula_units_Z 14
_cell_length_a 22.157058
_cell_length_b 22.233633
_cell_length_c 12.664461
_cell_angle_alpha 160.938206
_cell_angle_beta 151.924595
_cell_angle_gamma 18.224137
_cell_volume 629.902128
_symmetry_space_group_name_H-M "P -1"
_symmetry_group_IT_number 2
_symmetry_cell_setting 'triclinic'
loop_
_space_group_symop_operation_xyz
x,y,z
-x,-y,-z
loop_
_atom_site_type_symbol
_atom_site_label
_atom_site_fract_x
_atom_site_fract_y
_atom_site_fract_z
Si Si1 0.193943 0.856392 0.833569
Si Si2 0.731734 0.270489 0.797026
Si Si3 0.365205 0.044666 0.953201
Si Si4 0.494996 0.788348 0.132939
Si Si5 0.778870 0.166956 0.927272
Si Si6 0.346608 0.379408 0.131953
Si Si7 0.048285 0.411877 0.803821
O O1 0.302500 0.611328 0.511802
O O2 0.270036 0.974260 0.114987
O O3 0.283675 0.721395 0.864815
O O4 0.965336 0.060366 0.810752
O O5 0.695271 0.097850 0.415364
O O6 0.676975 0.352014 0.971821
O O7 0.624576 0.533631 0.994121
O O8 0.484154 0.902409 0.008296
O O9 0.500000 0.000000 0.000000
O O10 0.170418 0.372924 0.218692
O O11 0.500000 0.000000 0.500000
O O12 0.584344 0.651326 0.928907
O O13 0.813244 0.912680 0.537625
O O14 0.000000 0.000000 0.000000
O O15 0.154819 0.462458 0.992186
O O16 0.000000 0.500000 0.000000
#
# Coordination Sequence:
#
# PCOD9025466 Si02
#       7
#     2   2   2   2   2   2   2
#     4  11  24  46  72  99 141 180 232 287 346 412
#     4  11  24  45  71 100 138 188 226 280 361 399
#     4  12  24  39  73 107 136 179 226 280 352 411
#     4  12  29  48  69 100 139 185 240 288 334 418
#     4  10  22  40  69 103 137 178 220 287 348 405
#     4  12  25  45  69 102 137 184 232 283 343 412
#     4  12  21  42  69 102 142 173 228 287 345 415
#
# _framework density 22.225674999999999
#
# number of rings (size 3 to 8) (size 9 to 14) (size 15 to 20)
#    0.000    0.571    5.714    2.143    0.000    5.143 
#    0.000    0.000    0.000    0.000    0.000    0.000 
#    0.000    0.000    0.000    0.000    0.000    0.000 
#
# Total GULP energy -78238.425385 kJ/mol
# GULP energy per Si atom -5588.458956 kJ/mol
# Density = 2.217509 g / cm^3
# Si number density = 22.225675 Si / 1000 Ang^3
#
#
#
# Elastic Constant Matrix: (Units=GPa)
#
#
# Indices 1 2 3 4 5 6 
#
# 1 185.4697 71.2528 45.8109 -13.3392 -4.4195 11.1510
# 2 71.2528 123.6373 13.3059 2.3668 6.2234 6.3979
# 3 45.8109 13.3059 90.2451 -8.0383 5.6410 13.5762
# 4 -13.3392 2.3668 -8.0383 30.5075 -3.6971 10.4834
# 5 -4.4195 6.2234 5.6410 -3.6971 46.0527 -5.2534
# 6 11.1510 6.3979 13.5762 10.4834 -5.2534 39.7171
#
#
#
# Elastic Compliance Matrix: (Units=1/GPa)
#
#
# Indices 1 2 3 4 5 6 
#
# 1 0.008320 -0.004563 -0.003138 0.003844 0.001962 -0.001283
# 2 -0.004563 0.010828 0.000638 -0.002862 -0.002234 -0.000221
# 3 -0.003138 0.000638 0.013854 0.003748 -0.002384 -0.005262
# 4 0.003844 -0.002862 0.003748 0.040122 0.002125 -0.012209
# 5 0.001962 -0.002234 -0.002384 0.002125 0.023022 0.003108
# 6 -0.001283 -0.000221 -0.005262 -0.012209 0.003108 0.031006
#
#
# Mechanical properties :
#
#
# Convention : Reuss Voigt Hill
#
# Bulk Modulus (GPa) = 52.97703 73.34349 63.16026
# Shear Modulus (GPa) = 33.88206 41.18763 37.53485
#
# Velocity S-wave (km/s) = 3.90866 4.30950 4.11397
# Velocity P-wave (km/s) = 6.65266 7.60483 7.14463
#
# Compressibility (1/GPa) = 0.01887611
#
# Stress axis : x y z
#
# Youngs Moduli (GPa) = 120.18923 92.35313 72.18001
#
# Poissons Ratio (x) = 0.42142 0.22650
# Poissons Ratio (y) = 0.54845 -0.04605
# Poissons Ratio (z) = 0.37714 -0.05891
#
# Static dielectric constant tensor:
#      x y z
#    x 1.846140 -0.035280 0.035020 
#    y -0.035280 1.904190 -0.024020 
#    z 0.035020 -0.024020 1.973320 
# 
# From -- ./inp_files/457613.got.cif
#   From: 2010.05.17/outbox.cif.g08.bks.cpg/sg2_229_cif.got.tgz:457613.got - 2010.06.03 11:33:40.
