data_PCOD9025517
_publ_section_title
;
Structure prediction by ZEFSAII (Michael W. Deem and Ramdas Pophale) SiO2 
 PCOD9025517
Probable space group: P -1
;
_chemical_formula_sum "Si O2"
_cell_formula_units_Z 16
_cell_length_a 10.032829
_cell_length_b 5.957728
_cell_length_c 16.985292
_cell_angle_alpha 117.292012
_cell_angle_beta 100.264647
_cell_angle_gamma 62.426526
_cell_volume 799.016118
_symmetry_space_group_name_H-M "P -1"
_symmetry_group_IT_number 2
_symmetry_cell_setting 'triclinic'
loop_
_space_group_symop_operation_xyz
x,y,z
-x,-y,-z
loop_
_atom_site_type_symbol
_atom_site_label
_atom_site_fract_x
_atom_site_fract_y
_atom_site_fract_z
Si Si1 0.695466 0.137305 0.231644
Si Si2 0.607818 0.657418 0.531780
Si Si3 0.467262 0.141728 0.933633
Si Si4 0.579631 0.730838 0.356825
Si Si5 0.758473 0.213431 0.958020
Si Si6 0.046725 0.661848 0.457413
Si Si7 0.070214 0.868167 0.875020
Si Si8 0.129700 0.324570 0.712981
O O1 0.567235 0.446139 0.289535
O O2 0.819015 0.120660 0.178243
O O3 0.607577 0.976462 0.157951
O O4 0.802579 0.984965 0.292298
O O5 0.500000 0.500000 0.500000
O O6 0.617747 0.719064 0.450747
O O7 0.774418 0.467965 0.545773
O O8 0.544652 0.954352 0.618299
O O9 0.628337 0.112604 0.915309
O O10 0.342529 0.456376 0.988610
O O11 0.500000 0.000000 0.000000
O O12 0.721752 0.685035 0.312635
O O13 0.847911 0.110274 0.033050
O O14 0.897055 0.101314 0.893342
O O15 0.000000 0.500000 0.500000
O O16 0.985172 0.602605 0.359090
O O17 0.000000 0.000000 0.500000
O O18 0.072480 0.562443 0.812845
#
# Coordination Sequence:
#
# PCOD9025517 Si02
#       8
#     2   2   2   2   2   2   2   2
#     4  11  22  40  68  94 128 176 222 276 334 400
#     4  11  23  44  69 100 128 178 220 278 342 411
#     4  11  22  40  63  94 126 169 216 266 335 399
#     4  10  22  40  69  93 132 168 221 266 343 402
#     4  10  22  41  64  93 129 169 219 273 333 405
#     4  12  26  46  72 100 138 181 231 285 345 422
#     4  10  22  41  65  92 128 170 221 278 331 402
#     4  11  23  44  66  95 131 180 223 281 342 402
#
# _framework density 20.024626999999999
#
# number of rings (size 3 to 8) (size 9 to 14) (size 15 to 20)
#    0.000    1.250    3.750    2.250    3.500    1.500 
#    6.750    0.000    0.000    0.000    0.000    0.000 
#    0.000    0.000    0.000    0.000    0.000    0.000 
#
# Total GULP energy -89094.963891 kJ/mol
# GULP energy per Si atom -5568.435243 kJ/mol
# Density = 1.997905 g / cm^3
# Si number density = 20.024627 Si / 1000 Ang^3
#
#
#
# Elastic Constant Matrix: (Units=GPa)
#
#
# Indices 1 2 3 4 5 6 
#
# 1 96.3954 64.2273 39.4894 21.9504 0.1013 -31.6547
# 2 64.2273 103.9979 29.3736 11.3555 11.1611 -25.1379
# 3 39.4894 29.3736 70.0013 16.7995 -0.2200 -9.9387
# 4 21.9504 11.3555 16.7995 37.9346 -0.5582 -6.3723
# 5 0.1013 11.1611 -0.2200 -0.5582 19.1768 1.7367
# 6 -31.6547 -25.1379 -9.9387 -6.3723 1.7367 35.4214
#
#
#
# Elastic Compliance Matrix: (Units=1/GPa)
#
#
# Indices 1 2 3 4 5 6 
#
# 1 0.025895 -0.011002 -0.006675 -0.006642 0.004907 0.012025
# 2 -0.011002 0.018821 -0.001632 0.001957 -0.011217 0.003969
# 3 -0.006675 -0.001632 0.019504 -0.004697 0.001304 -0.002560
# 4 -0.006642 0.001957 -0.004697 0.031670 -0.000222 -0.000157
# 5 0.004907 -0.011217 0.001304 -0.000222 0.059214 -0.006152
# 6 0.012025 0.003969 -0.002560 -0.000157 -0.006152 0.041350
#
#
# Mechanical properties :
#
#
# Convention : Reuss Voigt Hill
#
# Bulk Modulus (GPa) = 39.06008 59.61948 49.33978
# Shear Modulus (GPa) = 20.52510 27.66015 24.09262
#
# Velocity S-wave (km/s) = 3.20502 3.72063 3.47241
# Velocity P-wave (km/s) = 5.76581 6.94947 6.38513
#
# Compressibility (1/GPa) = 0.02560159
#
# Stress axis : x y z
#
# Youngs Moduli (GPa) = 38.61762 53.13325 51.27235
#
# Poissons Ratio (x) = 0.58456 0.34222
# Poissons Ratio (y) = 0.42486 0.08370
# Poissons Ratio (z) = 0.25776 0.08674
#
# Static dielectric constant tensor:
#      x y z
#    x 1.743580 0.045420 0.025680 
#    y 0.045420 1.878040 0.009730 
#    z 0.025680 0.009730 1.745030 
# 
# From -- ./inp_files/43400.got.cif
#   From: 2010.05.17/outbox.cif.g08.bks.cpg/sg2_22_cif.got.tgz:43400.got - 2010.06.03 11:33:40.
