data_PCOD9025512
_publ_section_title
;
Structure prediction by ZEFSAII (Michael W. Deem and Ramdas Pophale) SiO2 
 PCOD9025512
Probable space group: P -1
;
_chemical_formula_sum "Si O2"
_cell_formula_units_Z 16
_cell_length_a 15.860742
_cell_length_b 9.569900
_cell_length_c 12.091347
_cell_angle_alpha 115.219840
_cell_angle_beta 47.884092
_cell_angle_gamma 142.136288
_cell_volume 813.794448
_symmetry_space_group_name_H-M "P -1"
_symmetry_group_IT_number 2
_symmetry_cell_setting 'triclinic'
loop_
_space_group_symop_operation_xyz
x,y,z
-x,-y,-z
loop_
_atom_site_type_symbol
_atom_site_label
_atom_site_fract_x
_atom_site_fract_y
_atom_site_fract_z
Si Si1 0.945354 0.883587 0.330766
Si Si2 0.947310 0.624023 0.070906
Si Si3 0.441960 0.555774 0.910141
Si Si4 0.245065 0.076841 0.855950
Si Si5 0.483902 0.792571 0.173790
Si Si6 0.452522 0.793056 0.775984
Si Si7 0.758070 0.642446 0.641353
Si Si8 0.651805 0.778141 0.438099
O O1 0.997758 0.786702 0.183139
O O2 0.838101 0.717526 0.475393
O O3 0.824033 0.871890 0.362095
O O4 0.104234 0.142067 0.325082
O O5 0.742244 0.424326 0.170383
O O6 0.000000 0.500000 0.000000
O O7 0.054277 0.811864 0.940194
O O8 0.271171 0.277959 0.947255
O O9 0.457457 0.704272 0.855560
O O10 0.595863 0.592379 0.764926
O O11 0.464912 0.651772 0.042883
O O12 0.357437 0.086668 0.844431
O O13 0.321923 0.156518 0.691757
O O14 0.314180 0.592448 0.329458
O O15 0.507252 0.986279 0.172077
O O16 0.589395 0.859283 0.592755
O O17 0.500000 0.500000 0.500000
#
# Coordination Sequence:
#
# PCOD9025512 Si02
#       8
#     2   2   2   2   2   2   2   2
#     4  11  22  42  69  91 132 169 217 272 316 382
#     4  12  25  41  61 100 134 165 212 272 325 378
#     4  11  21  42  66  92 127 171 222 262 317 387
#     4  11  23  41  70  94 126 175 221 263 321 383
#     4  11  23  40  62  97 131 169 217 264 327 386
#     4  12  25  41  68  94 137 172 209 270 334 374
#     4  10  22  40  69  93 122 175 224 260 315 387
#     4  12  22  44  66  98 130 167 220 266 315 394
#
# _framework density 19.660983999999999
#
# number of rings (size 3 to 8) (size 9 to 14) (size 15 to 20)
#    0.000    0.750    5.000    4.125    0.000    4.500 
#    0.000    0.625    0.000    0.000    0.000    0.000 
#    0.000    0.000    0.000    0.000    0.000    0.000 
#
# Total GULP energy -89427.263260 kJ/mol
# GULP energy per Si atom -5589.203954 kJ/mol
# Density = 1.961623 g / cm^3
# Si number density = 19.660984 Si / 1000 Ang^3
#
#
#
# Elastic Constant Matrix: (Units=GPa)
#
#
# Indices 1 2 3 4 5 6 
#
# 1 101.1156 28.7153 27.5581 2.1457 8.9970 -12.2222
# 2 28.7153 85.7842 30.6800 -16.9741 4.3001 -24.9474
# 3 27.5581 30.6800 82.4345 1.6607 9.0521 -6.8097
# 4 2.1457 -16.9741 1.6607 27.0321 -2.5083 5.4130
# 5 8.9970 4.3001 9.0521 -2.5083 28.8090 -1.4611
# 6 -12.2222 -24.9474 -6.8097 5.4130 -1.4611 31.4819
#
#
#
# Elastic Compliance Matrix: (Units=1/GPa)
#
#
# Indices 1 2 3 4 5 6 
#
# 1 0.011976 -0.003103 -0.002300 -0.003444 -0.002745 0.002158
# 2 -0.003103 0.020409 -0.005958 0.011188 0.001368 0.011819
# 3 -0.002300 -0.005958 0.015481 -0.004523 -0.003735 -0.001661
# 4 -0.003444 0.011188 -0.004523 0.045208 0.004712 -0.001004
# 5 -0.002745 0.001368 -0.003735 0.004712 0.036954 0.000116
# 6 0.002158 0.011819 -0.001661 -0.001004 0.000116 0.041787
#
#
# Mechanical properties :
#
#
# Convention : Reuss Voigt Hill
#
# Bulk Modulus (GPa) = 39.76855 49.24898 44.50877
# Shear Modulus (GPa) = 24.64072 29.62333 27.13202
#
# Velocity S-wave (km/s) = 3.54401 3.88584 3.71886
# Velocity P-wave (km/s) = 6.08422 6.72581 6.41304
#
# Compressibility (1/GPa) = 0.02514550
#
# Stress axis : x y z
#
# Youngs Moduli (GPa) = 83.50242 48.99854 64.59530
#
# Poissons Ratio (x) = 0.15202 0.14855
# Poissons Ratio (y) = 0.25907 0.38484
# Poissons Ratio (z) = 0.19203 0.29192
#
# Static dielectric constant tensor:
#      x y z
#    x 1.683440 0.013290 -0.003810 
#    y 0.013290 1.703600 -0.028630 
#    z -0.003810 -0.028630 1.708790 
# 
# From -- ./inp_files/189917.got.cif
#   From: 2010.05.17/outbox.cif.g08.bks.cpg/sg2_95_cif.got.tgz:189917.got - 2010.06.03 11:33:40.
