data_PCOD9025919
_publ_section_title
;
Structure prediction by ZEFSAII (Michael W. Deem and Ramdas Pophale) SiO2 
 PCOD9025919
Probable space group: P -1
;
_chemical_formula_sum "Si O2"
_cell_formula_units_Z 13
_cell_length_a 15.184174
_cell_length_b 8.182806
_cell_length_c 8.715803
_cell_angle_alpha 127.105398
_cell_angle_beta 41.293497
_cell_angle_gamma 110.288638
_cell_volume 558.152343
_symmetry_space_group_name_H-M "P -1"
_symmetry_group_IT_number 2
_symmetry_cell_setting 'triclinic'
loop_
_space_group_symop_operation_xyz
x,y,z
-x,-y,-z
loop_
_atom_site_type_symbol
_atom_site_label
_atom_site_fract_x
_atom_site_fract_y
_atom_site_fract_z
Si Si1 0.947331 0.029107 0.758845
Si Si2 0.637885 0.587203 0.883816
Si Si3 0.863417 0.658948 0.814383
Si Si4 0.487872 0.025815 0.213627
Si Si5 0.824540 0.856354 0.304393
Si Si6 0.229241 0.525250 0.664241
Si Si7 0.500000 0.500000 0.500000
O O1 0.077768 0.995583 0.682415
O O2 0.859841 0.859908 0.824786
O O3 0.865095 0.262558 0.032862
O O4 0.000000 0.000000 0.500000
O O5 0.724968 0.570317 0.917161
O O6 0.741940 0.477677 0.555501
O O7 0.500000 0.500000 0.000000
O O8 0.585262 0.830149 0.051549
O O9 0.000000 0.500000 0.500000
O O10 0.872558 0.730745 0.016619
O O11 0.329866 0.026999 0.456963
O O12 0.523581 0.242856 0.340873
O O13 0.500000 0.000000 0.000000
O O14 0.827093 0.680565 0.332639
O O15 0.373363 0.493053 0.543919
#
# Coordination Sequence:
#
# PCOD9025919 Si02
#       7
#     2   2   2   2   2   2   1
#     4  12  26  44  74 100 142 191 246 299 364 437
#     4  12  28  45  75 108 149 192 244 305 366 442
#     4  12  28  48  69 103 145 191 244 300 366 429
#     4  11  24  46  74 105 148 186 248 298 374 427
#     4  11  25  44  73 100 141 186 239 300 361 437
#     4  11  24  45  70 103 141 185 246 292 368 429
#     4  10  22  40  76  98 138 184 238 294 362 428
#
# _framework density 23.291134
#
# number of rings (size 3 to 8) (size 9 to 14) (size 15 to 20)
#    0.000    0.615    3.077    4.615   10.769    0.615 
#    0.000    0.000    0.000    0.000    0.000    0.000 
#    0.000    0.000    0.000    0.000    0.000    0.000 
#
# Total GULP energy -72575.837199 kJ/mol
# GULP energy per Si atom -5582.756708 kJ/mol
# Density = 2.323812 g / cm^3
# Si number density = 23.291134 Si / 1000 Ang^3
#
#
#
# Elastic Constant Matrix: (Units=GPa)
#
#
# Indices 1 2 3 4 5 6 
#
# 1 105.4003 19.3204 27.1613 -4.6305 1.4776 32.9106
# 2 19.3204 75.7022 4.1507 10.2534 -3.6664 21.9734
# 3 27.1613 4.1507 127.9093 7.9680 10.7247 3.4752
# 4 -4.6305 10.2534 7.9680 38.8403 -11.5138 -1.5159
# 5 1.4776 -3.6664 10.7247 -11.5138 32.6015 -5.3128
# 6 32.9106 21.9734 3.4752 -1.5159 -5.3128 37.0644
#
#
#
# Elastic Compliance Matrix: (Units=1/GPa)
#
#
# Indices 1 2 3 4 5 6 
#
# 1 0.014127 -0.000127 -0.002637 0.001388 -0.001310 -0.012352
# 2 -0.000127 0.016905 0.000254 -0.005472 -0.001807 -0.010416
# 3 -0.002637 0.000254 0.008879 -0.003313 -0.003833 0.000673
# 4 0.001388 -0.005472 -0.003313 0.031981 0.012592 0.005435
# 5 -0.001310 -0.001807 -0.003833 0.012592 0.037623 0.008501
# 6 -0.012352 -0.010416 0.000673 0.005435 0.008501 0.045500
#
#
# Mechanical properties :
#
#
# Convention : Reuss Voigt Hill
#
# Bulk Modulus (GPa) = 28.66067 45.58631 37.12349
# Shear Modulus (GPa) = 29.12641 38.92653 34.02647
#
# Velocity S-wave (km/s) = 3.54013 4.09259 3.82634
# Velocity P-wave (km/s) = 5.38907 6.47667 5.95774
#
# Compressibility (1/GPa) = 0.03489102
#
# Stress axis : x y z
#
# Youngs Moduli (GPa) = 70.78878 59.15359 112.62303
#
# Poissons Ratio (x) = 0.00751 0.29695
# Poissons Ratio (y) = 0.00899 -0.02857
# Poissons Ratio (z) = 0.18665 -0.01501
#
# Static dielectric constant tensor:
#      x y z
#    x 1.884620 0.006060 -0.052840 
#    y 0.006060 1.867010 -0.054370 
#    z -0.052840 -0.054370 1.860940 
# 
# From -- ./inp_files/93403.got.cif
#   From: 2010.05.17/outbox.cif.g08.bks.cpg/sg2_47_cif.got.tgz:93403.got - 2010.06.03 11:33:40.
