data_PCOD9025666
_publ_section_title
;
Structure prediction by ZEFSAII (Michael W. Deem and Ramdas Pophale) SiO2 
 PCOD9025666
Probable space group: P -1
;
_chemical_formula_sum "Si O2"
_cell_formula_units_Z 13
_cell_length_a 16.186590
_cell_length_b 5.097708
_cell_length_c 10.199674
_cell_angle_alpha 67.661704
_cell_angle_beta 131.696585
_cell_angle_gamma 84.670142
_cell_volume 503.197969
_symmetry_space_group_name_H-M "P -1"
_symmetry_group_IT_number 2
_symmetry_cell_setting 'triclinic'
loop_
_space_group_symop_operation_xyz
x,y,z
-x,-y,-z
loop_
_atom_site_type_symbol
_atom_site_label
_atom_site_fract_x
_atom_site_fract_y
_atom_site_fract_z
Si Si1 0.706702 0.865876 0.247835
Si Si2 0.904549 0.864958 0.945019
Si Si3 0.889206 0.881211 0.649108
Si Si4 0.799180 0.753134 0.094966
Si Si5 0.512868 0.973964 0.676873
Si Si6 0.558521 0.560381 0.241158
Si Si7 0.000000 0.000000 0.500000
O O1 0.792580 0.833231 0.466182
O O2 0.786481 0.880721 0.205180
O O3 0.669804 0.581627 0.275566
O O4 0.570136 0.187536 0.022504
O O5 0.825434 0.989867 0.704503
O O6 0.825650 0.962829 0.976945
O O7 0.988021 0.472885 0.120312
O O8 0.000000 0.000000 0.000000
O O9 0.937556 0.077529 0.573510
O O10 0.909086 0.380478 0.291781
O O11 0.663885 0.787667 0.906674
O O12 0.449921 0.762666 0.695482
O O13 0.500000 0.000000 0.500000
O O14 0.454644 0.288628 0.653666
#
# Coordination Sequence:
#
# PCOD9025666 Si02
#       7
#     2   2   2   2   2   2   1
#     4  10  23  42  71 102 138 187 238 299 356 424
#     4  10  24  43  61  94 137 176 228 286 350 421
#     4  10  23  40  63  96 127 181 226 286 349 414
#     4  10  24  43  69 103 137 188 237 295 356 426
#     4  11  24  45  71 108 146 192 234 297 366 433
#     4  10  24  45  71 107 146 182 245 298 356 433
#     4  10  22  40  70  94 136 176 242 292 340 422
#
# _framework density 25.834765000000001
#
# number of rings (size 3 to 8) (size 9 to 14) (size 15 to 20)
#    0.000    1.846    0.000    1.385    6.462    9.231 
#    8.308    0.000    0.000    0.000    0.000    0.000 
#    0.000    0.000    0.000    0.000    0.000    0.000 
#
# Total GULP energy -72531.444213 kJ/mol
# GULP energy per Si atom -5579.341863 kJ/mol
# Density = 2.577596 g / cm^3
# Si number density = 25.834765 Si / 1000 Ang^3
#
#
#
# Elastic Constant Matrix: (Units=GPa)
#
#
# Indices 1 2 3 4 5 6 
#
# 1 170.1701 22.6668 55.1450 4.3627 -57.8350 6.5419
# 2 22.6668 63.0472 18.3955 10.6905 -19.0362 7.3130
# 3 55.1450 18.3955 143.9400 24.2203 -50.8702 0.2236
# 4 4.3627 10.6905 24.2203 42.8784 -1.2254 -4.8072
# 5 -57.8350 -19.0362 -50.8702 -1.2254 56.8891 -4.4763
# 6 6.5419 7.3130 0.2236 -4.8072 -4.4763 42.1159
#
#
#
# Elastic Compliance Matrix: (Units=1/GPa)
#
#
# Indices 1 2 3 4 5 6 
#
# 1 0.009019 -0.000384 -0.000208 -0.000504 0.008808 -0.000454
# 2 -0.000384 0.018941 0.000886 -0.005357 0.006375 -0.003168
# 3 -0.000208 0.000886 0.011681 -0.006480 0.010405 0.000183
# 4 -0.000504 -0.005357 -0.006480 0.028559 -0.007205 0.003537
# 5 0.008808 0.006375 0.010405 -0.007205 0.037867 0.000672
# 6 -0.000454 -0.003168 0.000183 0.003537 0.000672 0.024839
#
#
# Mechanical properties :
#
#
# Convention : Reuss Voigt Hill
#
# Bulk Modulus (GPa) = 24.85806 63.28577 44.07192
# Shear Modulus (GPa) = 34.78756 47.10666 40.94711
#
# Velocity S-wave (km/s) = 3.67350 4.27474 3.98548
# Velocity P-wave (km/s) = 5.25696 6.99386 6.18667
#
# Compressibility (1/GPa) = 0.04022840
#
# Stress axis : x y z
#
# Youngs Moduli (GPa) = 110.87875 52.79441 85.60771
#
# Poissons Ratio (x) = 0.02029 0.01780
# Poissons Ratio (y) = 0.04262 -0.07583
# Poissons Ratio (z) = 0.02305 -0.04676
#
# Static dielectric constant tensor:
#      x y z
#    x 2.384620 -0.062180 0.126280 
#    y -0.062180 2.192420 0.164450 
#    z 0.126280 0.164450 2.123820 
# 
# From -- ./inp_files/36377.got.cif
#   From: 2010.05.17/outbox.cif.g08.bks.cpg/sg2_19_cif.got.tgz:36377.got - 2010.06.03 11:33:40.
