data_PCOD9025374
_publ_section_title
;
Structure prediction by ZEFSAII (Michael W. Deem and Ramdas Pophale) SiO2 
 PCOD9025374
Probable space group: P -1
;
_chemical_formula_sum "Si O2"
_cell_formula_units_Z 15
_cell_length_a 7.929993
_cell_length_b 11.136123
_cell_length_c 13.945814
_cell_angle_alpha 107.404212
_cell_angle_beta 135.431463
_cell_angle_gamma 52.608278
_cell_volume 666.673938
_symmetry_space_group_name_H-M "P -1"
_symmetry_group_IT_number 2
_symmetry_cell_setting 'triclinic'
loop_
_space_group_symop_operation_xyz
x,y,z
-x,-y,-z
loop_
_atom_site_type_symbol
_atom_site_label
_atom_site_fract_x
_atom_site_fract_y
_atom_site_fract_z
Si Si1 0.000000 0.500000 0.500000
Si Si2 0.040698 0.115026 0.682079
Si Si3 0.471728 0.405475 0.830507
Si Si4 0.350563 0.382442 0.111289
Si Si5 0.251639 0.800163 0.601734
Si Si6 0.354699 0.138163 0.551883
Si Si7 0.106058 0.909797 0.165657
Si Si8 0.528093 0.796970 0.061437
O O1 0.196417 0.450783 0.664154
O O2 0.233259 0.312227 0.512125
O O3 0.232179 0.179941 0.794539
O O4 0.760027 0.218572 0.521212
O O5 0.950183 0.091885 0.743934
O O6 0.229443 0.951658 0.661940
O O7 0.502325 0.544462 0.865332
O O8 0.772176 0.255749 0.869686
O O9 0.439088 0.344169 0.902612
O O10 0.484685 0.338920 0.262111
O O11 0.426759 0.238955 0.042364
O O12 0.000000 0.500000 0.000000
O O13 0.945014 0.831845 0.521771
O O14 0.614052 0.081394 0.721779
O O15 0.500000 0.000000 0.500000
O O16 0.806629 0.049086 0.028904
#
# Coordination Sequence:
#
# PCOD9025374 Si02
#       8
#     1   2   2   2   2   2   2   2
#     4  10  22  40  68  96 140 176 224 296 338 414
#     4  11  23  43  71 101 136 182 235 289 345 413
#     4  11  25  44  70 102 140 183 229 288 360 416
#     4  12  26  48  68 101 144 184 224 289 356 421
#     4  11  24  45  69 101 139 183 233 291 350 423
#     4  11  20  42  68 101 137 184 234 286 355 417
#     4  11  23  42  72 106 136 181 236 288 351 418
#     4  12  25  46  71 103 140 184 235 288 351 425
#
# _framework density 22.499755
#
# number of rings (size 3 to 8) (size 9 to 14) (size 15 to 20)
#    0.000    0.800    4.000    3.600    1.867    0.000 
#    7.200    1.333    0.000    0.000    0.000    0.000 
#    0.000    0.000    0.000    0.000    0.000    0.000 
#
# Total GULP energy -83558.838856 kJ/mol
# GULP energy per Si atom -5570.589257 kJ/mol
# Density = 2.244854 g / cm^3
# Si number density = 22.499755 Si / 1000 Ang^3
#
#
#
# Elastic Constant Matrix: (Units=GPa)
#
#
# Indices 1 2 3 4 5 6 
#
# 1 47.0442 -15.4548 34.1293 -7.1721 -11.1440 8.3986
# 2 -15.4548 62.3486 31.5512 -3.1608 -4.3027 -3.9852
# 3 34.1293 31.5512 160.7110 -18.0403 -22.1502 14.0167
# 4 -7.1721 -3.1608 -18.0403 42.8782 -2.6360 1.0680
# 5 -11.1440 -4.3027 -22.1502 -2.6360 27.7044 -0.4566
# 6 8.3986 -3.9852 14.0167 1.0680 -0.4566 31.5151
#
#
#
# Elastic Compliance Matrix: (Units=1/GPa)
#
#
# Indices 1 2 3 4 5 6 
#
# 1 0.035149 0.013326 -0.007809 0.004314 0.010306 -0.004206
# 2 0.013326 0.023359 -0.007022 0.001150 0.003525 0.002538
# 3 -0.007809 -0.007022 0.010502 0.002952 0.004388 -0.003514
# 4 0.004314 0.001150 0.002952 0.025858 0.006683 -0.003097
# 5 0.010306 0.003525 0.004388 0.006683 0.044869 -0.003829
# 6 -0.004206 0.002538 -0.003514 -0.003097 -0.003829 0.034785
#
#
# Mechanical properties :
#
#
# Convention : Reuss Voigt Hill
#
# Bulk Modulus (GPa) = 15.15170 41.17280 28.16225
# Shear Modulus (GPa) = 25.05830 35.07808 30.06819
#
# Velocity S-wave (km/s) = 3.34086 3.95275 3.65962
# Velocity P-wave (km/s) = 4.65087 6.25870 5.51370
#
# Compressibility (1/GPa) = 0.06599918
#
# Stress axis : x y z
#
# Youngs Moduli (GPa) = 28.44994 42.80945 95.22027
#
# Poissons Ratio (x) = -0.57046 0.74358
# Poissons Ratio (y) = -0.37911 0.66867
# Poissons Ratio (z) = 0.22217 0.30062
#
# Static dielectric constant tensor:
#      x y z
#    x 1.895860 0.030920 0.002830 
#    y 0.030920 1.889870 0.027290 
#    z 0.002830 0.027290 1.866260 
# 
# From -- ./inp_files/397576.got.cif
#   From: 2010.05.17/outbox.cif.g08.bks.cpg/sg2_199_cif.got.tgz:397576.got - 2010.06.03 11:33:40.
