data_PCOD9025714
_publ_section_title
;
Structure prediction by ZEFSAII (Michael W. Deem and Ramdas Pophale) SiO2 
 PCOD9025714
Probable space group: P -1
;
_chemical_formula_sum "Si O2"
_cell_formula_units_Z 16
_cell_length_a 18.339483
_cell_length_b 23.469309
_cell_length_c 9.141475
_cell_angle_alpha 36.253606
_cell_angle_beta 31.837035
_cell_angle_gamma 15.929538
_cell_volume 568.134905
_symmetry_space_group_name_H-M "P -1"
_symmetry_group_IT_number 2
_symmetry_cell_setting 'triclinic'
loop_
_space_group_symop_operation_xyz
x,y,z
-x,-y,-z
loop_
_atom_site_type_symbol
_atom_site_label
_atom_site_fract_x
_atom_site_fract_y
_atom_site_fract_z
Si Si1 0.734039 0.323963 0.129561
Si Si2 0.424599 0.790108 0.334051
Si Si3 0.641217 0.053911 0.612746
Si Si4 0.960332 0.420539 0.018451
Si Si5 0.469532 0.673427 0.920243
Si Si6 0.390309 0.692479 0.341438
Si Si7 0.248502 0.104915 0.525887
Si Si8 0.141197 0.322810 0.486742
O O1 0.651248 0.266100 0.348325
O O2 0.250874 0.697909 0.672613
O O3 0.481024 0.563094 0.047242
O O4 0.027115 0.178532 0.849537
O O5 0.301053 0.952176 0.305517
O O6 0.313485 0.840137 0.253859
O O7 0.781686 0.564920 0.169741
O O8 0.638265 0.160752 0.314528
O O9 0.819776 0.874068 0.570756
O O10 0.313094 0.208670 0.863073
O O11 0.893289 0.543981 0.756009
O O12 0.749258 0.463842 0.233327
O O13 0.823166 0.474245 0.752355
O O14 0.320127 0.747711 0.178391
O O15 0.589860 0.864657 0.474319
O O16 0.223352 0.225621 0.389538
#
# Coordination Sequence:
#
# PCOD9025714 Si02
#       8
#     2   2   2   2   2   2   2   2
#     4   8  19  34  48  69 101 134 153 196 239 287
#     4   8  20  33  49  70 101 130 158 196 241 281
#     4  11  19  30  52  78  93 127 163 200 235 287
#     4   8  17  33  52  68  99 122 161 198 244 275
#     4  10  17  31  55  75  94 120 168 202 237 276
#     4   8  17  31  51  71  96 128 155 199 240 280
#     4  10  19  30  50  73 102 124 160 195 246 284
#     4   9  18  32  49  77  96 124 155 209 240 281
#
# _framework density 28.162326
#
# number of rings (size 3 to 8) (size 9 to 14) (size 15 to 20)
#    1.500    1.250    0.000    2.250    0.000    3.000 
#    0.000    6.250    0.000    0.000    0.000    0.000 
#    0.000    0.000    0.000    0.000    0.000    0.000 
#
# Total GULP energy -89412.708033 kJ/mol
# GULP energy per Si atom -5588.294252 kJ/mol
# Density = 2.809823 g / cm^3
# Si number density = 28.162326 Si / 1000 Ang^3
#
#
#
# Elastic Constant Matrix: (Units=GPa)
#
#
# Indices 1 2 3 4 5 6 
#
# 1 114.2072 44.6214 5.2789 0.9212 12.2101 40.0486
# 2 44.6214 76.8587 15.8695 2.8121 -0.6920 20.4746
# 3 5.2789 15.8695 113.0772 18.2890 9.3706 -0.9880
# 4 0.9212 2.8121 18.2890 32.1656 0.3492 0.7153
# 5 12.2101 -0.6920 9.3706 0.3492 35.7208 0.3167
# 6 40.0486 20.4746 -0.9880 0.7153 0.3167 56.2716
#
#
#
# Elastic Compliance Matrix: (Units=1/GPa)
#
#
# Indices 1 2 3 4 5 6 
#
# 1 0.014650 -0.006543 0.000588 0.000053 -0.005218 -0.008007
# 2 -0.006543 0.017859 -0.002496 0.000052 0.003254 -0.001904
# 3 0.000588 -0.002496 0.010329 -0.005657 -0.002910 0.000759
# 4 0.000053 0.000052 -0.005657 0.034301 0.001137 -0.000598
# 5 -0.005218 0.003254 -0.002910 0.001137 0.030574 0.002293
# 6 -0.008007 -0.001904 0.000759 -0.000598 0.002293 0.024171
#
#
# Mechanical properties :
#
#
# Convention : Reuss Voigt Hill
#
# Bulk Modulus (GPa) = 38.55282 48.40919 43.48100
# Shear Modulus (GPa) = 31.76005 40.72315 36.24160
#
# Velocity S-wave (km/s) = 3.36184 3.80678 3.59121
# Velocity P-wave (km/s) = 5.36549 6.04555 5.71565
#
# Compressibility (1/GPa) = 0.02593844
#
# Stress axis : x y z
#
# Youngs Moduli (GPa) = 68.25728 55.99274 96.81415
#
# Poissons Ratio (x) = 0.36635 -0.05695
# Poissons Ratio (y) = 0.44660 0.24162
# Poissons Ratio (z) = -0.04015 0.13974
#
# Static dielectric constant tensor:
#      x y z
#    x 2.248980 -0.002070 0.002420 
#    y -0.002070 2.246950 0.024350 
#    z 0.002420 0.024350 2.126620 
# 
# From -- ./inp_files/472931.got.cif
#   From: 2010.05.17/outbox.cif.g08.bks.cpg/sg2_237_cif.got.tgz:472931.got - 2010.06.03 11:33:40.
