data_PCOD9025129
_publ_section_title
;
Structure prediction by ZEFSAII (Michael W. Deem and Ramdas Pophale) SiO2 
 PCOD9025129
Probable space group: P -1
;
_chemical_formula_sum "Si O2"
_cell_formula_units_Z 14
_cell_length_a 24.279657
_cell_length_b 14.535424
_cell_length_c 9.767815
_cell_angle_alpha 144.844127
_cell_angle_beta 36.653782
_cell_angle_gamma 159.998922
_cell_volume 668.733497
_symmetry_space_group_name_H-M "P -1"
_symmetry_group_IT_number 2
_symmetry_cell_setting 'triclinic'
loop_
_space_group_symop_operation_xyz
x,y,z
-x,-y,-z
loop_
_atom_site_type_symbol
_atom_site_label
_atom_site_fract_x
_atom_site_fract_y
_atom_site_fract_z
Si Si1 0.891907 0.189299 0.870772
Si Si2 0.426874 0.846402 0.657840
Si Si3 0.731907 0.433246 0.659734
Si Si4 0.628218 0.820555 0.170090
Si Si5 0.874857 0.530273 0.020406
Si Si6 0.931852 0.232653 0.545428
Si Si7 0.129405 0.014550 0.912791
O O1 0.863225 0.079330 0.643735
O O2 0.000000 0.500000 0.000000
O O3 0.003915 0.250703 0.827665
O O4 0.729416 0.998758 0.045993
O O5 0.318748 0.683488 0.536399
O O6 0.529730 0.830747 0.432888
O O7 0.564681 0.178698 0.768978
O O8 0.306668 0.694426 0.839770
O O9 0.872749 0.514790 0.528764
O O10 0.808352 0.717918 0.862411
O O11 0.755523 0.937821 0.170220
O O12 0.500000 0.500000 0.000000
O O13 0.894434 0.366877 0.760919
O O14 0.946973 0.725573 0.984470
O O15 0.866483 0.033397 0.310055
#
# Coordination Sequence:
#
# PCOD9025129 Si02
#       7
#     2   2   2   2   2   2   2
#     4   9  19  36  64  89 117 164 210 244 297 374
#     4  11  23  40  66  94 126 162 215 260 310 369
#     4  11  23  39  66  93 128 164 208 262 314 367
#     4  11  23  42  64  92 127 161 210 261 312 364
#     4  10  22  40  67  95 123 167 214 256 306 371
#     4  11  22  42  65  94 129 167 210 254 315 381
#     4  11  24  42  65  94 128 167 208 261 315 370
#
# _framework density 20.935096000000001
#
# number of rings (size 3 to 8) (size 9 to 14) (size 15 to 20)
#    0.000    1.429    2.857    3.429    6.000    1.714 
#    0.000    5.714    0.000    0.000    0.000    0.000 
#    0.000    0.000    0.000    0.000    0.000    0.000 
#
# Total GULP energy -78260.414297 kJ/mol
# GULP energy per Si atom -5590.029593 kJ/mol
# Density = 2.088745 g / cm^3
# Si number density = 20.935096 Si / 1000 Ang^3
#
#
#
# Elastic Constant Matrix: (Units=GPa)
#
#
# Indices 1 2 3 4 5 6 
#
# 1 42.1595 25.5597 43.4196 -11.4051 5.3890 -2.6800
# 2 25.5597 96.3404 64.8464 -23.2578 -21.3608 -4.1821
# 3 43.4196 64.8464 102.2377 -22.2193 3.4009 -9.8676
# 4 -11.4051 -23.2578 -22.2193 33.6977 4.7241 -3.8123
# 5 5.3890 -21.3608 3.4009 4.7241 30.8328 2.5031
# 6 -2.6800 -4.1821 -9.8676 -3.8123 2.5031 27.3462
#
#
#
# Elastic Compliance Matrix: (Units=1/GPa)
#
#
# Indices 1 2 3 4 5 6 
#
# 1 0.043594 -0.000603 -0.017153 0.003866 -0.006667 -0.000860
# 2 -0.000603 0.027842 -0.017544 0.004109 0.020982 -0.003480
# 3 -0.017153 -0.017544 0.030641 0.005244 -0.014047 0.008709
# 4 0.003866 0.004109 0.005244 0.038988 -0.005096 0.008801
# 5 -0.006667 0.020982 -0.014047 -0.005096 0.051106 -0.007902
# 6 -0.000860 -0.003480 0.008709 0.008801 -0.007902 0.041045
#
#
# Mechanical properties :
#
#
# Convention : Reuss Voigt Hill
#
# Bulk Modulus (GPa) = 31.76866 56.48766 44.12816
# Shear Modulus (GPa) = 15.90807 25.50281 20.70544
#
# Velocity S-wave (km/s) = 2.75957 3.49404 3.14830
# Velocity P-wave (km/s) = 5.03601 6.58168 5.86004
#
# Compressibility (1/GPa) = 0.03147756
#
# Stress axis : x y z
#
# Youngs Moduli (GPa) = 22.93918 35.91746 32.63598
#
# Poissons Ratio (x) = 0.02164 0.55980
# Poissons Ratio (y) = 0.01382 0.57257
# Poissons Ratio (z) = 0.39347 0.63014
#
# Static dielectric constant tensor:
#      x y z
#    x 1.786240 -0.000630 0.001960 
#    y -0.000630 1.758780 -0.010170 
#    z 0.001960 -0.010170 1.758780 
# 
# From -- ./inp_files/237962.got.cif
#   From: 2010.05.17/outbox.cif.g08.bks.cpg/sg2_119_cif.got.tgz:237962.got - 2010.06.03 11:33:40.
