data_PCOD9025845
_publ_section_title
;
Structure prediction by ZEFSAII (Michael W. Deem and Ramdas Pophale) SiO2 
 PCOD9025845
Probable space group: P -1
;
_chemical_formula_sum "Si O2"
_cell_formula_units_Z 16
_cell_length_a 12.059490
_cell_length_b 9.053863
_cell_length_c 15.004100
_cell_angle_alpha 63.132800
_cell_angle_beta 111.710865
_cell_angle_gamma 58.361953
_cell_volume 747.829184
_symmetry_space_group_name_H-M "P -1"
_symmetry_group_IT_number 2
_symmetry_cell_setting 'triclinic'
loop_
_space_group_symop_operation_xyz
x,y,z
-x,-y,-z
loop_
_atom_site_type_symbol
_atom_site_label
_atom_site_fract_x
_atom_site_fract_y
_atom_site_fract_z
Si Si1 0.799145 0.612095 0.414747
Si Si2 0.891257 0.635616 0.717817
Si Si3 0.704030 0.650016 0.172021
Si Si4 0.743731 0.261932 0.345208
Si Si5 0.930911 0.268610 0.927365
Si Si6 0.567055 0.110578 0.335197
Si Si7 0.708631 0.380615 0.505380
Si Si8 0.224474 0.005234 0.254780
O O1 0.750197 0.615684 0.299594
O O2 0.847403 0.386700 0.542074
O O3 0.000000 0.500000 0.500000
O O4 0.602999 0.935250 0.315967
O O5 0.949459 0.375992 0.821122
O O6 0.093414 0.511454 0.777920
O O7 0.699590 0.887481 0.521000
O O8 0.820779 0.787453 0.751680
O O9 0.660885 0.503777 0.190036
O O10 0.500000 0.000000 0.000000
O O11 0.682228 0.148739 0.330073
O O12 0.662628 0.372079 0.393342
O O13 0.000000 0.000000 0.500000
O O14 0.679999 0.566489 0.801717
O O15 0.000000 0.000000 0.000000
O O16 0.082811 0.160276 0.081621
O O17 0.477718 0.698327 0.390743
O O18 0.818732 0.108161 0.667685
#
# Coordination Sequence:
#
# PCOD9025845 Si02
#       8
#     2   2   2   2   2   2   2   2
#     4  11  23  43  68 102 133 173 218 276 338 399
#     4  12  25  47  70  95 135 185 228 263 344 413
#     4  11  26  42  73  96 134 175 223 274 331 403
#     4  11  20  45  69  98 126 178 225 265 323 415
#     4  12  30  42  67 102 142 170 225 294 337 381
#     4  12  24  45  70  99 138 176 223 282 341 397
#     4  10  22  40  72  94 133 175 225 265 333 409
#     4  11  24  44  69  98 128 182 227 272 330 398
#
# _framework density 21.395261000000001
#
# number of rings (size 3 to 8) (size 9 to 14) (size 15 to 20)
#    0.000    0.750    3.750    3.000   10.500    0.000 
#    0.000    0.625    0.000    0.000    0.000    0.000 
#    0.000    0.000    0.000    0.000    0.000    0.000 
#
# Total GULP energy -89494.579636 kJ/mol
# GULP energy per Si atom -5593.411227 kJ/mol
# Density = 2.134656 g / cm^3
# Si number density = 21.395261 Si / 1000 Ang^3
#
#
#
# Elastic Constant Matrix: (Units=GPa)
#
#
# Indices 1 2 3 4 5 6 
#
# 1 104.0997 6.7764 23.2312 -9.7761 -31.8881 16.7517
# 2 6.7764 93.6240 -5.3017 -16.3811 -6.8771 -2.6855
# 3 23.2312 -5.3017 87.4846 -19.4777 -15.0947 2.6891
# 4 -9.7761 -16.3811 -19.4777 25.6501 10.0442 -2.5157
# 5 -31.8881 -6.8771 -15.0947 10.0442 32.9792 -10.8700
# 6 16.7517 -2.6855 2.6891 -2.5157 -10.8700 36.2951
#
#
#
# Elastic Compliance Matrix: (Units=1/GPa)
#
#
# Indices 1 2 3 4 5 6 
#
# 1 0.014122 -0.000584 -0.001934 -0.001502 0.012155 -0.002881
# 2 -0.000584 0.012859 0.003367 0.010276 0.001201 0.002044
# 3 -0.001934 0.003367 0.015255 0.012114 0.002669 0.001650
# 4 -0.001502 0.010276 0.012114 0.058694 -0.011225 0.001262
# 5 0.012155 0.001201 0.002669 -0.011225 0.049734 0.008398
# 6 -0.002881 0.002044 0.001650 0.001262 0.008398 0.031513
#
#
# Mechanical properties :
#
#
# Convention : Reuss Voigt Hill
#
# Bulk Modulus (GPa) = 22.76197 37.18000 29.97098
# Shear Modulus (GPa) = 25.62469 36.35172 30.98821
#
# Velocity S-wave (km/s) = 3.46451 4.12643 3.80987
# Velocity P-wave (km/s) = 5.16388 6.33393 5.77859
#
# Compressibility (1/GPa) = 0.04393294
#
# Stress axis : x y z
#
# Youngs Moduli (GPa) = 70.81213 77.76789 65.55249
#
# Poissons Ratio (x) = 0.04543 0.12677
# Poissons Ratio (y) = 0.04137 -0.22070
# Poissons Ratio (z) = 0.13694 -0.26182
#
# Static dielectric constant tensor:
#      x y z
#    x 1.826580 0.018840 -0.033200 
#    y 0.018840 1.793450 -0.042150 
#    z -0.033200 -0.042150 1.730580 
# 
# From -- ./inp_files/185405.got.cif
#   From: 2010.05.17/outbox.cif.g08.bks.cpg/sg2_93_cif.got.tgz:185405.got - 2010.06.03 11:33:40.
