data_PCOD9025644
_publ_section_title
;
Structure prediction by ZEFSAII (Michael W. Deem and Ramdas Pophale) SiO2 
 PCOD9025644
Probable space group: P -1
;
_chemical_formula_sum "Si O2"
_cell_formula_units_Z 13
_cell_length_a 8.921384
_cell_length_b 12.212317
_cell_length_c 6.814732
_cell_angle_alpha 129.831917
_cell_angle_beta 71.197175
_cell_angle_gamma 127.473644
_cell_volume 449.725540
_symmetry_space_group_name_H-M "P -1"
_symmetry_group_IT_number 2
_symmetry_cell_setting 'triclinic'
loop_
_space_group_symop_operation_xyz
x,y,z
-x,-y,-z
loop_
_atom_site_type_symbol
_atom_site_label
_atom_site_fract_x
_atom_site_fract_y
_atom_site_fract_z
Si Si1 0.577933 0.128864 0.931637
Si Si2 0.989238 0.353438 0.841886
Si Si3 0.192811 0.861173 0.702086
Si Si4 0.997973 0.026437 0.226475
Si Si5 0.395583 0.573661 0.507619
Si Si6 0.730115 0.745541 0.300418
Si Si7 0.000000 0.500000 0.500000
O O1 0.784338 0.205259 0.847932
O O2 0.567075 0.283000 0.187425
O O3 0.500000 0.000000 0.000000
O O4 0.403672 0.003066 0.717560
O O5 0.904830 0.042295 0.054432
O O6 0.980330 0.478735 0.823317
O O7 0.180162 0.366031 0.840805
O O8 0.163277 0.707837 0.659574
O O9 0.049537 0.813437 0.523552
O O10 0.813776 0.853389 0.191163
O O11 0.166799 0.107242 0.406093
O O12 0.500000 0.500000 0.500000
O O13 0.512657 0.645271 0.336585
O O14 0.174637 0.460368 0.416294
#
# Coordination Sequence:
#
# PCOD9025644 Si02
#       7
#     2   2   2   2   2   2   1
#     4  12  26  45  79 112 157 213 266 332 410 483
#     4  11  25  47  74 112 159 213 265 337 415 487
#     4  11  25  43  72 108 152 207 273 324 400 491
#     4  10  22  40  70 109 150 199 263 332 401 484
#     4  12  26  50  79 117 161 218 270 340 416 495
#     4  10  24  43  74 107 156 206 263 340 402 481
#     4  12  26  46  74 110 158 210 264 334 404 480
#
# _framework density 28.90652
#
# number of rings (size 3 to 8) (size 9 to 14) (size 15 to 20)
#    0.000    0.923    1.538    5.077    8.615    1.231 
#    0.000    0.000    0.000   10.154    0.000    0.000 
#    0.000    0.000    0.000    0.000    0.000    0.000 
#
# Total GULP energy -72456.689845 kJ/mol
# GULP energy per Si atom -5573.591527 kJ/mol
# Density = 2.884073 g / cm^3
# Si number density = 28.906520 Si / 1000 Ang^3
#
#
#
# Elastic Constant Matrix: (Units=GPa)
#
#
# Indices 1 2 3 4 5 6 
#
# 1 136.6748 71.9449 45.5341 1.2805 -15.6024 12.3978
# 2 71.9449 194.2183 62.6886 -14.7098 -24.7447 44.7994
# 3 45.5341 62.6886 163.7234 -24.2268 -24.8833 -2.2279
# 4 1.2805 -14.7098 -24.2268 52.6192 7.1067 -14.9968
# 5 -15.6024 -24.7447 -24.8833 7.1067 62.8004 10.7818
# 6 12.3978 44.7994 -2.2279 -14.9968 10.7818 59.9488
#
#
#
# Elastic Compliance Matrix: (Units=1/GPa)
#
#
# Indices 1 2 3 4 5 6 
#
# 1 0.009603 -0.002912 -0.001744 -0.002132 0.000886 -0.000567
# 2 -0.002912 0.008926 -0.002360 -0.000930 0.003158 -0.006956
# 3 -0.001744 -0.002360 0.008270 0.004001 0.000899 0.003271
# 4 -0.002132 -0.000930 0.004001 0.023272 -0.003265 0.007693
# 5 0.000886 0.003158 0.000899 -0.003265 0.019280 -0.006794
# 6 -0.000567 -0.006956 0.003271 0.007693 -0.006794 0.025265
#
#
# Mechanical properties :
#
#
# Convention : Reuss Voigt Hill
#
# Bulk Modulus (GPa) = 78.33307 94.99462 86.66384
# Shear Modulus (GPa) = 44.28540 56.03695 50.16118
#
# Velocity S-wave (km/s) = 3.91835 4.40768 4.17020
# Velocity P-wave (km/s) = 6.90137 7.67057 7.29611
#
# Compressibility (1/GPa) = 0.01276600
#
# Stress axis : x y z
#
# Youngs Moduli (GPa) = 104.13103 112.03527 120.92098
#
# Poissons Ratio (x) = 0.32625 0.21094
# Poissons Ratio (y) = 0.30323 0.28537
# Poissons Ratio (z) = 0.18165 0.26440
#
# Static dielectric constant tensor:
#      x y z
#    x 2.412230 -0.013770 0.092830 
#    y -0.013770 2.071640 0.160410 
#    z 0.092830 0.160410 3.017050 
# 
# From -- ./inp_files/204133.got.cif
#   From: 2010.05.17/outbox.cif.g08.bks.cpg/sg2_103_cif.got.tgz:204133.got - 2010.06.03 11:33:40.
