data_PCOD9025946
_publ_section_title
;
Structure prediction by ZEFSAII (Michael W. Deem and Ramdas Pophale) SiO2 
 PCOD9025946
Probable space group: P -1
;
_chemical_formula_sum "Si O2"
_cell_formula_units_Z 14
_cell_length_a 8.316595
_cell_length_b 10.915920
_cell_length_c 8.869163
_cell_angle_alpha 84.775513
_cell_angle_beta 49.758141
_cell_angle_gamma 92.675859
_cell_volume 606.129237
_symmetry_space_group_name_H-M "P -1"
_symmetry_group_IT_number 2
_symmetry_cell_setting 'triclinic'
loop_
_space_group_symop_operation_xyz
x,y,z
-x,-y,-z
loop_
_atom_site_type_symbol
_atom_site_label
_atom_site_fract_x
_atom_site_fract_y
_atom_site_fract_z
Si Si1 0.924340 0.782463 0.902976
Si Si2 0.654675 0.928800 0.818942
Si Si3 0.258792 0.121562 0.718920
Si Si4 0.772353 0.508484 0.704527
Si Si5 0.735039 0.097022 0.497571
Si Si6 0.429886 0.282354 0.333451
Si Si7 0.323659 0.477777 0.896342
O O1 0.775297 0.847700 0.869291
O O2 0.132234 0.783350 0.672625
O O3 0.916963 0.859636 0.053938
O O4 0.836713 0.643646 0.026965
O O5 0.533581 0.837003 0.774296
O O6 0.792907 0.039548 0.627375
O O7 0.500000 0.000000 0.000000
O O8 0.487675 0.111023 0.656068
O O9 0.307692 0.237534 0.563184
O O10 0.221056 0.004035 0.644219
O O11 0.722408 0.647235 0.686862
O O12 0.559558 0.433154 0.767158
O O13 0.000000 0.500000 0.500000
O O14 0.746365 0.482931 0.899344
O O15 0.626356 0.390776 0.234107
#
# Coordination Sequence:
#
# PCOD9025946 Si02
#       7
#     2   2   2   2   2   2   2
#     4  12  21  39  61  91 121 155 205 253 299 359
#     4  11  20  39  66  92 119 158 205 256 299 343
#     4  10  22  41  59  83 124 165 198 245 307 355
#     4   9  17  37  61  86 117 161 197 241 305 346
#     4  10  23  40  59  86 123 161 203 248 300 364
#     4   9  20  42  60  89 128 156 197 253 297 365
#     4   9  20  38  58  88 125 148 199 259 287 361
#
# _framework density 23.097386
#
# number of rings (size 3 to 8) (size 9 to 14) (size 15 to 20)
#    0.857    1.143    2.857    0.857    0.000    1.714 
#    5.143    0.714    0.000    0.000    0.000    0.000 
#    0.000    0.000    0.000    0.000    0.000    0.000 
#
# Total GULP energy -77976.675527 kJ/mol
# GULP energy per Si atom -5569.762538 kJ/mol
# Density = 2.304482 g / cm^3
# Si number density = 23.097386 Si / 1000 Ang^3
#
#
#
# Elastic Constant Matrix: (Units=GPa)
#
#
# Indices 1 2 3 4 5 6 
#
# 1 14.5650 -5.0658 13.3450 2.4842 -1.7180 -3.1796
# 2 -5.0658 55.3263 18.8482 -14.4719 -1.7832 5.8205
# 3 13.3450 18.8482 143.5365 -11.9325 -6.3315 -2.4611
# 4 2.4842 -14.4719 -11.9325 34.9808 -7.0584 0.9374
# 5 -1.7180 -1.7832 -6.3315 -7.0584 34.7218 -2.9443
# 6 -3.1796 5.8205 -2.4611 0.9374 -2.9443 21.1454
#
#
#
# Elastic Compliance Matrix: (Units=1/GPa)
#
#
# Indices 1 2 3 4 5 6 
#
# 1 0.083127 0.008361 -0.008976 -0.005229 0.002670 0.009757
# 2 0.008361 0.022710 -0.003057 0.008360 0.002264 -0.005405
# 3 -0.008976 -0.003057 0.008493 0.002560 0.001517 0.000578
# 4 -0.005229 0.008360 0.002560 0.034882 0.007449 -0.003299
# 5 0.002670 0.002264 0.001517 0.007449 0.031176 0.003966
# 6 0.009757 -0.005405 0.000578 -0.003299 0.003966 0.051012
#
#
# Mechanical properties :
#
#
# Convention : Reuss Voigt Hill
#
# Bulk Modulus (GPa) = 9.34713 29.74251 19.54482
# Shear Modulus (GPa) = 18.22120 30.58963 24.40542
#
# Velocity S-wave (km/s) = 2.81176 3.64315 3.25411
# Velocity P-wave (km/s) = 3.82059 5.53187 4.75387
#
# Compressibility (1/GPa) = 0.10698467
#
# Stress axis : x y z
#
# Youngs Moduli (GPa) = 12.02982 44.03319 117.75087
#
# Poissons Ratio (x) = -0.36816 1.05693
# Poissons Ratio (y) = -0.10058 0.36000
# Poissons Ratio (z) = 0.10798 0.13462
#
# Static dielectric constant tensor:
#      x y z
#    x 1.977380 0.045820 -0.029680 
#    y 0.045820 1.945980 -0.089050 
#    z -0.029680 -0.089050 1.881930 
# 
# From -- ./inp_files/186356.got.cif
#   From: 2010.05.17/outbox.cif.g08.bks.cpg/sg2_94_cif.got.tgz:186356.got - 2010.06.03 11:33:40.
