data_PCOD9025024
_publ_section_title
;
Structure prediction by ZEFSAII (Michael W. Deem and Ramdas Pophale) SiO2 
 PCOD9025024
Probable space group: P -1
;
_chemical_formula_sum "Si O2"
_cell_formula_units_Z 14
_cell_length_a 11.508534
_cell_length_b 18.453811
_cell_length_c 9.389735
_cell_angle_alpha 26.972063
_cell_angle_beta 127.424489
_cell_angle_gamma 136.815437
_cell_volume 613.242058
_symmetry_space_group_name_H-M "P -1"
_symmetry_group_IT_number 2
_symmetry_cell_setting 'triclinic'
loop_
_space_group_symop_operation_xyz
x,y,z
-x,-y,-z
loop_
_atom_site_type_symbol
_atom_site_label
_atom_site_fract_x
_atom_site_fract_y
_atom_site_fract_z
Si Si1 0.442500 0.436161 0.229439
Si Si2 0.496480 0.664548 0.122866
Si Si3 0.149327 0.701386 0.313441
Si Si4 0.868420 0.016365 0.771024
Si Si5 0.091260 0.041637 0.645916
Si Si6 0.700668 0.362401 0.720585
Si Si7 0.937481 0.383531 0.306306
O O1 0.406793 0.567017 0.078330
O O2 0.277605 0.227695 0.468063
O O3 0.600800 0.438072 0.421826
O O4 0.500000 0.500000 0.000000
O O5 0.500000 0.500000 0.500000
O O6 0.407259 0.733688 0.047796
O O7 0.688404 0.828362 0.951785
O O8 0.275100 0.760924 0.165047
O O9 0.182497 0.645365 0.593340
O O10 0.000000 0.500000 0.500000
O O11 0.103255 0.862112 0.014139
O O12 0.847832 0.175885 0.543861
O O13 0.967762 0.075153 0.594791
O O14 0.000000 0.000000 0.000000
O O15 0.000000 0.000000 0.500000
O O16 0.879505 0.528726 0.627768
O O17 0.000000 0.500000 0.000000
#
# Coordination Sequence:
#
# PCOD9025024 Si02
#       7
#     2   2   2   2   2   2   2
#     4  11  24  43  72 107 142 184 229 297 360 410
#     4  10  22  40  67 101 136 181 225 291 354 403
#     4  10  25  44  70 100 145 187 228 295 361 409
#     4  12  22  42  73  99 136 179 245 288 340 419
#     4  12  27  43  75 106 137 184 245 285 349 433
#     4  10  23  45  68  96 150 175 233 284 357 420
#     4  11  25  44  71 103 138 189 235 288 355 418
#
# _framework density 22.829485999999999
#
# number of rings (size 3 to 8) (size 9 to 14) (size 15 to 20)
#    0.000    1.143    1.429    5.143   12.000    1.714 
#    0.000    0.714    0.000    0.000    0.000    0.000 
#    0.000    0.000    0.000    0.000    0.000    0.000 
#
# Total GULP energy -78052.366351 kJ/mol
# GULP energy per Si atom -5575.169025 kJ/mol
# Density = 2.277753 g / cm^3
# Si number density = 22.829486 Si / 1000 Ang^3
#
#
#
# Elastic Constant Matrix: (Units=GPa)
#
#
# Indices 1 2 3 4 5 6 
#
# 1 121.0775 43.3593 17.2423 6.9389 -30.9154 -45.1657
# 2 43.3593 159.7540 68.4531 7.3730 -19.1189 -20.0787
# 3 17.2423 68.4531 76.5703 -1.2214 -25.7784 -8.0670
# 4 6.9389 7.3730 -1.2214 49.6334 -4.2463 -11.5778
# 5 -30.9154 -19.1189 -25.7784 -4.2463 31.1561 4.7209
# 6 -45.1657 -20.0787 -8.0670 -11.5778 4.7209 58.1992
#
#
#
# Elastic Compliance Matrix: (Units=1/GPa)
#
#
# Indices 1 2 3 4 5 6 
#
# 1 0.018942 -0.004784 0.008680 0.003180 0.021484 0.013143
# 2 -0.004784 0.011863 -0.012312 -0.002334 -0.007797 -0.001158
# 3 0.008680 -0.012312 0.032009 0.005078 0.027367 0.005715
# 4 0.003180 -0.002334 0.005078 0.022297 0.008031 0.006150
# 5 0.021484 -0.007797 0.027367 0.008031 0.070296 0.013671
# 6 0.013143 -0.001158 0.005715 0.006150 0.013671 0.027889
#
#
# Mechanical properties :
#
#
# Convention : Reuss Voigt Hill
#
# Bulk Modulus (GPa) = 21.74826 68.39013 45.06920
# Shear Modulus (GPa) = 23.20663 43.02090 33.11377
#
# Velocity S-wave (km/s) = 3.19175 4.34573 3.81265
# Velocity P-wave (km/s) = 4.80938 7.42983 6.25830
#
# Compressibility (1/GPa) = 0.04598069
#
# Stress axis : x y z
#
# Youngs Moduli (GPa) = 52.79182 84.29805 31.24125
#
# Poissons Ratio (x) = 0.40329 -0.27116
# Poissons Ratio (y) = 0.25256 0.38464
# Poissons Ratio (z) = -0.45821 1.03788
#
# Static dielectric constant tensor:
#      x y z
#    x 2.176190 0.030900 -0.131600 
#    y 0.030900 1.780030 -0.014500 
#    z -0.131600 -0.014500 2.156670 
# 
# From -- ./inp_files/244946.got.cif
#   From: 2010.05.17/outbox.cif.g08.bks.cpg/sg2_123_cif.got.tgz:244946.got - 2010.06.03 11:33:40.
