data_PCOD9025445
_publ_section_title
;
Structure prediction by ZEFSAII (Michael W. Deem and Ramdas Pophale) SiO2 
 PCOD9025445
Probable space group: P -1
;
_chemical_formula_sum "Si O2"
_cell_formula_units_Z 12
_cell_length_a 9.260257
_cell_length_b 9.338715
_cell_length_c 10.037736
_cell_angle_alpha 60.238101
_cell_angle_beta 47.413051
_cell_angle_gamma 63.905472
_cell_volume 547.418731
_symmetry_space_group_name_H-M "P -1"
_symmetry_group_IT_number 2
_symmetry_cell_setting 'triclinic'
loop_
_space_group_symop_operation_xyz
x,y,z
-x,-y,-z
loop_
_atom_site_type_symbol
_atom_site_label
_atom_site_fract_x
_atom_site_fract_y
_atom_site_fract_z
Si Si1 0.323207 0.039414 0.488342
Si Si2 0.439911 0.894877 0.207792
Si Si3 0.913632 0.507785 0.899146
Si Si4 0.851691 0.232671 0.396388
Si Si5 0.568117 0.511233 0.277996
Si Si6 0.148804 0.388162 0.556541
O O1 0.208216 0.214600 0.525090
O O2 0.500000 0.000000 0.500000
O O3 0.436236 0.006931 0.290858
O O4 0.168587 0.907687 0.635239
O O5 0.219257 0.843127 0.387260
O O6 0.568308 0.708100 0.216995
O O7 0.500000 0.000000 0.000000
O O8 0.947571 0.693434 0.748226
O O9 0.037436 0.388087 0.769008
O O10 0.000000 0.500000 0.000000
O O11 0.691396 0.479538 0.077311
O O12 0.685219 0.386559 0.373720
O O13 0.351145 0.464341 0.415882
O O14 0.000000 0.500000 0.500000
#
# Coordination Sequence:
#
# PCOD9025445 Si02
#       6
#     2   2   2   2   2   2
#     4  10  22  41  73  98 138 183 224 290 351 393
#     4  10  22  40  69 101 132 180 230 281 346 409
#     4  10  24  41  72 101 125 188 241 268 333 426
#     4   9  20  43  72  97 133 182 235 281 329 418
#     4  11  22  45  73  98 137 190 231 278 346 423
#     4  12  25  45  65 104 149 176 220 297 358 400
#
# _framework density 21.921061000000002
#
# number of rings (size 3 to 8) (size 9 to 14) (size 15 to 20)
#    1.000    0.667    3.333    0.500    9.333    0.667 
#    3.000    5.833    0.000    0.000    0.000    0.000 
#    0.000    0.000    0.000    0.000    0.000    0.000 
#
# Total GULP energy -66834.634297 kJ/mol
# GULP energy per Si atom -5569.552858 kJ/mol
# Density = 2.187117 g / cm^3
# Si number density = 21.921061 Si / 1000 Ang^3
#
#
#
# Elastic Constant Matrix: (Units=GPa)
#
#
# Indices 1 2 3 4 5 6 
#
# 1 68.7730 49.4873 41.1888 13.7996 6.1332 0.6178
# 2 49.4873 202.6704 54.8533 22.9015 19.8723 17.6809
# 3 41.1888 54.8533 191.7003 5.6036 12.3494 7.7578
# 4 13.7996 22.9015 5.6036 42.6606 4.9595 4.2437
# 5 6.1332 19.8723 12.3494 4.9595 36.9812 5.6661
# 6 0.6178 17.6809 7.7578 4.2437 5.6661 32.5555
#
#
#
# Elastic Compliance Matrix: (Units=1/GPa)
#
#
# Indices 1 2 3 4 5 6 
#
# 1 0.020038 -0.003790 -0.003211 -0.004315 -0.000099 0.003023
# 2 -0.003790 0.006724 -0.000813 -0.001760 -0.002048 -0.002800
# 3 -0.003211 -0.000813 0.006220 0.000874 -0.001086 -0.000905
# 4 -0.004315 -0.001760 0.000874 0.026099 -0.001784 -0.002262
# 5 -0.000099 -0.002048 -0.001086 -0.001784 0.029295 -0.003493
# 6 0.003023 -0.002800 -0.000905 -0.002262 -0.003493 0.033299
#
#
# Mechanical properties :
#
#
# Convention : Reuss Voigt Hill
#
# Bulk Modulus (GPa) = 57.62326 83.80028 70.71177
# Shear Modulus (GPa) = 34.94383 43.61375 39.27879
#
# Velocity S-wave (km/s) = 3.99692 4.46531 4.23759
# Velocity P-wave (km/s) = 6.90248 8.05584 7.50136
#
# Compressibility (1/GPa) = 0.01735410
#
# Stress axis : x y z
#
# Youngs Moduli (GPa) = 49.90418 148.73020 160.77288
#
# Poissons Ratio (x) = 0.56375 0.51620
# Poissons Ratio (y) = 0.18916 0.13068
# Poissons Ratio (z) = 0.16023 0.12089
#
# Static dielectric constant tensor:
#      x y z
#    x 1.831160 -0.021790 -0.026390 
#    y -0.021790 1.592000 -0.071380 
#    z -0.026390 -0.071380 1.878150 
# 
# From -- ./inp_files/419051.got.cif
#   From: 2010.05.17/outbox.cif.g08.bks.cpg/sg2_210_cif.got.tgz:419051.got - 2010.06.03 11:33:40.
