data_PCOD9025552
_publ_section_title
;
Structure prediction by ZEFSAII (Michael W. Deem and Ramdas Pophale) SiO2 
 PCOD9025552
Probable space group: P -1
;
_chemical_formula_sum "Si O2"
_cell_formula_units_Z 16
_cell_length_a 9.332348
_cell_length_b 13.238737
_cell_length_c 12.888919
_cell_angle_alpha 44.803075
_cell_angle_beta 116.976564
_cell_angle_gamma 83.612670
_cell_volume 724.144540
_symmetry_space_group_name_H-M "P -1"
_symmetry_group_IT_number 2
_symmetry_cell_setting 'triclinic'
loop_
_space_group_symop_operation_xyz
x,y,z
-x,-y,-z
loop_
_atom_site_type_symbol
_atom_site_label
_atom_site_fract_x
_atom_site_fract_y
_atom_site_fract_z
Si Si1 0.751420 0.718754 0.267815
Si Si2 0.742331 0.719386 0.021293
Si Si3 0.103407 0.392484 0.223330
Si Si4 0.077809 0.791563 0.659283
Si Si5 0.731606 0.046886 0.079296
Si Si6 0.192779 0.787094 0.470872
Si Si7 0.427104 0.933856 0.434768
Si Si8 0.447847 0.639320 0.039595
O O1 0.000000 0.500000 0.500000
O O2 0.746192 0.865644 0.226933
O O3 0.724472 0.768408 0.100477
O O4 0.519450 0.780461 0.177646
O O5 0.589492 0.670746 0.999128
O O6 0.667201 0.904501 0.800718
O O7 0.971847 0.535274 0.174519
O O8 0.357419 0.277979 0.384792
O O9 0.088323 0.229879 0.345779
O O10 0.000000 0.500000 0.000000
O O11 0.113333 0.762638 0.569656
O O12 0.300358 0.637829 0.913338
O O13 0.000000 0.000000 0.500000
O O14 0.709350 0.165246 0.083723
O O15 0.990585 0.915189 0.228252
O O16 0.264611 0.905326 0.432671
O O17 0.404160 0.551972 0.696486
O O18 0.500000 0.000000 0.500000
#
# Coordination Sequence:
#
# PCOD9025552 Si02
#       8
#     2   2   2   2   2   2   2   2
#     4  10  23  43  72 104 130 168 229 297 345 395
#     4  11  24  42  66  97 133 178 223 275 345 401
#     4  12  25  40  61  93 139 181 218 262 328 402
#     4  12  23  37  63  94 134 176 228 273 328 397
#     4  10  22  40  69  97 131 163 227 284 344 386
#     4  12  24  41  64  98 135 179 227 282 330 402
#     4  12  26  42  63  96 145 183 220 266 336 405
#     4  11  22  38  65  98 133 178 227 279 331 398
#
# _framework density 22.095037000000001
#
# number of rings (size 3 to 8) (size 9 to 14) (size 15 to 20)
#    0.000    0.750    3.750    4.875    1.750    2.000 
#    0.000    0.625    0.000    2.250    0.000    0.000 
#    0.000    0.000    0.000    0.000    0.000    0.000 
#
# Total GULP energy -89120.151582 kJ/mol
# GULP energy per Si atom -5570.009474 kJ/mol
# Density = 2.204475 g / cm^3
# Si number density = 22.095037 Si / 1000 Ang^3
#
#
#
# Elastic Constant Matrix: (Units=GPa)
#
#
# Indices 1 2 3 4 5 6 
#
# 1 86.3366 3.6664 22.5318 6.2768 -0.9826 16.9215
# 2 3.6664 70.8422 16.9811 -8.1879 0.9989 3.4973
# 3 22.5318 16.9811 111.4004 -16.0412 17.2894 9.6313
# 4 6.2768 -8.1879 -16.0412 34.4909 1.0639 9.4957
# 5 -0.9826 0.9989 17.2894 1.0639 42.6687 -2.1929
# 6 16.9215 3.4973 9.6313 9.4957 -2.1929 32.9273
#
#
#
# Elastic Compliance Matrix: (Units=1/GPa)
#
#
# Indices 1 2 3 4 5 6 
#
# 1 0.013553 -0.000053 -0.002794 -0.002333 0.001227 -0.005388
# 2 -0.000053 0.014999 -0.001631 0.003374 0.000119 -0.002054
# 3 -0.002794 -0.001631 0.011994 0.007041 -0.005282 -0.004282
# 4 -0.002333 0.003374 0.007041 0.036989 -0.004534 -0.012188
# 5 0.001227 0.000119 -0.005282 -0.004534 0.025917 0.003936
# 6 -0.005388 -0.002054 -0.004282 -0.012188 0.003936 0.038386
#
#
# Mechanical properties :
#
#
# Convention : Reuss Voigt Hill
#
# Bulk Modulus (GPa) = 31.65328 39.43752 35.54540
# Shear Modulus (GPa) = 30.99344 37.04404 34.01874
#
# Velocity S-wave (km/s) = 3.74937 4.09905 3.92810
# Velocity P-wave (km/s) = 5.75333 6.34749 6.05770
#
# Compressibility (1/GPa) = 0.03159231
#
# Stress axis : x y z
#
# Youngs Moduli (GPa) = 73.78169 66.67040 83.37428
#
# Poissons Ratio (x) = 0.00351 0.23293
# Poissons Ratio (y) = 0.00389 0.13596
# Poissons Ratio (z) = 0.20613 0.10872
#
# Static dielectric constant tensor:
#      x y z
#    x 1.800110 0.005710 0.075250 
#    y 0.005710 1.819200 -0.005940 
#    z 0.075250 -0.005940 1.936710 
# 
# From -- ./inp_files/503892.got.cif
#   From: 2010.05.17/outbox.cif.g08.bks.cpg/sg2_252_cif.got.tgz:503892.got - 2010.06.03 11:33:40.
