data_PCOD9025071
_publ_section_title
;
Structure prediction by ZEFSAII (Michael W. Deem and Ramdas Pophale) SiO2 
 PCOD9025071
Probable space group: P -1
;
_chemical_formula_sum "Si O2"
_cell_formula_units_Z 14
_cell_length_a 5.550402
_cell_length_b 21.127119
_cell_length_c 9.843068
_cell_angle_alpha 41.662615
_cell_angle_beta 76.275191
_cell_angle_gamma 63.242555
_cell_volume 675.499240
_symmetry_space_group_name_H-M "P -1"
_symmetry_group_IT_number 2
_symmetry_cell_setting 'triclinic'
loop_
_space_group_symop_operation_xyz
x,y,z
-x,-y,-z
loop_
_atom_site_type_symbol
_atom_site_label
_atom_site_fract_x
_atom_site_fract_y
_atom_site_fract_z
Si Si1 0.175712 0.209002 0.423684
Si Si2 0.446300 0.229853 0.596446
Si Si3 0.577229 0.174603 0.959810
Si Si4 0.250866 0.063993 0.323023
Si Si5 0.645576 0.235786 0.151348
Si Si6 0.622668 0.378286 0.148045
Si Si7 0.943356 0.034818 0.733015
O O1 0.189653 0.230252 0.548525
O O2 0.968401 0.161652 0.251810
O O3 0.447995 0.195288 0.326514
O O4 0.108661 0.107866 0.586178
O O5 0.515269 0.315072 0.368899
O O6 0.671883 0.111603 0.722714
O O7 0.453623 0.243318 0.733663
O O8 0.388249 0.116285 0.118509
O O9 0.597570 0.232099 0.003427
O O10 0.872295 0.078106 0.046484
O O11 0.500000 0.000000 0.500000
O O12 0.135417 0.996998 0.352121
O O13 0.946212 0.316244 0.224255
O O14 0.571875 0.347621 0.052007
O O15 0.500000 0.500000 0.000000
#
# Coordination Sequence:
#
# PCOD9025071 Si02
#       7
#     2   2   2   2   2   2   2
#     4  10  22  40  67  90 127 162 216 266 311 371
#     4  10  23  40  61  91 130 167 207 263 314 378
#     4  11  24  37  57  91 135 175 207 247 316 370
#     4  11  26  36  59  93 134 177 216 249 303 366
#     4  10  24  41  63  92 130 165 214 263 312 373
#     4  10  23  44  72  94 115 157 215 273 328 377
#     4  10  23  38  60  88 132 175 217 248 305 369
#
# _framework density 20.725411999999999
#
# number of rings (size 3 to 8) (size 9 to 14) (size 15 to 20)
#    0.000    1.714    0.000    2.143   16.000   12.000 
#    0.000    0.714    0.000    4.286    0.000    0.000 
#    0.000    0.000    0.000    0.000    0.000    0.000 
#
# Total GULP energy -78080.617691 kJ/mol
# GULP energy per Si atom -5577.186978 kJ/mol
# Density = 2.067824 g / cm^3
# Si number density = 20.725412 Si / 1000 Ang^3
#
#
#
# Elastic Constant Matrix: (Units=GPa)
#
#
# Indices 1 2 3 4 5 6 
#
# 1 74.0439 27.1903 13.1128 -7.4177 14.7559 13.5245
# 2 27.1903 156.2838 62.7672 -8.5866 24.7241 27.5598
# 3 13.1128 62.7672 78.7636 14.7117 19.4134 16.2396
# 4 -7.4177 -8.5866 14.7117 41.9519 6.6497 11.1116
# 5 14.7559 24.7241 19.4134 6.6497 18.5408 8.4610
# 6 13.5245 27.5598 16.2396 11.1116 8.4610 28.9815
#
#
#
# Elastic Compliance Matrix: (Units=1/GPa)
#
#
# Indices 1 2 3 4 5 6 
#
# 1 0.018485 0.001126 0.000004 0.008137 -0.015327 -0.008344
# 2 0.001126 0.013181 -0.008364 0.009759 -0.008867 -0.009525
# 3 0.000004 -0.008364 0.023359 -0.008528 -0.010841 0.001298
# 4 0.008137 0.009759 -0.008528 0.037556 -0.015772 -0.018093
# 5 -0.015327 -0.008867 -0.010841 -0.015772 0.094976 -0.000021
# 6 -0.008344 -0.009525 0.001298 -0.018093 -0.000021 0.053672
#
#
# Mechanical properties :
#
#
# Convention : Reuss Voigt Hill
#
# Bulk Modulus (GPa) = 24.65813 57.24799 40.95306
# Shear Modulus (GPa) = 18.57244 31.62957 25.10101
#
# Velocity S-wave (km/s) = 2.99677 3.91080 3.48389
# Velocity P-wave (km/s) = 4.88851 6.93358 5.99884
#
# Compressibility (1/GPa) = 0.04055457
#
# Stress axis : x y z
#
# Youngs Moduli (GPa) = 54.09741 75.86757 42.81086
#
# Poissons Ratio (x) = -0.08540 -0.00016
# Poissons Ratio (y) = -0.06089 0.35809
# Poissons Ratio (z) = -0.00021 0.63459
#
# Static dielectric constant tensor:
#      x y z
#    x 1.863990 0.023630 0.012210 
#    y 0.023630 1.794440 0.058490 
#    z 0.012210 0.058490 1.728780 
# 
# From -- ./inp_files/138534.got.cif
#   From: 2010.05.17/outbox.cif.g08.bks.cpg/sg2_70_cif.got.tgz:138534.got - 2010.06.03 11:33:40.
