data_PCOD9025999
_publ_section_title
;
Structure prediction by ZEFSAII (Michael W. Deem and Ramdas Pophale) SiO2 
 PCOD9025999
Probable space group: P -1
;
_chemical_formula_sum "Si O2"
_cell_formula_units_Z 16
_cell_length_a 15.718465
_cell_length_b 14.942293
_cell_length_c 5.251744
_cell_angle_alpha 96.135280
_cell_angle_beta 68.942082
_cell_angle_gamma 142.071720
_cell_volume 673.210393
_symmetry_space_group_name_H-M "P -1"
_symmetry_group_IT_number 2
_symmetry_cell_setting 'triclinic'
loop_
_space_group_symop_operation_xyz
x,y,z
-x,-y,-z
loop_
_atom_site_type_symbol
_atom_site_label
_atom_site_fract_x
_atom_site_fract_y
_atom_site_fract_z
Si Si1 0.749276 0.381138 0.421758
Si Si2 0.754330 0.024637 0.656583
Si Si3 0.756470 0.689592 0.688863
Si Si4 0.388114 0.911894 0.349649
Si Si5 0.505238 0.423190 0.276293
Si Si6 0.033405 0.930875 0.805166
Si Si7 0.580632 0.291598 0.075178
Si Si8 0.951097 0.707607 0.209559
O O1 0.730438 0.266778 0.536113
O O2 0.655076 0.295501 0.229230
O O3 0.898057 0.560442 0.225354
O O4 0.685533 0.384672 0.740367
O O5 0.717180 0.082736 0.545840
O O6 0.800481 0.972272 0.432885
O O7 0.895460 0.158526 0.738270
O O8 0.584724 0.871752 0.909687
O O9 0.665060 0.702945 0.695517
O O10 0.920937 0.849967 0.663553
O O11 0.800456 0.642955 0.446762
O O12 0.639880 0.557969 0.980184
O O13 0.500000 0.000000 0.500000
O O14 0.500000 0.000000 0.000000
O O15 0.500000 0.500000 0.500000
O O16 0.545787 0.355755 0.282172
O O17 0.982822 0.796460 0.958189
O O18 0.000000 0.000000 0.000000
#
# Coordination Sequence:
#
# PCOD9025999 Si02
#       8
#     2   2   2   2   2   2   2   2
#     4  12  25  49  79 107 151 193 245 319 379 443
#     4  11  28  45  74 109 149 194 256 307 380 459
#     4  10  22  41  60  97 138 186 248 304 362 435
#     4  12  25  51  79 116 149 189 251 320 386 451
#     4  11  23  37  66 100 141 188 251 310 368 435
#     4  11  27  45  69 100 155 203 247 302 376 448
#     4  12  26  44  75 111 142 197 255 308 378 443
#     4  11  26  47  69 104 151 195 253 302 382 444
#
# _framework density 23.766715000000001
#
# number of rings (size 3 to 8) (size 9 to 14) (size 15 to 20)
#    0.000    0.750    3.750    2.250   12.250    1.500 
#    0.000    0.625    0.000    0.000    0.000    0.000 
#    0.000    0.000    0.000    0.000    0.000    0.000 
#
# Total GULP energy -89075.605391 kJ/mol
# GULP energy per Si atom -5567.225337 kJ/mol
# Density = 2.371262 g / cm^3
# Si number density = 23.766715 Si / 1000 Ang^3
#
#
#
# Elastic Constant Matrix: (Units=GPa)
#
#
# Indices 1 2 3 4 5 6 
#
# 1 83.4778 32.2843 19.9405 -12.8773 2.1755 -7.9733
# 2 32.2843 99.3017 17.9628 -13.8226 9.7892 -17.9977
# 3 19.9405 17.9628 73.3717 -10.7575 19.1038 7.9970
# 4 -12.8773 -13.8226 -10.7575 28.9680 -12.0013 11.9593
# 5 2.1755 9.7892 19.1038 -12.0013 29.5462 -5.6580
# 6 -7.9733 -17.9977 7.9970 11.9593 -5.6580 44.4096
#
#
#
# Elastic Compliance Matrix: (Units=1/GPa)
#
#
# Indices 1 2 3 4 5 6 
#
# 1 0.015124 -0.003797 -0.003838 0.005045 0.004892 0.001132
# 2 -0.003797 0.012772 -0.002046 0.001333 -0.001256 0.004344
# 3 -0.003838 -0.002046 0.019453 0.002576 -0.011957 -0.007238
# 4 0.005045 0.001333 0.002576 0.048989 0.015459 -0.010241
# 5 0.004892 -0.001256 -0.011957 0.015459 0.048788 0.004575
# 6 0.001132 0.004344 -0.007238 -0.010241 0.004575 0.029125
#
#
# Mechanical properties :
#
#
# Convention : Reuss Voigt Hill
#
# Bulk Modulus (GPa) = 35.73211 44.05849 39.89530
# Shear Modulus (GPa) = 24.63773 32.98234 28.81003
#
# Velocity S-wave (km/s) = 3.22320 3.72930 3.48544
# Velocity P-wave (km/s) = 5.37765 6.09276 5.74634
#
# Compressibility (1/GPa) = 0.02798603
#
# Stress axis : x y z
#
# Youngs Moduli (GPa) = 66.12211 78.29914 51.40577
#
# Poissons Ratio (x) = 0.29734 0.19729
# Poissons Ratio (y) = 0.25109 0.10516
# Poissons Ratio (z) = 0.25377 0.16017
#
# Static dielectric constant tensor:
#      x y z
#    x 1.627720 -0.318660 -0.077750 
#    y -0.318660 1.876260 -0.065610 
#    z -0.077750 -0.065610 1.917480 
# 
# From -- ./inp_files/98032.got.cif
#   From: 2010.05.17/outbox.cif.g08.bks.cpg/sg2_50_cif.got.tgz:98032.got - 2010.06.03 11:33:40.
