data_PCOD9025164
_publ_section_title
;
Structure prediction by ZEFSAII (Michael W. Deem and Ramdas Pophale) SiO2 
 PCOD9025164
Probable space group: P -1
;
_chemical_formula_sum "Si O2"
_cell_formula_units_Z 16
_cell_length_a 21.526901
_cell_length_b 13.599752
_cell_length_c 8.186016
_cell_angle_alpha 53.842809
_cell_angle_beta 50.715367
_cell_angle_gamma 22.055503
_cell_volume 696.500129
_symmetry_space_group_name_H-M "P -1"
_symmetry_group_IT_number 2
_symmetry_cell_setting 'triclinic'
loop_
_space_group_symop_operation_xyz
x,y,z
-x,-y,-z
loop_
_atom_site_type_symbol
_atom_site_label
_atom_site_fract_x
_atom_site_fract_y
_atom_site_fract_z
Si Si1 0.315307 0.768699 0.118390
Si Si2 0.824341 0.802572 0.441583
Si Si3 0.222394 0.599170 0.958678
Si Si4 0.260273 0.382181 0.621606
Si Si5 0.190782 0.713841 0.527500
Si Si6 0.921657 0.725540 0.982630
Si Si7 0.827591 0.073170 0.156405
Si Si8 0.384171 0.149654 0.291501
O O1 0.288232 0.709635 0.363330
O O2 0.255018 0.979694 0.078765
O O3 0.500000 0.500000 0.000000
O O4 0.194586 0.904326 0.026385
O O5 0.675410 0.902795 0.623342
O O6 0.000000 0.500000 0.500000
O O7 0.782651 0.998139 0.374619
O O8 0.869316 0.765041 0.214251
O O9 0.209024 0.632858 0.754025
O O10 0.265906 0.675678 0.880573
O O11 0.337512 0.329236 0.084087
O O12 0.027186 0.826329 0.115450
O O13 0.280525 0.500317 0.462069
O O14 0.277796 0.306364 0.485570
O O15 0.076718 0.609237 0.792130
O O16 0.415703 0.120343 0.726892
O O17 0.000000 0.000000 0.500000
O O18 0.000000 0.500000 0.000000
#
# Coordination Sequence:
#
# PCOD9025164 Si02
#       8
#     2   2   2   2   2   2   2   2
#     4  11  25  43  68  97 138 179 226 284 346 414
#     4  11  22  40  65  98 137 182 220 282 351 409
#     4  11  23  42  68 102 132 181 233 284 340 410
#     4  11  25  44  70 101 135 179 236 280 346 416
#     4  12  23  42  70  99 129 174 231 282 335 405
#     4  11  23  42  66  98 134 177 232 279 342 408
#     4  10  22  40  67  96 136 180 231 275 348 412
#     4  11  25  43  71 102 140 181 227 287 350 414
#
# _framework density 22.972000000000001
#
# number of rings (size 3 to 8) (size 9 to 14) (size 15 to 20)
#    0.000    1.000    5.000    1.500    5.250    2.500 
#    0.000    0.625    0.000    0.000    0.000    0.000 
#    0.000    0.000    0.000    0.000    0.000    0.000 
#
# Total GULP energy -89278.269499 kJ/mol
# GULP energy per Si atom -5579.891844 kJ/mol
# Density = 2.291971 g / cm^3
# Si number density = 22.972000 Si / 1000 Ang^3
#
#
#
# Elastic Constant Matrix: (Units=GPa)
#
#
# Indices 1 2 3 4 5 6 
#
# 1 73.3582 17.0688 25.1646 -21.3156 -19.5558 28.9529
# 2 17.0688 125.5013 55.7324 -21.2257 -15.0532 11.0720
# 3 25.1646 55.7324 115.5553 -34.5068 -23.0412 4.1428
# 4 -21.3156 -21.2257 -34.5068 40.3728 11.2862 -3.5839
# 5 -19.5558 -15.0532 -23.0412 11.2862 22.0677 -14.7382
# 6 28.9529 11.0720 4.1428 -3.5839 -14.7382 32.1321
#
#
#
# Elastic Compliance Matrix: (Units=1/GPa)
#
#
# Indices 1 2 3 4 5 6 
#
# 1 0.026070 0.001235 -0.002012 0.010138 0.002328 -0.021458
# 2 0.001235 0.010528 -0.004696 0.001900 -0.000317 -0.004068
# 3 -0.002012 -0.004696 0.015848 0.006952 0.013623 0.008412
# 4 0.010138 0.001900 0.006952 0.038745 -0.009409 -0.010681
# 5 0.002328 -0.000317 0.013623 -0.009409 0.090816 0.036860
# 6 -0.021458 -0.004068 0.008412 -0.010681 0.036860 0.066489
#
#
# Mechanical properties :
#
#
# Convention : Reuss Voigt Hill
#
# Bulk Modulus (GPa) = 24.09692 56.70515 40.40104
# Shear Modulus (GPa) = 18.29650 33.34446 25.82048
#
# Velocity S-wave (km/s) = 2.82524 3.81402 3.35624
# Velocity P-wave (km/s) = 4.59947 6.64332 5.71353
#
# Compressibility (1/GPa) = 0.04149908
#
# Stress axis : x y z
#
# Youngs Moduli (GPa) = 38.35804 94.98502 63.09985
#
# Poissons Ratio (x) = -0.11728 0.12695
# Poissons Ratio (y) = -0.04736 0.29634
# Poissons Ratio (z) = 0.07717 0.44608
#
# Static dielectric constant tensor:
#      x y z
#    x 3.049340 -0.852360 1.245100 
#    y -0.852360 2.740160 -1.402570 
#    z 1.245100 -1.402570 3.991620 
# 
# From -- ./inp_files/354303.got.cif
#   From: 2010.05.17/outbox.cif.g08.bks.cpg/sg2_178_cif.got.tgz:354303.got - 2010.06.03 11:33:40.
