data_PCOD9025228
_publ_section_title
;
Structure prediction by ZEFSAII (Michael W. Deem and Ramdas Pophale) SiO2 
 PCOD9025228
Probable space group: P -1
;
_chemical_formula_sum "Si O2"
_cell_formula_units_Z 15
_cell_length_a 27.236465
_cell_length_b 8.402982
_cell_length_c 26.717778
_cell_angle_alpha 36.284119
_cell_angle_beta 168.996649
_cell_angle_gamma 143.928882
_cell_volume 682.807110
_symmetry_space_group_name_H-M "P -1"
_symmetry_group_IT_number 2
_symmetry_cell_setting 'triclinic'
loop_
_space_group_symop_operation_xyz
x,y,z
-x,-y,-z
loop_
_atom_site_type_symbol
_atom_site_label
_atom_site_fract_x
_atom_site_fract_y
_atom_site_fract_z
Si Si1 0.000000 0.500000 0.000000
Si Si2 0.810267 0.720712 0.103292
Si Si3 0.231522 0.864969 0.742928
Si Si4 0.654684 0.001896 0.389639
Si Si5 0.254044 0.927952 0.326040
Si Si6 0.242412 0.125003 0.094277
Si Si7 0.724075 0.305618 0.276774
Si Si8 0.399353 0.567009 0.475242
O O1 0.785717 0.526354 0.732853
O O2 0.150878 0.816190 0.061706
O O3 0.817171 0.448096 0.210205
O O4 0.781129 0.678742 0.025500
O O5 0.072606 0.915728 0.330415
O O6 0.561882 0.849550 0.839035
O O7 0.269054 0.883233 0.716669
O O8 0.000000 0.000000 0.500000
O O9 0.500000 0.000000 0.000000
O O10 0.688557 0.120825 0.337475
O O11 0.570475 0.681778 0.395375
O O12 0.281893 0.789224 0.335508
O O13 0.970687 0.836378 0.087178
O O14 0.325506 0.260105 0.311873
O O15 0.474285 0.848725 0.604049
O O16 0.000000 0.500000 0.500000
O O17 0.500000 0.500000 0.000000
#
# Coordination Sequence:
#
# PCOD9025228 Si02
#       8
#     1   2   2   2   2   2   2   2
#     4  10  22  40  68 100 130 180 234 266 344 404
#     4  12  25  44  69 107 138 175 238 293 338 415
#     4  12  26  45  72 103 143 181 223 289 365 419
#     4  12  24  42  74 103 136 180 242 289 335 415
#     4  10  25  44  65  98 148 178 226 282 352 409
#     4  11  24  42  68  97 140 183 223 289 337 411
#     4  12  23  46  71 102 140 184 233 287 353 421
#     4  10  24  43  70 103 138 188 230 290 345 407
#
# _framework density 21.968136000000001
#
# number of rings (size 3 to 8) (size 9 to 14) (size 15 to 20)
#    0.000    0.800    4.000    2.400    1.867    9.067 
#    0.000    0.000    0.000    0.000    0.000    0.000 
#    0.000    0.000    0.000    0.000    0.000    0.000 
#
# Total GULP energy -83735.380997 kJ/mol
# GULP energy per Si atom -5582.358733 kJ/mol
# Density = 2.191814 g / cm^3
# Si number density = 21.968136 Si / 1000 Ang^3
#
#
#
# Elastic Constant Matrix: (Units=GPa)
#
#
# Indices 1 2 3 4 5 6 
#
# 1 115.6239 9.8040 34.4423 -4.1945 -7.9136 19.7447
# 2 9.8040 64.8821 33.8108 -11.1135 1.0131 11.5786
# 3 34.4423 33.8108 171.3936 -7.5845 6.9091 -6.2111
# 4 -4.1945 -11.1135 -7.5845 29.2288 1.1880 -9.1246
# 5 -7.9136 1.0131 6.9091 1.1880 38.7551 -0.7349
# 6 19.7447 11.5786 -6.2111 -9.1246 -0.7349 48.7593
#
#
#
# Elastic Compliance Matrix: (Units=1/GPa)
#
#
# Indices 1 2 3 4 5 6 
#
# 1 0.010280 0.000413 -0.002438 -0.000548 0.002452 -0.004637
# 2 0.000413 0.018902 -0.003746 0.004961 0.000026 -0.004204
# 3 -0.002438 -0.003746 0.007289 0.001119 -0.001677 0.002989
# 4 -0.000548 0.004961 0.001119 0.038351 -0.001496 0.006341
# 5 0.002452 0.000026 -0.001677 -0.001496 0.026627 -0.001091
# 6 -0.004637 -0.004204 0.002989 0.006341 -0.001091 0.024936
#
#
# Mechanical properties :
#
#
# Convention : Reuss Voigt Hill
#
# Bulk Modulus (GPa) = 40.11568 56.44597 48.28082
# Shear Modulus (GPa) = 34.19141 41.60482 37.89812
#
# Velocity S-wave (km/s) = 3.94942 4.35658 4.15799
# Velocity P-wave (km/s) = 6.25281 7.14540 6.71395
#
# Compressibility (1/GPa) = 0.02492791
#
# Stress axis : x y z
#
# Youngs Moduli (GPa) = 97.27791 52.90571 137.19633
#
# Poissons Ratio (x) = -0.02183 0.33453
# Poissons Ratio (y) = -0.04014 0.51387
# Poissons Ratio (z) = 0.23719 0.19816
#
# Static dielectric constant tensor:
#      x y z
#    x 1.860090 0.051480 0.084020 
#    y 0.051480 1.936870 0.007590 
#    z 0.084020 0.007590 1.794480 
# 
# From -- ./inp_files/624355.got.cif
#   From: 2010.05.17/outbox.cif.g08.bks.cpg/sg2_313_cif.got.tgz:624355.got - 2010.06.03 11:33:40.
