data_PCOD9025928
_publ_section_title
;
Structure prediction by ZEFSAII (Michael W. Deem and Ramdas Pophale) SiO2 
 PCOD9025928
Probable space group: P -1
;
_chemical_formula_sum "Si O2"
_cell_formula_units_Z 16
_cell_length_a 5.123193
_cell_length_b 12.820001
_cell_length_c 31.186101
_cell_angle_alpha 25.418082
_cell_angle_beta 82.334952
_cell_angle_gamma 76.936311
_cell_volume 844.053215
_symmetry_space_group_name_H-M "P -1"
_symmetry_group_IT_number 2
_symmetry_cell_setting 'triclinic'
loop_
_space_group_symop_operation_xyz
x,y,z
-x,-y,-z
loop_
_atom_site_type_symbol
_atom_site_label
_atom_site_fract_x
_atom_site_fract_y
_atom_site_fract_z
Si Si1 0.689679 0.174601 0.537850
Si Si2 0.264771 0.547398 0.260567
Si Si3 0.891286 0.425030 0.170402
Si Si4 0.520677 0.893124 0.724631
Si Si5 0.767382 0.696300 0.353548
Si Si6 0.140916 0.705696 0.681175
Si Si7 0.220321 0.016143 0.024940
Si Si8 0.650663 0.397990 0.662728
O O1 0.761020 0.411688 0.472417
O O2 0.485769 0.311796 0.454598
O O3 0.550311 0.022220 0.630387
O O4 0.961683 0.990001 0.582368
O O5 0.543113 0.342260 0.318694
O O6 0.251494 0.787429 0.141793
O O7 0.283883 0.621166 0.281901
O O8 0.007728 0.437317 0.296247
O O9 0.644959 0.316440 0.200121
O O10 0.886449 0.409747 0.228215
O O11 0.174222 0.241317 0.217971
O O12 0.864088 0.711452 0.052352
O O13 0.364769 0.104597 0.681906
O O14 0.575147 0.736857 0.300295
O O15 0.073008 0.695078 0.335518
O O16 0.500000 0.000000 0.000000
O O17 0.000000 0.000000 0.000000
#
# Coordination Sequence:
#
# PCOD9025928 Si02
#       8
#     2   2   2   2   2   2   2   2
#     4   9  24  36  60  88 124 153 204 241 289 352
#     4  12  23  40  60  85 120 168 184 245 298 350
#     4  11  22  37  59  96 115 148 191 256 298 354
#     4  11  22  37  65  85 122 150 197 253 304 331
#     4  10  22  41  57  86 117 162 202 246 288 340
#     4  11  22  36  59  85 126 151 197 235 295 351
#     4  12  22  40  64  89 120 152 194 242 302 355
#     4  10  24  38  58  84 120 163 207 232 283 357
#
# _framework density 18.956151999999999
#
# number of rings (size 3 to 8) (size 9 to 14) (size 15 to 20)
#    0.750    0.500    2.500    4.125    5.250    1.500 
#    0.000    0.000    0.000    4.500    0.000    0.000 
#    0.000    0.000    0.000    0.000    0.000    0.000 
#
# Total GULP energy -89366.802569 kJ/mol
# GULP energy per Si atom -5585.425161 kJ/mol
# Density = 1.891301 g / cm^3
# Si number density = 18.956152 Si / 1000 Ang^3
#
#
#
# Elastic Constant Matrix: (Units=GPa)
#
#
# Indices 1 2 3 4 5 6 
#
# 1 63.2184 -0.4211 -0.8799 -1.3875 9.5421 -7.3800
# 2 -0.4211 15.6201 34.4619 19.2243 -5.6621 4.1771
# 3 -0.8799 34.4619 44.7602 -16.8119 5.3393 -8.5660
# 4 -1.3875 19.2243 -16.8119 4.0765 13.3164 -2.1808
# 5 9.5421 -5.6621 5.3393 13.3164 15.8680 -7.2396
# 6 -7.3800 4.1771 -8.5660 -2.1808 -7.2396 30.2988
#
#
#
# Elastic Compliance Matrix: (Units=1/GPa)
#
#
# Indices 1 2 3 4 5 6 
#
# 1 0.016910 0.004097 -0.002231 -0.001131 -0.006409 0.001310
# 2 0.004097 0.013528 0.002926 0.029347 -0.025032 -0.003909
# 3 -0.002231 0.002926 0.011676 -0.019427 0.017056 0.005031
# 4 -0.001131 0.029347 -0.019427 0.013508 0.002603 -0.008219
# 5 -0.006409 -0.025032 0.017056 0.002603 0.059671 0.021157
# 6 0.001310 -0.003909 0.005031 -0.008219 0.021157 0.039749
#
#
# Mechanical properties :
#
#
# Convention : Reuss Voigt Hill
#
# Bulk Modulus (GPa) = 19.34347 21.10227 20.22287
# Shear Modulus (GPa) = 30.73318 16.07787 23.40552
#
# Velocity S-wave (km/s) = 4.03088 2.91548 3.51767
# Velocity P-wave (km/s) = 5.64716 4.74233 5.21441
#
# Compressibility (1/GPa) = 0.05169703
#
# Stress axis : x y z
#
# Youngs Moduli (GPa) = 59.13675 73.92269 85.64468
#
# Poissons Ratio (x) = -0.30286 0.19111
# Poissons Ratio (y) = -0.24228 -0.25060
# Poissons Ratio (z) = 0.13196 -0.21630
#
# Static dielectric constant tensor:
#      x y z
#    x 1.662950 0.008340 0.007440 
#    y 0.008340 1.638070 -0.015770 
#    z 0.007440 -0.015770 1.654380 
# 
# From -- ./inp_files/621822.got.cif
#   From: 2010.05.17/outbox.cif.g08.bks.cpg/sg2_311_cif.got.tgz:621822.got - 2010.06.03 11:33:40.
