data_PCOD9025444
_publ_section_title
;
Structure prediction by ZEFSAII (Michael W. Deem and Ramdas Pophale) SiO2 
 PCOD9025444
Probable space group: P -1
;
_chemical_formula_sum "Si O2"
_cell_formula_units_Z 16
_cell_length_a 8.835489
_cell_length_b 7.691376
_cell_length_c 19.700594
_cell_angle_alpha 39.107512
_cell_angle_beta 118.026375
_cell_angle_gamma 122.494024
_cell_volume 708.729921
_symmetry_space_group_name_H-M "P -1"
_symmetry_group_IT_number 2
_symmetry_cell_setting 'triclinic'
loop_
_space_group_symop_operation_xyz
x,y,z
-x,-y,-z
loop_
_atom_site_type_symbol
_atom_site_label
_atom_site_fract_x
_atom_site_fract_y
_atom_site_fract_z
Si Si1 0.343482 0.592350 0.980833
Si Si2 0.397219 0.290582 0.876244
Si Si3 0.828157 0.832096 0.472360
Si Si4 0.902915 0.713601 0.382861
Si Si5 0.539918 0.064697 0.294212
Si Si6 0.005328 0.025323 0.074898
Si Si7 0.159973 0.795789 0.294772
Si Si8 0.413902 0.191457 0.758475
O O1 0.301853 0.856356 0.853722
O O2 0.500000 0.500000 0.000000
O O3 0.451153 0.712095 0.036299
O O4 0.158555 0.332788 0.029466
O O5 0.356457 0.595248 0.790767
O O6 0.478746 0.298202 0.815226
O O7 0.201593 0.049561 0.920324
O O8 0.887759 0.910939 0.382804
O O9 0.800182 0.499362 0.585880
O O10 0.647075 0.919732 0.411760
O O11 0.000000 0.000000 0.500000
O O12 0.696484 0.593750 0.352762
O O13 0.000000 0.500000 0.500000
O O14 0.006081 0.834064 0.300157
O O15 0.338969 0.046965 0.276780
O O16 0.496926 0.876289 0.271643
O O17 0.089235 0.808188 0.200118
O O18 0.000000 0.000000 0.000000
#
# Coordination Sequence:
#
# PCOD9025444 Si02
#       8
#     2   2   2   2   2   2   2   2
#     4  12  23  44  64  99 139 176 235 292 333 412
#     4  12  24  43  70  95 139 184 229 283 351 406
#     4  10  22  40  69 101 131 180 230 278 355 419
#     4   9  21  41  67  95 134 173 223 285 338 410
#     4  11  23  43  70 100 139 177 231 290 343 416
#     4  12  23  39  70  97 135 190 225 279 351 407
#     4  11  21  44  65  95 140 176 225 293 340 401
#     4  11  23  43  69  96 135 187 224 284 353 405
#
# _framework density 22.575596000000001
#
# number of rings (size 3 to 8) (size 9 to 14) (size 15 to 20)
#    0.000    1.000    5.000    1.500    1.750    1.500 
#    2.250    0.625    0.000    0.000    0.000    0.000 
#    0.000    0.000    0.000    0.000    0.000    0.000 
#
# Total GULP energy -89078.035903 kJ/mol
# GULP energy per Si atom -5567.377244 kJ/mol
# Density = 2.252421 g / cm^3
# Si number density = 22.575596 Si / 1000 Ang^3
#
#
#
# Elastic Constant Matrix: (Units=GPa)
#
#
# Indices 1 2 3 4 5 6 
#
# 1 39.1255 11.2932 11.7790 -11.1913 7.0114 1.1606
# 2 11.2932 103.1011 24.4178 12.6490 -9.4632 13.1864
# 3 11.7790 24.4178 111.9898 21.6333 14.8878 1.9861
# 4 -11.1913 12.6490 21.6333 37.1703 1.1155 -10.8085
# 5 7.0114 -9.4632 14.8878 1.1155 35.9170 8.1486
# 6 1.1606 13.1864 1.9861 -10.8085 8.1486 31.5145
#
#
#
# Elastic Compliance Matrix: (Units=1/GPa)
#
#
# Indices 1 2 3 4 5 6 
#
# 1 0.036643 -0.007846 -0.004882 0.020331 -0.010537 0.011939
# 2 -0.007846 0.014358 -0.001329 -0.010034 0.008749 -0.011339
# 3 -0.004882 -0.001329 0.011867 -0.008384 -0.003613 -0.001953
# 4 0.020331 -0.010034 -0.008384 0.048335 -0.009882 0.023111
# 5 -0.010537 0.008749 -0.003613 -0.009882 0.037679 -0.016177
# 6 0.011939 -0.011339 -0.001953 0.023111 -0.016177 0.048268
#
#
# Mechanical properties :
#
#
# Convention : Reuss Voigt Hill
#
# Bulk Modulus (GPa) = 28.77356 38.79959 33.78658
# Shear Modulus (GPa) = 21.11061 34.70212 27.90637
#
# Velocity S-wave (km/s) = 3.06127 3.92491 3.51968
# Velocity P-wave (km/s) = 5.02676 6.14522 5.61391
#
# Compressibility (1/GPa) = 0.03475413
#
# Stress axis : x y z
#
# Youngs Moduli (GPa) = 27.29060 69.64906 84.26714
#
# Poissons Ratio (x) = 0.54646 0.41137
# Poissons Ratio (y) = 0.21412 0.11199
# Poissons Ratio (z) = 0.13323 0.09256
#
# Static dielectric constant tensor:
#      x y z
#    x 144.735260 3.213700 -20.715430 
#    y 3.213700 2.060870 -0.562610 
#    z -20.715430 -0.562610 4.983540 
# 
# From -- ./inp_files/587163.got.cif
#   From: 2010.05.17/outbox.cif.g08.bks.cpg/sg2_294_cif.got.tgz:587163.got - 2010.06.03 11:33:40.
