data_PCOD9025795
_publ_section_title
;
Structure prediction by ZEFSAII (Michael W. Deem and Ramdas Pophale) SiO2 
 PCOD9025795
Probable space group: P -1
;
_chemical_formula_sum "Si O2"
_cell_formula_units_Z 14
_cell_length_a 8.421856
_cell_length_b 9.611102
_cell_length_c 11.646874
_cell_angle_alpha 142.015728
_cell_angle_beta 118.676947
_cell_angle_gamma 66.287915
_cell_volume 508.535013
_symmetry_space_group_name_H-M "P -1"
_symmetry_group_IT_number 2
_symmetry_cell_setting 'triclinic'
loop_
_space_group_symop_operation_xyz
x,y,z
-x,-y,-z
loop_
_atom_site_type_symbol
_atom_site_label
_atom_site_fract_x
_atom_site_fract_y
_atom_site_fract_z
Si Si1 0.402328 0.539058 0.312477
Si Si2 0.634935 0.187773 0.290198
Si Si3 0.993425 0.383926 0.297388
Si Si4 0.868958 0.773532 0.098266
Si Si5 0.289009 0.849935 0.288215
Si Si6 0.871433 0.800852 0.370139
Si Si7 0.288368 0.978367 0.113578
O O1 0.575302 0.390235 0.317282
O O2 0.354451 0.705727 0.509785
O O3 0.238200 0.378105 0.124112
O O4 0.418408 0.677828 0.291828
O O5 0.467741 0.022111 0.132980
O O6 0.799630 0.726472 0.172898
O O7 0.000000 0.500000 0.500000
O O8 0.964706 0.589458 0.330970
O O9 0.170950 0.215715 0.235213
O O10 0.833215 0.214183 0.105271
O O11 0.810636 0.034514 0.222143
O O12 0.085084 0.751979 0.150254
O O13 0.339978 0.907228 0.214723
O O14 0.260395 0.070564 0.502223
O O15 0.000000 0.000000 0.500000
#
# Coordination Sequence:
#
# PCOD9025795 Si02
#       7
#     2   2   2   2   2   2   2
#     4  11  25  45  73 102 142 191 240 296 349 424
#     4  11  27  46  69 106 147 186 236 294 364 428
#     4  11  24  45  68 107 145 187 234 297 356 426
#     4  11  24  45  73 101 142 188 243 295 350 420
#     4  11  23  46  74 105 138 187 245 297 348 423
#     4  10  22  40  72 100 135 183 243 285 346 413
#     4  11  27  44  72 107 148 186 237 293 367 426
#
# _framework density 27.530062000000001
#
# number of rings (size 3 to 8) (size 9 to 14) (size 15 to 20)
#    0.000    1.143    2.857    1.714    8.000    2.857 
#    0.000    1.429    0.000    0.000    0.000    0.000 
#    0.000    0.000    0.000    0.000    0.000    0.000 
#
# Total GULP energy -78683.808841 kJ/mol
# GULP energy per Si atom -5620.272060 kJ/mol
# Density = 2.746740 g / cm^3
# Si number density = 27.530062 Si / 1000 Ang^3
#
#
#
# Elastic Constant Matrix: (Units=GPa)
#
#
# Indices 1 2 3 4 5 6 
#
# 1 85.1022 36.6710 50.8546 -7.8132 3.7810 17.0363
# 2 36.6710 253.1531 62.8245 -24.0798 -15.4484 31.0833
# 3 50.8546 62.8245 190.9155 -0.3006 6.5949 16.0153
# 4 -7.8132 -24.0798 -0.3006 56.6699 8.3964 -9.6785
# 5 3.7810 -15.4484 6.5949 8.3964 49.4737 -10.0964
# 6 17.0363 31.0833 16.0153 -9.6785 -10.0964 30.2212
#
#
#
# Elastic Compliance Matrix: (Units=1/GPa)
#
#
# Indices 1 2 3 4 5 6 
#
# 1 0.015572 -0.000655 -0.003265 0.001052 -0.002543 -0.006887
# 2 -0.000655 0.004930 -0.001192 0.001298 0.000840 -0.003374
# 3 -0.003265 -0.001192 0.006628 -0.000952 -0.001071 -0.001109
# 4 0.001052 0.001298 -0.000952 0.019333 -0.001992 0.004103
# 5 -0.002543 0.000840 -0.001071 -0.001992 0.022807 0.008119
# 6 -0.006887 -0.003374 -0.001109 0.004103 0.008119 0.045056
#
#
# Mechanical properties :
#
#
# Convention : Reuss Voigt Hill
#
# Bulk Modulus (GPa) = 59.14864 92.20789 75.67827
# Shear Modulus (GPa) = 38.40664 52.52767 45.46716
#
# Velocity S-wave (km/s) = 3.73913 4.37282 4.06833
# Velocity P-wave (km/s) = 6.33823 7.68516 7.04396
#
# Compressibility (1/GPa) = 0.01690656
#
# Stress axis : x y z
#
# Youngs Moduli (GPa) = 64.21647 202.85347 150.86677
#
# Poissons Ratio (x) = 0.13285 0.49262
# Poissons Ratio (y) = 0.04206 0.17979
# Poissons Ratio (z) = 0.20968 0.24174
#
# Static dielectric constant tensor:
#      x y z
#    x 2.129230 0.015400 0.030980 
#    y 0.015400 2.130660 0.003830 
#    z 0.030980 0.003830 2.159460 
# 
# From -- ./inp_files/424585.got.cif
#   From: 2010.05.17/outbox.cif.g08.bks.cpg/sg2_213_cif.got.tgz:424585.got - 2010.06.03 11:33:40.
