data_PCOD9025391
_publ_section_title
;
Structure prediction by ZEFSAII (Michael W. Deem and Ramdas Pophale) SiO2 
 PCOD9025391
Probable space group: P -1
;
_chemical_formula_sum "Si O2"
_cell_formula_units_Z 15
_cell_length_a 12.690666
_cell_length_b 12.395918
_cell_length_c 11.508673
_cell_angle_alpha 63.532536
_cell_angle_beta 138.494160
_cell_angle_gamma 144.931444
_cell_volume 619.279755
_symmetry_space_group_name_H-M "P -1"
_symmetry_group_IT_number 2
_symmetry_cell_setting 'triclinic'
loop_
_space_group_symop_operation_xyz
x,y,z
-x,-y,-z
loop_
_atom_site_type_symbol
_atom_site_label
_atom_site_fract_x
_atom_site_fract_y
_atom_site_fract_z
Si Si1 0.808393 0.714523 0.381177
Si Si2 0.328211 0.043237 0.046078
Si Si3 0.674491 0.464168 0.061130
Si Si4 0.175761 0.149804 0.420758
Si Si5 0.572663 0.337321 0.465306
Si Si6 0.500000 0.000000 0.000000
Si Si7 0.054268 0.539750 0.890367
Si Si8 0.754540 0.071314 0.710098
O O1 0.769139 0.758897 0.451830
O O2 0.757297 0.542963 0.444942
O O3 0.569623 0.599471 0.147895
O O4 0.090845 0.955210 0.458399
O O5 0.546345 0.287269 0.128048
O O6 0.487035 0.042528 0.103254
O O7 0.212312 0.918030 0.128609
O O8 0.088389 0.949678 0.809728
O O9 0.742312 0.430571 0.014332
O O10 0.958031 0.704145 0.213658
O O11 0.432219 0.319250 0.465636
O O12 0.773440 0.362616 0.673369
O O13 0.328759 0.115358 0.307060
O O14 0.805724 0.245563 0.118270
O O15 0.000000 0.500000 0.000000
O O16 0.500000 0.000000 0.500000
#
# Coordination Sequence:
#
# PCOD9025391 Si02
#       8
#     2   2   2   2   2   1   2   2
#     4  10  22  42  68  99 135 166 221 275 338 395
#     4  10  23  43  69  97 134 174 224 277 330 397
#     4  10  22  43  64  92 129 176 216 276 327 383
#     4  10  22  43  68 102 135 168 212 284 339 396
#     4  12  25  40  66  97 130 181 223 266 333 395
#     4  10  22  40  68  98 122 168 220 276 336 378
#     4  11  22  39  63  95 128 169 221 272 330 387
#     4  12  26  46  61  95 140 182 227 270 324 393
#
# _framework density 24.221685999999998
#
# number of rings (size 3 to 8) (size 9 to 14) (size 15 to 20)
#    0.000    1.333    1.333    3.600    0.000    6.933 
#    2.400    2.667    0.000    0.000    0.000    0.000 
#    0.000    0.000    0.000    0.000    0.000    0.000 
#
# Total GULP energy -83630.110548 kJ/mol
# GULP energy per Si atom -5575.340703 kJ/mol
# Density = 2.416656 g / cm^3
# Si number density = 24.221686 Si / 1000 Ang^3
#
#
#
# Elastic Constant Matrix: (Units=GPa)
#
#
# Indices 1 2 3 4 5 6 
#
# 1 33.0494 -3.7929 -9.4823 -8.7588 -5.0295 5.9017
# 2 -3.7929 113.9927 27.2126 21.9295 0.6719 -6.3720
# 3 -9.4823 27.2126 64.5039 15.6433 -1.7688 -6.9155
# 4 -8.7588 21.9295 15.6433 33.2065 -2.2155 -4.9246
# 5 -5.0295 0.6719 -1.7688 -2.2155 21.2517 10.0171
# 6 5.9017 -6.3720 -6.9155 -4.9246 10.0171 37.6181
#
#
#
# Elastic Compliance Matrix: (Units=1/GPa)
#
#
# Indices 1 2 3 4 5 6 
#
# 1 0.036988 -0.001890 0.003561 0.009068 0.013806 -0.007958
# 2 -0.001890 0.010734 -0.003270 -0.006002 -0.002319 0.001345
# 3 0.003561 -0.003270 0.018923 -0.005536 0.001338 0.001285
# 4 0.009068 -0.006002 -0.005536 0.039493 0.005929 0.000134
# 5 0.013806 -0.002319 0.001338 0.005929 0.059292 -0.017325
# 6 -0.007958 0.001345 0.001285 0.000134 -0.017325 0.032926
#
#
# Mechanical properties :
#
#
# Convention : Reuss Voigt Hill
#
# Bulk Modulus (GPa) = 15.76134 26.60233 21.18183
# Shear Modulus (GPa) = 22.45147 31.58914 27.02030
#
# Velocity S-wave (km/s) = 3.04783 3.61524 3.34360
# Velocity P-wave (km/s) = 4.34821 5.33229 4.86520
#
# Compressibility (1/GPa) = 0.06344639
#
# Stress axis : x y z
#
# Youngs Moduli (GPa) = 27.03601 93.16472 52.84598
#
# Poissons Ratio (x) = 0.17608 -0.18818
# Poissons Ratio (y) = 0.05110 0.17280
# Poissons Ratio (z) = -0.09627 0.30464
#
# Static dielectric constant tensor:
#      x y z
#    x 1.965910 -0.112860 0.034230 
#    y -0.112860 2.040560 -0.086200 
#    z 0.034230 -0.086200 1.939650 
# 
# From -- ./inp_files/261072.got.cif
#   From: 2010.05.17/outbox.cif.g08.bks.cpg/sg2_131_cif.got.tgz:261072.got - 2010.06.03 11:33:40.
