data_PCOD9025898
_publ_section_title
;
Structure prediction by ZEFSAII (Michael W. Deem and Ramdas Pophale) SiO2 
 PCOD9025898
Probable space group: P -1
;
_chemical_formula_sum "Si O2"
_cell_formula_units_Z 16
_cell_length_a 12.420959
_cell_length_b 9.107627
_cell_length_c 21.195711
_cell_angle_alpha 151.997249
_cell_angle_beta 39.204457
_cell_angle_gamma 129.530366
_cell_volume 702.352509
_symmetry_space_group_name_H-M "P -1"
_symmetry_group_IT_number 2
_symmetry_cell_setting 'triclinic'
loop_
_space_group_symop_operation_xyz
x,y,z
-x,-y,-z
loop_
_atom_site_type_symbol
_atom_site_label
_atom_site_fract_x
_atom_site_fract_y
_atom_site_fract_z
Si Si1 0.772955 0.127689 0.442583
Si Si2 0.523885 0.121702 0.354259
Si Si3 0.113354 0.182959 0.971906
Si Si4 0.303170 0.958769 0.070229
Si Si5 0.026504 0.822414 0.759903
Si Si6 0.827050 0.863582 0.540586
Si Si7 0.592386 0.702865 0.286297
Si Si8 0.112971 0.920060 0.271784
O O1 0.873978 0.187876 0.355854
O O2 0.596948 0.353688 0.626523
O O3 0.698421 0.806478 0.336506
O O4 0.915579 0.094668 0.419598
O O5 0.500000 0.500000 0.500000
O O6 0.343880 0.018936 0.376373
O O7 0.684631 0.968118 0.180052
O O8 0.563320 0.988962 0.356792
O O9 0.047024 0.121015 0.907616
O O10 0.101581 0.547390 0.135159
O O11 0.000000 0.000000 0.000000
O O12 0.216674 0.989512 0.189285
O O13 0.307053 0.600931 0.908736
O O14 0.173867 0.176854 0.164624
O O15 0.500000 0.000000 0.000000
O O16 0.118671 0.512129 0.635902
O O17 0.796092 0.955939 0.662605
O O18 0.000000 0.000000 0.500000
#
# Coordination Sequence:
#
# PCOD9025898 Si02
#       8
#     2   2   2   2   2   2   2   2
#     4  10  22  40  74  95 131 171 227 284 346 407
#     4  12  25  47  73 100 143 186 240 284 341 430
#     4  12  25  45  70 100 138 187 236 286 349 417
#     4  11  26  42  69  99 140 179 227 291 351 413
#     4  11  24  47  67  99 139 180 232 283 350 417
#     4  12  27  44  72 102 142 188 231 289 349 417
#     4  11  22  43  69 103 130 175 231 285 345 405
#     4  11  25  44  67 101 138 177 228 289 355 406
#
# _framework density 22.780584000000001
#
# number of rings (size 3 to 8) (size 9 to 14) (size 15 to 20)
#    0.000    0.750    3.750    2.250    7.000    4.500 
#    0.000    0.000    0.000    0.000    0.000    0.000 
#    0.000    0.000    0.000    0.000    0.000    0.000 
#
# Total GULP energy -89495.392375 kJ/mol
# GULP energy per Si atom -5593.462023 kJ/mol
# Density = 2.272873 g / cm^3
# Si number density = 22.780584 Si / 1000 Ang^3
#
#
#
# Elastic Constant Matrix: (Units=GPa)
#
#
# Indices 1 2 3 4 5 6 
#
# 1 100.4880 7.7735 12.7261 -10.9424 -12.8496 21.3476
# 2 7.7735 71.4978 7.9519 -18.0257 -14.6459 15.9275
# 3 12.7261 7.9519 62.0994 -12.2112 -1.1807 4.1951
# 4 -10.9424 -18.0257 -12.2112 43.9432 11.0479 -4.1138
# 5 -12.8496 -14.6459 -1.1807 11.0479 42.5413 -12.1823
# 6 21.3476 15.9275 4.1951 -4.1138 -12.1823 32.6647
#
#
#
# Elastic Compliance Matrix: (Units=1/GPa)
#
#
# Indices 1 2 3 4 5 6 
#
# 1 0.012066 0.001356 -0.001710 0.002033 0.001371 -0.007560
# 2 0.001356 0.017696 -0.000802 0.005969 0.002742 -0.007637
# 3 -0.001710 -0.000802 0.017453 0.004445 -0.001693 -0.000805
# 4 0.002033 0.005969 0.004445 0.028002 -0.005427 -0.003308
# 5 0.001371 0.002742 -0.001693 -0.005427 0.028498 0.007929
# 6 -0.007560 -0.007637 -0.000805 -0.003308 0.007929 0.041923
#
#
# Mechanical properties :
#
#
# Convention : Reuss Voigt Hill
#
# Bulk Modulus (GPa) = 22.27026 32.33202 27.30114
# Shear Modulus (GPa) = 30.69067 37.53875 34.11471
#
# Velocity S-wave (km/s) = 3.67444 4.06376 3.87400
# Velocity P-wave (km/s) = 5.27250 6.02017 5.65870
#
# Compressibility (1/GPa) = 0.04490294
#
# Stress axis : x y z
#
# Youngs Moduli (GPa) = 82.87927 56.50882 57.29808
#
# Poissons Ratio (x) = -0.07661 0.09796
# Poissons Ratio (y) = -0.11237 0.04595
# Poissons Ratio (z) = 0.14170 0.04532
#
# Static dielectric constant tensor:
#      x y z
#    x 1.863790 -0.008780 0.024560 
#    y -0.008780 1.892030 0.002640 
#    z 0.024560 0.002640 1.840860 
# 
# From -- ./inp_files/186175.got.cif
#   From: 2010.05.17/outbox.cif.g08.bks.cpg/sg2_94_cif.got.tgz:186175.got - 2010.06.03 11:33:40.
