data_PCOD9025049
_publ_section_title
;
Structure prediction by ZEFSAII (Michael W. Deem and Ramdas Pophale) SiO2 
 PCOD9025049
Probable space group: P -1
;
_chemical_formula_sum "Si O2"
_cell_formula_units_Z 13
_cell_length_a 5.090703
_cell_length_b 5.544175
_cell_length_c 16.705473
_cell_angle_alpha 84.036233
_cell_angle_beta 106.439093
_cell_angle_gamma 84.525830
_cell_volume 445.903850
_symmetry_space_group_name_H-M "P -1"
_symmetry_group_IT_number 2
_symmetry_cell_setting 'triclinic'
loop_
_space_group_symop_operation_xyz
x,y,z
-x,-y,-z
loop_
_atom_site_type_symbol
_atom_site_label
_atom_site_fract_x
_atom_site_fract_y
_atom_site_fract_z
Si Si1 0.932483 0.528375 0.210068
Si Si2 0.130244 0.189248 0.949063
Si Si3 0.739083 0.084793 0.454376
Si Si4 0.000000 0.500000 0.500000
Si Si5 0.497582 0.205992 0.112092
Si Si6 0.679110 0.491444 0.634762
Si Si7 0.549150 0.916447 0.274873
O O1 0.051911 0.648307 0.137215
O O2 0.711538 0.373632 0.158601
O O3 0.768751 0.727394 0.249809
O O4 0.163981 0.371738 0.289138
O O5 0.343376 0.021377 0.916081
O O6 0.286218 0.334063 0.023803
O O7 0.000000 0.000000 0.000000
O O8 0.690361 0.049778 0.354550
O O9 0.950692 0.815423 0.495762
O O10 0.500000 0.000000 0.500000
O O11 0.619069 0.394198 0.429176
O O12 0.118141 0.536339 0.419740
O O13 0.390778 0.085042 0.186780
O O14 0.637148 0.246234 0.685272
#
# Coordination Sequence:
#
# PCOD9025049 Si02
#       7
#     2   2   2   1   2   2   2
#     4  11  24  44  70 103 143 187 241 297 356 426
#     4  10  22  40  67 104 144 188 237 292 355 421
#     4  12  27  48  73 101 137 183 238 300 365 432
#     4  12  28  48  70 104 140 182 238 296 366 436
#     4  10  22  42  68 102 142 187 239 294 352 423
#     4  12  26  45  70 103 141 185 239 298 363 433
#     4  11  25  45  70  99 138 186 239 295 356 427
#
# _framework density 29.154267999999998
#
# number of rings (size 3 to 8) (size 9 to 14) (size 15 to 20)
#    0.000    0.923    0.000    6.462    0.000    9.231 
#    0.000    0.000    0.000    0.000    0.000    0.000 
#    0.000    0.000    0.000    0.000    0.000    0.923 
#
# Total GULP energy -72768.240596 kJ/mol
# GULP energy per Si atom -5597.556969 kJ/mol
# Density = 2.908791 g / cm^3
# Si number density = 29.154268 Si / 1000 Ang^3
#
#
#
# Elastic Constant Matrix: (Units=GPa)
#
#
# Indices 1 2 3 4 5 6 
#
# 1 146.5401 52.6060 103.4886 -13.6091 -19.4701 -8.9061
# 2 52.6060 140.4536 75.8124 19.4328 -16.0876 15.4880
# 3 103.4886 75.8124 327.2114 1.7468 -8.6521 -1.5856
# 4 -13.6091 19.4328 1.7468 74.9307 6.9234 -6.4820
# 5 -19.4701 -16.0876 -8.6521 6.9234 83.8895 -9.4146
# 6 -8.9061 15.4880 -1.5856 -6.4820 -9.4146 62.4226
#
#
#
# Elastic Compliance Matrix: (Units=1/GPa)
#
#
# Indices 1 2 3 4 5 6 
#
# 1 0.010327 -0.002998 -0.002530 0.002794 0.001632 0.002689
# 2 -0.002998 0.009886 -0.001312 -0.003440 0.000998 -0.003121
# 3 -0.002530 -0.001312 0.004151 -0.000180 -0.000397 -0.000008
# 4 0.002794 -0.003440 -0.000180 0.015070 -0.000974 0.002666
# 5 0.001632 0.000998 -0.000397 -0.000974 0.012731 0.001794
# 6 0.002689 -0.003121 -0.000008 0.002666 0.001794 0.017725
#
#
# Mechanical properties :
#
#
# Convention : Reuss Voigt Hill
#
# Bulk Modulus (GPa) = 93.62049 119.77989 106.70019
# Shear Modulus (GPa) = 57.38362 69.73510 63.55936
#
# Velocity S-wave (km/s) = 4.44134 4.89605 4.67422
# Velocity P-wave (km/s) = 7.64738 8.55194 8.11228
#
# Compressibility (1/GPa) = 0.01068142
#
# Stress axis : x y z
#
# Youngs Moduli (GPa) = 96.83233 101.15682 240.91251
#
# Poissons Ratio (x) = 0.30331 0.60956
# Poissons Ratio (y) = 0.29035 0.31619
# Poissons Ratio (z) = 0.24501 0.13276
#
# Static dielectric constant tensor:
#      x y z
#    x 1.982230 -0.188210 -0.032610 
#    y -0.188210 2.267050 -0.122750 
#    z -0.032610 -0.122750 2.056300 
# 
# From -- ./inp_files/7786.got.cif
#   From: 2010.05.17/outbox.cif.g08.bks.cpg/sg2_4_cif.got.tgz:7786.got - 2010.06.03 11:33:40.
