data_PCOD9025328
_publ_section_title
;
Structure prediction by ZEFSAII (Michael W. Deem and Ramdas Pophale) SiO2 
 PCOD9025328
Probable space group: P -1
;
_chemical_formula_sum "Si O2"
_cell_formula_units_Z 16
_cell_length_a 15.601122
_cell_length_b 7.846060
_cell_length_c 8.921112
_cell_angle_alpha 94.897163
_cell_angle_beta 140.125969
_cell_angle_gamma 68.136920
_cell_volume 611.763854
_symmetry_space_group_name_H-M "P -1"
_symmetry_group_IT_number 2
_symmetry_cell_setting 'triclinic'
loop_
_space_group_symop_operation_xyz
x,y,z
-x,-y,-z
loop_
_atom_site_type_symbol
_atom_site_label
_atom_site_fract_x
_atom_site_fract_y
_atom_site_fract_z
Si Si1 0.849070 0.863206 0.453028
Si Si2 0.675975 0.332527 0.707782
Si Si3 0.115410 0.823959 0.300829
Si Si4 0.302819 0.888276 0.991794
Si Si5 0.275198 0.542916 0.759005
Si Si6 0.875328 0.718328 0.897024
Si Si7 0.611612 0.826249 0.308624
Si Si8 0.143849 0.479381 0.873726
O O1 0.680008 0.921925 0.291052
O O2 0.967993 0.638496 0.623157
O O3 0.911423 0.978641 0.645234
O O4 0.835683 0.942277 0.273387
O O5 0.500000 0.500000 0.500000
O O6 0.737436 0.260162 0.617769
O O7 0.704094 0.159729 0.847685
O O8 0.778026 0.424834 0.911454
O O9 0.153737 0.676769 0.481389
O O10 0.968824 0.836658 0.022834
O O11 0.445704 0.926129 0.163712
O O12 0.323512 0.689916 0.918074
O O13 0.381338 0.357369 0.786322
O O14 0.222482 0.453754 0.817414
O O15 0.732760 0.774746 0.602363
O O16 0.834467 0.701740 0.012403
O O17 0.000000 0.500000 0.000000
#
# Coordination Sequence:
#
# PCOD9025328 Si02
#       8
#     2   2   2   2   2   2   2   2
#     4  11  25  43  64  91 135 169 204 259 320 388
#     4  11  22  40  66  94 127 162 213 266 309 370
#     4  11  23  42  65  95 126 170 210 254 328 369
#     4  10  24  41  65  96 127 166 207 263 319 375
#     4  10  22  40  68  94 125 163 219 264 305 372
#     4  12  21  41  66  94 125 163 215 267 302 372
#     4  12  22  43  67  93 129 168 213 260 317 371
#     4  11  23  41  64  98 125 165 214 261 318 364
#
# _framework density 26.153884999999999
#
# number of rings (size 3 to 8) (size 9 to 14) (size 15 to 20)
#    0.000    1.000    3.750    2.250    0.000   11.500 
#    0.000    3.125    0.000    0.000    0.000    0.000 
#    0.000    0.000    0.000    0.000    0.000    0.000 
#
# Total GULP energy -89632.995338 kJ/mol
# GULP energy per Si atom -5602.062209 kJ/mol
# Density = 2.609436 g / cm^3
# Si number density = 26.153885 Si / 1000 Ang^3
#
#
#
# Elastic Constant Matrix: (Units=GPa)
#
#
# Indices 1 2 3 4 5 6 
#
# 1 168.9229 28.5286 70.1413 -17.8690 -26.8155 7.7626
# 2 28.5286 56.2103 19.1821 3.6262 -11.5335 -4.8227
# 3 70.1413 19.1821 103.1343 -1.8162 -8.3650 -5.8723
# 4 -17.8690 3.6262 -1.8162 38.1861 9.7371 -9.2158
# 5 -26.8155 -11.5335 -8.3650 9.7371 54.0227 -4.0742
# 6 7.7626 -4.8227 -5.8723 -9.2158 -4.0742 44.7272
#
#
#
# Elastic Compliance Matrix: (Units=1/GPa)
#
#
# Indices 1 2 3 4 5 6 
#
# 1 0.009692 -0.002754 -0.005916 0.003426 0.002553 -0.001817
# 2 -0.002754 0.020937 -0.001672 -0.003796 0.003685 0.002069
# 3 -0.005916 -0.001672 0.014087 -0.001180 -0.000719 0.002387
# 4 0.003426 -0.003796 -0.001180 0.030352 -0.004409 0.004693
# 5 0.002553 0.003685 -0.000719 -0.004409 0.021315 0.000893
# 6 -0.001817 0.002069 0.002387 0.004693 0.000893 0.024258
#
#
# Mechanical properties :
#
#
# Convention : Reuss Voigt Hill
#
# Bulk Modulus (GPa) = 41.60683 62.66349 52.13516
# Shear Modulus (GPa) = 33.48178 41.41490 37.44834
#
# Velocity S-wave (km/s) = 3.58185 3.98365 3.78808
# Velocity P-wave (km/s) = 5.74884 6.72092 6.25380
#
# Compressibility (1/GPa) = 0.02403451
#
# Stress axis : x y z
#
# Youngs Moduli (GPa) = 103.17328 47.76284 70.98714
#
# Poissons Ratio (x) = 0.13152 0.41994
# Poissons Ratio (y) = 0.28410 0.11866
# Poissons Ratio (z) = 0.61035 0.07984
#
# Static dielectric constant tensor:
#      x y z
#    x 2.087130 -0.026020 -0.027200 
#    y -0.026020 2.075240 -0.000300 
#    z -0.027200 -0.000300 1.994280 
# 
# From -- ./inp_files/299003.got.cif
#   From: 2010.05.17/outbox.cif.g08.bks.cpg/sg2_150_cif.got.tgz:299003.got - 2010.06.03 11:33:40.
