data_PCOD9025380
_publ_section_title
;
Structure prediction by ZEFSAII (Michael W. Deem and Ramdas Pophale) SiO2 
 PCOD9025380
Probable space group: P -1
;
_chemical_formula_sum "Si O2"
_cell_formula_units_Z 14
_cell_length_a 7.530003
_cell_length_b 16.616561
_cell_length_c 9.784952
_cell_angle_alpha 129.858379
_cell_angle_beta 53.182667
_cell_angle_gamma 87.346936
_cell_volume 537.084309
_symmetry_space_group_name_H-M "P -1"
_symmetry_group_IT_number 2
_symmetry_cell_setting 'triclinic'
loop_
_space_group_symop_operation_xyz
x,y,z
-x,-y,-z
loop_
_atom_site_type_symbol
_atom_site_label
_atom_site_fract_x
_atom_site_fract_y
_atom_site_fract_z
Si Si1 0.569901 0.760729 0.737247
Si Si2 0.695754 0.035028 0.142768
Si Si3 0.684653 0.548661 0.242675
Si Si4 0.926928 0.774840 0.229288
Si Si5 0.774562 0.808726 0.040539
Si Si6 0.206819 0.574296 0.373313
Si Si7 0.624041 0.237500 0.867024
O O1 0.615846 0.824016 0.482315
O O2 0.528766 0.676551 0.562597
O O3 0.456229 0.763003 0.939303
O O4 0.936451 0.664280 0.483400
O O5 0.615161 0.082403 0.073980
O O6 0.730618 0.907371 0.048259
O O7 0.000000 0.000000 0.000000
O O8 0.799030 0.401162 0.093966
O O9 0.446629 0.592026 0.281328
O O10 0.000000 0.500000 0.000000
O O11 0.034548 0.827216 0.344734
O O12 0.867333 0.830455 0.163240
O O13 0.469946 0.839214 0.244635
O O14 0.034052 0.645403 0.678243
O O15 0.397386 0.403664 0.098217
#
# Coordination Sequence:
#
# PCOD9025380 Si02
#       7
#     2   2   2   2   2   2   2
#     4  11  22  42  64  96 133 162 209 263 315 376
#     4  12  26  43  64  93 130 174 217 258 315 378
#     4  11  21  38  65  99 128 163 202 259 330 370
#     4  11  23  43  66  94 127 165 214 268 310 378
#     4  11  23  42  67  91 129 173 213 255 315 374
#     4  10  22  40  68  97 127 163 211 259 318 383
#     4  10  22  42  69  98 124 163 213 264 318 378
#
# _framework density 26.066670999999999
#
# number of rings (size 3 to 8) (size 9 to 14) (size 15 to 20)
#    0.000    1.143    1.429    6.429    0.000    5.714 
#    2.571    2.857    0.000    0.000    0.000    0.000 
#    0.000    0.000    0.000    0.000    0.000    0.000 
#
# Total GULP energy -78404.626202 kJ/mol
# GULP energy per Si atom -5600.330443 kJ/mol
# Density = 2.600734 g / cm^3
# Si number density = 26.066671 Si / 1000 Ang^3
#
#
#
# Elastic Constant Matrix: (Units=GPa)
#
#
# Indices 1 2 3 4 5 6 
#
# 1 177.3534 66.9316 31.9217 14.5441 -43.7667 16.1929
# 2 66.9316 89.0800 16.5548 10.2447 -14.6989 -11.7263
# 3 31.9217 16.5548 61.3669 4.0333 -13.2022 -1.6436
# 4 14.5441 10.2447 4.0333 35.0184 3.9807 -4.5679
# 5 -43.7667 -14.6989 -13.2022 3.9807 47.8462 -1.1180
# 6 16.1929 -11.7263 -1.6436 -4.5679 -1.1180 44.8337
#
#
#
# Elastic Compliance Matrix: (Units=1/GPa)
#
#
# Indices 1 2 3 4 5 6 
#
# 1 0.011813 -0.007495 -0.002284 -0.004221 0.008072 -0.006540
# 2 -0.007495 0.017861 -0.000966 -0.000901 -0.001392 0.007217
# 3 -0.002284 -0.000966 0.018453 -0.001057 0.002822 0.001211
# 4 -0.004221 -0.000901 -0.001057 0.032057 -0.006995 0.004342
# 5 0.008072 -0.001392 0.002822 -0.006995 0.029143 -0.003162
# 6 -0.006540 0.007217 0.001211 0.004342 -0.003162 0.026962
#
#
# Mechanical properties :
#
#
# Convention : Reuss Voigt Hill
#
# Bulk Modulus (GPa) = 37.54342 62.06851 49.80596
# Shear Modulus (GPa) = 30.00129 39.69914 34.85022
#
# Velocity S-wave (km/s) = 3.39624 3.90678 3.66042
# Velocity P-wave (km/s) = 5.46016 6.64934 6.08387
#
# Compressibility (1/GPa) = 0.02663583
#
# Stress axis : x y z
#
# Youngs Moduli (GPa) = 84.65001 55.98785 54.19083
#
# Poissons Ratio (x) = 0.41964 0.12379
# Poissons Ratio (y) = 0.63446 0.05237
# Poissons Ratio (z) = 0.19337 0.05411
#
# Static dielectric constant tensor:
#      x y z
#    x 2.104520 0.049210 -0.044870 
#    y 0.049210 2.040870 0.008790 
#    z -0.044870 0.008790 2.095530 
# 
# From -- ./inp_files/396179.got.cif
#   From: 2010.05.17/outbox.cif.g08.bks.cpg/sg2_199_cif.got.tgz:396179.got - 2010.06.03 11:33:40.
