data_PCOD9025130
_publ_section_title
;
Structure prediction by ZEFSAII (Michael W. Deem and Ramdas Pophale) SiO2 
 PCOD9025130
Probable space group: P -1
;
_chemical_formula_sum "Si O2"
_cell_formula_units_Z 14
_cell_length_a 5.412211
_cell_length_b 12.495168
_cell_length_c 9.620533
_cell_angle_alpha 76.248643
_cell_angle_beta 105.782957
_cell_angle_gamma 97.761276
_cell_volume 606.402062
_symmetry_space_group_name_H-M "P -1"
_symmetry_group_IT_number 2
_symmetry_cell_setting 'triclinic'
loop_
_space_group_symop_operation_xyz
x,y,z
-x,-y,-z
loop_
_atom_site_type_symbol
_atom_site_label
_atom_site_fract_x
_atom_site_fract_y
_atom_site_fract_z
Si Si1 0.240305 0.945726 0.118963
Si Si2 0.526656 0.828576 0.994509
Si Si3 0.057885 0.129722 0.439142
Si Si4 0.508666 0.234656 0.288511
Si Si5 0.372208 0.520120 0.671590
Si Si6 0.155896 0.563913 0.331721
Si Si7 0.038061 0.204004 0.702307
O O1 0.172902 0.898506 0.273519
O O2 0.453708 0.047311 0.111208
O O3 0.295373 0.842635 0.061149
O O4 0.000000 0.000000 0.000000
O O5 0.522477 0.750405 0.886573
O O6 0.757845 0.805702 0.140221
O O7 0.264524 0.161991 0.339669
O O8 0.167445 0.188457 0.579286
O O9 0.781670 0.180482 0.360974
O O10 0.000000 0.000000 0.500000
O O11 0.528973 0.353526 0.328757
O O12 0.254370 0.502696 0.503411
O O13 0.613977 0.445507 0.739276
O O14 0.123621 0.490247 0.738427
O O15 0.101906 0.685324 0.336012
#
# Coordination Sequence:
#
# PCOD9025130 Si02
#       7
#     2   2   2   2   2   2   2
#     4   9  21  41  64  93 130 182 220 259 324 411
#     4  10  24  40  69  91 138 177 222 261 338 410
#     4  12  28  42  67 103 141 169 225 277 328 392
#     4  12  26  46  66  99 136 182 211 278 344 392
#     4  10  22  42  65  93 131 171 222 272 341 386
#     4  10  22  40  67  95 126 171 224 279 324 398
#     4  11  24  41  68  99 129 177 223 278 326 394
#
# _framework density 23.08699
#
# number of rings (size 3 to 8) (size 9 to 14) (size 15 to 20)
#    0.000    1.429    1.429    2.143   18.000    0.000 
#    0.000    1.429    0.000    0.000    0.000    0.000 
#    0.000    0.000    0.000    0.000    0.000    0.000 
#
# Total GULP energy -78161.125272 kJ/mol
# GULP energy per Si atom -5582.937519 kJ/mol
# Density = 2.303444 g / cm^3
# Si number density = 23.086990 Si / 1000 Ang^3
#
#
#
# Elastic Constant Matrix: (Units=GPa)
#
#
# Indices 1 2 3 4 5 6 
#
# 1 137.7988 32.1717 23.9520 4.9066 -7.0900 -25.2439
# 2 32.1717 84.3314 1.3712 7.2934 7.1549 -13.8114
# 3 23.9520 1.3712 76.6836 17.8381 -0.1003 -11.0569
# 4 4.9066 7.2934 17.8381 26.0046 -4.1001 0.7357
# 5 -7.0900 7.1549 -0.1003 -4.1001 23.3826 -1.1499
# 6 -25.2439 -13.8114 -11.0569 0.7357 -1.1499 33.7241
#
#
#
# Elastic Compliance Matrix: (Units=1/GPa)
#
#
# Indices 1 2 3 4 5 6 
#
# 1 0.009569 -0.003261 -0.002505 0.001373 0.004381 0.005126
# 2 -0.003261 0.014942 0.002980 -0.006776 -0.006511 0.004581
# 3 -0.002505 0.002980 0.017584 -0.013148 -0.003642 0.005273
# 4 0.001373 -0.006776 -0.013148 0.051050 0.011051 -0.006794
# 5 0.004381 -0.006511 -0.003642 0.011051 0.048050 0.000816
# 6 0.005126 0.004581 0.005273 -0.006794 0.000816 0.037270
#
#
# Mechanical properties :
#
#
# Convention : Reuss Voigt Hill
#
# Bulk Modulus (GPa) = 27.38090 45.97817 36.67953
# Shear Modulus (GPa) = 25.48262 32.71020 29.09641
#
# Velocity S-wave (km/s) = 3.32590 3.76816 3.55391
# Velocity P-wave (km/s) = 5.16086 6.23622 5.72385
#
# Compressibility (1/GPa) = 0.03652181
#
# Stress axis : x y z
#
# Youngs Moduli (GPa) = 104.50134 66.92443 56.87033
#
# Poissons Ratio (x) = 0.21824 0.14248
# Poissons Ratio (y) = 0.34077 -0.16945
# Poissons Ratio (z) = 0.26181 -0.19940
#
# Static dielectric constant tensor:
#      x y z
#    x 1.965090 0.048960 -0.030010 
#    y 0.048960 1.894010 0.011010 
#    z -0.030010 0.011010 1.881270 
# 
# From -- ./inp_files/131536.got.cif
#   From: 2010.05.17/outbox.cif.g08.bks.cpg/sg2_66_cif.got.tgz:131536.got - 2010.06.03 11:33:40.
