data_PCOD9025585
_publ_section_title
;
Structure prediction by ZEFSAII (Michael W. Deem and Ramdas Pophale) SiO2 
 PCOD9025585
Probable space group: P -1
;
_chemical_formula_sum "Si O2"
_cell_formula_units_Z 14
_cell_length_a 11.765766
_cell_length_b 17.949515
_cell_length_c 9.061348
_cell_angle_alpha 72.705833
_cell_angle_beta 51.595402
_cell_angle_gamma 31.401348
_cell_volume 641.704702
_symmetry_space_group_name_H-M "P -1"
_symmetry_group_IT_number 2
_symmetry_cell_setting 'triclinic'
loop_
_space_group_symop_operation_xyz
x,y,z
-x,-y,-z
loop_
_atom_site_type_symbol
_atom_site_label
_atom_site_fract_x
_atom_site_fract_y
_atom_site_fract_z
Si Si1 0.752734 0.267906 0.168454
Si Si2 0.780563 0.544506 0.060808
Si Si3 0.963536 0.738090 0.898843
Si Si4 0.899438 0.127312 0.425059
Si Si5 0.777440 0.882756 0.683945
Si Si6 0.119807 0.195517 0.673003
Si Si7 0.819131 0.513230 0.709445
O O1 0.892373 0.134769 0.247036
O O2 0.455364 0.377402 0.252688
O O3 0.745999 0.342904 0.247465
O O4 0.951320 0.218652 0.910594
O O5 0.457774 0.685658 0.332632
O O6 0.981687 0.368490 0.004233
O O7 0.708928 0.593280 0.916333
O O8 0.000000 0.500000 0.000000
O O9 0.924327 0.746057 0.751309
O O10 0.609895 0.940192 0.115299
O O11 0.142984 0.076280 0.317527
O O12 0.000000 0.000000 0.500000
O O13 0.951736 0.798919 0.437693
O O14 0.017496 0.336003 0.675357
O O15 0.500000 0.000000 0.500000
O O16 0.000000 0.500000 0.500000
#
# Coordination Sequence:
#
# PCOD9025585 Si02
#       7
#     2   2   2   2   2   2   2
#     4  11  24  46  71 102 139 182 237 295 350 426
#     4  12  25  44  69  97 141 188 233 289 359 421
#     4  10  22  42  68 101 133 180 238 283 340 428
#     4  11  26  44  69 101 142 186 239 294 358 423
#     4  10  22  40  69  99 136 180 233 288 346 417
#     4  12  24  44  74 104 143 186 237 292 359 426
#     4  12  28  46  70 109 146 186 238 300 361 426
#
# _framework density 21.816887000000001
#
# number of rings (size 3 to 8) (size 9 to 14) (size 15 to 20)
#    0.000    0.857    2.857    3.000    6.000    3.429 
#    0.000    2.143    0.000    0.000    0.000    0.000 
#    0.000    0.000    0.000    0.000    0.000    0.000 
#
# Total GULP energy -78057.497738 kJ/mol
# GULP energy per Si atom -5575.535553 kJ/mol
# Density = 2.176723 g / cm^3
# Si number density = 21.816887 Si / 1000 Ang^3
#
#
#
# Elastic Constant Matrix: (Units=GPa)
#
#
# Indices 1 2 3 4 5 6 
#
# 1 141.4032 61.8869 48.6208 -9.6332 -21.6672 -27.4736
# 2 61.8869 123.7735 59.1461 -39.6613 2.0729 -15.9454
# 3 48.6208 59.1461 133.4331 -36.3646 -5.1790 -12.2933
# 4 -9.6332 -39.6613 -36.3646 40.8965 -10.3793 3.1426
# 5 -21.6672 2.0729 -5.1790 -10.3793 47.4125 -11.5881
# 6 -27.4736 -15.9454 -12.2933 3.1426 -11.5881 29.9841
#
#
#
# Elastic Compliance Matrix: (Units=1/GPa)
#
#
# Indices 1 2 3 4 5 6 
#
# 1 0.013606 -0.005148 -0.001713 -0.002023 0.008913 0.012684
# 2 -0.005148 0.015545 -0.001495 0.012387 -0.000092 0.001603
# 3 -0.001713 -0.001495 0.011632 0.009096 0.003202 0.002689
# 4 -0.002023 0.012387 0.009096 0.046415 0.011670 0.008108
# 5 0.008913 -0.000092 0.003202 0.011670 0.033217 0.021045
# 6 0.012684 0.001603 0.002689 0.008108 0.021045 0.054211
#
#
# Mechanical properties :
#
#
# Convention : Reuss Voigt Hill
#
# Bulk Modulus (GPa) = 41.54214 81.99081 61.76647
# Shear Modulus (GPa) = 25.08002 38.92235 32.00119
#
# Velocity S-wave (km/s) = 3.39421 4.22838 3.83405
# Velocity P-wave (km/s) = 5.86886 7.84231 6.92623
#
# Compressibility (1/GPa) = 0.02407194
#
# Stress axis : x y z
#
# Youngs Moduli (GPa) = 73.49455 64.32924 85.97039
#
# Poissons Ratio (x) = 0.33119 0.14725
# Poissons Ratio (y) = 0.37838 0.12849
# Poissons Ratio (z) = 0.12588 0.09614
#
# Static dielectric constant tensor:
#      x y z
#    x 1.842340 -0.038800 0.047910 
#    y -0.038800 1.906980 -0.048430 
#    z 0.047910 -0.048430 1.860460 
# 
# From -- ./inp_files/277502.got.cif
#   From: 2010.05.17/outbox.cif.g08.bks.cpg/sg2_139_cif.got.tgz:277502.got - 2010.06.03 11:33:40.
