data_PCOD9025319
_publ_section_title
;
Structure prediction by ZEFSAII (Michael W. Deem and Ramdas Pophale) SiO2 
 PCOD9025319
Probable space group: P -1
;
_chemical_formula_sum "Si O2"
_cell_formula_units_Z 16
_cell_length_a 10.868385
_cell_length_b 11.384579
_cell_length_c 8.688384
_cell_angle_alpha 101.440858
_cell_angle_beta 54.568834
_cell_angle_gamma 119.993579
_cell_volume 752.246030
_symmetry_space_group_name_H-M "P -1"
_symmetry_group_IT_number 2
_symmetry_cell_setting 'triclinic'
loop_
_space_group_symop_operation_xyz
x,y,z
-x,-y,-z
loop_
_atom_site_type_symbol
_atom_site_label
_atom_site_fract_x
_atom_site_fract_y
_atom_site_fract_z
Si Si1 0.233825 0.988405 0.418751
Si Si2 0.745149 0.695016 0.812453
Si Si3 0.332919 0.312813 0.670576
Si Si4 0.643079 0.469357 0.052729
Si Si5 0.417491 0.739773 0.730657
Si Si6 0.696049 0.104882 0.342113
Si Si7 0.061531 0.183733 0.605186
Si Si8 0.191874 0.073539 0.942289
O O1 0.212189 0.898437 0.565037
O O2 0.139106 0.893810 0.315330
O O3 0.431764 0.108380 0.285818
O O4 0.128177 0.071523 0.543656
O O5 0.540161 0.626414 0.918503
O O6 0.841760 0.725209 0.589369
O O7 0.768771 0.585691 0.872463
O O8 0.798462 0.839612 0.893218
O O9 0.387317 0.438944 0.775077
O O10 0.470553 0.322310 0.448434
O O11 0.149388 0.274843 0.714755
O O12 0.307131 0.187249 0.763703
O O13 0.685954 0.363389 0.083780
O O14 0.302359 0.761188 0.691347
O O15 0.500000 0.000000 0.500000
O O16 0.750137 0.040700 0.143728
O O17 0.000000 0.000000 0.000000
#
# Coordination Sequence:
#
# PCOD9025319 Si02
#       8
#     2   2   2   2   2   2   2   2
#     4   9  17  28  53  80 105 134 181 224 272 318
#     4  10  21  31  52  79 120 139 178 242 282 312
#     4  10  19  33  56  83 106 147 195 228 259 331
#     4  10  20  35  49  82 111 148 188 229 274 319
#     4  10  18  32  59  77 110 144 188 222 270 332
#     4  10  18  35  55  83 114 149 179 225 279 344
#     4  10  17  31  54  82 107 140 185 232 275 321
#     4  11  21  34  55  88 114 143 183 230 288 332
#
# _framework density 21.269636999999999
#
# number of rings (size 3 to 8) (size 9 to 14) (size 15 to 20)
#    0.000    2.000    6.250    1.125    1.750    0.000 
#    0.000    0.625    0.000    7.500    0.000    0.000 
#    0.000    0.000    0.000    0.000    0.000    0.000 
#
# Total GULP energy -89158.001695 kJ/mol
# GULP energy per Si atom -5572.375106 kJ/mol
# Density = 2.122123 g / cm^3
# Si number density = 21.269637 Si / 1000 Ang^3
#
#
#
# Elastic Constant Matrix: (Units=GPa)
#
#
# Indices 1 2 3 4 5 6 
#
# 1 85.1948 37.4556 6.7293 -1.8540 19.8930 -13.7307
# 2 37.4556 68.1702 17.8868 -5.6683 14.8760 -5.1906
# 3 6.7293 17.8868 36.5874 -18.3174 12.5837 -9.2194
# 4 -1.8540 -5.6683 -18.3174 33.7775 -6.8770 28.0820
# 5 19.8930 14.8760 12.5837 -6.8770 27.4677 -11.7969
# 6 -13.7307 -5.1906 -9.2194 28.0820 -11.7969 33.4110
#
#
#
# Elastic Compliance Matrix: (Units=1/GPa)
#
#
# Indices 1 2 3 4 5 6 
#
# 1 0.020474 -0.009707 -0.003330 -0.023172 -0.003431 0.024252
# 2 -0.009707 0.022606 -0.006928 0.006270 -0.004431 -0.009223
# 3 -0.003330 -0.006928 0.066649 0.080825 -0.031191 -0.063000
# 4 -0.023172 0.006270 0.080825 0.219908 -0.049577 -0.188584
# 5 -0.003431 -0.004431 -0.031191 -0.049577 0.066560 0.054465
# 6 0.024252 -0.009223 -0.063000 -0.188584 0.054465 0.198816
#
#
# Mechanical properties :
#
#
# Convention : Reuss Voigt Hill
#
# Bulk Modulus (GPa) = 14.32682 34.89952 24.61317
# Shear Modulus (GPa) = 7.59637 27.45664 17.52651
#
# Velocity S-wave (km/s) = 1.89188 3.59679 2.87368
# Velocity P-wave (km/s) = 3.39451 5.80456 4.75477
#
# Compressibility (1/GPa) = 0.06979918
#
# Stress axis : x y z
#
# Youngs Moduli (GPa) = 48.84243 44.23566 15.00405
#
# Poissons Ratio (x) = 0.42940 0.04997
# Poissons Ratio (y) = 0.47411 0.10394
# Poissons Ratio (z) = 0.16266 0.30645
#
# Static dielectric constant tensor:
#      x y z
#    x 1.850630 -0.021120 0.016290 
#    y -0.021120 1.842340 0.017590 
#    z 0.016290 0.017590 1.862590 
# 
# From -- ./inp_files/258901.got.cif
#   From: 2010.05.17/outbox.cif.g08.bks.cpg/sg2_130_cif.got.tgz:258901.got - 2010.06.03 11:33:40.
