data_PCOD9025733
_publ_section_title
;
Structure prediction by ZEFSAII (Michael W. Deem and Ramdas Pophale) SiO2 
 PCOD9025733
Probable space group: P -1
;
_chemical_formula_sum "Si O2"
_cell_formula_units_Z 10
_cell_length_a 9.451439
_cell_length_b 14.171902
_cell_length_c 14.309115
_cell_angle_alpha 159.554658
_cell_angle_beta 137.670758
_cell_angle_gamma 40.821878
_cell_volume 433.814807
_symmetry_space_group_name_H-M "P -1"
_symmetry_group_IT_number 2
_symmetry_cell_setting 'triclinic'
loop_
_space_group_symop_operation_xyz
x,y,z
-x,-y,-z
loop_
_atom_site_type_symbol
_atom_site_label
_atom_site_fract_x
_atom_site_fract_y
_atom_site_fract_z
Si Si1 0.075443 0.683742 0.785726
Si Si2 0.845813 0.289409 0.730776
Si Si3 0.509755 0.294682 0.729045
Si Si4 0.687015 0.175080 0.362959
Si Si5 0.202906 0.322072 0.176107
O O1 0.315364 0.480930 0.740793
O O2 0.000000 0.500000 0.500000
O O3 0.954795 0.727659 0.867739
O O4 0.000000 0.000000 0.000000
O O5 0.728660 0.264308 0.747192
O O6 0.659682 0.307846 0.576780
O O7 0.000000 0.000000 0.500000
O O8 0.000000 0.500000 0.000000
O O9 0.500000 0.000000 0.500000
O O10 0.500000 0.500000 0.000000
O O11 0.446677 0.245250 0.266737
O O12 0.845765 0.347824 0.558690
O O13 0.785902 0.858137 0.080263
#
# Coordination Sequence:
#
# PCOD9025733 Si02
#       5
#     2   2   2   2   2
#     4  12  26  46  76 104 148 195 253 303 380 444
#     4  12  27  45  73 106 150 200 252 303 373 457
#     4  12  29  50  76 112 155 199 254 314 383 457
#     4  10  22  41  66 101 141 176 245 300 364 426
#     4  10  22  40  71 101 134 185 238 310 359 432
#
# _framework density 23.051310999999998
#
# number of rings (size 3 to 8) (size 9 to 14) (size 15 to 20)
#    0.000    0.800    0.000    6.000    8.400    4.800 
#    0.000    0.000    0.000    0.000    0.000    0.000 
#    0.000    0.000    0.000    0.000    0.000    0.000 
#
# Total GULP energy -55694.145130 kJ/mol
# GULP energy per Si atom -5569.414513 kJ/mol
# Density = 2.299885 g / cm^3
# Si number density = 23.051311 Si / 1000 Ang^3
#
#
#
# Elastic Constant Matrix: (Units=GPa)
#
#
# Indices 1 2 3 4 5 6 
#
# 1 188.0650 42.2426 69.0799 6.2978 -3.2396 -0.5001
# 2 42.2426 142.8038 71.3603 6.3084 6.0871 2.9899
# 3 69.0799 71.3603 221.0090 9.9726 -17.2776 1.3269
# 4 6.2978 6.3084 9.9726 45.3662 15.0100 -7.4088
# 5 -3.2396 6.0871 -17.2776 15.0100 38.4251 -3.8836
# 6 -0.5001 2.9899 1.3269 -7.4088 -3.8836 28.8185
#
#
#
# Elastic Compliance Matrix: (Units=1/GPa)
#
#
# Indices 1 2 3 4 5 6 
#
# 1 0.006137 -0.001031 -0.001558 -0.000382 0.000151 0.000207
# 2 -0.001031 0.008826 -0.002768 0.000323 -0.002969 -0.001123
# 3 -0.001558 -0.002768 0.006310 -0.002103 0.003962 -0.000037
# 4 -0.000382 0.000323 -0.002103 0.027070 -0.011045 0.005528
# 5 0.000151 -0.002969 0.003962 -0.011045 0.032776 0.001706
# 6 0.000207 -0.001123 -0.000037 0.005528 0.001706 0.036473
#
#
# Mechanical properties :
#
#
# Convention : Reuss Voigt Hill
#
# Bulk Modulus (GPa) = 94.68681 101.91594 98.30137
# Shear Modulus (GPa) = 37.92904 47.13496 42.53200
#
# Velocity S-wave (km/s) = 4.06078 4.52683 4.30012
# Velocity P-wave (km/s) = 7.94684 8.46355 8.20926
#
# Compressibility (1/GPa) = 0.01056113
#
# Stress axis : x y z
#
# Youngs Moduli (GPa) = 162.94779 113.29657 158.47780
#
# Poissons Ratio (x) = 0.11680 0.24684
# Poissons Ratio (y) = 0.16798 0.43861
# Poissons Ratio (z) = 0.25380 0.31356
#
# Static dielectric constant tensor:
#      x y z
#    x 1.778050 0.203300 -0.183170 
#    y 0.203300 5.751810 -3.329160 
#    z -0.183170 -3.329160 4.818050 
# 
# From -- ./inp_files/105123.got.cif
#   From: 2010.05.17/outbox.cif.g08.bks.cpg/sg2_53_cif.got.tgz:105123.got - 2010.06.03 11:33:40.
