data_PCOD9025520
_publ_section_title
;
Structure prediction by ZEFSAII (Michael W. Deem and Ramdas Pophale) SiO2 
 PCOD9025520
Probable space group: P -1
;
_chemical_formula_sum "Si O2"
_cell_formula_units_Z 14
_cell_length_a 21.484774
_cell_length_b 8.843313
_cell_length_c 9.214656
_cell_angle_alpha 62.837336
_cell_angle_beta 29.111793
_cell_angle_gamma 52.635060
_cell_volume 664.561674
_symmetry_space_group_name_H-M "P -1"
_symmetry_group_IT_number 2
_symmetry_cell_setting 'triclinic'
loop_
_space_group_symop_operation_xyz
x,y,z
-x,-y,-z
loop_
_atom_site_type_symbol
_atom_site_label
_atom_site_fract_x
_atom_site_fract_y
_atom_site_fract_z
Si Si1 0.722637 0.533328 0.702794
Si Si2 0.172333 0.925043 0.807431
Si Si3 0.517164 0.176548 0.451468
Si Si4 0.837023 0.148613 0.818981
Si Si5 0.515081 0.148970 0.797574
Si Si6 0.267532 0.531351 0.634039
Si Si7 0.031911 0.368908 0.847065
O O1 0.799074 0.333649 0.718337
O O2 0.714802 0.509468 0.556829
O O3 0.818836 0.638130 0.504544
O O4 0.562148 0.653874 0.041796
O O5 0.315519 0.942820 0.534245
O O6 0.225533 0.752743 0.657973
O O7 0.057353 0.149379 0.912303
O O8 0.143389 0.843453 0.050996
O O9 0.458572 0.196966 0.727353
O O10 0.408641 0.372659 0.500522
O O11 0.500000 0.000000 0.500000
O O12 0.688319 0.127129 0.115115
O O13 0.000000 0.000000 0.500000
O O14 0.500000 0.000000 0.000000
O O15 0.118919 0.522157 0.982217
O O16 0.000000 0.500000 0.000000
#
# Coordination Sequence:
#
# PCOD9025520 Si02
#       7
#     2   2   2   2   2   2   2
#     4  11  23  42  69  99 134 187 225 275 343 411
#     4  11  23  44  69  97 137 179 226 284 342 399
#     4  11  26  43  68 103 139 179 229 289 341 396
#     4  11  25  44  68  99 136 179 226 278 344 406
#     4  11  22  42  69  96 132 179 227 275 338 412
#     4  11  24  42  67 100 141 172 232 288 335 401
#     4  10  22  40  69  93 136 185 221 272 343 405
#
# _framework density 21.066514999999999
#
# number of rings (size 3 to 8) (size 9 to 14) (size 15 to 20)
#    0.000    1.143    1.429    4.714    8.000    5.714 
#    2.571    1.429    0.000    0.000    0.000    0.000 
#    0.000    0.000    0.000    0.000    0.000    0.000 
#
# Total GULP energy -77938.718468 kJ/mol
# GULP energy per Si atom -5567.051319 kJ/mol
# Density = 2.101857 g / cm^3
# Si number density = 21.066515 Si / 1000 Ang^3
#
#
#
# Elastic Constant Matrix: (Units=GPa)
#
#
# Indices 1 2 3 4 5 6 
#
# 1 84.1013 59.0517 53.8889 0.1296 11.4907 -13.6410
# 2 59.0517 146.8990 42.8298 12.4802 0.7837 -17.6440
# 3 53.8889 42.8298 91.9649 12.3379 6.8797 -21.8410
# 4 0.1296 12.4802 12.3379 41.1636 -3.5125 -1.3781
# 5 11.4907 0.7837 6.8797 -3.5125 41.7244 1.8242
# 6 -13.6410 -17.6440 -21.8410 -1.3781 1.8242 34.8826
#
#
#
# Elastic Compliance Matrix: (Units=1/GPa)
#
#
# Indices 1 2 3 4 5 6 
#
# 1 0.024915 -0.007073 -0.011888 0.005235 -0.004291 -0.000847
# 2 -0.007073 0.010087 0.000292 -0.002929 0.001362 0.002332
# 3 -0.011888 0.000292 0.020522 -0.006012 -0.000978 0.008162
# 4 0.005235 -0.002929 -0.006012 0.027061 0.001981 -0.002233
# 5 -0.004291 0.001362 -0.000978 0.001981 0.025576 -0.002861
# 6 -0.000847 0.002332 0.008162 -0.002233 -0.002861 0.034688
#
#
# Mechanical properties :
#
#
# Convention : Reuss Voigt Hill
#
# Bulk Modulus (GPa) = 54.98746 70.50066 62.74406
# Shear Modulus (GPa) = 26.84580 34.70045 30.77312
#
# Velocity S-wave (km/s) = 3.57366 4.06296 3.82614
# Velocity P-wave (km/s) = 6.57164 7.45309 7.02620
#
# Compressibility (1/GPa) = 0.01818597
#
# Stress axis : x y z
#
# Youngs Moduli (GPa) = 40.13686 99.13450 48.72845
#
# Poissons Ratio (x) = 0.70118 0.57927
# Poissons Ratio (y) = 0.28389 -0.01421
# Poissons Ratio (z) = 0.47713 -0.02891
#
# Static dielectric constant tensor:
#      x y z
#    x 1.781680 0.062960 -0.028580 
#    y 0.062960 1.644920 0.004820 
#    z -0.028580 0.004820 1.853340 
# 
# From -- ./inp_files/218380.got.cif
#   From: 2010.05.17/outbox.cif.g08.bks.cpg/sg2_110_cif.got.tgz:218380.got - 2010.06.03 11:33:40.
