data_PCOD9025810
_publ_section_title
;
Structure prediction by ZEFSAII (Michael W. Deem and Ramdas Pophale) SiO2 
 PCOD9025810
Probable space group: P -1
;
_chemical_formula_sum "Si O2"
_cell_formula_units_Z 14
_cell_length_a 12.368580
_cell_length_b 8.741319
_cell_length_c 11.586881
_cell_angle_alpha 43.924561
_cell_angle_beta 129.991736
_cell_angle_gamma 126.198376
_cell_volume 646.304577
_symmetry_space_group_name_H-M "P -1"
_symmetry_group_IT_number 2
_symmetry_cell_setting 'triclinic'
loop_
_space_group_symop_operation_xyz
x,y,z
-x,-y,-z
loop_
_atom_site_type_symbol
_atom_site_label
_atom_site_fract_x
_atom_site_fract_y
_atom_site_fract_z
Si Si1 0.442912 0.703498 0.550833
Si Si2 0.952358 0.338284 0.446838
Si Si3 0.557151 0.826594 0.798538
Si Si4 0.205687 0.413802 0.978765
Si Si5 0.776126 0.731201 0.465033
Si Si6 0.393128 0.882488 0.890791
Si Si7 0.211816 0.159755 0.336536
O O1 0.445305 0.692689 0.697433
O O2 0.351479 0.480596 0.547967
O O3 0.613330 0.764036 0.600600
O O4 0.386795 0.921335 0.353440
O O5 0.893609 0.481931 0.230482
O O6 0.000000 0.500000 0.500000
O O7 0.088545 0.259280 0.529760
O O8 0.838193 0.109560 0.531969
O O9 0.482134 0.853008 0.852830
O O10 0.687126 0.700987 0.960189
O O11 0.303458 0.630586 0.995663
O O12 0.140988 0.235627 0.131604
O O13 0.821840 0.718226 0.636497
O O14 0.714848 0.955566 0.294098
O O15 0.500000 0.000000 0.000000
#
# Coordination Sequence:
#
# PCOD9025810 Si02
#       7
#     2   2   2   2   2   2   2
#     4  10  22  42  76 110 137 189 239 300 360 423
#     4  12  30  50  72 100 151 201 238 290 360 438
#     4  10  22  40  72 102 151 177 240 294 362 412
#     4  11  26  46  73 104 143 195 241 289 358 434
#     4  12  26  45  75 105 148 190 239 297 370 417
#     4  12  25  41  71 111 147 183 237 302 365 421
#     4  11  24  50  73 104 147 183 245 302 356 423
#
# _framework density 21.661615000000001
#
# number of rings (size 3 to 8) (size 9 to 14) (size 15 to 20)
#    0.000    0.857    2.857    3.000   12.000    1.143 
#    0.000    0.000    0.000    0.000    0.000    0.000 
#    0.000    0.000    0.000    0.000    0.000    0.000 
#
# Total GULP energy -78360.138679 kJ/mol
# GULP energy per Si atom -5597.152763 kJ/mol
# Density = 2.161231 g / cm^3
# Si number density = 21.661615 Si / 1000 Ang^3
#
#
#
# Elastic Constant Matrix: (Units=GPa)
#
#
# Indices 1 2 3 4 5 6 
#
# 1 113.7217 45.6000 41.2990 2.4439 -3.7820 -22.1767
# 2 45.6000 114.2300 41.7307 1.8072 -4.1841 -18.3160
# 3 41.2990 41.7307 122.5548 -2.8002 -6.1328 -5.6691
# 4 2.4439 1.8072 -2.8002 33.8375 -13.4817 -3.3262
# 5 -3.7820 -4.1841 -6.1328 -13.4817 28.0069 2.4487
# 6 -22.1767 -18.3160 -5.6691 -3.3262 2.4487 37.7551
#
#
#
# Elastic Compliance Matrix: (Units=1/GPa)
#
#
# Indices 1 2 3 4 5 6 
#
# 1 0.012010 -0.002928 -0.002828 -0.000484 -0.000120 0.005174
# 2 -0.002928 0.011491 -0.002755 -0.000158 0.000344 0.003404
# 3 -0.002828 -0.002755 0.010158 0.002066 0.002553 -0.001456
# 4 -0.000484 -0.000158 0.002066 0.037171 0.018077 0.002051
# 5 -0.000120 0.000344 0.002553 0.018077 0.045076 -0.000851
# 6 0.005174 0.003404 -0.001456 0.002051 -0.000851 0.031195
#
#
# Mechanical properties :
#
#
# Convention : Reuss Voigt Hill
#
# Bulk Modulus (GPa) = 60.10705 67.52955 63.81830
# Shear Modulus (GPa) = 29.46928 34.71170 32.09049
#
# Velocity S-wave (km/s) = 3.69241 4.00741 3.85313
# Velocity P-wave (km/s) = 6.78137 7.25637 7.02288
#
# Compressibility (1/GPa) = 0.01663698
#
# Stress axis : x y z
#
# Youngs Moduli (GPa) = 83.26408 87.02774 98.44319
#
# Poissons Ratio (x) = 0.25485 0.27838
# Poissons Ratio (y) = 0.24383 0.27118
# Poissons Ratio (z) = 0.23545 0.23974
#
# Static dielectric constant tensor:
#      x y z
#    x 1.804560 0.006380 -0.014490 
#    y 0.006380 1.773450 0.007920 
#    z -0.014490 0.007920 1.826770 
# 
# From -- ./inp_files/416208.got.cif
#   From: 2010.05.17/outbox.cif.g08.bks.cpg/sg2_209_cif.got.tgz:416208.got - 2010.06.03 11:33:40.
