data_PCOD9025398
_publ_section_title
;
Structure prediction by ZEFSAII (Michael W. Deem and Ramdas Pophale) SiO2 
 PCOD9025398
Probable space group: P -1
;
_chemical_formula_sum "Si O2"
_cell_formula_units_Z 14
_cell_length_a 8.702120
_cell_length_b 9.633258
_cell_length_c 11.734130
_cell_angle_alpha 122.278636
_cell_angle_beta 65.420219
_cell_angle_gamma 136.680887
_cell_volume 569.927444
_symmetry_space_group_name_H-M "P -1"
_symmetry_group_IT_number 2
_symmetry_cell_setting 'triclinic'
loop_
_space_group_symop_operation_xyz
x,y,z
-x,-y,-z
loop_
_atom_site_type_symbol
_atom_site_label
_atom_site_fract_x
_atom_site_fract_y
_atom_site_fract_z
Si Si1 0.013533 0.860156 0.525930
Si Si2 0.630624 0.470507 0.356378
Si Si3 0.633650 0.358951 0.833908
Si Si4 0.267570 0.247847 0.753328
Si Si5 0.634001 0.098645 0.188204
Si Si6 0.026706 0.698434 0.024293
Si Si7 0.946946 0.618936 0.648341
O O1 0.895866 0.645838 0.389230
O O2 0.896076 0.736659 0.629503
O O3 0.000000 0.000000 0.500000
O O4 0.246002 0.068311 0.604680
O O5 0.500000 0.500000 0.500000
O O6 0.614452 0.539916 0.267903
O O7 0.556341 0.236817 0.279966
O O8 0.399455 0.294240 0.847740
O O9 0.818517 0.565216 0.942506
O O10 0.747216 0.430078 0.706372
O O11 0.567180 0.147796 0.822661
O O12 0.028288 0.182305 0.825418
O O13 0.747120 0.141449 0.048645
O O14 0.837207 0.204866 0.262787
O O15 0.000000 0.500000 0.000000
O O16 0.000000 0.500000 0.500000
#
# Coordination Sequence:
#
# PCOD9025398 Si02
#       7
#     2   2   2   2   2   2   2
#     4  10  22  40  68  98 134 179 219 277 344 398
#     4  11  23  41  66 103 140 176 231 278 339 420
#     4  11  26  43  71 104 135 182 233 282 346 407
#     4  11  23  45  69 100 139 179 230 286 343 401
#     4  11  24  45  69 102 135 184 227 282 347 406
#     4  11  25  48  71  97 139 181 236 288 336 413
#     4  11  22  42  67  98 145 177 224 280 342 410
#
# _framework density 24.564530000000001
#
# number of rings (size 3 to 8) (size 9 to 14) (size 15 to 20)
#    0.000    1.143    4.286    1.286    0.000    5.143 
#    5.143    0.000    0.000    0.000    0.000    0.000 
#    0.000    0.000    0.000    0.000    0.000    0.000 
#
# Total GULP energy -78034.979892 kJ/mol
# GULP energy per Si atom -5573.927135 kJ/mol
# Density = 2.450862 g / cm^3
# Si number density = 24.564530 Si / 1000 Ang^3
#
#
#
# Elastic Constant Matrix: (Units=GPa)
#
#
# Indices 1 2 3 4 5 6 
#
# 1 69.2124 23.4001 22.3324 1.4183 0.9231 -10.5871
# 2 23.4001 173.6078 32.3506 -21.1732 -17.0859 -21.4779
# 3 22.3324 32.3506 61.5560 -11.2010 -10.8348 -8.0017
# 4 1.4183 -21.1732 -11.2010 36.3156 5.5677 17.2350
# 5 0.9231 -17.0859 -10.8348 5.5677 47.2330 2.2875
# 6 -10.5871 -21.4779 -8.0017 17.2350 2.2875 36.6205
#
#
#
# Elastic Compliance Matrix: (Units=1/GPa)
#
#
# Indices 1 2 3 4 5 6 
#
# 1 0.018081 -0.001422 -0.006481 -0.006063 -0.001928 0.005951
# 2 -0.001422 0.007064 -0.002217 0.002238 0.001710 0.002088
# 3 -0.006481 -0.002217 0.021237 0.005626 0.003601 -0.001407
# 4 -0.006063 0.002238 0.005626 0.039444 -0.001575 -0.017676
# 5 -0.001928 0.001710 0.003601 -0.001575 0.022813 0.000548
# 6 0.005951 0.002088 -0.001407 -0.017676 0.000548 0.038230
#
#
# Mechanical properties :
#
#
# Convention : Reuss Voigt Hill
#
# Bulk Modulus (GPa) = 38.25504 51.17137 44.71321
# Shear Modulus (GPa) = 28.43774 39.12003 33.77889
#
# Velocity S-wave (km/s) = 3.40615 3.99500 3.71227
# Velocity P-wave (km/s) = 5.57461 6.49281 6.05115
#
# Compressibility (1/GPa) = 0.02614034
#
# Stress axis : x y z
#
# Youngs Moduli (GPa) = 55.30784 141.55429 47.08828
#
# Poissons Ratio (x) = 0.20133 0.30519
# Poissons Ratio (y) = 0.07867 0.10440
# Poissons Ratio (z) = 0.35846 0.31385
#
# Static dielectric constant tensor:
#      x y z
#    x 2.127780 0.074860 -0.073340 
#    y 0.074860 1.945890 -0.010100 
#    z -0.073340 -0.010100 2.018650 
# 
# From -- ./inp_files/379940.got.cif
#   From: 2010.05.17/outbox.cif.g08.bks.cpg/sg2_190_cif.got.tgz:379940.got - 2010.06.03 11:33:40.
