data_PCOD9025564
_publ_section_title
;
Structure prediction by ZEFSAII (Michael W. Deem and Ramdas Pophale) SiO2 
 PCOD9025564
Probable space group: P -1
;
_chemical_formula_sum "Si O2"
_cell_formula_units_Z 16
_cell_length_a 11.929925
_cell_length_b 8.164907
_cell_length_c 18.711957
_cell_angle_alpha 133.970938
_cell_angle_beta 139.023813
_cell_angle_gamma 75.027926
_cell_volume 710.739288
_symmetry_space_group_name_H-M "P -1"
_symmetry_group_IT_number 2
_symmetry_cell_setting 'triclinic'
loop_
_space_group_symop_operation_xyz
x,y,z
-x,-y,-z
loop_
_atom_site_type_symbol
_atom_site_label
_atom_site_fract_x
_atom_site_fract_y
_atom_site_fract_z
Si Si1 0.155224 0.811802 0.900471
Si Si2 0.458401 0.737066 0.944232
Si Si3 0.102189 0.052494 0.711770
Si Si4 0.569650 0.789018 0.581403
Si Si5 0.461515 0.078103 0.243454
Si Si6 0.163775 0.736482 0.358235
Si Si7 0.712396 0.861362 0.325094
Si Si8 0.848053 0.700471 0.598835
O O1 0.277607 0.680839 0.893439
O O2 0.962438 0.586813 0.785778
O O3 0.049621 0.840822 0.789317
O O4 0.316952 0.058689 0.104139
O O5 0.366192 0.439846 0.774748
O O6 0.500000 0.000000 0.000000
O O7 0.671958 0.825800 0.110826
O O8 0.936072 0.758170 0.578788
O O9 0.132387 0.049742 0.640376
O O10 0.002963 0.216079 0.741199
O O11 0.500000 0.500000 0.500000
O O12 0.642490 0.971484 0.743778
O O13 0.386724 0.805095 0.464614
O O14 0.724627 0.829343 0.606438
O O15 0.681749 0.374888 0.432985
O O16 0.518720 0.856476 0.197570
O O17 0.213511 0.918829 0.509341
#
# Coordination Sequence:
#
# PCOD9025564 Si02
#       8
#     2   2   2   2   2   2   2   2
#     4  12  21  41  66  97 129 172 222 265 334 387
#     4  12  25  40  63  97 133 168 217 273 321 405
#     4  12  24  39  64  95 133 178 209 272 329 396
#     4   9  19  43  66  95 129 169 228 280 311 388
#     4  10  22  40  69  98 130 176 222 271 327 389
#     4  11  23  41  69  94 126 181 218 267 335 391
#     4  11  22  42  62  95 134 171 215 264 335 392
#     4  11  24  43  64  98 135 172 226 270 326 381
#
# _framework density 22.511768
#
# number of rings (size 3 to 8) (size 9 to 14) (size 15 to 20)
#    0.000    1.000    7.500    1.500    0.000    2.500 
#    0.000    0.000    0.000    6.750    0.000    0.000 
#    0.000    0.000    0.000    0.000    0.000    0.000 
#
# Total GULP energy -89118.893188 kJ/mol
# GULP energy per Si atom -5569.930824 kJ/mol
# Density = 2.246053 g / cm^3
# Si number density = 22.511768 Si / 1000 Ang^3
#
#
#
# Elastic Constant Matrix: (Units=GPa)
#
#
# Indices 1 2 3 4 5 6 
#
# 1 94.0689 35.9731 38.3468 -0.5248 16.8466 -18.3802
# 2 35.9731 92.7198 32.3534 -18.7584 8.5498 -21.0277
# 3 38.3468 32.3534 80.9218 -18.7999 10.8743 -3.5918
# 4 -0.5248 -18.7584 -18.7999 42.6979 -5.0125 15.9109
# 5 16.8466 8.5498 10.8743 -5.0125 17.3349 -3.1070
# 6 -18.3802 -21.0277 -3.5918 15.9109 -3.1070 36.6522
#
#
#
# Elastic Compliance Matrix: (Units=1/GPa)
#
#
# Indices 1 2 3 4 5 6 
#
# 1 0.019541 -0.003220 -0.008076 -0.010199 -0.013413 0.010451
# 2 -0.003220 0.015128 -0.003549 0.003004 -0.000271 0.005390
# 3 -0.008076 -0.003549 0.019757 0.010098 -0.001426 -0.008654
# 4 -0.010199 0.003004 0.010098 0.036716 0.009571 -0.017529
# 5 -0.013413 -0.000271 -0.001426 0.009571 0.073633 -0.004934
# 6 0.010451 0.005390 -0.008654 -0.017529 -0.004934 0.041960
#
#
# Mechanical properties :
#
#
# Convention : Reuss Voigt Hill
#
# Bulk Modulus (GPa) = 40.42634 53.45076 46.93855
# Shear Modulus (GPa) = 20.43563 30.07281 25.25422
#
# Velocity S-wave (km/s) = 3.01620 3.65892 3.35300
# Velocity P-wave (km/s) = 5.48879 6.45332 5.99050
#
# Compressibility (1/GPa) = 0.02473635
#
# Stress axis : x y z
#
# Youngs Moduli (GPa) = 51.17394 66.10359 50.61487
#
# Poissons Ratio (x) = 0.21285 0.40876
# Poissons Ratio (y) = 0.16478 0.17963
# Poissons Ratio (z) = 0.41328 0.23459
#
# Static dielectric constant tensor:
#      x y z
#    x 1.868610 0.029860 0.004090 
#    y 0.029860 1.975560 -0.022120 
#    z 0.004090 -0.022120 1.864770 
# 
# From -- ./inp_files/494868.got.cif
#   From: 2010.05.17/outbox.cif.g08.bks.cpg/sg2_248_cif.got.tgz:494868.got - 2010.06.03 11:33:40.
