data_PCOD9025148
_publ_section_title
;
Structure prediction by ZEFSAII (Michael W. Deem and Ramdas Pophale) SiO2 
 PCOD9025148
Probable space group: P -1
;
_chemical_formula_sum "Si O2"
_cell_formula_units_Z 16
_cell_length_a 19.098560
_cell_length_b 12.644938
_cell_length_c 9.484985
_cell_angle_alpha 46.158841
_cell_angle_beta 134.062819
_cell_angle_gamma 154.159501
_cell_volume 700.951050
_symmetry_space_group_name_H-M "P -1"
_symmetry_group_IT_number 2
_symmetry_cell_setting 'triclinic'
loop_
_space_group_symop_operation_xyz
x,y,z
-x,-y,-z
loop_
_atom_site_type_symbol
_atom_site_label
_atom_site_fract_x
_atom_site_fract_y
_atom_site_fract_z
Si Si1 0.490558 0.900769 0.811702
Si Si2 0.687378 0.414100 0.596005
Si Si3 0.511606 0.268929 0.755998
Si Si4 0.959617 0.826385 0.396619
Si Si5 0.883631 0.031953 0.939349
Si Si6 0.716088 0.791649 0.628220
Si Si7 0.886164 0.506763 0.337786
Si Si8 0.543099 0.719445 0.826493
O O1 0.309929 0.755971 0.698174
O O2 0.483446 0.753785 0.834323
O O3 0.628569 0.179108 0.692145
O O4 0.530751 0.894793 0.030349
O O5 0.650639 0.383679 0.737205
O O6 0.866322 0.673841 0.550027
O O7 0.559040 0.360393 0.380845
O O8 0.579730 0.500294 0.708894
O O9 0.359559 0.140874 0.567791
O O10 0.918839 0.646208 0.394150
O O11 0.901057 0.910652 0.172745
O O12 0.156569 0.076928 0.442880
O O13 0.813237 0.897170 0.812727
O O14 0.740680 0.965113 0.858526
O O15 0.052021 0.319335 0.868990
O O16 0.000000 0.500000 0.500000
O O17 0.500000 0.500000 0.000000
#
# Coordination Sequence:
#
# PCOD9025148 Si02
#       8
#     2   2   2   2   2   2   2   2
#     4  12  26  44  65  99 134 172 215 264 327 394
#     4  12  25  42  64  96 136 171 212 267 327 388
#     4  11  24  43  67  91 129 181 214 261 325 390
#     4  11  23  41  65  97 131 165 216 277 321 375
#     4  11  21  40  68 101 128 164 216 278 322 373
#     4  10  22  40  67  96 129 166 224 267 317 385
#     4  11  23  39  67  97 132 166 211 269 328 377
#     4  12  22  40  69  99 129 164 221 271 316 378
#
# _framework density 22.826129999999999
#
# number of rings (size 3 to 8) (size 9 to 14) (size 15 to 20)
#    0.000    0.750    3.750    5.250    5.250    0.500 
#    0.000    1.875    0.000    0.000    0.000    0.000 
#    0.000    0.000    0.000    0.000    0.000    0.000 
#
# Total GULP energy -89520.055462 kJ/mol
# GULP energy per Si atom -5595.003466 kJ/mol
# Density = 2.277418 g / cm^3
# Si number density = 22.826130 Si / 1000 Ang^3
#
#
#
# Elastic Constant Matrix: (Units=GPa)
#
#
# Indices 1 2 3 4 5 6 
#
# 1 96.4115 2.4865 20.9326 -7.2740 8.2577 18.6356
# 2 2.4865 43.8291 12.0222 -21.6245 3.3682 14.8689
# 3 20.9326 12.0222 84.2698 -26.6146 -0.9388 -1.2038
# 4 -7.2740 -21.6245 -26.6146 25.2719 1.8223 -4.3460
# 5 8.2577 3.3682 -0.9388 1.8223 32.2136 -9.0450
# 6 18.6356 14.8689 -1.2038 -4.3460 -9.0450 41.6967
#
#
#
# Elastic Compliance Matrix: (Units=1/GPa)
#
#
# Indices 1 2 3 4 5 6 
#
# 1 0.013679 0.006390 -0.002856 0.005286 -0.007222 -0.009490
# 2 0.006390 0.055550 0.007312 0.054749 -0.016007 -0.020219
# 3 -0.002856 0.007312 0.020062 0.026930 -0.000420 0.001964
# 4 0.005286 0.054749 0.026930 0.115305 -0.016366 -0.012640
# 5 -0.007222 -0.016007 -0.000420 -0.016366 0.039941 0.015882
# 6 -0.009490 -0.020219 0.001964 -0.012640 0.015882 0.037619
#
#
# Mechanical properties :
#
#
# Convention : Reuss Voigt Hill
#
# Bulk Modulus (GPa) = 9.01053 32.82143 20.91598
# Shear Modulus (GPa) = 16.80909 32.44106 24.62507
#
# Velocity S-wave (km/s) = 2.71661 3.77400 3.28809
# Velocity P-wave (km/s) = 3.71429 5.77935 4.85782
#
# Compressibility (1/GPa) = 0.11098124
#
# Stress axis : x y z
#
# Youngs Moduli (GPa) = 73.10327 18.00195 49.84651
#
# Poissons Ratio (x) = -0.11503 0.14237
# Poissons Ratio (y) = -0.46711 -0.36447
# Poissons Ratio (z) = 0.20880 -0.13163
#
# Static dielectric constant tensor:
#      x y z
#    x 1.900010 0.006510 0.008810 
#    y 0.006510 1.901290 -0.001120 
#    z 0.008810 -0.001120 1.828410 
# 
# From -- ./inp_files/332956.got.cif
#   From: 2010.05.17/outbox.cif.g08.bks.cpg/sg2_167_cif.got.tgz:332956.got - 2010.06.03 11:33:40.
