data_PCOD9025600
_publ_section_title
;
Structure prediction by ZEFSAII (Michael W. Deem and Ramdas Pophale) SiO2 
 PCOD9025600
Probable space group: P -1
;
_chemical_formula_sum "Si O2"
_cell_formula_units_Z 12
_cell_length_a 11.679073
_cell_length_b 6.731484
_cell_length_c 9.080154
_cell_angle_alpha 83.742624
_cell_angle_beta 42.947754
_cell_angle_gamma 89.823480
_cell_volume 480.366287
_symmetry_space_group_name_H-M "P -1"
_symmetry_group_IT_number 2
_symmetry_cell_setting 'triclinic'
loop_
_space_group_symop_operation_xyz
x,y,z
-x,-y,-z
loop_
_atom_site_type_symbol
_atom_site_label
_atom_site_fract_x
_atom_site_fract_y
_atom_site_fract_z
Si Si1 0.270635 0.091859 0.932731
Si Si2 0.602889 0.331266 0.485206
Si Si3 0.932033 0.780432 0.640576
Si Si4 0.431626 0.808497 0.980682
Si Si5 0.953677 0.286396 0.143954
Si Si6 0.715989 0.556457 0.644627
O O1 0.242044 0.217213 0.101555
O O2 0.109683 0.148432 0.985269
O O3 0.453688 0.167368 0.691412
O O4 0.289204 0.872310 0.997663
O O5 0.500000 0.500000 0.500000
O O6 0.759517 0.224776 0.280215
O O7 0.701584 0.471111 0.503828
O O8 0.889825 0.651219 0.545865
O O9 0.351291 0.629449 0.172962
O O10 0.000000 0.000000 0.500000
O O11 0.587994 0.727318 0.757659
O O12 0.500000 0.000000 0.000000
O O13 0.956328 0.279464 0.322993
O O14 0.000000 0.500000 0.000000
#
# Coordination Sequence:
#
# PCOD9025600 Si02
#       6
#     2   2   2   2   2   2
#     4  10  22  40  70 100 139 189 231 295 360 412
#     4  12  23  43  74  98 143 194 235 298 361 425
#     4  10  23  43  68 106 142 181 238 296 348 423
#     4  11  19  39  70 103 142 176 234 301 349 426
#     4  10  23  43  69  99 141 191 235 287 364 421
#     4  11  24  39  71 110 137 191 240 287 369 429
#
# _framework density 24.980937999999998
#
# number of rings (size 3 to 8) (size 9 to 14) (size 15 to 20)
#    1.000    0.333    5.000    1.000    4.667    0.667 
#    0.000    0.833    3.667    4.000    0.000    0.000 
#    0.000    0.000    0.000    0.000    0.000    0.000 
#
# Total GULP energy -66886.592832 kJ/mol
# GULP energy per Si atom -5573.882736 kJ/mol
# Density = 2.492408 g / cm^3
# Si number density = 24.980938 Si / 1000 Ang^3
#
#
#
# Elastic Constant Matrix: (Units=GPa)
#
#
# Indices 1 2 3 4 5 6 
#
# 1 173.3022 65.8746 45.7421 5.5708 -22.6134 -43.5461
# 2 65.8746 108.6409 23.1070 0.1622 -12.9595 -25.3490
# 3 45.7421 23.1070 83.2058 -8.6505 -36.4488 -17.3799
# 4 5.5708 0.1622 -8.6505 38.7085 -8.5114 -9.5419
# 5 -22.6134 -12.9595 -36.4488 -8.5114 49.5845 11.4139
# 6 -43.5461 -25.3490 -17.3799 -9.5419 11.4139 69.2089
#
#
#
# Elastic Compliance Matrix: (Units=1/GPa)
#
#
# Indices 1 2 3 4 5 6 
#
# 1 0.009018 -0.004027 -0.003545 -0.001399 -0.000523 0.003202
# 2 -0.004027 0.012254 -0.000269 0.001138 0.000928 0.001891
# 3 -0.003545 -0.000269 0.022458 0.009539 0.016002 0.001987
# 4 -0.001399 0.001138 0.009539 0.031702 0.011083 0.004475
# 5 -0.000523 0.000928 0.016002 0.011083 0.033842 -0.000024
# 6 0.003202 0.001891 0.001987 0.004475 -0.000024 0.018276
#
#
# Mechanical properties :
#
#
# Convention : Reuss Voigt Hill
#
# Bulk Modulus (GPa) = 35.65332 70.51071 53.08201
# Shear Modulus (GPa) = 32.76906 46.86206 39.81556
#
# Velocity S-wave (km/s) = 3.62576 4.33588 3.99662
# Velocity P-wave (km/s) = 5.64193 7.30435 6.52629
#
# Compressibility (1/GPa) = 0.02804788
#
# Stress axis : x y z
#
# Youngs Moduli (GPa) = 110.88777 81.60610 44.52721
#
# Poissons Ratio (x) = 0.32865 0.15784
# Poissons Ratio (y) = 0.44658 0.01198
# Poissons Ratio (z) = 0.39307 0.02196
#
# Static dielectric constant tensor:
#      x y z
#    x 2.091350 -0.191300 -0.143210 
#    y -0.191300 3.717730 2.519700 
#    z -0.143210 2.519700 5.877130 
# 
# From -- ./inp_files/243793.got.cif
#   From: 2010.05.17/outbox.cif.g08.bks.cpg/sg2_122_cif.got.tgz:243793.got - 2010.06.03 11:33:40.
