data_PCOD9025220
_publ_section_title
;
Structure prediction by ZEFSAII (Michael W. Deem and Ramdas Pophale) SiO2 
 PCOD9025220
Probable space group: P -1
;
_chemical_formula_sum "Si O2"
_cell_formula_units_Z 16
_cell_length_a 27.417242
_cell_length_b 12.764531
_cell_length_c 5.042412
_cell_angle_alpha 127.544512
_cell_angle_beta 131.987153
_cell_angle_gamma 27.771199
_cell_volume 610.389083
_symmetry_space_group_name_H-M "P -1"
_symmetry_group_IT_number 2
_symmetry_cell_setting 'triclinic'
loop_
_space_group_symop_operation_xyz
x,y,z
-x,-y,-z
loop_
_atom_site_type_symbol
_atom_site_label
_atom_site_fract_x
_atom_site_fract_y
_atom_site_fract_z
Si Si1 0.963252 0.703164 0.560549
Si Si2 0.945308 0.159973 0.794383
Si Si3 0.248219 0.998627 0.443931
Si Si4 0.414680 0.543685 0.096539
Si Si5 0.719576 0.596003 0.838775
Si Si6 0.860510 0.584836 0.634349
Si Si7 0.334474 0.079338 0.195447
Si Si8 0.446325 0.329674 0.367505
O O1 0.000000 0.500000 0.500000
O O2 0.009782 0.631835 0.315710
O O3 0.834650 0.924706 0.517671
O O4 0.021229 0.739684 0.945698
O O5 0.811009 0.368369 0.646225
O O6 0.000000 0.000000 0.500000
O O7 0.000000 0.000000 0.000000
O O8 0.298322 0.807613 0.138795
O O9 0.185970 0.211603 0.375118
O O10 0.343093 0.930735 0.831602
O O11 0.500000 0.500000 0.500000
O O12 0.419831 0.405156 0.085121
O O13 0.429584 0.480135 0.745927
O O14 0.649899 0.814111 0.749576
O O15 0.638216 0.640528 0.783064
O O16 0.800926 0.551668 0.251740
O O17 0.795804 0.705745 0.861112
O O18 0.424841 0.923562 0.515747
#
# Coordination Sequence:
#
# PCOD9025220 Si02
#       8
#     2   2   2   2   2   2   2   2
#     4   9  21  46  69 105 137 186 244 292 352 426
#     4  11  27  48  73 104 149 188 231 295 365 422
#     4  10  22  40  67  99 135 180 234 283 355 410
#     4  12  26  46  67  99 144 180 231 290 348 413
#     4  10  26  45  68 101 137 180 235 282 349 421
#     4   9  21  42  69  96 138 174 232 293 344 409
#     4  11  23  43  71  98 137 184 229 295 343 409
#     4  12  28  43  72 101 138 186 234 284 346 418
#
# _framework density 26.212789999999998
#
# number of rings (size 3 to 8) (size 9 to 14) (size 15 to 20)
#    0.000    1.500    1.250    2.250   12.250    1.000 
#    4.500    0.000    0.000    0.000    0.000    0.000 
#    0.000    0.000    0.000    0.000    0.000    0.000 
#
# Total GULP energy -89585.587952 kJ/mol
# GULP energy per Si atom -5599.099247 kJ/mol
# Density = 2.615313 g / cm^3
# Si number density = 26.212790 Si / 1000 Ang^3
#
#
#
# Elastic Constant Matrix: (Units=GPa)
#
#
# Indices 1 2 3 4 5 6 
#
# 1 142.4501 31.5109 23.4515 3.8966 10.7922 -5.1316
# 2 31.5109 94.0298 19.7816 10.1530 2.4817 -14.6542
# 3 23.4515 19.7816 84.6987 14.4322 0.0226 -6.3422
# 4 3.8966 10.1530 14.4322 33.7904 -9.2023 -6.1689
# 5 10.7922 2.4817 0.0226 -9.2023 47.2021 0.5440
# 6 -5.1316 -14.6542 -6.3422 -6.1689 0.5440 40.1834
#
#
#
# Elastic Compliance Matrix: (Units=1/GPa)
#
#
# Indices 1 2 3 4 5 6 
#
# 1 0.007922 -0.002269 -0.001669 0.000011 -0.001688 -0.000055
# 2 -0.002269 0.012583 -0.001639 -0.002318 -0.000637 0.003693
# 3 -0.001669 -0.001639 0.013572 -0.005162 -0.000551 0.000546
# 4 0.000011 -0.002318 -0.005162 0.035039 0.006911 0.003627
# 5 -0.001688 -0.000637 -0.000551 0.006911 0.022950 0.000216
# 6 -0.000055 0.003693 0.000546 0.003627 0.000216 0.026866
#
#
# Mechanical properties :
#
#
# Convention : Reuss Voigt Hill
#
# Bulk Modulus (GPa) = 43.62351 52.29628 47.95989
# Shear Modulus (GPa) = 36.30380 40.66415 38.48398
#
# Velocity S-wave (km/s) = 3.72555 3.94294 3.83578
# Velocity P-wave (km/s) = 5.93165 6.38146 6.16066
#
# Compressibility (1/GPa) = 0.02292342
#
# Stress axis : x y z
#
# Youngs Moduli (GPa) = 126.22533 79.47420 73.68031
#
# Poissons Ratio (x) = 0.18032 0.12299
# Poissons Ratio (y) = 0.28639 0.12075
# Poissons Ratio (z) = 0.21070 0.13024
#
# Static dielectric constant tensor:
#      x y z
#    x 2.037650 -0.010820 -0.030550 
#    y -0.010820 2.055590 0.007370 
#    z -0.030550 0.007370 2.130920 
# 
# From -- ./inp_files/85176.got.cif
#   From: 2010.05.17/outbox.cif.g08.bks.cpg/sg2_43_cif.got.tgz:85176.got - 2010.06.03 11:33:40.
