data_PCOD9025288
_publ_section_title
;
Structure prediction by ZEFSAII (Michael W. Deem and Ramdas Pophale) SiO2 
 PCOD9025288
Probable space group: P -1
;
_chemical_formula_sum "Si O2"
_cell_formula_units_Z 15
_cell_length_a 8.576410
_cell_length_b 8.473004
_cell_length_c 12.315566
_cell_angle_alpha 126.602319
_cell_angle_beta 100.102182
_cell_angle_gamma 73.668533
_cell_volume 689.433664
_symmetry_space_group_name_H-M "P -1"
_symmetry_group_IT_number 2
_symmetry_cell_setting 'triclinic'
loop_
_space_group_symop_operation_xyz
x,y,z
-x,-y,-z
loop_
_atom_site_type_symbol
_atom_site_label
_atom_site_fract_x
_atom_site_fract_y
_atom_site_fract_z
Si Si1 0.500000 0.000000 0.000000
Si Si2 0.209941 0.730164 0.410756
Si Si3 0.456059 0.168141 0.444097
Si Si4 0.931745 0.045192 0.889112
Si Si5 0.944208 0.930878 0.308946
Si Si6 0.622205 0.364036 0.043147
Si Si7 0.320266 0.253265 0.680841
Si Si8 0.730635 0.727538 0.745611
O O1 0.452398 0.807646 0.981022
O O2 0.641499 0.843457 0.885338
O O3 0.395641 0.746761 0.453130
O O4 0.193012 0.502563 0.314187
O O5 0.124317 0.841649 0.339468
O O6 0.120203 0.853038 0.553562
O O7 0.314871 0.216954 0.536394
O O8 0.401410 0.263642 0.361795
O O9 0.527175 0.928119 0.339761
O O10 0.060029 0.063738 0.819003
O O11 0.855987 0.855678 0.770997
O O12 0.788880 0.245620 0.958787
O O13 0.000000 0.000000 0.000000
O O14 0.830079 0.794834 0.291299
O O15 0.660057 0.524757 0.200160
O O16 0.500000 0.500000 0.000000
#
# Coordination Sequence:
#
# PCOD9025288 Si02
#       8
#     1   2   2   2   2   2   2   2
#     4  10  24  44  66 106 140 174 246 290 346 424
#     4  10  23  42  71 102 135 182 228 290 360 426
#     4  10  22  40  68 108 137 170 237 301 345 431
#     4  11  28  45  65 101 146 186 242 296 356 439
#     4  10  25  45  67 100 141 182 235 285 350 444
#     4  11  25  44  73 101 138 195 240 297 356 423
#     4  10  22  40  70 100 138 180 234 279 362 417
#     4  11  24  41  70  97 141 180 230 298 359 413
#
# _framework density 21.756989000000001
#
# number of rings (size 3 to 8) (size 9 to 14) (size 15 to 20)
#    0.000    1.600    0.000    2.800   13.067    8.533 
#    0.000    0.000    0.000    0.000    0.000    0.000 
#    0.000    0.000    0.000    0.000    0.000    0.000 
#
# Total GULP energy -83612.806646 kJ/mol
# GULP energy per Si atom -5574.187110 kJ/mol
# Density = 2.170747 g / cm^3
# Si number density = 21.756989 Si / 1000 Ang^3
#
#
#
# Elastic Constant Matrix: (Units=GPa)
#
#
# Indices 1 2 3 4 5 6 
#
# 1 60.0565 24.9027 26.0716 -2.7553 -7.9158 4.3325
# 2 24.9027 92.4186 60.1695 33.4726 -7.8251 -0.7534
# 3 26.0716 60.1695 77.4649 15.4636 -3.3060 6.8309
# 4 -2.7553 33.4726 15.4636 43.8492 5.1935 10.3702
# 5 -7.9158 -7.8251 -3.3060 5.1935 25.4668 -8.1940
# 6 4.3325 -0.7534 6.8309 10.3702 -8.1940 17.7518
#
#
#
# Elastic Compliance Matrix: (Units=1/GPa)
#
#
# Indices 1 2 3 4 5 6 
#
# 1 0.023316 -0.013870 0.000950 0.017211 -0.006781 -0.019829
# 2 -0.013870 0.075100 -0.045213 -0.070576 0.056685 0.091364
# 3 0.000950 -0.045213 0.043979 0.036091 -0.033082 -0.055428
# 4 0.017211 -0.070576 0.036091 0.098995 -0.067212 -0.109938
# 5 -0.006781 0.056685 -0.033082 -0.067212 0.096331 0.100520
# 6 -0.019829 0.091364 -0.055428 -0.109938 0.100520 0.197000
#
#
# Mechanical properties :
#
#
# Convention : Reuss Voigt Hill
#
# Bulk Modulus (GPa) = 38.27334 50.24752 44.26043
# Shear Modulus (GPa) = 7.57922 25.33331 16.45627
#
# Velocity S-wave (km/s) = 1.86846 3.41600 2.75320
# Velocity P-wave (km/s) = 4.72063 6.22123 5.52214
#
# Compressibility (1/GPa) = 0.02612785
#
# Stress axis : x y z
#
# Youngs Moduli (GPa) = 42.88833 13.31560 22.73794
#
# Poissons Ratio (x) = 0.18469 -0.02159
# Poissons Ratio (y) = 0.59487 1.02806
# Poissons Ratio (z) = -0.04072 0.60204
#
# Static dielectric constant tensor:
#      x y z
#    x 1.837070 -0.017350 0.028370 
#    y -0.017350 1.779680 -0.034470 
#    z 0.028370 -0.034470 1.801980 
# 
# From -- ./inp_files/380649.got.cif
#   From: 2010.05.17/outbox.cif.g08.bks.cpg/sg2_191_cif.got.tgz:380649.got - 2010.06.03 11:33:40.
