data_PCOD9025852
_publ_section_title
;
Structure prediction by ZEFSAII (Michael W. Deem and Ramdas Pophale) SiO2 
 PCOD9025852
Probable space group: P -1
;
_chemical_formula_sum "Si O2"
_cell_formula_units_Z 15
_cell_length_a 5.630545
_cell_length_b 22.963259
_cell_length_c 9.953554
_cell_angle_alpha 150.798855
_cell_angle_beta 118.068585
_cell_angle_gamma 62.903071
_cell_volume 551.022920
_symmetry_space_group_name_H-M "P -1"
_symmetry_group_IT_number 2
_symmetry_cell_setting 'triclinic'
loop_
_space_group_symop_operation_xyz
x,y,z
-x,-y,-z
loop_
_atom_site_type_symbol
_atom_site_label
_atom_site_fract_x
_atom_site_fract_y
_atom_site_fract_z
Si Si1 0.970968 0.103496 0.974885
Si Si2 0.500000 0.000000 0.500000
Si Si3 0.223199 0.732372 0.499358
Si Si4 0.800169 0.591123 0.761697
Si Si5 0.313186 0.333960 0.830139
Si Si6 0.342837 0.891081 0.604725
Si Si7 0.033938 0.180503 0.855866
Si Si8 0.657550 0.543484 0.336383
O O1 0.984365 0.181890 0.002656
O O2 0.756326 0.010524 0.692863
O O3 0.266011 0.026548 0.907892
O O4 0.863250 0.179676 0.224564
O O5 0.323267 0.114211 0.759421
O O6 0.212603 0.810012 0.517817
O O7 0.513270 0.661210 0.464897
O O8 0.998973 0.639590 0.238807
O O9 0.624903 0.559623 0.523324
O O10 0.020756 0.484291 0.653516
O O11 0.657094 0.655626 0.980483
O O12 0.985829 0.687963 0.944738
O O13 0.387224 0.195963 0.527301
O O14 0.504083 0.430326 0.020919
O O15 0.198630 0.889820 0.416350
#
# Coordination Sequence:
#
# PCOD9025852 Si02
#       8
#     2   1   2   2   2   2   2   2
#     4  11  27  45  73 109 142 194 243 292 360 434
#     4  10  22  40  72  96 142 180 236 292 346 408
#     4  12  27  46  72 109 152 186 239 302 367 427
#     4  11  25  46  75 105 149 185 247 304 354 427
#     4  12  25  45  73 104 148 193 235 302 365 430
#     4  11  25  46  70 104 150 186 241 292 368 432
#     4  11  23  43  71 107 139 187 244 291 354 429
#     4  11  26  46  72 106 143 194 247 294 363 430
#
# _framework density 27.222097999999999
#
# number of rings (size 3 to 8) (size 9 to 14) (size 15 to 20)
#    0.000    0.800    2.667    3.600    5.600    8.000 
#    0.000    0.000    0.000    0.000    0.000    0.000 
#    0.000    0.000    0.000    0.000    0.000    0.000 
#
# Total GULP energy -83842.547319 kJ/mol
# GULP energy per Si atom -5589.503155 kJ/mol
# Density = 2.716014 g / cm^3
# Si number density = 27.222098 Si / 1000 Ang^3
#
#
#
# Elastic Constant Matrix: (Units=GPa)
#
#
# Indices 1 2 3 4 5 6 
#
# 1 58.0685 26.6710 20.4456 -4.4194 -17.8180 -11.4907
# 2 26.6710 122.0080 32.5301 4.5443 -5.7992 -19.2353
# 3 20.4456 32.5301 117.1092 -12.0704 -27.2206 16.3562
# 4 -4.4194 4.5443 -12.0704 41.9590 -4.0258 -1.9881
# 5 -17.8180 -5.7992 -27.2206 -4.0258 45.6251 -0.6545
# 6 -11.4907 -19.2353 16.3562 -1.9881 -0.6545 42.6509
#
#
#
# Elastic Compliance Matrix: (Units=1/GPa)
#
#
# Indices 1 2 3 4 5 6 
#
# 1 0.023238 -0.003502 -0.001652 0.003387 0.008024 0.005596
# 2 -0.003502 0.010851 -0.004016 -0.002691 -0.002545 0.005326
# 3 -0.001652 -0.004016 0.012945 0.004314 0.006849 -0.006914
# 4 0.003387 -0.002691 0.004314 0.026254 0.005862 -0.000642
# 5 0.008024 -0.002545 0.006849 0.005862 0.029319 -0.000890
# 6 0.005596 0.005326 -0.006914 -0.000642 -0.000890 0.029964
#
#
# Mechanical properties :
#
#
# Convention : Reuss Voigt Hill
#
# Bulk Modulus (GPa) = 34.84815 50.71991 42.78403
# Shear Modulus (GPa) = 31.15746 40.54960 35.85353
#
# Velocity S-wave (km/s) = 3.38681 3.86370 3.63309
# Velocity P-wave (km/s) = 5.30313 6.21100 5.77494
#
# Compressibility (1/GPa) = 0.02869593
#
# Stress axis : x y z
#
# Youngs Moduli (GPa) = 43.03268 92.15482 77.24822
#
# Poissons Ratio (x) = 0.32273 0.12759
# Poissons Ratio (y) = 0.15070 0.31020
# Poissons Ratio (z) = 0.07108 0.37006
#
# Static dielectric constant tensor:
#      x y z
#    x 2.242250 0.010300 0.042470 
#    y 0.010300 2.069670 0.005770 
#    z 0.042470 0.005770 2.181830 
# 
# From -- ./inp_files/141770.got.cif
#   From: 2010.05.17/outbox.cif.g08.bks.cpg/sg2_71_cif.got.tgz:141770.got - 2010.06.03 11:33:40.
