data_PCOD9025277
_publ_section_title
;
Structure prediction by ZEFSAII (Michael W. Deem and Ramdas Pophale) SiO2 
 PCOD9025277
Probable space group: P -1
;
_chemical_formula_sum "Si O2"
_cell_formula_units_Z 16
_cell_length_a 7.920649
_cell_length_b 14.474808
_cell_length_c 14.038975
_cell_angle_alpha 43.604110
_cell_angle_beta 142.784710
_cell_angle_gamma 135.768438
_cell_volume 632.520642
_symmetry_space_group_name_H-M "P -1"
_symmetry_group_IT_number 2
_symmetry_cell_setting 'triclinic'
loop_
_space_group_symop_operation_xyz
x,y,z
-x,-y,-z
loop_
_atom_site_type_symbol
_atom_site_label
_atom_site_fract_x
_atom_site_fract_y
_atom_site_fract_z
Si Si1 0.707806 0.246806 0.172919
Si Si2 0.787026 0.131713 0.499402
Si Si3 0.771534 0.661781 0.784062
Si Si4 0.679916 0.889168 0.149350
Si Si5 0.126190 0.703778 0.095166
Si Si6 0.244711 0.405036 0.827734
Si Si7 0.354926 0.971159 0.139346
Si Si8 0.279016 0.756982 0.420506
O O1 0.769837 0.202370 0.338963
O O2 0.982054 0.363137 0.156477
O O3 0.652744 0.106392 0.187189
O O4 0.410760 0.289466 0.009390
O O5 0.823847 0.244580 0.516301
O O6 0.078733 0.088857 0.677451
O O7 0.500000 0.000000 0.500000
O O8 0.505964 0.530583 0.804272
O O9 0.600625 0.741311 0.582792
O O10 0.931516 0.733735 0.900207
O O11 0.443976 0.728925 0.167642
O O12 0.500000 0.000000 0.000000
O O13 0.811466 0.942386 0.064379
O O14 0.251964 0.821685 0.146896
O O15 0.906947 0.574686 0.154764
O O16 0.978625 0.356723 0.668688
O O17 0.325612 0.907175 0.279118
#
# Coordination Sequence:
#
# PCOD9025277 Si02
#       8
#     2   2   2   2   2   2   2   2
#     4  12  26  43  72 103 141 177 232 289 347 414
#     4  12  27  42  66 108 147 174 223 284 356 419
#     4  12  26  47  71 100 136 189 241 281 332 417
#     4  10  23  39  66 100 144 177 215 277 351 417
#     4  10  23  41  73  98 136 178 229 279 348 408
#     4  11  26  49  70  97 138 190 236 283 342 404
#     4  10  22  40  68 105 135 169 218 279 363 399
#     4  11  26  43  71 101 139 179 231 290 349 409
#
# _framework density 25.295618000000001
#
# number of rings (size 3 to 8) (size 9 to 14) (size 15 to 20)
#    0.000    1.000    2.500    2.625   14.000    3.000 
#    0.000    0.625    0.000    0.000    0.000    0.000 
#    0.000    0.000    0.000    0.000    0.000    0.000 
#
# Total GULP energy -89114.977538 kJ/mol
# GULP energy per Si atom -5569.686096 kJ/mol
# Density = 2.523804 g / cm^3
# Si number density = 25.295618 Si / 1000 Ang^3
#
#
#
# Elastic Constant Matrix: (Units=GPa)
#
#
# Indices 1 2 3 4 5 6 
#
# 1 56.1917 16.0136 64.2914 -5.4671 -20.7365 9.5851
# 2 16.0136 69.4986 33.0557 12.7587 -15.4600 31.5011
# 3 64.2914 33.0557 168.3799 24.3228 -24.6021 9.7310
# 4 -5.4671 12.7587 24.3228 37.3339 5.8405 -10.6352
# 5 -20.7365 -15.4600 -24.6021 5.8405 55.0468 3.6564
# 6 9.5851 31.5011 9.7310 -10.6352 3.6564 36.8249
#
#
#
# Elastic Compliance Matrix: (Units=1/GPa)
#
#
# Indices 1 2 3 4 5 6 
#
# 1 0.042414 -0.006567 -0.017639 0.020749 0.003725 0.004862
# 2 -0.006567 0.055326 0.005295 -0.044903 0.024340 -0.062402
# 3 -0.017639 0.005295 0.015377 -0.017798 0.004239 -0.009563
# 4 0.020749 -0.044903 -0.017798 0.078647 -0.025274 0.062936
# 5 0.003725 0.024340 0.004239 -0.025274 0.033207 -0.033507
# 6 0.004862 -0.062402 -0.009563 0.062936 -0.033507 0.103300
#
#
# Mechanical properties :
#
#
# Convention : Reuss Voigt Hill
#
# Bulk Modulus (GPa) = 13.28130 57.86574 35.57352
# Shear Modulus (GPa) = 12.78145 37.88843 25.33494
#
# Velocity S-wave (km/s) = 2.25029 3.87437 3.16817
# Velocity P-wave (km/s) = 3.46606 6.55285 5.24182
#
# Compressibility (1/GPa) = 0.07529381
#
# Stress axis : x y z
#
# Youngs Moduli (GPa) = 23.57720 18.07484 65.03028
#
# Poissons Ratio (x) = 0.11870 1.14709
# Poissons Ratio (y) = 0.15484 -0.34435
# Poissons Ratio (z) = 0.41589 -0.09571
#
# Static dielectric constant tensor:
#      x y z
#    x 2.387470 0.028330 0.037350 
#    y 0.028330 2.177940 -0.069930 
#    z 0.037350 -0.069930 2.025480 
# 
# From -- ./inp_files/507291.got.cif
#   From: 2010.05.17/outbox.cif.g08.bks.cpg/sg2_254_cif.got.tgz:507291.got - 2010.06.03 11:33:40.
