data_PCOD9025836
_publ_section_title
;
Structure prediction by ZEFSAII (Michael W. Deem and Ramdas Pophale) SiO2 
 PCOD9025836
Probable space group: P -1
;
_chemical_formula_sum "Si O2"
_cell_formula_units_Z 16
_cell_length_a 5.446614
_cell_length_b 21.139318
_cell_length_c 8.988409
_cell_angle_alpha 59.073961
_cell_angle_beta 108.878753
_cell_angle_gamma 125.200662
_cell_volume 724.882970
_symmetry_space_group_name_H-M "P -1"
_symmetry_group_IT_number 2
_symmetry_cell_setting 'triclinic'
loop_
_space_group_symop_operation_xyz
x,y,z
-x,-y,-z
loop_
_atom_site_type_symbol
_atom_site_label
_atom_site_fract_x
_atom_site_fract_y
_atom_site_fract_z
Si Si1 0.218579 0.201385 0.357352
Si Si2 0.718350 0.513536 0.389266
Si Si3 0.210558 0.696229 0.212040
Si Si4 0.151328 0.811592 0.307210
Si Si5 0.223343 0.048473 0.624910
Si Si6 0.936458 0.925228 0.967608
Si Si7 0.390584 0.803095 0.837155
Si Si8 0.624937 0.664971 0.543768
O O1 0.136907 0.121929 0.547858
O O2 0.409684 0.196771 0.262234
O O3 0.414923 0.289230 0.377110
O O4 0.910283 0.195994 0.258496
O O5 0.500000 0.500000 0.500000
O O6 0.499635 0.434664 0.334649
O O7 0.000000 0.500000 0.500000
O O8 0.879231 0.612251 0.252838
O O9 0.239607 0.772847 0.230039
O O10 0.434483 0.670839 0.363205
O O11 0.300112 0.725285 0.026069
O O12 0.417538 0.886797 0.365936
O O13 0.962356 0.729657 0.475692
O O14 0.973182 0.853220 0.144764
O O15 0.000000 0.000000 0.500000
O O16 0.161140 0.973848 0.817200
O O17 0.612378 0.885640 0.877184
O O18 0.000000 0.000000 0.000000
#
# Coordination Sequence:
#
# PCOD9025836 Si02
#       8
#     2   2   2   2   2   2   2   2
#     4  12  27  47  67 101 144 193 233 287 358 423
#     4  10  22  40  72 113 141 171 231 299 346 418
#     4  11  23  44  73 104 141 181 238 289 359 416
#     4  12  23  45  74  99 143 185 242 297 361 416
#     4  12  26  43  66  99 139 186 241 297 348 413
#     4  12  26  43  66 100 134 186 247 297 354 409
#     4  12  27  46  69 100 144 193 231 290 357 425
#     4  11  23  44  74 104 137 185 236 290 357 424
#
# _framework density 22.072527999999998
#
# number of rings (size 3 to 8) (size 9 to 14) (size 15 to 20)
#    0.000    0.500    5.000    3.375    1.750    0.500 
#    0.000    1.250    0.000    0.000    0.000    0.000 
#    0.000    0.000    0.000    0.000    0.000    0.000 
#
# Total GULP energy -89263.980383 kJ/mol
# GULP energy per Si atom -5578.998774 kJ/mol
# Density = 2.202229 g / cm^3
# Si number density = 22.072528 Si / 1000 Ang^3
#
#
#
# Elastic Constant Matrix: (Units=GPa)
#
#
# Indices 1 2 3 4 5 6 
#
# 1 108.3977 28.6351 40.9865 4.2852 -3.5076 9.3965
# 2 28.6351 147.2734 30.7253 -8.5757 -14.7539 14.7816
# 3 40.9865 30.7253 73.8501 8.4358 -8.4948 11.0212
# 4 4.2852 -8.5757 8.4358 23.4636 10.0586 -6.1288
# 5 -3.5076 -14.7539 -8.4948 10.0586 37.1263 -0.4009
# 6 9.3965 14.7816 11.0212 -6.1288 -0.4009 42.6645
#
#
#
# Elastic Compliance Matrix: (Units=1/GPa)
#
#
# Indices 1 2 3 4 5 6 
#
# 1 0.011852 -0.001043 -0.006073 -0.000289 -0.000614 -0.000728
# 2 -0.001043 0.008041 -0.002716 0.003038 0.001637 -0.001403
# 3 -0.006073 -0.002716 0.020694 -0.011119 0.006045 -0.004608
# 4 -0.000289 0.003038 -0.011119 0.057624 -0.016868 0.010003
# 5 -0.000614 0.001637 0.006045 -0.016868 0.033437 -0.004103
# 6 -0.000728 -0.001403 -0.004608 0.010003 -0.004103 0.026674
#
#
# Mechanical properties :
#
#
# Convention : Reuss Voigt Hill
#
# Bulk Modulus (GPa) = 47.79186 58.91276 53.35231
# Shear Modulus (GPa) = 27.03304 35.92915 31.48110
#
# Velocity S-wave (km/s) = 3.50342 4.03895 3.78068
# Velocity P-wave (km/s) = 6.16964 6.96414 6.57890
#
# Compressibility (1/GPa) = 0.02092407
#
# Stress axis : x y z
#
# Youngs Moduli (GPa) = 84.37715 124.35937 48.32248
#
# Poissons Ratio (x) = 0.12967 0.29345
# Poissons Ratio (y) = 0.08798 0.13125
# Poissons Ratio (z) = 0.51240 0.33777
#
# Static dielectric constant tensor:
#      x y z
#    x 2.087510 -0.165910 -0.038090 
#    y -0.165910 2.016670 -0.019940 
#    z -0.038090 -0.019940 1.825250 
# 
# From -- ./inp_files/39006.got.cif
#   From: 2010.05.17/outbox.cif.g08.bks.cpg/sg2_20_cif.got.tgz:39006.got - 2010.06.03 11:33:40.
