data_PCOD9025739
_publ_section_title
;
Structure prediction by ZEFSAII (Michael W. Deem and Ramdas Pophale) SiO2 
 PCOD9025739
Probable space group: P -1
;
_chemical_formula_sum "Si O2"
_cell_formula_units_Z 16
_cell_length_a 9.325268
_cell_length_b 12.295367
_cell_length_c 8.933779
_cell_angle_alpha 120.406850
_cell_angle_beta 109.415832
_cell_angle_gamma 55.141002
_cell_volume 723.562849
_symmetry_space_group_name_H-M "P -1"
_symmetry_group_IT_number 2
_symmetry_cell_setting 'triclinic'
loop_
_space_group_symop_operation_xyz
x,y,z
-x,-y,-z
loop_
_atom_site_type_symbol
_atom_site_label
_atom_site_fract_x
_atom_site_fract_y
_atom_site_fract_z
Si Si1 0.507676 0.355406 0.470749
Si Si2 0.183490 0.463624 0.967203
Si Si3 0.583447 0.880840 0.161594
Si Si4 0.963054 0.018688 0.822973
Si Si5 0.348337 0.911223 0.865246
Si Si6 0.176444 0.421235 0.599672
Si Si7 0.840245 0.266342 0.717625
Si Si8 0.185343 0.138692 0.531206
O O1 0.500000 0.500000 0.500000
O O2 0.513921 0.241380 0.269109
O O3 0.338649 0.404187 0.548858
O O4 0.683259 0.268442 0.571294
O O5 0.309477 0.292335 0.908357
O O6 0.164350 0.497348 0.807475
O O7 0.234325 0.566786 0.146327
O O8 0.000000 0.500000 0.000000
O O9 0.633837 0.940081 0.367040
O O10 0.651165 0.948958 0.105818
O O11 0.395901 0.913437 0.057569
O O12 0.887162 0.173962 0.822896
O O13 0.851550 0.953370 0.665355
O O14 0.163448 0.926578 0.774682
O O15 0.000000 0.000000 0.000000
O O16 0.194101 0.267830 0.541599
O O17 0.000000 0.500000 0.500000
O O18 0.018761 0.203700 0.635625
#
# Coordination Sequence:
#
# PCOD9025739 Si02
#       8
#     2   2   2   2   2   2   2   2
#     4  12  27  44  73 108 146 192 238 305 367 432
#     4  11  22  42  72 102 141 184 239 291 364 422
#     4  10  22  40  71 102 134 192 235 294 353 433
#     4  12  27  43  72 108 144 193 242 301 358 433
#     4  11  23  43  68 101 149 184 244 289 366 419
#     4  11  27  43  70 105 138 184 240 296 355 434
#     4  12  23  45  76 100 146 194 235 298 370 428
#     4  11  22  46  70  98 141 189 243 285 362 429
#
# _framework density 22.112798000000002
#
# number of rings (size 3 to 8) (size 9 to 14) (size 15 to 20)
#    0.000    0.750    5.000    2.625    3.500    4.500 
#    0.000    3.750    0.000    0.000    0.000    0.000 
#    0.000    0.000    0.000    0.000    0.000    0.000 
#
# Total GULP energy -89340.048784 kJ/mol
# GULP energy per Si atom -5583.753049 kJ/mol
# Density = 2.206247 g / cm^3
# Si number density = 22.112798 Si / 1000 Ang^3
#
#
#
# Elastic Constant Matrix: (Units=GPa)
#
#
# Indices 1 2 3 4 5 6 
#
# 1 98.8513 30.9428 52.7893 -11.9032 -1.8355 3.1333
# 2 30.9428 97.1101 47.7064 -27.3341 -4.3391 13.2089
# 3 52.7893 47.7064 160.3108 -9.6570 19.0394 -0.1257
# 4 -11.9032 -27.3341 -9.6570 43.3286 -6.1038 10.0855
# 5 -1.8355 -4.3391 19.0394 -6.1038 39.2792 -5.3221
# 6 3.1333 13.2089 -0.1257 10.0855 -5.3221 34.6915
#
#
#
# Elastic Compliance Matrix: (Units=1/GPa)
#
#
# Indices 1 2 3 4 5 6 
#
# 1 0.013081 -0.001128 -0.004143 0.002603 0.002750 -0.001102
# 2 -0.001128 0.018374 -0.004909 0.013223 0.005059 -0.009980
# 3 -0.004143 -0.004909 0.009516 -0.003463 -0.005557 0.002432
# 4 0.002603 0.013223 -0.003463 0.035731 0.006832 -0.014622
# 5 0.002750 0.005059 -0.005557 0.006832 0.029958 0.000415
# 6 -0.001102 -0.009980 0.002432 -0.014622 0.000415 0.037048
#
#
# Mechanical properties :
#
#
# Convention : Reuss Voigt Hill
#
# Bulk Modulus (GPa) = 48.51261 68.79435 58.65348
# Shear Modulus (GPa) = 29.25082 38.44876 33.84979
#
# Velocity S-wave (km/s) = 3.64098 4.17436 3.91676
# Velocity P-wave (km/s) = 6.29777 7.37644 6.85835
#
# Compressibility (1/GPa) = 0.02061320
#
# Stress axis : x y z
#
# Youngs Moduli (GPa) = 76.44798 54.42546 105.08592
#
# Poissons Ratio (x) = 0.06137 0.43532
# Poissons Ratio (y) = 0.08620 0.51582
# Poissons Ratio (z) = 0.31669 0.26715
#
# Static dielectric constant tensor:
#      x y z
#    x 1.878610 0.215420 0.000770 
#    y 0.215420 2.787130 0.003690 
#    z 0.000770 0.003690 1.880890 
# 
# From -- ./inp_files/190260.got.cif
#   From: 2010.05.17/outbox.cif.g08.bks.cpg/sg2_96_cif.got.tgz:190260.got - 2010.06.03 11:33:40.
