data_PCOD9025217
_publ_section_title
;
Structure prediction by ZEFSAII (Michael W. Deem and Ramdas Pophale) SiO2 
 PCOD9025217
Probable space group: P -1
;
_chemical_formula_sum "Si O2"
_cell_formula_units_Z 14
_cell_length_a 23.406625
_cell_length_b 5.557922
_cell_length_c 6.700646
_cell_angle_alpha 132.385277
_cell_angle_beta 109.930972
_cell_angle_gamma 70.124781
_cell_volume 597.631175
_symmetry_space_group_name_H-M "P -1"
_symmetry_group_IT_number 2
_symmetry_cell_setting 'triclinic'
loop_
_space_group_symop_operation_xyz
x,y,z
-x,-y,-z
loop_
_atom_site_type_symbol
_atom_site_label
_atom_site_fract_x
_atom_site_fract_y
_atom_site_fract_z
Si Si1 0.181498 0.258522 0.675200
Si Si2 0.255384 0.764272 0.809634
Si Si3 0.665880 0.857751 0.599604
Si Si4 0.987758 0.888421 0.204749
Si Si5 0.553593 0.938175 0.808586
Si Si6 0.575008 0.178014 0.390944
Si Si7 0.895380 0.117810 0.917795
O O1 0.218548 0.515522 0.749061
O O2 0.218221 0.005994 0.736784
O O3 0.154306 0.057372 0.353551
O O4 0.129438 0.495405 0.872366
O O5 0.307959 0.522142 0.617381
O O6 0.284066 0.975934 0.129299
O O7 0.603832 0.944938 0.703480
O O8 0.642260 0.008673 0.443255
O O9 0.042516 0.992284 0.195697
O O10 0.000000 0.000000 0.500000
O O11 0.000000 0.500000 0.000000
O O12 0.919799 0.011165 0.107977
O O13 0.563962 0.550515 0.667092
O O14 0.481375 0.007348 0.708986
O O15 0.567210 0.161921 0.134582
#
# Coordination Sequence:
#
# PCOD9025217 Si02
#       7
#     2   2   2   2   2   2   2
#     4  12  28  51  72 106 143 196 246 288 352 410
#     4  12  30  46  75 101 142 192 250 294 346 416
#     4  12  25  44  70  98 138 181 234 306 352 418
#     4  11  24  43  76 113 145 182 234 285 366 417
#     4  10  22  40  67  99 133 174 223 289 368 438
#     4  10  22  40  67  99 133 174 223 289 368 438
#     4  11  26  46  76 106 148 188 233 298 348 424
#
# _framework density 23.425822
#
# number of rings (size 3 to 8) (size 9 to 14) (size 15 to 20)
#    0.000    0.857    0.000    5.571   12.000    2.286 
#    0.000    5.714    0.000    0.000    0.000    0.000 
#    0.000    0.000    0.000    0.000    0.000    0.000 
#
# Total GULP energy -78295.237894 kJ/mol
# GULP energy per Si atom -5592.516992 kJ/mol
# Density = 2.337250 g / cm^3
# Si number density = 23.425822 Si / 1000 Ang^3
#
#
#
# Elastic Constant Matrix: (Units=GPa)
#
#
# Indices 1 2 3 4 5 6 
#
# 1 57.7924 29.6461 25.5265 -20.5007 5.2075 -1.1705
# 2 29.6461 143.5179 59.9714 -18.9898 28.0831 -35.9350
# 3 25.5265 59.9714 164.8622 -7.4464 19.3675 -25.2439
# 4 -20.5007 -18.9898 -7.4464 38.5517 -10.6066 -1.9473
# 5 5.2075 28.0831 19.3675 -10.6066 49.8757 -2.2663
# 6 -1.1705 -35.9350 -25.2439 -1.9473 -2.2663 45.6330
#
#
#
# Elastic Compliance Matrix: (Units=1/GPa)
#
#
# Indices 1 2 3 4 5 6 
#
# 1 0.023991 -0.003732 -0.002682 0.011020 0.002836 -0.003196
# 2 -0.003732 0.011752 -0.001807 0.002593 -0.004609 0.008041
# 3 -0.002682 -0.001807 0.007701 -0.001199 -0.001828 0.002626
# 4 0.011020 0.002593 -0.001199 0.034487 0.005343 0.003398
# 5 0.002836 -0.004609 -0.001828 0.005343 0.024052 -0.003146
# 6 -0.003196 0.008041 0.002626 0.003398 -0.003146 0.029606
#
#
# Mechanical properties :
#
#
# Convention : Reuss Voigt Hill
#
# Bulk Modulus (GPa) = 37.03468 66.27339 51.65403
# Shear Modulus (GPa) = 31.84038 43.54731 37.69384
#
# Velocity S-wave (km/s) = 3.69073 4.31623 4.01568
# Velocity P-wave (km/s) = 5.83144 7.29328 6.60294
#
# Compressibility (1/GPa) = 0.02700172
#
# Stress axis : x y z
#
# Youngs Moduli (GPa) = 41.68170 85.08962 129.85071
#
# Poissons Ratio (x) = 0.31758 0.34824
# Poissons Ratio (y) = 0.15557 0.23470
# Poissons Ratio (z) = 0.11178 0.15379
#
# Static dielectric constant tensor:
#      x y z
#    x 1.998870 0.043310 -0.035330 
#    y 0.043310 1.896260 -0.058420 
#    z -0.035330 -0.058420 1.828790 
# 
# From -- ./inp_files/121934.got.cif
#   From: 2010.05.17/outbox.cif.g08.bks.cpg/sg2_61_cif.got.tgz:121934.got - 2010.06.03 11:33:40.
