data_PCOD9025110
_publ_section_title
;
Structure prediction by ZEFSAII (Michael W. Deem and Ramdas Pophale) SiO2 
 PCOD9025110
Probable space group: P -1
;
_chemical_formula_sum "Si O2"
_cell_formula_units_Z 16
_cell_length_a 12.192894
_cell_length_b 8.312377
_cell_length_c 18.900532
_cell_angle_alpha 139.124885
_cell_angle_beta 138.359050
_cell_angle_gamma 71.480301
_cell_volume 684.938963
_symmetry_space_group_name_H-M "P -1"
_symmetry_group_IT_number 2
_symmetry_cell_setting 'triclinic'
loop_
_space_group_symop_operation_xyz
x,y,z
-x,-y,-z
loop_
_atom_site_type_symbol
_atom_site_label
_atom_site_fract_x
_atom_site_fract_y
_atom_site_fract_z
Si Si1 0.712416 0.215346 0.635913
Si Si2 0.311976 0.230490 0.607408
Si Si3 0.248659 0.502283 0.052951
Si Si4 0.691829 0.498416 0.579517
Si Si5 0.236984 0.642419 0.774857
Si Si6 0.340788 0.145675 0.889066
Si Si7 0.956947 0.180761 0.926524
Si Si8 0.208663 0.850029 0.573213
O O1 0.687753 0.303359 0.575808
O O2 0.500000 0.000000 0.500000
O O3 0.788361 0.006912 0.582765
O O4 0.860840 0.535037 0.849552
O O5 0.552219 0.402190 0.775603
O O6 0.257438 0.467897 0.661633
O O7 0.256428 0.078113 0.608072
O O8 0.223035 0.776493 0.131151
O O9 0.289177 0.386760 0.961856
O O10 0.047294 0.258105 0.916800
O O11 0.500000 0.500000 0.500000
O O12 0.687362 0.325233 0.450217
O O13 0.880848 0.843207 0.791957
O O14 0.026451 0.410614 0.631798
O O15 0.244205 0.912933 0.831063
O O16 0.425545 0.735995 0.947374
O O17 0.265647 0.006089 0.729054
#
# Coordination Sequence:
#
# PCOD9025110 Si02
#       8
#     2   2   2   2   2   2   2   2
#     4  11  23  42  68  98 130 175 222 269 337 393
#     4  10  22  42  60  96 131 169 215 279 323 402
#     4  10  22  40  67  93 136 166 228 265 333 396
#     4  11  26  46  65  99 136 167 224 278 328 401
#     4  10  22  41  65  95 132 165 225 270 325 400
#     4  10  23  43  65  98 128 176 217 277 332 389
#     4  11  22  41  69  97 131 179 217 276 328 394
#     4  11  23  43  66  91 135 172 217 270 341 389
#
# _framework density 23.359748
#
# number of rings (size 3 to 8) (size 9 to 14) (size 15 to 20)
#    0.000    1.500    1.250    3.375    3.500    3.000 
#   13.500    0.000    0.000    0.000    0.000    0.000 
#    0.000    0.000    0.000    0.000    0.000    0.000 
#
# Total GULP energy -89328.851265 kJ/mol
# GULP energy per Si atom -5583.053204 kJ/mol
# Density = 2.330658 g / cm^3
# Si number density = 23.359748 Si / 1000 Ang^3
#
#
#
# Elastic Constant Matrix: (Units=GPa)
#
#
# Indices 1 2 3 4 5 6 
#
# 1 104.4382 16.3832 40.6420 -2.1725 -17.9057 -14.3017
# 2 16.3832 31.3718 5.6369 14.0753 -0.7048 -2.2765
# 3 40.6420 5.6369 105.7679 9.5702 -11.6949 15.3732
# 4 -2.1725 14.0753 9.5702 34.0014 -0.2216 -0.0001
# 5 -17.9057 -0.7048 -11.6949 -0.2216 45.2143 3.2363
# 6 -14.3017 -2.2765 15.3732 -0.0001 3.2363 35.5091
#
#
#
# Elastic Compliance Matrix: (Units=1/GPa)
#
#
# Indices 1 2 3 4 5 6 
#
# 1 0.015664 -0.009305 -0.006952 0.006834 0.003693 0.008385
# 2 -0.009305 0.045014 0.003046 -0.020100 -0.002152 -0.001985
# 3 -0.006952 0.003046 0.013910 -0.005610 0.001492 -0.008763
# 4 0.006834 -0.020100 -0.005610 0.039753 0.000864 0.003814
# 5 0.003693 -0.002152 0.001492 0.000864 0.024043 -0.001488
# 6 0.008385 -0.001985 -0.008763 0.003814 -0.001488 0.035341
#
#
# Mechanical properties :
#
#
# Convention : Reuss Voigt Hill
#
# Bulk Modulus (GPa) = 20.76211 40.76691 30.76451
# Shear Modulus (GPa) = 23.12667 34.87267 28.99967
#
# Velocity S-wave (km/s) = 3.14988 3.86794 3.52723
# Velocity P-wave (km/s) = 4.70492 6.11863 5.45774
#
# Compressibility (1/GPa) = 0.04816466
#
# Stress axis : x y z
#
# Youngs Moduli (GPa) = 63.84217 22.21548 71.89167
#
# Poissons Ratio (x) = 0.20672 0.49977
# Poissons Ratio (y) = 0.59408 -0.21897
# Poissons Ratio (z) = 0.44381 -0.06767
#
# Static dielectric constant tensor:
#      x y z
#    x 1.357040 0.710740 0.494070 
#    y 0.710740 0.852330 -0.708240 
#    z 0.494070 -0.708240 1.458690 
# 
# From -- ./inp_files/594268.got.cif
#   From: 2010.05.17/outbox.cif.g08.bks.cpg/sg2_298_cif.got.tgz:594268.got - 2010.06.03 11:33:40.
