data_PCOD9025437
_publ_section_title
;
Structure prediction by ZEFSAII (Michael W. Deem and Ramdas Pophale) SiO2 
 PCOD9025437
Probable space group: P -1
;
_chemical_formula_sum "Si O2"
_cell_formula_units_Z 14
_cell_length_a 10.086164
_cell_length_b 13.326741
_cell_length_c 19.855912
_cell_angle_alpha 21.380092
_cell_angle_beta 137.640921
_cell_angle_gamma 136.508967
_cell_volume 647.921984
_symmetry_space_group_name_H-M "P -1"
_symmetry_group_IT_number 2
_symmetry_cell_setting 'triclinic'
loop_
_space_group_symop_operation_xyz
x,y,z
-x,-y,-z
loop_
_atom_site_type_symbol
_atom_site_label
_atom_site_fract_x
_atom_site_fract_y
_atom_site_fract_z
Si Si1 0.874686 0.744522 0.149826
Si Si2 0.914350 0.740563 0.421927
Si Si3 0.683927 0.827333 0.680185
Si Si4 0.724127 0.979840 0.077181
Si Si5 0.255311 0.046447 0.641100
Si Si6 0.846564 0.622062 0.732287
Si Si7 0.511394 0.594140 0.022127
O O1 0.980702 0.444025 0.643973
O O2 0.728417 0.579326 0.143372
O O3 0.740804 0.852895 0.089396
O O4 0.000000 0.000000 0.000000
O O5 0.783206 0.810954 0.392057
O O6 0.116436 0.962214 0.361268
O O7 0.807443 0.783394 0.285596
O O8 0.721691 0.682777 0.713680
O O9 0.638093 0.601261 0.863076
O O10 0.500000 0.000000 0.500000
O O11 0.845049 0.293070 0.930350
O O12 0.500000 0.000000 0.000000
O O13 0.249380 0.258003 0.444789
O O14 0.066988 0.799599 0.712280
O O15 0.451282 0.901669 0.808829
O O16 0.500000 0.500000 0.000000
#
# Coordination Sequence:
#
# PCOD9025437 Si02
#       7
#     2   2   2   2   2   2   2
#     4  12  28  46  66 102 146 180 224 283 349 413
#     4  11  24  44  71  99 135 181 228 283 338 407
#     4  11  21  40  70 100 136 171 233 287 333 396
#     4  12  26  45  69  95 140 186 229 273 344 419
#     4  10  22  41  70 100 132 169 232 282 339 391
#     4  10  22  40  69 100 133 176 221 287 336 396
#     4  12  26  43  70 102 135 178 232 282 340 406
#
# _framework density 21.60754
#
# number of rings (size 3 to 8) (size 9 to 14) (size 15 to 20)
#    0.000    0.857    1.429    5.571    8.000    3.429 
#    0.000    2.857    0.000    0.000    0.000    0.000 
#    0.000    0.000    0.000    0.000    0.000    0.000 
#
# Total GULP energy -78422.004666 kJ/mol
# GULP energy per Si atom -5601.571762 kJ/mol
# Density = 2.155836 g / cm^3
# Si number density = 21.607540 Si / 1000 Ang^3
#
#
#
# Elastic Constant Matrix: (Units=GPa)
#
#
# Indices 1 2 3 4 5 6 
#
# 1 97.5706 26.2099 30.1958 14.6183 -18.4995 -18.5582
# 2 26.2099 50.5518 18.6441 13.4588 -13.2313 -17.8301
# 3 30.1958 18.6441 144.0342 17.5301 -16.5208 -1.0306
# 4 14.6183 13.4588 17.5301 37.9133 -0.0398 -3.2327
# 5 -18.4995 -13.2313 -16.5208 -0.0398 46.8562 4.3623
# 6 -18.5582 -17.8301 -1.0306 -3.2327 4.3623 26.8502
#
#
#
# Elastic Compliance Matrix: (Units=1/GPa)
#
#
# Indices 1 2 3 4 5 6 
#
# 1 0.013901 -0.002303 -0.001779 -0.003114 0.003551 0.007058
# 2 -0.002303 0.031337 -0.001836 -0.007908 0.005677 0.017273
# 3 -0.001779 -0.001836 0.008069 -0.002626 0.001879 -0.002761
# 4 -0.003114 -0.007908 -0.002626 0.031332 -0.004076 -0.003070
# 5 0.003551 0.005677 0.001879 -0.004076 0.024841 0.001770
# 6 0.007058 0.017273 -0.002761 -0.003070 0.001770 0.052829
#
#
# Mechanical properties :
#
#
# Convention : Reuss Voigt Hill
#
# Bulk Modulus (GPa) = 24.11429 49.13957 36.62693
# Shear Modulus (GPa) = 26.60022 36.79775 31.69898
#
# Velocity S-wave (km/s) = 3.51246 4.13122 3.83434
# Velocity P-wave (km/s) = 5.25682 6.74887 6.04902
#
# Compressibility (1/GPa) = 0.04146919
#
# Stress axis : x y z
#
# Youngs Moduli (GPa) = 71.93980 31.91150 123.93277
#
# Poissons Ratio (x) = 0.07349 0.22051
# Poissons Ratio (y) = 0.16567 0.22756
# Poissons Ratio (z) = 0.12800 0.05860
#
# Static dielectric constant tensor:
#      x y z
#    x 1.750210 0.021420 0.008590 
#    y 0.021420 1.780230 -0.004810 
#    z 0.008590 -0.004810 1.774800 
# 
# From -- ./inp_files/558908.got.cif
#   From: 2010.05.17/outbox.cif.g08.bks.cpg/sg2_280_cif.got.tgz:558908.got - 2010.06.03 11:33:40.
