data_PCOD9025367
_publ_section_title
;
Structure prediction by ZEFSAII (Michael W. Deem and Ramdas Pophale) SiO2 
 PCOD9025367
Probable space group: P -1
;
_chemical_formula_sum "Si O2"
_cell_formula_units_Z 16
_cell_length_a 8.075607
_cell_length_b 20.626607
_cell_length_c 5.558166
_cell_angle_alpha 70.422573
_cell_angle_beta 67.888626
_cell_angle_gamma 41.578262
_cell_volume 567.076345
_symmetry_space_group_name_H-M "P -1"
_symmetry_group_IT_number 2
_symmetry_cell_setting 'triclinic'
loop_
_space_group_symop_operation_xyz
x,y,z
-x,-y,-z
loop_
_atom_site_type_symbol
_atom_site_label
_atom_site_fract_x
_atom_site_fract_y
_atom_site_fract_z
Si Si1 0.968090 0.938842 0.447681
Si Si2 0.374358 0.482622 0.775482
Si Si3 0.417494 0.831483 0.012178
Si Si4 0.918664 0.804998 0.233142
Si Si5 0.115455 0.617209 0.142174
Si Si6 0.725840 0.622318 0.359366
Si Si7 0.328071 0.094442 0.246387
Si Si8 0.350105 0.750591 0.785993
O O1 0.133199 0.834333 0.618384
O O2 0.688774 0.981156 0.557692
O O3 0.121687 0.905627 0.159112
O O4 0.000000 0.000000 0.500000
O O5 0.500000 0.500000 0.500000
O O6 0.610639 0.422291 0.908213
O O7 0.297771 0.431223 0.761251
O O8 0.136311 0.589001 0.887288
O O9 0.480098 0.894386 0.909372
O O10 0.461582 0.791313 0.771023
O O11 0.587316 0.729957 0.196203
O O12 0.838807 0.829608 0.523847
O O13 0.933765 0.724496 0.217387
O O14 0.752813 0.890165 0.015488
O O15 0.202829 0.756701 0.082920
O O16 0.004073 0.574355 0.349205
O O17 0.558595 0.651288 0.649765
#
# Coordination Sequence:
#
# PCOD9025367 Si02
#       8
#     2   2   2   2   2   2   2   2
#     4  10  24  44  64 100 143 182 223 285 356 423
#     4  11  26  41  62  95 138 183 229 287 363 424
#     4  11  22  42  69  99 132 176 241 288 343 420
#     4  11  22  43  70 100 134 179 235 291 343 413
#     4  11  24  41  63  96 134 179 231 289 352 415
#     4  11  23  43  67  96 135 179 237 297 345 419
#     4  11  24  42  72 103 133 182 233 286 349 414
#     4  10  22  40  68  96 132 178 233 290 342 417
#
# _framework density 28.214896
#
# number of rings (size 3 to 8) (size 9 to 14) (size 15 to 20)
#    0.000    1.250    2.500    2.625    7.000    3.500 
#    0.000    0.625    0.000    0.000    0.000    0.000 
#    0.000    0.000    0.000    0.000    0.000    0.000 
#
# Total GULP energy -89176.898265 kJ/mol
# GULP energy per Si atom -5573.556142 kJ/mol
# Density = 2.815068 g / cm^3
# Si number density = 28.214896 Si / 1000 Ang^3
#
#
#
# Elastic Constant Matrix: (Units=GPa)
#
#
# Indices 1 2 3 4 5 6 
#
# 1 197.7979 56.7846 41.2780 5.0472 -20.3995 55.5118
# 2 56.7846 99.1252 25.9234 14.3884 6.4724 28.4119
# 3 41.2780 25.9234 138.7610 24.6160 -20.6742 10.9967
# 4 5.0472 14.3884 24.6160 47.2890 11.1678 5.2240
# 5 -20.3995 6.4724 -20.6742 11.1678 46.4776 -1.4477
# 6 55.5118 28.4119 10.9967 5.2240 -1.4477 61.3128
#
#
#
# Elastic Compliance Matrix: (Units=1/GPa)
#
#
# Indices 1 2 3 4 5 6 
#
# 1 0.008032 -0.002994 -0.000975 0.000425 0.003230 -0.005670
# 2 -0.002994 0.013657 -0.001626 -0.001776 -0.003614 -0.003260
# 3 -0.000975 -0.001626 0.009590 -0.005742 0.005461 0.000534
# 4 0.000425 -0.001776 -0.005742 0.026770 -0.008585 -0.001015
# 5 0.003230 -0.003614 0.005461 -0.008585 0.027902 -0.000839
# 6 -0.005670 -0.003260 0.000534 -0.001015 -0.000839 0.022925
#
#
# Mechanical properties :
#
#
# Convention : Reuss Voigt Hill
#
# Bulk Modulus (GPa) = 49.77495 75.96180 62.86838
# Shear Modulus (GPa) = 39.44401 51.79574 45.61987
#
# Velocity S-wave (km/s) = 3.74302 4.28922 4.02540
# Velocity P-wave (km/s) = 6.02992 7.17711 6.62838
#
# Compressibility (1/GPa) = 0.02009043
#
# Stress axis : x y z
#
# Youngs Moduli (GPa) = 124.50064 73.22446 104.27211
#
# Poissons Ratio (x) = 0.21921 0.10165
# Poissons Ratio (y) = 0.37271 0.16953
# Poissons Ratio (z) = 0.12136 0.11905
#
# Static dielectric constant tensor:
#      x y z
#    x 2.302870 -0.170030 -0.089350 
#    y -0.170030 2.585130 -0.107690 
#    z -0.089350 -0.107690 2.226080 
# 
# From -- ./inp_files/52869.got.cif
#   From: 2010.05.17/outbox.cif.g08.bks.cpg/sg2_27_cif.got.tgz:52869.got - 2010.06.03 11:33:40.
