data_PCOD9025816
_publ_section_title
;
Structure prediction by ZEFSAII (Michael W. Deem and Ramdas Pophale) SiO2 
 PCOD9025816
Probable space group: P -1
;
_chemical_formula_sum "Si O2"
_cell_formula_units_Z 12
_cell_length_a 5.238596
_cell_length_b 9.704133
_cell_length_c 18.345141
_cell_angle_alpha 151.825400
_cell_angle_beta 81.743492
_cell_angle_gamma 100.072349
_cell_volume 433.435180
_symmetry_space_group_name_H-M "P -1"
_symmetry_group_IT_number 2
_symmetry_cell_setting 'triclinic'
loop_
_space_group_symop_operation_xyz
x,y,z
-x,-y,-z
loop_
_atom_site_type_symbol
_atom_site_label
_atom_site_fract_x
_atom_site_fract_y
_atom_site_fract_z
Si Si1 0.427658 0.671426 0.813100
Si Si2 0.120658 0.222037 0.269763
Si Si3 0.741401 0.698543 0.544963
Si Si4 0.268504 0.441516 0.926716
Si Si5 0.432416 0.808657 0.305252
Si Si6 0.989814 0.300321 0.060371
O O1 0.609314 0.696017 0.745942
O O2 0.492600 0.358179 0.701943
O O3 0.117391 0.671659 0.840256
O O4 0.500000 0.000000 0.000000
O O5 0.171676 0.108766 0.296681
O O6 0.961042 0.497142 0.418184
O O7 0.940294 0.986530 0.118315
O O8 0.500000 0.500000 0.500000
O O9 0.683648 0.887470 0.564108
O O10 0.325958 0.156884 0.745571
O O11 0.264756 0.654226 0.956303
O O12 0.500000 0.500000 0.000000
O O13 0.000000 0.500000 0.000000
O O14 0.212193 0.563388 0.169058
#
# Coordination Sequence:
#
# PCOD9025816 Si02
#       6
#     2   2   2   2   2   2
#     4   9  22  43  67 104 141 182 235 305 371 430
#     4  10  24  44  66  98 144 187 238 295 368 428
#     4  11  27  44  65  97 143 194 239 294 359 445
#     4  11  21  34  61 100 140 179 229 295 355 413
#     4  11  24  42  69 106 140 185 245 296 368 434
#     4  10  22  40  72 104 137 179 241 304 360 430
#
# _framework density 27.685801999999999
#
# number of rings (size 3 to 8) (size 9 to 14) (size 15 to 20)
#    0.000    1.667    1.667    1.000    2.333   12.667 
#    0.000    1.667    0.000    0.000    0.000    0.000 
#    0.000    0.000    0.000    0.000    0.000    0.000 
#
# Total GULP energy -66859.256990 kJ/mol
# GULP energy per Si atom -5571.604749 kJ/mol
# Density = 2.762279 g / cm^3
# Si number density = 27.685802 Si / 1000 Ang^3
#
#
#
# Elastic Constant Matrix: (Units=GPa)
#
#
# Indices 1 2 3 4 5 6 
#
# 1 109.1046 37.5225 46.3285 -14.2213 -9.0469 26.3533
# 2 37.5225 132.3092 49.8984 0.7485 7.0624 -3.6572
# 3 46.3285 49.8984 131.1923 -3.6594 -16.2672 11.6939
# 4 -14.2213 0.7485 -3.6594 46.8096 13.8293 -11.6125
# 5 -9.0469 7.0624 -16.2672 13.8293 46.5137 -4.4814
# 6 26.3533 -3.6572 11.6939 -11.6125 -4.4814 64.1413
#
#
#
# Elastic Compliance Matrix: (Units=1/GPa)
#
#
# Indices 1 2 3 4 5 6 
#
# 1 0.012767 -0.002686 -0.002939 0.002390 0.000731 -0.004379
# 2 -0.002686 0.009795 -0.003334 0.000180 -0.003028 0.002091
# 3 -0.002939 -0.003334 0.010453 -0.001396 0.003922 -0.000867
# 4 0.002390 0.000180 -0.001396 0.024903 -0.007138 0.003293
# 5 0.000731 -0.003028 0.003922 -0.007138 0.025527 -0.000696
# 6 -0.004379 0.002091 -0.000867 0.003293 -0.000696 0.018215
#
#
# Mechanical properties :
#
#
# Convention : Reuss Voigt Hill
#
# Bulk Modulus (GPa) = 66.23668 71.12275 68.67971
# Shear Modulus (GPa) = 40.12480 47.41671 43.77076
#
# Velocity S-wave (km/s) = 3.81109 4.14293 3.98047
# Velocity P-wave (km/s) = 6.58348 6.97354 6.78131
#
# Compressibility (1/GPa) = 0.01509738
#
# Stress axis : x y z
#
# Youngs Moduli (GPa) = 78.32624 102.08791 95.66523
#
# Poissons Ratio (x) = 0.27418 0.28120
# Poissons Ratio (y) = 0.21036 0.31895
# Poissons Ratio (z) = 0.23024 0.34036
#
# Static dielectric constant tensor:
#      x y z
#    x 2.300800 0.024610 0.024720 
#    y 0.024610 2.480250 -0.065620 
#    z 0.024720 -0.065620 2.426210 
# 
# From -- ./inp_files/583147.got.cif
#   From: 2010.05.17/outbox.cif.g08.bks.cpg/sg2_292_cif.got.tgz:583147.got - 2010.06.03 11:33:40.
