data_PCOD9025953
_publ_section_title
;
Structure prediction by ZEFSAII (Michael W. Deem and Ramdas Pophale) SiO2 
 PCOD9025953
Probable space group: P -1
;
_chemical_formula_sum "Si O2"
_cell_formula_units_Z 16
_cell_length_a 5.077950
_cell_length_b 23.115646
_cell_length_c 17.818655
_cell_angle_alpha 158.825327
_cell_angle_beta 98.374237
_cell_angle_gamma 94.055088
_cell_volume 609.989314
_symmetry_space_group_name_H-M "P -1"
_symmetry_group_IT_number 2
_symmetry_cell_setting 'triclinic'
loop_
_space_group_symop_operation_xyz
x,y,z
-x,-y,-z
loop_
_atom_site_type_symbol
_atom_site_label
_atom_site_fract_x
_atom_site_fract_y
_atom_site_fract_z
Si Si1 0.917839 0.484262 0.657711
Si Si2 0.570772 0.870099 0.394366
Si Si3 0.824028 0.082650 0.442788
Si Si4 0.350391 0.191647 0.162401
Si Si5 0.938640 0.848067 0.053179
Si Si6 0.530686 0.258641 0.508992
Si Si7 0.369074 0.467468 0.869380
Si Si8 0.035208 0.213987 0.311178
O O1 0.653250 0.346913 0.414911
O O2 0.837817 0.381485 0.612565
O O3 0.178532 0.444176 0.594598
O O4 0.984108 0.692994 0.907550
O O5 0.922757 0.915924 0.485572
O O6 0.410272 0.880627 0.476989
O O7 0.500000 0.000000 0.500000
O O8 0.395762 0.663571 0.094139
O O9 0.007364 0.271283 0.622832
O O10 0.766159 0.913162 0.181051
O O11 0.059099 0.163741 0.166561
O O12 0.294450 0.239129 0.134993
O O13 0.300734 0.981369 0.906863
O O14 0.300493 0.039938 0.273993
O O15 0.557152 0.413900 0.757596
O O16 0.273768 0.217979 0.384879
O O17 0.500000 0.500000 0.000000
#
# Coordination Sequence:
#
# PCOD9025953 Si02
#       8
#     2   2   2   2   2   2   2   2
#     4  11  21  37  64  90 117 164 214 253 321 378
#     4  11  23  41  69  95 130 168 216 273 327 385
#     4  10  23  45  61  97 131 169 217 265 326 395
#     4   9  19  39  58  85 128 159 206 258 315 379
#     4  10  22  41  59  91 127 162 208 265 316 386
#     4   9  21  42  58  87 128 159 205 264 316 379
#     4   9  20  42  65  89 125 171 213 261 329 394
#     4   9  19  37  60  89 119 160 209 258 311 384
#
# _framework density 26.229972
#
# number of rings (size 3 to 8) (size 9 to 14) (size 15 to 20)
#    0.000    2.250    0.000    2.250    1.750    1.500 
#   29.250    0.000    0.000    0.000    0.000    0.000 
#    0.000    0.000    0.000    0.000    0.000    0.000 
#
# Total GULP energy -89129.472973 kJ/mol
# GULP energy per Si atom -5570.592061 kJ/mol
# Density = 2.617027 g / cm^3
# Si number density = 26.229972 Si / 1000 Ang^3
#
#
#
# Elastic Constant Matrix: (Units=GPa)
#
#
# Indices 1 2 3 4 5 6 
#
# 1 39.0281 2.5073 12.4576 5.8974 -16.9262 11.2960
# 2 2.5073 110.5913 41.6203 -2.5088 -15.8920 -10.2116
# 3 12.4576 41.6203 158.4838 8.4702 -47.7695 2.6887
# 4 5.8974 -2.5088 8.4702 48.1780 -13.1674 -14.3679
# 5 -16.9262 -15.8920 -47.7695 -13.1674 47.4383 0.4701
# 6 11.2960 -10.2116 2.6887 -14.3679 0.4701 21.5679
#
#
#
# Elastic Compliance Matrix: (Units=1/GPa)
#
#
# Indices 1 2 3 4 5 6 
#
# 1 0.041864 -0.003237 0.002903 -0.011478 0.013905 -0.031770
# 2 -0.003237 0.011466 -0.002887 0.005012 0.001063 0.010800
# 3 0.002903 -0.002887 0.009949 -0.001074 0.009839 -0.005058
# 4 -0.011478 0.005012 -0.001074 0.033189 0.005412 0.030510
# 5 0.013905 0.001063 0.009839 0.005412 0.037859 -0.005226
# 6 -0.031770 0.010800 -0.005058 0.030510 -0.005226 0.089188
#
#
# Mechanical properties :
#
#
# Convention : Reuss Voigt Hill
#
# Bulk Modulus (GPa) = 17.59479 46.80817 32.20148
# Shear Modulus (GPa) = 20.08815 40.20469 30.14642
#
# Velocity S-wave (km/s) = 2.77040 3.91932 3.39383
# Velocity P-wave (km/s) = 4.11776 6.19398 5.25934
#
# Compressibility (1/GPa) = 0.05683501
#
# Stress axis : x y z
#
# Youngs Moduli (GPa) = 23.88685 87.21412 100.51660
#
# Poissons Ratio (x) = 0.28235 -0.29181
# Poissons Ratio (y) = 0.07733 0.29024
# Poissons Ratio (z) = -0.06934 0.25183
#
# Static dielectric constant tensor:
#      x y z
#    x 2.464510 0.003150 -0.058110 
#    y 0.003150 2.127470 0.091290 
#    z -0.058110 0.091290 2.216440 
# 
# From -- ./inp_files/53982.got.cif
#   From: 2010.05.17/outbox.cif.g08.bks.cpg/sg2_27_cif.got.tgz:53982.got - 2010.06.03 11:33:40.
