data_PCOD9025960
_publ_section_title
;
Structure prediction by ZEFSAII (Michael W. Deem and Ramdas Pophale) SiO2 
 PCOD9025960
Probable space group: P -1
;
_chemical_formula_sum "Si O2"
_cell_formula_units_Z 14
_cell_length_a 12.005674
_cell_length_b 11.163408
_cell_length_c 11.626662
_cell_angle_alpha 107.733454
_cell_angle_beta 75.592294
_cell_angle_gamma 40.861994
_cell_volume 620.780119
_symmetry_space_group_name_H-M "P -1"
_symmetry_group_IT_number 2
_symmetry_cell_setting 'triclinic'
loop_
_space_group_symop_operation_xyz
x,y,z
-x,-y,-z
loop_
_atom_site_type_symbol
_atom_site_label
_atom_site_fract_x
_atom_site_fract_y
_atom_site_fract_z
Si Si1 0.076535 0.175633 0.856633
Si Si2 0.839000 0.535809 0.221089
Si Si3 0.554990 0.525690 0.606306
Si Si4 0.234425 0.667250 0.863151
Si Si5 0.423039 0.024410 0.288234
Si Si6 0.143038 0.546175 0.442484
Si Si7 0.842211 0.552791 0.838058
O O1 0.054102 0.252161 0.759100
O O2 0.327571 0.855111 0.745428
O O3 0.036824 0.328747 0.999548
O O4 0.822821 0.335284 0.997695
O O5 0.793885 0.433469 0.235943
O O6 0.577161 0.845934 0.315861
O O7 0.997624 0.476746 0.241334
O O8 0.500000 0.500000 0.500000
O O9 0.496290 0.486975 0.713643
O O10 0.816176 0.350882 0.499651
O O11 0.000000 0.000000 0.000000
O O12 0.317479 0.271319 0.385732
O O13 0.608720 0.809357 0.066125
O O14 0.162478 0.194256 0.398147
O O15 0.245474 0.426239 0.250042
#
# Coordination Sequence:
#
# PCOD9025960 Si02
#       7
#     2   2   2   2   2   2   2
#     4   8  18  38  62  89 114 148 216 247 288 366
#     4   9  18  36  69  88 118 159 205 245 300 365
#     4  11  22  41  60  84 122 166 203 249 302 362
#     4   8  18  35  60  87 110 151 211 240 275 359
#     4  10  22  41  59  95 129 155 198 254 309 360
#     4  11  25  39  59  94 130 154 203 255 304 365
#     4  11  20  39  68  92 118 163 196 258 316 346
#
# _framework density 22.552268000000002
#
# number of rings (size 3 to 8) (size 9 to 14) (size 15 to 20)
#    0.857    1.429    0.000    3.857    0.000    4.000 
#    7.714    3.571    0.000    0.000    0.000    0.000 
#    0.000    0.000    0.000    0.000    0.000    0.000 
#
# Total GULP energy -78015.961324 kJ/mol
# GULP energy per Si atom -5572.568666 kJ/mol
# Density = 2.250094 g / cm^3
# Si number density = 22.552268 Si / 1000 Ang^3
#
#
#
# Elastic Constant Matrix: (Units=GPa)
#
#
# Indices 1 2 3 4 5 6 
#
# 1 171.3156 18.6692 27.7828 -10.5878 -25.8374 5.7866
# 2 18.6692 40.0938 4.8252 -5.4002 2.9002 11.3589
# 3 27.7828 4.8252 62.0694 -5.0321 -15.1608 -3.5566
# 4 -10.5878 -5.4002 -5.0321 22.7079 -2.1487 -5.7916
# 5 -25.8374 2.9002 -15.1608 -2.1487 28.2605 -5.7957
# 6 5.7866 11.3589 -3.5566 -5.7916 -5.7957 25.1655
#
#
#
# Elastic Compliance Matrix: (Units=1/GPa)
#
#
# Indices 1 2 3 4 5 6 
#
# 1 0.007798 -0.004421 -0.000683 0.003934 0.008106 0.002878
# 2 -0.004421 0.033746 -0.005290 -0.001284 -0.014242 -0.018538
# 3 -0.000683 -0.005290 0.021463 0.007192 0.014130 0.010487
# 4 0.003934 -0.001284 0.007192 0.052721 0.014931 0.016263
# 5 0.008106 -0.014242 0.014130 0.014931 0.057751 0.023298
# 6 0.002878 -0.018538 0.010487 0.016263 0.023298 0.058033
#
#
# Mechanical properties :
#
#
# Convention : Reuss Voigt Hill
#
# Bulk Modulus (GPa) = 23.68510 41.78147 32.73328
# Shear Modulus (GPa) = 18.77063 30.04021 24.40542
#
# Velocity S-wave (km/s) = 2.88812 3.65365 3.29321
# Velocity P-wave (km/s) = 4.65261 6.03039 5.38574
#
# Compressibility (1/GPa) = 0.04222063
#
# Stress axis : x y z
#
# Youngs Moduli (GPa) = 128.23454 29.63319 46.59114
#
# Poissons Ratio (x) = 0.13100 0.03182
# Poissons Ratio (y) = 0.56690 0.24645
# Poissons Ratio (z) = 0.08759 0.15675
#
# Static dielectric constant tensor:
#      x y z
#    x 1.689690 -0.127060 -0.108440 
#    y -0.127060 1.775000 -0.073320 
#    z -0.108440 -0.073320 1.898980 
# 
# From -- ./inp_files/426325.got.cif
#   From: 2010.05.17/outbox.cif.g08.bks.cpg/sg2_214_cif.got.tgz:426325.got - 2010.06.03 11:33:40.
