data_PCOD9025588
_publ_section_title
;
Structure prediction by ZEFSAII (Michael W. Deem and Ramdas Pophale) SiO2 
 PCOD9025588
Probable space group: P -1
;
_chemical_formula_sum "Si O2"
_cell_formula_units_Z 12
_cell_length_a 4.854072
_cell_length_b 15.745429
_cell_length_c 9.561101
_cell_angle_alpha 138.363477
_cell_angle_beta 95.004871
_cell_angle_gamma 82.531942
_cell_volume 481.339371
_symmetry_space_group_name_H-M "P -1"
_symmetry_group_IT_number 2
_symmetry_cell_setting 'triclinic'
loop_
_space_group_symop_operation_xyz
x,y,z
-x,-y,-z
loop_
_atom_site_type_symbol
_atom_site_label
_atom_site_fract_x
_atom_site_fract_y
_atom_site_fract_z
Si Si1 0.704306 0.159749 0.713250
Si Si2 0.891062 0.698156 0.490053
Si Si3 0.576361 0.467918 0.797036
Si Si4 0.227008 0.274101 0.982747
Si Si5 0.258064 0.100642 0.037824
Si Si6 0.914387 0.930808 0.626202
O O1 0.391839 0.214930 0.783043
O O2 0.831048 0.124029 0.526427
O O3 0.905450 0.256297 0.916441
O O4 0.738918 0.031888 0.648568
O O5 0.694639 0.584879 0.345782
O O6 0.897733 0.779675 0.733168
O O7 0.173144 0.643332 0.357519
O O8 0.758908 0.816238 0.536953
O O9 0.500000 0.500000 0.000000
O O10 0.685924 0.582763 0.851064
O O11 0.339031 0.185140 0.009131
O O12 0.500000 0.000000 0.000000
O O13 0.040819 0.008440 0.853366
#
# Coordination Sequence:
#
# PCOD9025588 Si02
#       6
#     2   2   2   2   2   2
#     4  10  22  40  70 100 128 170 220 283 340 383
#     4  12  25  42  67  97 134 177 221 267 332 403
#     4  12  26  45  69  96 131 176 226 279 329 390
#     4  11  24  44  67  98 136 173 224 274 327 393
#     4  11  25  44  69 100 139 180 221 273 335 403
#     4  10  22  41  67  99 134 170 221 279 336 393
#
# _framework density 24.930432
#
# number of rings (size 3 to 8) (size 9 to 14) (size 15 to 20)
#    0.000    1.000    0.000    6.000    0.000   14.000 
#    0.000    0.000    0.000    0.000    0.000    0.000 
#    0.000    0.000    0.000    0.000    0.000    0.000 
#
# Total GULP energy -67003.707944 kJ/mol
# GULP energy per Si atom -5583.642329 kJ/mol
# Density = 2.487369 g / cm^3
# Si number density = 24.930432 Si / 1000 Ang^3
#
#
#
# Elastic Constant Matrix: (Units=GPa)
#
#
# Indices 1 2 3 4 5 6 
#
# 1 92.0115 10.8974 25.5690 0.3089 -11.3896 -1.2891
# 2 10.8974 119.8955 43.7193 19.6542 15.0013 16.7317
# 3 25.5690 43.7193 143.3586 -7.6284 -19.1602 -1.2177
# 4 0.3089 19.6542 -7.6284 40.0345 0.6252 3.5886
# 5 -11.3896 15.0013 -19.1602 0.6252 32.1966 -6.9916
# 6 -1.2891 16.7317 -1.2177 3.5886 -6.9916 29.8400
#
#
#
# Elastic Compliance Matrix: (Units=1/GPa)
#
#
# Indices 1 2 3 4 5 6 
#
# 1 0.012003 -0.001874 -0.000832 0.000344 0.005207 0.002714
# 2 -0.001874 0.015746 -0.006917 -0.007763 -0.014496 -0.011655
# 3 -0.000832 -0.006917 0.010973 0.004767 0.010718 0.006228
# 4 0.000344 -0.007763 0.004767 0.029362 0.006563 0.002569
# 5 0.005207 -0.014496 0.010718 0.006563 0.050198 0.019763
# 6 0.002714 -0.011655 0.006228 0.002569 0.019763 0.044740
#
#
# Mechanical properties :
#
#
# Convention : Reuss Voigt Hill
#
# Bulk Modulus (GPa) = 51.34909 57.29299 54.32104
# Shear Modulus (GPa) = 26.48864 38.75289 32.62076
#
# Velocity S-wave (km/s) = 3.26314 3.94692 3.62120
# Velocity P-wave (km/s) = 5.90247 6.61830 6.27061
#
# Compressibility (1/GPa) = 0.01947454
#
# Stress axis : x y z
#
# Youngs Moduli (GPa) = 83.31409 63.50782 91.13680
#
# Poissons Ratio (x) = 0.11903 0.07582
# Poissons Ratio (y) = 0.15616 0.63041
# Poissons Ratio (z) = 0.06931 0.43930
#
# Static dielectric constant tensor:
#      x y z
#    x 1.958700 0.006560 -0.021350 
#    y 0.006560 2.015330 -0.002940 
#    z -0.021350 -0.002940 2.111090 
# 
# From -- ./inp_files/62687.got.cif
#   From: 2010.05.17/outbox.cif.g08.bks.cpg/sg2_32_cif.got.tgz:62687.got - 2010.06.03 11:33:40.
