data_PCOD9025770
_publ_section_title
;
Structure prediction by ZEFSAII (Michael W. Deem and Ramdas Pophale) SiO2 
 PCOD9025770
Probable space group: P -1
;
_chemical_formula_sum "Si O2"
_cell_formula_units_Z 14
_cell_length_a 7.467713
_cell_length_b 20.463765
_cell_length_c 9.135872
_cell_angle_alpha 136.553963
_cell_angle_beta 36.749051
_cell_angle_gamma 127.430464
_cell_volume 573.268504
_symmetry_space_group_name_H-M "P -1"
_symmetry_group_IT_number 2
_symmetry_cell_setting 'triclinic'
loop_
_space_group_symop_operation_xyz
x,y,z
-x,-y,-z
loop_
_atom_site_type_symbol
_atom_site_label
_atom_site_fract_x
_atom_site_fract_y
_atom_site_fract_z
Si Si1 0.226742 0.298604 0.649733
Si Si2 0.101190 0.890879 0.119285
Si Si3 0.464717 0.796655 0.466914
Si Si4 0.601902 0.306109 0.941536
Si Si5 0.062620 0.083116 0.305864
Si Si6 0.360779 0.491788 0.737966
Si Si7 0.500591 0.130732 0.885967
O O1 0.362514 0.285775 0.698344
O O2 0.203388 0.189674 0.426938
O O3 0.411287 0.386814 0.595582
O O4 0.883066 0.322127 0.893220
O O5 0.269941 0.864586 0.116303
O O6 0.747141 0.864790 0.333937
O O7 0.149148 0.002432 0.231087
O O8 0.246802 0.839235 0.800096
O O9 0.302585 0.748082 0.354747
O O10 0.402138 0.229924 0.043724
O O11 0.499818 0.408168 0.124693
O O12 0.708847 0.087213 0.556565
O O13 0.217663 0.068082 0.025500
O O14 0.500000 0.500000 0.500000
O O15 0.000000 0.500000 0.000000
#
# Coordination Sequence:
#
# PCOD9025770 Si02
#       7
#     2   2   2   2   2   2   2
#     4  10  22  44  68  93 131 171 217 264 331 376
#     4  12  23  42  64  98 133 174 222 263 324 388
#     4  12  26  41  67  98 136 172 217 268 322 392
#     4  10  24  45  68  99 134 168 219 271 327 388
#     4  11  21  37  71  91 126 179 218 264 323 384
#     4  10  22  40  71  97 125 169 217 264 328 387
#     4  11  20  39  64  90 128 172 213 267 321 377
#
# _framework density 24.421365999999999
#
# number of rings (size 3 to 8) (size 9 to 14) (size 15 to 20)
#    0.000    1.143    4.286    2.571    0.000    5.143 
#    0.000   10.000    0.000    6.857    0.000    0.000 
#    0.000    0.000    0.000    0.000    0.000    0.000 
#
# Total GULP energy -78085.810507 kJ/mol
# GULP energy per Si atom -5577.557893 kJ/mol
# Density = 2.436578 g / cm^3
# Si number density = 24.421366 Si / 1000 Ang^3
#
#
#
# Elastic Constant Matrix: (Units=GPa)
#
#
# Indices 1 2 3 4 5 6 
#
# 1 69.3042 45.5756 27.4953 1.4651 6.9294 -10.1474
# 2 45.5756 210.9934 49.3397 -2.4816 4.9340 -25.8251
# 3 27.4953 49.3397 140.4101 -28.5105 8.9668 12.9624
# 4 1.4651 -2.4816 -28.5105 51.7977 5.6871 -6.6571
# 5 6.9294 4.9340 8.9668 5.6871 24.7534 -5.1890
# 6 -10.1474 -25.8251 12.9624 -6.6571 -5.1890 21.6169
#
#
#
# Elastic Compliance Matrix: (Units=1/GPa)
#
#
# Indices 1 2 3 4 5 6 
#
# 1 0.018680 -0.002197 -0.003819 -0.001601 -0.001448 0.007593
# 2 -0.002197 0.007114 -0.003220 -0.000375 0.002522 0.009888
# 3 -0.003819 -0.003220 0.011675 0.005477 -0.006394 -0.012488
# 4 -0.001601 -0.000375 0.005477 0.023208 -0.006565 0.001087
# 5 -0.001448 0.002522 -0.006394 -0.006565 0.047379 0.015519
# 6 0.007593 0.009888 -0.012488 0.001087 0.015519 0.073186
#
#
# Mechanical properties :
#
#
# Convention : Reuss Voigt Hill
#
# Bulk Modulus (GPa) = 52.64383 73.94765 63.29574
# Shear Modulus (GPa) = 24.26649 39.52007 31.89328
#
# Velocity S-wave (km/s) = 3.15565 4.02712 3.61772
# Velocity P-wave (km/s) = 5.90600 7.20897 6.58977
#
# Compressibility (1/GPa) = 0.01899558
#
# Stress axis : x y z
#
# Youngs Moduli (GPa) = 53.53361 140.57065 85.65656
#
# Poissons Ratio (x) = 0.30889 0.32715
# Poissons Ratio (y) = 0.11763 0.27578
# Poissons Ratio (z) = 0.20446 0.45258
#
# Static dielectric constant tensor:
#      x y z
#    x 1.966910 0.014770 0.001780 
#    y 0.014770 2.018690 0.060760 
#    z 0.001780 0.060760 2.004820 
# 
# From -- ./inp_files/215666.got.cif
#   From: 2010.05.17/outbox.cif.g08.bks.cpg/sg2_108_cif.got.tgz:215666.got - 2010.06.03 11:33:40.
