data_PCOD9025423
_publ_section_title
;
Structure prediction by ZEFSAII (Michael W. Deem and Ramdas Pophale) SiO2 
 PCOD9025423
Probable space group: P -1
;
_chemical_formula_sum "Si O2"
_cell_formula_units_Z 14
_cell_length_a 14.241575
_cell_length_b 6.745226
_cell_length_c 11.380536
_cell_angle_alpha 108.926958
_cell_angle_beta 148.781041
_cell_angle_gamma 80.104802
_cell_volume 523.435620
_symmetry_space_group_name_H-M "P -1"
_symmetry_group_IT_number 2
_symmetry_cell_setting 'triclinic'
loop_
_space_group_symop_operation_xyz
x,y,z
-x,-y,-z
loop_
_atom_site_type_symbol
_atom_site_label
_atom_site_fract_x
_atom_site_fract_y
_atom_site_fract_z
Si Si1 0.208072 0.650646 0.357345
Si Si2 0.132901 0.231626 0.652450
Si Si3 0.435107 0.324426 0.527152
Si Si4 0.848509 0.530081 0.067406
Si Si5 0.520532 0.860483 0.886599
Si Si6 0.738294 0.953525 0.917603
Si Si7 0.143809 0.123835 0.368909
O O1 0.352742 0.527406 0.426473
O O2 0.324454 0.723476 0.614295
O O3 0.011757 0.498218 0.147746
O O4 0.173040 0.881498 0.325543
O O5 0.070172 0.415321 0.701499
O O6 0.161569 0.204558 0.539107
O O7 0.336426 0.271116 0.935772
O O8 0.000000 0.000000 0.500000
O O9 0.382045 0.136838 0.339870
O O10 0.298640 0.262905 0.480005
O O11 0.647342 0.374699 0.806670
O O12 0.814189 0.756855 0.020486
O O13 0.611041 0.000874 0.897821
O O14 0.500000 0.000000 0.000000
O O15 0.925258 0.116469 0.112357
#
# Coordination Sequence:
#
# PCOD9025423 Si02
#       7
#     2   2   2   2   2   2   2
#     4  11  23  43  68  99 129 184 224 267 350 397
#     4  11  17  39  67  94 136 171 226 280 335 390
#     4  12  25  46  64 102 145 171 228 281 331 403
#     4  10  22  40  68  99 132 183 224 283 333 397
#     4  11  19  37  72  99 124 178 230 268 334 403
#     4  10  22  43  69  94 140 185 212 284 340 392
#     4  11  24  42  71 100 133 185 223 281 336 404
#
# _framework density 26.746365000000001
#
# number of rings (size 3 to 8) (size 9 to 14) (size 15 to 20)
#    0.000    1.143    8.571    0.857    0.000    2.857 
#    2.571    1.429    0.000    0.000    0.000    0.000 
#    0.000    0.000    0.000    0.000    0.000    0.000 
#
# Total GULP energy -78197.446140 kJ/mol
# GULP energy per Si atom -5585.531867 kJ/mol
# Density = 2.668549 g / cm^3
# Si number density = 26.746365 Si / 1000 Ang^3
#
#
#
# Elastic Constant Matrix: (Units=GPa)
#
#
# Indices 1 2 3 4 5 6 
#
# 1 173.2971 23.4974 67.4498 14.5154 -3.0997 0.2595
# 2 23.4974 61.9500 13.4416 6.5889 4.4633 3.5050
# 3 67.4498 13.4416 140.0173 21.9760 21.7988 9.8488
# 4 14.5154 6.5889 21.9760 37.6257 -8.8233 10.2772
# 5 -3.0997 4.4633 21.7988 -8.8233 64.4381 8.5316
# 6 0.2595 3.5050 9.8488 10.2772 8.5316 46.8598
#
#
#
# Elastic Compliance Matrix: (Units=1/GPa)
#
#
# Indices 1 2 3 4 5 6 
#
# 1 0.007553 -0.002201 -0.003709 -0.000144 0.001667 0.000630
# 2 -0.002201 0.017369 0.000065 -0.002482 -0.001609 -0.000463
# 3 -0.003709 0.000065 0.010539 -0.005767 -0.004523 -0.000111
# 4 -0.000144 -0.002482 -0.005767 0.034332 0.007817 -0.007554
# 5 0.001667 -0.001609 -0.004523 0.007817 0.018852 -0.004085
# 6 0.000630 -0.000463 -0.000111 -0.007554 -0.004085 0.023795
#
#
# Mechanical properties :
#
#
# Convention : Reuss Voigt Hill
#
# Bulk Modulus (GPa) = 42.06393 64.89356 53.47875
# Shear Modulus (GPa) = 37.86356 47.84308 42.85332
#
# Velocity S-wave (km/s) = 3.76660 4.23397 4.00711
# Velocity P-wave (km/s) = 5.88876 6.94387 6.43796
#
# Compressibility (1/GPa) = 0.02377334
#
# Stress axis : x y z
#
# Youngs Moduli (GPa) = 132.39409 57.57478 94.88229
#
# Poissons Ratio (x) = 0.12671 0.35189
# Poissons Ratio (y) = 0.29136 -0.00621
# Poissons Ratio (z) = 0.49101 -0.00377
#
# Static dielectric constant tensor:
#      x y z
#    x 0.872760 0.270150 -0.992180 
#    y 0.270150 2.256770 0.209640 
#    z -0.992180 0.209640 1.285130 
# 
# From -- ./inp_files/447705.got.cif
#   From: 2010.05.17/outbox.cif.g08.bks.cpg/sg2_224_cif.got.tgz:447705.got - 2010.06.03 11:33:40.
