data_PCOD9025939
_publ_section_title
;
Structure prediction by ZEFSAII (Michael W. Deem and Ramdas Pophale) SiO2 
 PCOD9025939
Probable space group: P -1
;
_chemical_formula_sum "Si O2"
_cell_formula_units_Z 16
_cell_length_a 6.763762
_cell_length_b 10.464632
_cell_length_c 17.514554
_cell_angle_alpha 139.778321
_cell_angle_beta 118.941893
_cell_angle_gamma 56.793451
_cell_volume 664.819501
_symmetry_space_group_name_H-M "P -1"
_symmetry_group_IT_number 2
_symmetry_cell_setting 'triclinic'
loop_
_space_group_symop_operation_xyz
x,y,z
-x,-y,-z
loop_
_atom_site_type_symbol
_atom_site_label
_atom_site_fract_x
_atom_site_fract_y
_atom_site_fract_z
Si Si1 0.429410 0.607650 0.190009
Si Si2 0.944636 0.349257 0.194664
Si Si3 0.633235 0.776034 0.172608
Si Si4 0.541589 0.784061 0.722761
Si Si5 0.283965 0.938421 0.891717
Si Si6 0.244120 0.858100 0.559168
Si Si7 0.725863 0.071924 0.569649
Si Si8 0.065115 0.380298 0.053332
O O1 0.698038 0.536058 0.240409
O O2 0.464633 0.672674 0.140135
O O3 0.268403 0.798764 0.295269
O O4 0.305385 0.433550 0.103211
O O5 0.860616 0.157401 0.120396
O O6 0.181944 0.344610 0.281702
O O7 0.024416 0.344484 0.119224
O O8 0.846209 0.589206 0.090802
O O9 0.488590 0.966218 0.178166
O O10 0.737571 0.906768 0.313972
O O11 0.400619 0.780380 0.772750
O O12 0.409107 0.736157 0.601964
O O13 0.500000 0.000000 0.000000
O O14 0.101709 0.152707 0.921681
O O15 0.304828 0.799334 0.456302
O O16 0.969114 0.884146 0.527098
O O17 0.500000 0.000000 0.500000
#
# Coordination Sequence:
#
# PCOD9025939 Si02
#       8
#     2   2   2   2   2   2   2   2
#     4  11  20  37  63  93 118 156 207 245 298 362
#     4  11  23  38  64  84 124 161 205 250 297 353
#     4   9  21  38  58  88 124 154 188 257 300 343
#     4  10  22  41  58  90 128 157 199 250 307 352
#     4  12  23  39  63  89 115 172 208 242 297 364
#     4   9  21  37  59  91 121 154 190 251 301 348
#     4  11  19  36  66  92 118 157 204 239 302 370
#     4  11  22  39  61  90 122 156 213 248 293 356
#
# _framework density 24.066683000000001
#
# number of rings (size 3 to 8) (size 9 to 14) (size 15 to 20)
#    0.750    0.750    5.000    0.375    0.000    3.500 
#    0.000    1.875    0.000    3.750    0.000    0.000 
#    0.000    0.000    0.000    0.000    0.000    0.000 
#
# Total GULP energy -89392.726400 kJ/mol
# GULP energy per Si atom -5587.045400 kJ/mol
# Density = 2.401191 g / cm^3
# Si number density = 24.066683 Si / 1000 Ang^3
#
#
#
# Elastic Constant Matrix: (Units=GPa)
#
#
# Indices 1 2 3 4 5 6 
#
# 1 155.0188 45.9505 23.1119 -14.8532 8.7208 0.3426
# 2 45.9505 87.7658 19.4145 -12.3101 -0.8618 9.2538
# 3 23.1119 19.4145 39.0001 -6.4958 5.6155 -3.6175
# 4 -14.8532 -12.3101 -6.4958 47.3315 0.1486 2.6909
# 5 8.7208 -0.8618 5.6155 0.1486 34.1188 8.2378
# 6 0.3426 9.2538 -3.6175 2.6909 8.2378 27.2602
#
#
#
# Elastic Compliance Matrix: (Units=1/GPa)
#
#
# Indices 1 2 3 4 5 6 
#
# 1 0.008139 -0.003748 -0.002324 0.001188 -0.002133 0.001389
# 2 -0.003748 0.016066 -0.006714 0.002514 0.004356 -0.007862
# 3 -0.002324 -0.006714 0.032413 0.001507 -0.006987 0.008572
# 4 0.001188 0.002514 0.001507 0.022527 0.000121 -0.002928
# 5 -0.002133 0.004356 -0.006987 0.000121 0.034186 -0.012722
# 6 0.001389 -0.007862 0.008572 -0.002928 -0.012722 0.044606
#
#
# Mechanical properties :
#
#
# Convention : Reuss Voigt Hill
#
# Bulk Modulus (GPa) = 32.21075 50.97094 41.59085
# Shear Modulus (GPa) = 25.79222 34.62928 30.21075
#
# Velocity S-wave (km/s) = 3.27723 3.79738 3.54686
# Velocity P-wave (km/s) = 5.26625 6.36018 5.83889
#
# Compressibility (1/GPa) = 0.03104554
#
# Stress axis : x y z
#
# Youngs Moduli (GPa) = 122.86504 62.24360 30.85221
#
# Poissons Ratio (x) = 0.23329 0.07169
# Poissons Ratio (y) = 0.46050 0.20715
# Poissons Ratio (z) = 0.28549 0.41793
#
# Static dielectric constant tensor:
#      x y z
#    x 1.882660 0.006230 0.009370 
#    y 0.006230 2.014530 0.011340 
#    z 0.009370 0.011340 1.961850 
# 
# From -- ./inp_files/583118.got.cif
#   From: 2010.05.17/outbox.cif.g08.bks.cpg/sg2_292_cif.got.tgz:583118.got - 2010.06.03 11:33:40.
