data_PCOD9025958
_publ_section_title
;
Structure prediction by ZEFSAII (Michael W. Deem and Ramdas Pophale) SiO2 
 PCOD9025958
Probable space group: P -1
;
_chemical_formula_sum "Si O2"
_cell_formula_units_Z 16
_cell_length_a 21.565189
_cell_length_b 6.316894
_cell_length_c 5.798494
_cell_angle_alpha 105.619373
_cell_angle_beta 62.415551
_cell_angle_gamma 101.938206
_cell_volume 671.125289
_symmetry_space_group_name_H-M "P -1"
_symmetry_group_IT_number 2
_symmetry_cell_setting 'triclinic'
loop_
_space_group_symop_operation_xyz
x,y,z
-x,-y,-z
loop_
_atom_site_type_symbol
_atom_site_label
_atom_site_fract_x
_atom_site_fract_y
_atom_site_fract_z
Si Si1 0.564165 0.538440 0.223725
Si Si2 0.887799 0.954446 0.213003
Si Si3 0.795562 0.661226 0.623031
Si Si4 0.234284 0.803739 0.689661
Si Si5 0.683130 0.847010 0.619038
Si Si6 0.001596 0.367977 0.209848
Si Si7 0.472662 0.214461 0.008419
Si Si8 0.281411 0.523473 0.894030
O O1 0.500000 0.500000 0.500000
O O2 0.539393 0.387912 0.001843
O O3 0.639791 0.470554 0.138098
O O4 0.554535 0.779925 0.206361
O O5 0.827550 0.038121 0.176894
O O6 0.937102 0.175233 0.257855
O O7 0.853865 0.839328 0.470079
O O8 0.930947 0.773030 0.963363
O O9 0.796832 0.439756 0.404125
O O10 0.722987 0.781175 0.760760
O O11 0.785832 0.547979 0.853784
O O12 0.270244 0.751748 0.852535
O O13 0.293033 0.907857 0.438170
O O14 0.601273 0.773324 0.731114
O O15 0.716362 0.682156 0.340177
O O16 0.000000 0.500000 0.500000
O O17 0.000000 0.500000 0.000000
O O18 0.500000 0.000000 0.000000
#
# Coordination Sequence:
#
# PCOD9025958 Si02
#       8
#     2   2   2   2   2   2   2   2
#     4  11  24  42  61  89 126 177 236 304 367 432
#     4  10  24  51  79 117 156 197 253 302 366 454
#     4  10  22  46  65 101 140 191 235 293 367 436
#     4  10  24  43  67 104 141 186 239 300 362 436
#     4  10  22  41  59  93 134 173 236 298 368 439
#     4  11  26  55  87 122 162 206 251 310 374 450
#     4  11  25  38  63  87 125 176 235 305 372 444
#     4  11  23  42  67  94 140 184 238 304 372 439
#
# _framework density 23.840554000000001
#
# number of rings (size 3 to 8) (size 9 to 14) (size 15 to 20)
#    0.000    1.500    2.500    0.750    3.500    5.500 
#   29.250    0.000    0.000    0.000    0.000    0.000 
#    0.000    0.000    0.000    0.000    0.000    0.000 
#
# Total GULP energy -89143.404246 kJ/mol
# GULP energy per Si atom -5571.462765 kJ/mol
# Density = 2.378629 g / cm^3
# Si number density = 23.840554 Si / 1000 Ang^3
#
#
#
# Elastic Constant Matrix: (Units=GPa)
#
#
# Indices 1 2 3 4 5 6 
#
# 1 127.1249 68.9897 48.8751 -10.3293 -18.9923 -24.6232
# 2 68.9897 127.3320 44.9508 -23.1196 -6.3162 -11.2166
# 3 48.8751 44.9508 101.0516 -11.2435 -11.7953 -16.6540
# 4 -10.3293 -23.1196 -11.2435 45.8110 0.8101 0.7959
# 5 -18.9923 -6.3162 -11.7953 0.8101 31.6791 -6.2248
# 6 -24.6232 -11.2166 -16.6540 0.7959 -6.2248 45.3288
#
#
#
# Elastic Compliance Matrix: (Units=1/GPa)
#
#
# Indices 1 2 3 4 5 6 
#
# 1 0.014537 -0.006200 -0.002335 -0.000679 0.007925 0.006605
# 2 -0.006200 0.012705 -0.002747 0.004416 -0.002649 -0.001675
# 3 -0.002335 -0.002747 0.013385 0.001247 0.003683 0.003454
# 4 -0.000679 0.004416 0.001247 0.024188 0.000481 0.000823
# 5 0.007925 -0.002649 0.003683 0.000481 0.039187 0.010375
# 6 0.006605 -0.001675 0.003454 0.000823 0.010375 0.027914
#
#
# Mechanical properties :
#
#
# Convention : Reuss Voigt Hill
#
# Bulk Modulus (GPa) = 55.36120 75.68220 65.52170
# Shear Modulus (GPa) = 31.15253 37.40999 34.28126
#
# Velocity S-wave (km/s) = 3.61876 3.96558 3.79613
# Velocity P-wave (km/s) = 6.38219 7.26511 6.83792
#
# Compressibility (1/GPa) = 0.01806319
#
# Stress axis : x y z
#
# Youngs Moduli (GPa) = 68.79042 78.70642 74.71103
#
# Poissons Ratio (x) = 0.48801 0.17445
# Poissons Ratio (y) = 0.42653 0.20521
# Poissons Ratio (z) = 0.16062 0.21618
#
# Static dielectric constant tensor:
#      x y z
#    x 2.244200 -0.453150 0.239210 
#    y -0.453150 2.383700 -0.180080 
#    z 0.239210 -0.180080 2.079100 
# 
# From -- ./inp_files/114542.got.cif
#   From: 2010.05.17/outbox.cif.g08.bks.cpg/sg2_58_cif.got.tgz:114542.got - 2010.06.03 11:33:40.
