data_PCOD9025474
_publ_section_title
;
Structure prediction by ZEFSAII (Michael W. Deem and Ramdas Pophale) SiO2 
 PCOD9025474
Probable space group: P -1
;
_chemical_formula_sum "Si O2"
_cell_formula_units_Z 16
_cell_length_a 8.688922
_cell_length_b 11.892480
_cell_length_c 9.471320
_cell_angle_alpha 59.112555
_cell_angle_beta 134.609310
_cell_angle_gamma 119.468424
_cell_volume 583.932443
_symmetry_space_group_name_H-M "P -1"
_symmetry_group_IT_number 2
_symmetry_cell_setting 'triclinic'
loop_
_space_group_symop_operation_xyz
x,y,z
-x,-y,-z
loop_
_atom_site_type_symbol
_atom_site_label
_atom_site_fract_x
_atom_site_fract_y
_atom_site_fract_z
Si Si1 0.776398 0.401833 0.376433
Si Si2 0.157247 0.253476 0.121180
Si Si3 0.900973 0.044329 0.261681
Si Si4 0.139682 0.749163 0.712361
Si Si5 0.273505 0.807141 0.280529
Si Si6 0.366219 0.223836 0.692630
Si Si7 0.442917 0.087482 0.276177
Si Si8 0.435054 0.500902 0.288165
O O1 0.795527 0.378983 0.235994
O O2 0.750211 0.261023 0.536841
O O3 0.598493 0.467065 0.296650
O O4 0.000000 0.500000 0.500000
O O5 0.344736 0.220180 0.156575
O O6 0.230279 0.379682 0.193788
O O7 0.097858 0.101430 0.246352
O O8 0.944512 0.272358 0.886474
O O9 0.844978 0.189014 0.161855
O O10 0.703685 0.920086 0.183767
O O11 0.000000 0.000000 0.500000
O O12 0.329456 0.866286 0.691310
O O13 0.878518 0.738671 0.506759
O O14 0.499073 0.790579 0.356504
O O15 0.274803 0.964678 0.170111
O O16 0.529817 0.339781 0.808055
O O17 0.500000 0.000000 0.500000
O O18 0.500000 0.500000 0.500000
#
# Coordination Sequence:
#
# PCOD9025474 Si02
#       8
#     2   2   2   2   2   2   2   2
#     4  12  25  43  73 102 136 185 246 292 343 420
#     4  12  28  45  71 106 151 186 225 298 367 416
#     4  10  22  40  69 104 133 177 241 285 337 412
#     4  11  21  38  73 106 126 175 250 297 323 404
#     4  12  27  46  68 106 149 184 228 295 372 418
#     4  11  23  40  69 101 140 180 230 292 342 412
#     4  12  22  43  75 105 134 186 242 289 344 421
#     4  12  23  44  73 103 135 191 249 280 341 434
#
# _framework density 27.400431000000001
#
# number of rings (size 3 to 8) (size 9 to 14) (size 15 to 20)
#    0.000    0.500    6.250    3.375    1.750    1.000 
#    0.000    0.625    0.000    0.000    0.000    0.000 
#    0.000    0.000    0.000    0.000    0.000    0.000 
#
# Total GULP energy -89219.099051 kJ/mol
# GULP energy per Si atom -5576.193691 kJ/mol
# Density = 2.733807 g / cm^3
# Si number density = 27.400431 Si / 1000 Ang^3
#
#
#
# Elastic Constant Matrix: (Units=GPa)
#
#
# Indices 1 2 3 4 5 6 
#
# 1 107.7993 29.1182 13.9649 4.7189 18.6611 -1.4542
# 2 29.1182 236.1377 22.3615 23.9657 11.4872 -5.0542
# 3 13.9649 22.3615 77.3168 10.5460 14.5081 3.4333
# 4 4.7189 23.9657 10.5460 30.2518 3.5868 0.4990
# 5 18.6611 11.4872 14.5081 3.5868 28.4229 2.5866
# 6 -1.4542 -5.0542 3.4333 0.4990 2.5866 65.0801
#
#
#
# Elastic Compliance Matrix: (Units=1/GPa)
#
#
# Indices 1 2 3 4 5 6 
#
# 1 0.010718 -0.000954 -0.000470 0.000006 -0.006453 0.000447
# 2 -0.000954 0.004794 -0.000666 -0.003354 -0.000587 0.000435
# 3 -0.000470 -0.000666 0.014986 -0.003839 -0.006536 -0.000564
# 4 0.000006 -0.003354 -0.003839 0.037217 -0.001358 -0.000289
# 5 -0.006453 -0.000587 -0.006536 -0.001358 0.043306 -0.001556
# 6 0.000447 0.000435 -0.000564 -0.000289 -0.001556 0.015503
#
#
# Mechanical properties :
#
#
# Convention : Reuss Voigt Hill
#
# Bulk Modulus (GPa) = 37.99525 61.34923 49.67224
# Shear Modulus (GPa) = 35.84832 48.47158 42.15995
#
# Velocity S-wave (km/s) = 3.62098 4.21052 3.92683
# Velocity P-wave (km/s) = 5.60168 6.78796 6.22315
#
# Compressibility (1/GPa) = 0.02631908
#
# Stress axis : x y z
#
# Youngs Moduli (GPa) = 93.30161 208.60076 66.72710
#
# Poissons Ratio (x) = 0.19906 0.03134
# Poissons Ratio (y) = 0.08903 0.04442
# Poissons Ratio (z) = 0.04382 0.13886
#
# Static dielectric constant tensor:
#      x y z
#    x 2.332080 -0.052650 0.023350 
#    y -0.052650 2.332620 0.029390 
#    z 0.023350 0.029390 2.261910 
# 
# From -- ./inp_files/389584.got.cif
#   From: 2010.05.17/outbox.cif.g08.bks.cpg/sg2_195_cif.got.tgz:389584.got - 2010.06.03 11:33:40.
