data_PCOD9025510
_publ_section_title
;
Structure prediction by ZEFSAII (Michael W. Deem and Ramdas Pophale) SiO2 
 PCOD9025510
Probable space group: P -1
;
_chemical_formula_sum "Si O2"
_cell_formula_units_Z 16
_cell_length_a 16.403130
_cell_length_b 5.556566
_cell_length_c 16.351859
_cell_angle_alpha 89.002939
_cell_angle_beta 144.296116
_cell_angle_gamma 107.269061
_cell_volume 760.750862
_symmetry_space_group_name_H-M "P -1"
_symmetry_group_IT_number 2
_symmetry_cell_setting 'triclinic'
loop_
_space_group_symop_operation_xyz
x,y,z
-x,-y,-z
loop_
_atom_site_type_symbol
_atom_site_label
_atom_site_fract_x
_atom_site_fract_y
_atom_site_fract_z
Si Si1 0.737339 0.241209 0.754347
Si Si2 0.466859 0.668512 0.543928
Si Si3 0.816052 0.584837 0.563203
Si Si4 0.998956 0.232211 0.752861
Si Si5 0.178557 0.584518 0.615851
Si Si6 0.936907 0.739521 0.010612
Si Si7 0.397248 0.106709 0.866111
Si Si8 0.717360 0.602626 0.136303
O O1 0.643712 0.240858 0.597834
O O2 0.913517 0.317005 0.870793
O O3 0.631519 0.933137 0.703312
O O4 0.773734 0.485671 0.845919
O O5 0.500000 0.500000 0.500000
O O6 0.355709 0.519445 0.531710
O O7 0.902286 0.407874 0.668692
O O8 0.812373 0.533294 0.463472
O O9 0.902935 0.912478 0.649084
O O10 0.068088 0.215281 0.898036
O O11 0.148129 0.380415 0.813076
O O12 0.251672 0.487267 0.749004
O O13 0.000000 0.500000 0.500000
O O14 0.292246 0.914811 0.708890
O O15 0.000000 0.000000 0.000000
O O16 0.277709 0.113888 0.837023
O O17 0.539769 0.408102 0.957539
O O18 0.500000 0.000000 0.000000
#
# Coordination Sequence:
#
# PCOD9025510 Si02
#       8
#     2   2   2   2   2   2   2   2
#     4  10  22  40  69  92 130 173 226 275 350 399
#     4  11  23  44  67  98 138 179 222 284 349 406
#     4  12  27  43  68 107 138 180 233 285 343 415
#     4  12  26  44  69 102 139 179 232 286 343 410
#     4  11  22  40  69  99 139 178 229 283 343 409
#     4  11  23  43  67  99 130 177 229 286 340 413
#     4   9  21  41  64  95 135 182 224 279 345 401
#     4  10  22  42  68  97 136 184 223 284 346 404
#
# _framework density 21.031851
#
# number of rings (size 3 to 8) (size 9 to 14) (size 15 to 20)
#    0.000    1.250    2.500    3.000    7.000    2.000 
#    0.000    7.500    0.000    0.000    0.000    0.000 
#    0.000    0.000    0.000    0.000    0.000    0.000 
#
# Total GULP energy -89110.958747 kJ/mol
# GULP energy per Si atom -5569.434922 kJ/mol
# Density = 2.098398 g / cm^3
# Si number density = 21.031851 Si / 1000 Ang^3
#
#
#
# Elastic Constant Matrix: (Units=GPa)
#
#
# Indices 1 2 3 4 5 6 
#
# 1 130.1955 26.6103 33.4005 12.7254 -5.4781 16.8847
# 2 26.6103 69.7833 29.9091 17.4329 -9.4684 -2.2782
# 3 33.4005 29.9091 100.3718 31.3038 -13.7041 9.6458
# 4 12.7254 17.4329 31.3038 45.8256 -3.8861 0.1595
# 5 -5.4781 -9.4684 -13.7041 -3.8861 43.1815 -6.9987
# 6 16.8847 -2.2782 9.6458 0.1595 -6.9987 30.8044
#
#
#
# Elastic Compliance Matrix: (Units=1/GPa)
#
#
# Indices 1 2 3 4 5 6 
#
# 1 0.009398 -0.003033 -0.001765 -0.000307 -0.000874 -0.005020
# 2 -0.003033 0.018411 -0.003403 -0.003597 0.003026 0.004796
# 3 -0.001765 -0.003403 0.014728 -0.008057 0.002444 -0.003299
# 4 -0.000307 -0.003597 -0.008057 0.028734 -0.000446 0.002175
# 5 -0.000874 0.003026 0.002444 -0.000446 0.025371 0.005704
# 6 -0.005020 0.004796 -0.003299 0.002175 0.005704 0.037887
#
#
# Mechanical properties :
#
#
# Convention : Reuss Voigt Hill
#
# Bulk Modulus (GPa) = 38.26192 53.35449 45.80821
# Shear Modulus (GPa) = 31.32042 37.99104 34.65573
#
# Velocity S-wave (km/s) = 3.86319 4.25474 4.06368
# Velocity P-wave (km/s) = 6.17502 7.03993 6.62161
#
# Compressibility (1/GPa) = 0.02613565
#
# Stress axis : x y z
#
# Youngs Moduli (GPa) = 106.41012 54.31600 67.89881
#
# Poissons Ratio (x) = 0.16474 0.11981
# Poissons Ratio (y) = 0.32275 0.23104
# Poissons Ratio (z) = 0.18777 0.18482
#
# Static dielectric constant tensor:
#      x y z
#    x 1.847350 -0.147860 -0.010550 
#    y -0.147860 2.158310 0.060340 
#    z -0.010550 0.060340 1.801280 
# 
# From -- ./inp_files/52226.got.cif
#   From: 2010.05.17/outbox.cif.g08.bks.cpg/sg2_27_cif.got.tgz:52226.got - 2010.06.03 11:33:40.
