data_PCOD9025907
_publ_section_title
;
Structure prediction by ZEFSAII (Michael W. Deem and Ramdas Pophale) SiO2 
 PCOD9025907
Probable space group: P -1
;
_chemical_formula_sum "Si O2"
_cell_formula_units_Z 15
_cell_length_a 19.432315
_cell_length_b 11.336747
_cell_length_c 16.965821
_cell_angle_alpha 150.471027
_cell_angle_beta 158.283765
_cell_angle_gamma 32.276601
_cell_volume 667.323071
_symmetry_space_group_name_H-M "P -1"
_symmetry_group_IT_number 2
_symmetry_cell_setting 'triclinic'
loop_
_space_group_symop_operation_xyz
x,y,z
-x,-y,-z
loop_
_atom_site_type_symbol
_atom_site_label
_atom_site_fract_x
_atom_site_fract_y
_atom_site_fract_z
Si Si1 0.315053 0.670895 0.500661
Si Si2 0.330380 0.774255 0.405925
Si Si3 0.865492 0.649391 0.599330
Si Si4 0.415454 0.196249 0.935862
Si Si5 0.500000 0.000000 0.500000
Si Si6 0.233286 0.668212 0.078756
Si Si7 0.839200 0.235815 0.449770
Si Si8 0.641253 0.678371 0.228577
O O1 0.234524 0.725786 0.358420
O O2 0.491743 0.446767 0.548529
O O3 0.193297 0.622978 0.418480
O O4 0.374314 0.926909 0.733725
O O5 0.194290 0.772395 0.185678
O O6 0.411055 0.025427 0.640616
O O7 0.683268 0.828582 0.547669
O O8 0.892673 0.399852 0.532286
O O9 0.821546 0.608602 0.437681
O O10 0.056496 0.741790 0.875457
O O11 0.344205 0.328684 0.854163
O O12 0.301031 0.374658 0.983005
O O13 0.638450 0.178674 0.174722
O O14 0.414418 0.760426 0.291469
O O15 0.000000 0.000000 0.500000
O O16 0.500000 0.500000 0.000000
#
# Coordination Sequence:
#
# PCOD9025907 Si02
#       8
#     2   2   2   2   1   2   2   2
#     4  10  22  43  67 101 135 197 244 289 368 420
#     4  10  22  40  74  98 143 185 245 301 354 439
#     4  12  26  43  73 108 142 189 242 302 365 439
#     4  11  23  43  72  97 144 199 235 302 360 435
#     4  12  22  44  68 102 148 182 236 296 366 436
#     4  12  24  44  72 109 140 192 241 297 370 437
#     4  12  24  42  68 106 147 190 249 295 360 444
#     4  11  22  44  68 105 144 189 241 297 373 428
#
# _framework density 22.477868000000001
#
# number of rings (size 3 to 8) (size 9 to 14) (size 15 to 20)
#    0.000    0.800    5.333    1.600    1.867    0.533 
#    0.000    2.000    0.000    0.000    0.000    0.000 
#    0.000    0.000    0.000    0.000    0.000    0.000 
#
# Total GULP energy -83530.707730 kJ/mol
# GULP energy per Si atom -5568.713849 kJ/mol
# Density = 2.242671 g / cm^3
# Si number density = 22.477868 Si / 1000 Ang^3
#
#
#
# Elastic Constant Matrix: (Units=GPa)
#
#
# Indices 1 2 3 4 5 6 
#
# 1 105.4612 23.3221 39.9390 -12.4698 -28.4867 22.7318
# 2 23.3221 100.2964 17.5592 3.4684 -19.4451 11.7399
# 3 39.9390 17.5592 77.0818 -8.7276 -29.7817 5.8429
# 4 -12.4698 3.4684 -8.7276 40.6241 2.5904 -2.3870
# 5 -28.4867 -19.4451 -29.7817 2.5904 30.9290 -0.4428
# 6 22.7318 11.7399 5.8429 -2.3870 -0.4428 41.9771
#
#
#
# Elastic Compliance Matrix: (Units=1/GPa)
#
#
# Indices 1 2 3 4 5 6 
#
# 1 0.015644 -0.000167 -0.002788 0.003045 0.011253 -0.007745
# 2 -0.000167 0.011899 0.000487 -0.001660 0.007888 -0.003317
# 3 -0.002788 0.000487 0.021867 0.002539 0.018562 -0.001330
# 4 0.003045 -0.001660 0.002539 0.026107 0.002018 -0.000032
# 5 0.011253 0.007888 0.018562 0.002018 0.065216 -0.010081
# 6 -0.007745 -0.003317 -0.001330 -0.000032 -0.010081 0.029021
#
#
# Mechanical properties :
#
#
# Convention : Reuss Voigt Hill
#
# Bulk Modulus (GPa) = 22.48506 49.38666 35.93586
# Shear Modulus (GPa) = 26.38313 36.17399 31.27856
#
# Velocity S-wave (km/s) = 3.42970 4.01598 3.73436
# Velocity P-wave (km/s) = 5.07038 6.59720 5.88353
#
# Compressibility (1/GPa) = 0.04447397
#
# Stress axis : x y z
#
# Youngs Moduli (GPa) = 63.92209 84.04203 45.73095
#
# Poissons Ratio (x) = 0.01400 0.12750
# Poissons Ratio (y) = 0.01065 -0.02225
# Poissons Ratio (z) = 0.17822 -0.04090
#
# Static dielectric constant tensor:
#      x y z
#    x 1.859840 0.004550 -0.058450 
#    y 0.004550 1.804240 -0.058010 
#    z -0.058450 -0.058010 1.779760 
# 
# From -- ./inp_files/404997.got.cif
#   From: 2010.05.17/outbox.cif.g08.bks.cpg/sg2_203_cif.got.tgz:404997.got - 2010.06.03 11:33:40.
