data_PCOD9025562
_publ_section_title
;
Structure prediction by ZEFSAII (Michael W. Deem and Ramdas Pophale) SiO2 
 PCOD9025562
Probable space group: P -1
;
_chemical_formula_sum "Si O2"
_cell_formula_units_Z 16
_cell_length_a 14.806666
_cell_length_b 8.020360
_cell_length_c 8.401832
_cell_angle_alpha 118.721378
_cell_angle_beta 56.873776
_cell_angle_gamma 126.421274
_cell_volume 654.091804
_symmetry_space_group_name_H-M "P -1"
_symmetry_group_IT_number 2
_symmetry_cell_setting 'triclinic'
loop_
_space_group_symop_operation_xyz
x,y,z
-x,-y,-z
loop_
_atom_site_type_symbol
_atom_site_label
_atom_site_fract_x
_atom_site_fract_y
_atom_site_fract_z
Si Si1 0.017563 0.938420 0.217664
Si Si2 0.325743 0.287196 0.832872
Si Si3 0.282820 0.289647 0.227821
Si Si4 0.862609 0.529829 0.368630
Si Si5 0.372720 0.991983 0.173560
Si Si6 0.269993 0.627838 0.882292
Si Si7 0.895068 0.149708 0.232404
Si Si8 0.484254 0.147629 0.451206
O O1 0.957930 0.765886 0.334082
O O2 0.941513 0.064862 0.298857
O O3 0.151283 0.104073 0.217300
O O4 0.023940 0.832118 0.993519
O O5 0.265066 0.413528 0.858642
O O6 0.447964 0.315479 0.645781
O O7 0.235119 0.036503 0.783836
O O8 0.346125 0.364126 0.030268
O O9 0.250278 0.451068 0.433024
O O10 0.352564 0.186083 0.213413
O O11 0.827048 0.413676 0.178195
O O12 0.899071 0.376708 0.364457
O O13 0.379583 0.007067 0.362644
O O14 0.272388 0.779380 0.092150
O O15 0.500000 0.000000 0.000000
O O16 0.395954 0.741804 0.717812
O O17 0.500000 0.000000 0.500000
#
# Coordination Sequence:
#
# PCOD9025562 Si02
#       8
#     2   2   2   2   2   2   2   2
#     4  10  22  44  67 103 142 187 235 291 341 415
#     4  11  22  42  63  97 140 181 232 290 341 416
#     4  11  25  44  66 103 143 183 237 289 346 416
#     4  12  23  43  71 105 142 193 233 284 351 411
#     4  10  23  45  68 100 134 177 232 288 349 419
#     4  11  23  41  68 101 133 184 230 282 358 407
#     4  10  22  40  69  97 142 184 237 286 348 409
#     4  11  23  43  70  96 132 179 229 290 354 416
#
# _framework density 24.461396000000001
#
# number of rings (size 3 to 8) (size 9 to 14) (size 15 to 20)
#    0.000    1.250    1.250    5.625    0.000    3.500 
#    0.000    3.750    0.000    0.000    0.000    0.000 
#    0.000    0.000    0.000    0.000    0.000    0.000 
#
# Total GULP energy -89597.311924 kJ/mol
# GULP energy per Si atom -5599.831995 kJ/mol
# Density = 2.440572 g / cm^3
# Si number density = 24.461396 Si / 1000 Ang^3
#
#
#
# Elastic Constant Matrix: (Units=GPa)
#
#
# Indices 1 2 3 4 5 6 
#
# 1 109.8753 29.0103 22.9587 16.2783 6.7867 -32.9690
# 2 29.0103 85.2347 28.4585 10.4598 -0.0208 -29.5371
# 3 22.9587 28.4585 99.7730 6.4631 14.2408 -16.2432
# 4 16.2783 10.4598 6.4631 29.5722 -7.5178 -7.1102
# 5 6.7867 -0.0208 14.2408 -7.5178 37.6378 11.3044
# 6 -32.9690 -29.5371 -16.2432 -7.1102 11.3044 47.7328
#
#
#
# Elastic Compliance Matrix: (Units=1/GPa)
#
#
# Indices 1 2 3 4 5 6 
#
# 1 0.013509 -0.000433 -0.000038 -0.006647 -0.006643 0.009633
# 2 -0.000433 0.016234 -0.002526 -0.003393 -0.002317 0.008930
# 3 -0.000038 -0.002526 0.012431 -0.002506 -0.006330 0.003766
# 4 -0.006647 -0.003393 -0.002506 0.041176 0.011619 -0.004162
# 5 -0.006643 -0.002317 -0.006330 0.011619 0.037053 -0.015220
# 6 0.009633 0.008930 0.003766 -0.004162 -0.015220 0.037395
#
#
# Mechanical properties :
#
#
# Convention : Reuss Voigt Hill
#
# Bulk Modulus (GPa) = 27.64054 50.63756 39.13905
# Shear Modulus (GPa) = 28.43303 37.28558 32.85931
#
# Velocity S-wave (km/s) = 3.41304 3.90842 3.66910
# Velocity P-wave (km/s) = 5.18228 6.41199 5.82965
#
# Compressibility (1/GPa) = 0.03617875
#
# Stress axis : x y z
#
# Youngs Moduli (GPa) = 74.02465 61.60064 80.44353
#
# Poissons Ratio (x) = 0.02667 0.00307
# Poissons Ratio (y) = 0.03205 0.20323
# Poissons Ratio (z) = 0.00282 0.15563
#
# Static dielectric constant tensor:
#      x y z
#    x 1.967840 0.038380 -0.022890 
#    y 0.038380 1.972080 0.020500 
#    z -0.022890 0.020500 1.972010 
# 
# From -- ./inp_files/299471.got.cif
#   From: 2010.05.17/outbox.cif.g08.bks.cpg/sg2_150_cif.got.tgz:299471.got - 2010.06.03 11:33:40.
