data_PCOD9025754
_publ_section_title
;
Structure prediction by ZEFSAII (Michael W. Deem and Ramdas Pophale) SiO2 
 PCOD9025754
Probable space group: P -1
;
_chemical_formula_sum "Si O2"
_cell_formula_units_Z 16
_cell_length_a 16.801857
_cell_length_b 5.683792
_cell_length_c 13.856402
_cell_angle_alpha 115.389295
_cell_angle_beta 37.098354
_cell_angle_gamma 128.265617
_cell_volume 620.716988
_symmetry_space_group_name_H-M "P -1"
_symmetry_group_IT_number 2
_symmetry_cell_setting 'triclinic'
loop_
_space_group_symop_operation_xyz
x,y,z
-x,-y,-z
loop_
_atom_site_type_symbol
_atom_site_label
_atom_site_fract_x
_atom_site_fract_y
_atom_site_fract_z
Si Si1 0.823263 0.372463 0.644743
Si Si2 0.524006 0.849278 0.853690
Si Si3 0.428286 0.651199 0.480066
Si Si4 0.163708 0.421407 0.542151
Si Si5 0.736106 0.665195 0.220862
Si Si6 0.421151 0.255762 0.945305
Si Si7 0.007670 0.264895 0.136975
Si Si8 0.108727 0.124067 0.204134
O O1 0.798372 0.508695 0.594521
O O2 0.803948 0.526898 0.785737
O O3 0.000000 0.500000 0.500000
O O4 0.707424 0.017499 0.696271
O O5 0.452572 0.493905 0.871306
O O6 0.477484 0.014749 0.846823
O O7 0.500000 0.000000 0.000000
O O8 0.318056 0.561800 0.479275
O O9 0.573723 0.601134 0.324000
O O10 0.315139 0.460574 0.643749
O O11 0.500000 0.000000 0.500000
O O12 0.064435 0.571314 0.703000
O O13 0.042799 0.074809 0.622507
O O14 0.839499 0.554957 0.045036
O O15 0.863475 0.021438 0.170561
O O16 0.500000 0.500000 0.000000
O O17 0.238320 0.048479 0.092863
O O18 0.058388 0.100788 0.138697
#
# Coordination Sequence:
#
# PCOD9025754 Si02
#       8
#     2   2   2   2   2   2   2   2
#     4  12  26  44  72 102 149 202 241 305 367 437
#     4  10  22  44  66  97 133 192 254 303 359 430
#     4  11  23  47  74 108 143 186 234 313 375 450
#     4  12  27  43  73 108 148 190 257 292 377 454
#     4  10  24  47  77 102 146 180 237 312 385 438
#     4  10  22  40  71  92 138 191 247 309 361 427
#     4  11  24  46  72 110 138 191 241 304 374 456
#     4  12  25  45  70 104 147 196 247 303 363 447
#
# _framework density 25.776641999999999
#
# number of rings (size 3 to 8) (size 9 to 14) (size 15 to 20)
#    0.000    1.000    6.250    0.375    5.250    3.500 
#    2.250    0.000    0.000    0.000    0.000    0.000 
#    0.000    0.000    0.000    0.000    0.000    0.000 
#
# Total GULP energy -89454.297982 kJ/mol
# GULP energy per Si atom -5590.893624 kJ/mol
# Density = 2.571797 g / cm^3
# Si number density = 25.776642 Si / 1000 Ang^3
#
#
#
# Elastic Constant Matrix: (Units=GPa)
#
#
# Indices 1 2 3 4 5 6 
#
# 1 153.1904 16.4429 43.8112 -15.7161 -13.9112 7.7495
# 2 16.4429 90.1712 15.8458 -10.4475 -7.2720 0.8710
# 3 43.8112 15.8458 144.4311 -17.9731 -28.0440 0.5427
# 4 -15.7161 -10.4475 -17.9731 44.7433 4.8386 -6.7028
# 5 -13.9112 -7.2720 -28.0440 4.8386 56.0473 -1.9123
# 6 7.7495 0.8710 0.5427 -6.7028 -1.9123 34.6386
#
#
#
# Elastic Compliance Matrix: (Units=1/GPa)
#
#
# Indices 1 2 3 4 5 6 
#
# 1 0.007413 -0.000798 -0.001856 0.001407 0.000642 -0.001302
# 2 -0.000798 0.011657 -0.000607 0.002161 0.000836 0.000359
# 3 -0.001856 -0.000607 0.008539 0.002395 0.003559 0.000957
# 4 0.001407 0.002161 0.002395 0.024992 -0.000179 0.004420
# 5 0.000642 0.000836 0.003559 -0.000179 0.019935 0.000846
# 6 -0.001302 0.000359 0.000957 0.004420 0.000846 0.030039
#
#
# Mechanical properties :
#
#
# Convention : Reuss Voigt Hill
#
# Bulk Modulus (GPa) = 47.42582 59.99915 53.71248
# Shear Modulus (GPa) = 43.05704 47.86537 45.46120
#
# Velocity S-wave (km/s) = 4.09147 4.31388 4.20415
# Velocity P-wave (km/s) = 6.38427 6.93829 6.66704
#
# Compressibility (1/GPa) = 0.02108556
#
# Stress axis : x y z
#
# Youngs Moduli (GPa) = 134.89989 85.78866 117.11178
#
# Poissons Ratio (x) = 0.06847 0.21741
# Poissons Ratio (y) = 0.10767 0.07106
# Poissons Ratio (z) = 0.25043 0.05205
#
# Static dielectric constant tensor:
#      x y z
#    x 2.068900 -0.041650 -0.026580 
#    y -0.041650 1.990740 0.013010 
#    z -0.026580 0.013010 2.057210 
# 
# From -- ./inp_files/536405.got.cif
#   From: 2010.05.17/outbox.cif.g08.bks.cpg/sg2_269_cif.got.tgz:536405.got - 2010.06.03 11:33:40.
