data_PCOD9025372
_publ_section_title
;
Structure prediction by ZEFSAII (Michael W. Deem and Ramdas Pophale) SiO2 
 PCOD9025372
Probable space group: P -1
;
_chemical_formula_sum "Si O2"
_cell_formula_units_Z 12
_cell_length_a 13.918518
_cell_length_b 11.893107
_cell_length_c 9.557534
_cell_angle_alpha 64.347081
_cell_angle_beta 86.874296
_cell_angle_gamma 30.311398
_cell_volume 512.871957
_symmetry_space_group_name_H-M "P -1"
_symmetry_group_IT_number 2
_symmetry_cell_setting 'triclinic'
loop_
_space_group_symop_operation_xyz
x,y,z
-x,-y,-z
loop_
_atom_site_type_symbol
_atom_site_label
_atom_site_fract_x
_atom_site_fract_y
_atom_site_fract_z
Si Si1 0.194895 0.419763 0.808364
Si Si2 0.457794 0.701193 0.828351
Si Si3 0.739245 0.322700 0.747147
Si Si4 0.255840 0.203374 0.448625
Si Si5 0.910516 0.365608 0.608240
Si Si6 0.039057 0.868108 0.709334
O O1 0.167529 0.512364 0.607971
O O2 0.108818 0.639280 0.794642
O O3 0.961614 0.596868 0.745500
O O4 0.500000 0.000000 0.000000
O O5 0.502902 0.582965 0.735989
O O6 0.380883 0.937604 0.668646
O O7 0.704253 0.402874 0.073726
O O8 0.206817 0.953692 0.797102
O O9 0.718313 0.494135 0.617142
O O10 0.799448 0.177522 0.676174
O O11 0.000000 0.000000 0.000000
O O12 0.080646 0.514142 0.380565
O O13 0.500000 0.000000 0.500000
O O14 0.000000 0.000000 0.500000
#
# Coordination Sequence:
#
# PCOD9025372 Si02
#       6
#     2   2   2   2   2   2
#     4  11  23  43  71 104 142 182 229 298 359 402
#     4  10  22  42  71  96 134 191 237 277 343 435
#     4  10  22  40  68  96 138 180 240 279 347 432
#     4  11  22  42  73 100 136 192 244 281 341 435
#     4  11  21  42  71  97 135 192 237 279 349 430
#     4  11  22  42  67 104 145 176 228 299 361 401
#
# _framework density 23.397653999999999
#
# number of rings (size 3 to 8) (size 9 to 14) (size 15 to 20)
#    0.000    1.333    3.333    4.000    0.000    2.667 
#    0.000    6.667   14.667    0.000    0.000    0.000 
#    0.000    0.000    0.000    0.000    0.000    0.000 
#
# Total GULP energy -66916.080410 kJ/mol
# GULP energy per Si atom -5576.340034 kJ/mol
# Density = 2.334440 g / cm^3
# Si number density = 23.397654 Si / 1000 Ang^3
#
#
#
# Elastic Constant Matrix: (Units=GPa)
#
#
# Indices 1 2 3 4 5 6 
#
# 1 141.0679 74.5484 41.0856 -10.1625 -11.0368 24.2134
# 2 74.5484 183.6606 43.3438 3.7517 7.4130 26.6934
# 3 41.0856 43.3438 91.0541 -8.8559 11.1008 0.9692
# 4 -10.1625 3.7517 -8.8559 37.0102 -1.3344 2.4670
# 5 -11.0368 7.4130 11.1008 -1.3344 23.3930 -3.0374
# 6 24.2134 26.6934 0.9692 2.4670 -3.0374 65.1294
#
#
#
# Elastic Compliance Matrix: (Units=1/GPa)
#
#
# Indices 1 2 3 4 5 6 
#
# 1 0.011593 -0.003781 -0.004145 0.003042 0.008494 -0.002418
# 2 -0.003781 0.007874 -0.001779 -0.002274 -0.003810 -0.001886
# 3 -0.004145 -0.001779 0.014888 0.002206 -0.008125 0.001586
# 4 0.003042 -0.002274 0.002206 0.028787 0.002595 -0.001201
# 5 0.008494 -0.003810 -0.008125 0.002595 0.052077 0.000855
# 6 -0.002418 -0.001886 0.001586 -0.001201 0.000855 0.017088
#
#
# Mechanical properties :
#
#
# Convention : Reuss Voigt Hill
#
# Bulk Modulus (GPa) = 66.91231 81.52647 74.21939
# Shear Modulus (GPa) = 31.90874 42.22683 37.06779
#
# Velocity S-wave (km/s) = 3.69692 4.25284 3.98458
# Velocity P-wave (km/s) = 6.84711 7.68343 7.27729
#
# Compressibility (1/GPa) = 0.01494493
#
# Stress axis : x y z
#
# Youngs Moduli (GPa) = 86.26059 127.00596 67.16948
#
# Poissons Ratio (x) = 0.48020 0.27842
# Poissons Ratio (y) = 0.32614 0.11947
# Poissons Ratio (z) = 0.35756 0.22589
#
# Static dielectric constant tensor:
#      x y z
#    x 1.967920 0.000290 0.036710 
#    y 0.000290 2.152120 -0.148850 
#    z 0.036710 -0.148850 1.955300 
# 
# From -- ./inp_files/304979.got.cif
#   From: 2010.05.17/outbox.cif.g08.bks.cpg/sg2_153_cif.got.tgz:304979.got - 2010.06.03 11:33:40.
