data_PCOD9025970
_publ_section_title
;
Structure prediction by ZEFSAII (Michael W. Deem and Ramdas Pophale) SiO2 
 PCOD9025970
Probable space group: P -1
;
_chemical_formula_sum "Si O2"
_cell_formula_units_Z 16
_cell_length_a 13.222503
_cell_length_b 16.395748
_cell_length_c 6.984444
_cell_angle_alpha 128.576783
_cell_angle_beta 94.451378
_cell_angle_gamma 48.364101
_cell_volume 723.064123
_symmetry_space_group_name_H-M "P -1"
_symmetry_group_IT_number 2
_symmetry_cell_setting 'triclinic'
loop_
_space_group_symop_operation_xyz
x,y,z
-x,-y,-z
loop_
_atom_site_type_symbol
_atom_site_label
_atom_site_fract_x
_atom_site_fract_y
_atom_site_fract_z
Si Si1 0.910118 0.339965 0.811994
Si Si2 0.106362 0.870267 0.604144
Si Si3 0.561925 0.170899 0.963869
Si Si4 0.749026 0.232381 0.129909
Si Si5 0.488021 0.896723 0.748977
Si Si6 0.649634 0.409591 0.026820
Si Si7 0.271164 0.339725 0.913477
Si Si8 0.768517 0.861896 0.258525
O O1 0.958342 0.197069 0.492132
O O2 0.731552 0.451209 0.032904
O O3 0.045066 0.249770 0.861306
O O4 0.888811 0.460850 0.862418
O O5 0.206168 0.791504 0.305984
O O6 0.242991 0.770803 0.644036
O O7 0.948535 0.071858 0.888043
O O8 0.663297 0.194661 0.001846
O O9 0.394110 0.307803 0.016374
O O10 0.669556 0.992717 0.615198
O O11 0.523509 0.174375 0.182566
O O12 0.650421 0.399988 0.241076
O O13 0.636959 0.759376 0.419209
O O14 0.324899 0.026799 0.782679
O O15 0.500000 0.000000 0.000000
O O16 0.500000 0.500000 0.000000
O O17 0.240082 0.255656 0.890738
#
# Coordination Sequence:
#
# PCOD9025970 Si02
#       8
#     2   2   2   2   2   2   2   2
#     4  10  23  43  57  92 127 163 197 249 311 359
#     4   9  23  40  61  88 122 158 211 250 289 364
#     4  11  21  38  65  93 118 159 206 249 299 358
#     4  11  21  40  67  88 118 167 205 249 302 351
#     4  11  21  40  64  92 121 155 211 249 294 362
#     4  10  22  41  60  87 131 154 202 254 302 358
#     4  11  22  40  63  87 128 161 196 250 310 356
#     4  11  21  40  66  88 123 162 199 253 300 366
#
# _framework density 22.128050999999999
#
# number of rings (size 3 to 8) (size 9 to 14) (size 15 to 20)
#    0.750    0.750    3.750    2.250    0.000    5.500 
#    2.250    0.625    0.000    0.000    0.000    0.000 
#    0.000    0.000    0.000    0.000    0.000    0.000 
#
# Total GULP energy -89285.538185 kJ/mol
# GULP energy per Si atom -5580.346137 kJ/mol
# Density = 2.207769 g / cm^3
# Si number density = 22.128051 Si / 1000 Ang^3
#
#
#
# Elastic Constant Matrix: (Units=GPa)
#
#
# Indices 1 2 3 4 5 6 
#
# 1 45.9649 0.9784 1.5706 -7.1730 12.2558 -15.3709
# 2 0.9784 91.1383 21.1109 -20.1201 8.8565 -12.0339
# 3 1.5706 21.1109 46.4830 -17.1052 -2.6066 -4.1034
# 4 -7.1730 -20.1201 -17.1052 32.1949 -1.8314 0.3167
# 5 12.2558 8.8565 -2.6066 -1.8314 25.3721 -9.5815
# 6 -15.3709 -12.0339 -4.1034 0.3167 -9.5815 40.6578
#
#
#
# Elastic Compliance Matrix: (Units=1/GPa)
#
#
# Indices 1 2 3 4 5 6 
#
# 1 0.029104 0.003733 0.000639 0.008432 -0.011104 0.009490
# 2 0.003733 0.014531 -0.003901 0.007505 -0.005212 0.004032
# 3 0.000639 -0.003901 0.028819 0.013338 0.006247 0.003364
# 4 0.008432 0.007505 0.013338 0.044672 0.000353 0.006490
# 5 -0.011104 -0.005212 0.006247 0.000353 0.049761 0.006614
# 6 0.009490 0.004032 0.003364 0.006490 0.006614 0.031224
#
#
# Mechanical properties :
#
#
# Convention : Reuss Voigt Hill
#
# Bulk Modulus (GPa) = 13.62439 25.65623 19.64031
# Shear Modulus (GPa) = 22.55964 30.30673 26.43319
#
# Velocity S-wave (km/s) = 3.19643 3.70483 3.45998
# Velocity P-wave (km/s) = 4.44897 5.46998 4.98568
#
# Compressibility (1/GPa) = 0.07339776
#
# Stress axis : x y z
#
# Youngs Moduli (GPa) = 34.35910 68.81682 34.69963
#
# Poissons Ratio (x) = -0.25690 -0.02218
# Poissons Ratio (y) = -0.12826 0.13535
# Poissons Ratio (z) = -0.02196 0.26842
#
# Static dielectric constant tensor:
#      x y z
#    x 1.794820 -0.000660 -0.017770 
#    y -0.000660 1.804270 0.029470 
#    z -0.017770 0.029470 1.841840 
# 
# From -- ./inp_files/99443.got.cif
#   From: 2010.05.17/outbox.cif.g08.bks.cpg/sg2_50_cif.got.tgz:99443.got - 2010.06.03 11:33:40.
