data_PCOD9025769
_publ_section_title
;
Structure prediction by ZEFSAII (Michael W. Deem and Ramdas Pophale) SiO2 
 PCOD9025769
Probable space group: P -1
;
_chemical_formula_sum "Si O2"
_cell_formula_units_Z 13
_cell_length_a 9.830389
_cell_length_b 11.610426
_cell_length_c 10.929500
_cell_angle_alpha 47.613978
_cell_angle_beta 129.635662
_cell_angle_gamma 133.427497
_cell_volume 632.759165
_symmetry_space_group_name_H-M "P -1"
_symmetry_group_IT_number 2
_symmetry_cell_setting 'triclinic'
loop_
_space_group_symop_operation_xyz
x,y,z
-x,-y,-z
loop_
_atom_site_type_symbol
_atom_site_label
_atom_site_fract_x
_atom_site_fract_y
_atom_site_fract_z
Si Si1 0.887165 0.807974 0.179269
Si Si2 0.546571 0.701650 0.882198
Si Si3 0.794267 0.204536 0.787207
Si Si4 0.084506 0.704697 0.928644
Si Si5 0.350700 0.904064 0.715115
Si Si6 0.847148 0.906642 0.691316
Si Si7 0.000000 0.500000 0.500000
O O1 0.050655 0.863502 0.124084
O O2 0.888559 0.627327 0.349142
O O3 0.677768 0.771775 0.029617
O O4 0.967693 0.943310 0.238616
O O5 0.364112 0.749858 0.751734
O O6 0.676604 0.802211 0.768030
O O7 0.500000 0.500000 0.000000
O O8 0.849651 0.369778 0.612883
O O9 0.571968 0.058916 0.743412
O O10 0.839501 0.258365 0.915007
O O11 0.254846 0.817014 0.850068
O O12 0.916857 0.771413 0.771892
O O13 0.000000 0.500000 0.000000
O O14 0.227329 0.990553 0.517075
#
# Coordination Sequence:
#
# PCOD9025769 Si02
#       7
#     2   2   2   2   2   2   1
#     4  10  22  40  71  96 136 172 220 275 349 380
#     4  12  24  39  69 104 134 172 229 282 330 395
#     4  10  22  44  70  97 138 175 228 272 348 390
#     4  12  27  48  67  95 141 188 220 273 351 410
#     4  12  27  42  68 106 135 177 231 277 334 411
#     4  12  24  45  70  98 137 176 229 277 342 398
#     4   8  20  38  70 104 124 170 224 286 328 382
#
# _framework density 20.544941999999999
#
# number of rings (size 3 to 8) (size 9 to 14) (size 15 to 20)
#    0.923    0.000    3.077    3.692    6.462    0.000 
#    0.000    0.769    0.000    0.000    0.000    0.000 
#    0.000    0.000    0.000    0.000    0.000    0.000 
#
# Total GULP energy -72380.371463 kJ/mol
# GULP energy per Si atom -5567.720882 kJ/mol
# Density = 2.049818 g / cm^3
# Si number density = 20.544942 Si / 1000 Ang^3
#
#
#
# Elastic Constant Matrix: (Units=GPa)
#
#
# Indices 1 2 3 4 5 6 
#
# 1 109.0539 23.1453 49.0963 -24.3904 -7.3882 2.1134
# 2 23.1453 79.0500 66.3242 -14.1901 -9.1036 -9.3808
# 3 49.0963 66.3242 147.6780 -37.6746 -1.2242 4.0332
# 4 -24.3904 -14.1901 -37.6746 33.6661 5.5201 1.8135
# 5 -7.3882 -9.1036 -1.2242 5.5201 42.5774 -14.5253
# 6 2.1134 -9.3808 4.0332 1.8135 -14.5253 26.8486
#
#
#
# Elastic Compliance Matrix: (Units=1/GPa)
#
#
# Indices 1 2 3 4 5 6 
#
# 1 0.011588 -0.000596 -0.002106 0.005690 0.000834 -0.000737
# 2 -0.000596 0.027516 -0.014773 -0.008575 0.013143 0.019570
# 3 -0.002106 -0.014773 0.018236 0.015004 -0.009724 -0.014009
# 4 0.005690 -0.008575 0.015004 0.049852 -0.012227 -0.015680
# 5 0.000834 0.013143 -0.009724 -0.012227 0.036878 0.026764
# 6 -0.000737 0.019570 -0.014009 -0.015680 0.026764 0.061785
#
#
# Mechanical properties :
#
#
# Convention : Reuss Voigt Hill
#
# Bulk Modulus (GPa) = 44.66207 68.10149 56.38178
# Shear Modulus (GPa) = 20.13967 33.76615 26.95291
#
# Velocity S-wave (km/s) = 3.13433 4.05844 3.62595
# Velocity P-wave (km/s) = 5.90632 7.42838 6.71064
#
# Compressibility (1/GPa) = 0.02239036
#
# Stress axis : x y z
#
# Youngs Moduli (GPa) = 86.29761 36.34277 54.83659
#
# Poissons Ratio (x) = 0.02165 0.11550
# Poissons Ratio (y) = 0.05142 0.81008
# Poissons Ratio (z) = 0.18176 0.53688
#
# Static dielectric constant tensor:
#      x y z
#    x 1.729480 -0.012100 0.032680 
#    y -0.012100 1.779770 0.001650 
#    z 0.032680 0.001650 1.753170 
# 
# From -- ./inp_files/383972.got.cif
#   From: 2010.05.17/outbox.cif.g08.bks.cpg/sg2_192_cif.got.tgz:383972.got - 2010.06.03 11:33:40.
