data_PCOD9025067
_publ_section_title
;
Structure prediction by ZEFSAII (Michael W. Deem and Ramdas Pophale) SiO2 
 PCOD9025067
Probable space group: P -1
;
_chemical_formula_sum "Si O2"
_cell_formula_units_Z 14
_cell_length_a 17.030304
_cell_length_b 9.715930
_cell_length_c 9.772322
_cell_angle_alpha 29.389623
_cell_angle_beta 121.328565
_cell_angle_gamma 107.667413
_cell_volume 633.234453
_symmetry_space_group_name_H-M "P -1"
_symmetry_group_IT_number 2
_symmetry_cell_setting 'triclinic'
loop_
_space_group_symop_operation_xyz
x,y,z
-x,-y,-z
loop_
_atom_site_type_symbol
_atom_site_label
_atom_site_fract_x
_atom_site_fract_y
_atom_site_fract_z
Si Si1 0.158856 0.536867 0.904947
Si Si2 0.468501 0.009502 0.806686
Si Si3 0.412219 0.234802 0.128554
Si Si4 0.632397 0.416102 0.951765
Si Si5 0.042392 0.192349 0.222633
Si Si6 0.087313 0.906533 0.047829
Si Si7 0.806219 0.637720 0.218764
O O1 0.149184 0.522769 0.744444
O O2 0.086275 0.859694 0.613315
O O3 0.266332 0.539139 0.027959
O O4 0.133798 0.252751 0.178819
O O5 0.445222 0.328762 0.434220
O O6 0.547136 0.773403 0.980621
O O7 0.500000 0.000000 0.000000
O O8 0.375733 0.900618 0.813372
O O9 0.385491 0.524107 0.952810
O O10 0.500000 0.000000 0.500000
O O11 0.309112 0.179684 0.070549
O O12 0.000000 0.500000 0.000000
O O13 0.959964 0.179478 0.053413
O O14 0.177317 0.624026 0.430481
O O15 0.129876 0.169755 0.840907
O O16 0.000000 0.000000 0.000000
#
# Coordination Sequence:
#
# PCOD9025067 Si02
#       7
#     2   2   2   2   2   2   2
#     4  11  21  41  65  89 122 162 221 252 306 382
#     4  11  22  41  62  93 132 163 200 261 330 375
#     4   9  22  42  68  95 129 165 218 262 310 383
#     4  10  22  40  67  90 119 170 214 258 307 381
#     4  12  25  41  61  90 128 169 204 257 321 379
#     4  12  22  41  66  91 131 159 213 265 316 368
#     4  11  22  39  68  99 117 168 215 266 312 364
#
# _framework density 22.108715
#
# number of rings (size 3 to 8) (size 9 to 14) (size 15 to 20)
#    0.000    1.143    2.857    3.429    0.000    8.000 
#    7.714    0.000    0.000    0.000    0.000    0.000 
#    0.000    0.000    0.000    0.000    0.000    0.000 
#
# Total GULP energy -78175.022480 kJ/mol
# GULP energy per Si atom -5583.930177 kJ/mol
# Density = 2.205840 g / cm^3
# Si number density = 22.108715 Si / 1000 Ang^3
#
#
#
# Elastic Constant Matrix: (Units=GPa)
#
#
# Indices 1 2 3 4 5 6 
#
# 1 59.9466 39.0677 12.6095 4.8642 5.4430 8.2258
# 2 39.0677 151.1547 18.2139 2.8419 1.9959 2.2690
# 3 12.6095 18.2139 74.9508 -7.0515 -5.2218 -3.4529
# 4 4.8642 2.8419 -7.0515 31.2529 8.2013 -10.9014
# 5 5.4430 1.9959 -5.2218 8.2013 33.3364 -0.1692
# 6 8.2258 2.2690 -3.4529 -10.9014 -0.1692 31.3329
#
#
#
# Elastic Compliance Matrix: (Units=1/GPa)
#
#
# Indices 1 2 3 4 5 6 
#
# 1 0.022633 -0.005138 -0.003676 -0.006047 -0.002517 -0.008092
# 2 -0.005138 0.008058 -0.001049 0.000007 0.000194 0.000653
# 3 -0.003676 -0.001049 0.015032 0.005166 0.001770 0.004505
# 4 -0.006047 0.000007 0.005166 0.042189 -0.008498 0.016789
# 5 -0.002517 0.000194 0.001770 -0.008498 0.032755 -0.001938
# 6 -0.008092 0.000653 0.004505 0.016789 -0.001938 0.040320
#
#
# Mechanical properties :
#
#
# Convention : Reuss Voigt Hill
#
# Bulk Modulus (GPa) = 38.46820 47.31493 42.89157
# Shear Modulus (GPa) = 26.40191 33.59517 29.99854
#
# Velocity S-wave (km/s) = 3.45945 3.90236 3.68756
# Velocity P-wave (km/s) = 5.77879 6.46158 6.12970
#
# Compressibility (1/GPa) = 0.02599550
#
# Stress axis : x y z
#
# Youngs Moduli (GPa) = 44.18302 124.10389 66.52288
#
# Poissons Ratio (x) = 0.63770 0.24455
# Poissons Ratio (y) = 0.22703 0.06981
# Poissons Ratio (z) = 0.16242 0.13023
#
# Static dielectric constant tensor:
#      x y z
#    x 1.878540 -0.026210 0.018570 
#    y -0.026210 1.759500 -0.001100 
#    z 0.018570 -0.001100 1.835450 
# 
# From -- ./inp_files/38407.got.cif
#   From: 2010.05.17/outbox.cif.g08.bks.cpg/sg2_20_cif.got.tgz:38407.got - 2010.06.03 11:33:40.
