data_PCOD9025945
_publ_section_title
;
Structure prediction by ZEFSAII (Michael W. Deem and Ramdas Pophale) SiO2 
 PCOD9025945
Probable space group: P -1
;
_chemical_formula_sum "Si O2"
_cell_formula_units_Z 13
_cell_length_a 15.873979
_cell_length_b 11.965785
_cell_length_c 8.971886
_cell_angle_alpha 139.067280
_cell_angle_beta 138.628964
_cell_angle_gamma 25.759250
_cell_volume 470.319828
_symmetry_space_group_name_H-M "P -1"
_symmetry_group_IT_number 2
_symmetry_cell_setting 'triclinic'
loop_
_space_group_symop_operation_xyz
x,y,z
-x,-y,-z
loop_
_atom_site_type_symbol
_atom_site_label
_atom_site_fract_x
_atom_site_fract_y
_atom_site_fract_z
Si Si1 0.131523 0.956469 0.292930
Si Si2 0.796805 0.917581 0.192702
Si Si3 0.832846 0.419233 0.857819
Si Si4 0.584012 0.478048 0.351681
Si Si5 0.500000 0.000000 0.500000
Si Si6 0.431637 0.121040 0.806498
Si Si7 0.256901 0.498693 0.693308
O O1 0.154918 0.082467 0.574526
O O2 0.087794 0.832805 0.207763
O O3 0.346723 0.700955 0.250915
O O4 0.941741 0.222506 0.217351
O O5 0.682536 0.202000 0.263097
O O6 0.632559 0.939770 0.980367
O O7 0.995457 0.691058 0.132833
O O8 0.649261 0.542208 0.634001
O O9 0.750108 0.628631 0.086290
O O10 0.679355 0.434044 0.278007
O O11 0.584139 0.015167 0.466948
O O12 0.738338 0.697641 0.564208
O O13 0.441171 0.242046 0.789268
#
# Coordination Sequence:
#
# PCOD9025945 Si02
#       7
#     2   2   2   2   1   2   2
#     4  11  19  35  62  94 122 146 183 238 302 348
#     4  11  19  35  62  94 122 146 183 238 302 348
#     4  11  19  35  62  94 122 146 183 238 302 348
#     4  11  19  35  62  94 122 146 183 238 302 348
#     4   8  24  48  54  72 128 158 190 254 286 300
#     4  10  22  41  59  80 125 152 191 244 284 343
#     4  10  22  41  59  80 125 152 191 244 284 343
#
# _framework density 27.640765999999999
#
# number of rings (size 3 to 8) (size 9 to 14) (size 15 to 20)
#    0.923    0.615    6.154    1.846    0.000    2.462 
#    0.000    4.615    0.000    0.000    0.000    0.000 
#    0.000    0.000    0.000    0.000    0.000    0.000 
#
# Total GULP energy -72502.166733 kJ/mol
# GULP energy per Si atom -5577.089749 kJ/mol
# Density = 2.757785 g / cm^3
# Si number density = 27.640766 Si / 1000 Ang^3
#
#
#
# Elastic Constant Matrix: (Units=GPa)
#
#
# Indices 1 2 3 4 5 6 
#
# 1 84.1133 55.0859 20.9921 0.2445 -3.0178 7.6515
# 2 55.0859 203.9081 21.6840 16.0225 -2.8889 -18.0609
# 3 20.9921 21.6840 95.9473 7.5232 -17.3129 -7.3574
# 4 0.2445 16.0225 7.5232 41.5745 -1.0699 -15.5404
# 5 -3.0178 -2.8889 -17.3129 -1.0699 39.7680 10.3122
# 6 7.6515 -18.0609 -7.3574 -15.5404 10.3122 59.7626
#
#
#
# Elastic Compliance Matrix: (Units=1/GPa)
#
#
# Indices 1 2 3 4 5 6 
#
# 1 0.015742 -0.004334 -0.002678 0.000743 0.000661 -0.003576
# 2 -0.004334 0.006416 -0.000320 -0.001605 -0.000600 0.002141
# 3 -0.002678 -0.000320 0.012136 -0.001768 0.004896 0.000435
# 4 0.000743 -0.001605 -0.001768 0.027425 -0.001816 0.006647
# 5 0.000661 -0.000600 0.004896 -0.001816 0.028548 -0.005061
# 6 -0.003576 0.002141 0.000435 0.006647 -0.005061 0.020493
#
#
# Mechanical properties :
#
#
# Convention : Reuss Voigt Hill
#
# Bulk Modulus (GPa) = 50.94043 64.38810 57.66426
# Shear Modulus (GPa) = 37.88810 47.30148 42.59479
#
# Velocity S-wave (km/s) = 3.70636 4.14127 3.92983
# Velocity P-wave (km/s) = 6.06511 6.79794 6.44195
#
# Compressibility (1/GPa) = 0.01963077
#
# Stress axis : x y z
#
# Youngs Moduli (GPa) = 63.52432 155.85656 82.39794
#
# Poissons Ratio (x) = 0.67543 0.22065
# Poissons Ratio (y) = 0.27529 0.02639
# Poissons Ratio (z) = 0.17011 0.04992
#
# Static dielectric constant tensor:
#      x y z
#    x 2.234750 0.031990 0.027670 
#    y 0.031990 2.186590 0.054600 
#    z 0.027670 0.054600 2.205480 
# 
# From -- ./inp_files/192202.got.cif
#   From: 2010.05.17/outbox.cif.g08.bks.cpg/sg2_97_cif.got.tgz:192202.got - 2010.06.03 11:33:40.
