data_PCOD9025749
_publ_section_title
;
Structure prediction by ZEFSAII (Michael W. Deem and Ramdas Pophale) SiO2 
 PCOD9025749
Probable space group: P -1
;
_chemical_formula_sum "Si O2"
_cell_formula_units_Z 16
_cell_length_a 13.793382
_cell_length_b 5.851606
_cell_length_c 8.869334
_cell_angle_alpha 73.965913
_cell_angle_beta 99.613145
_cell_angle_gamma 78.145483
_cell_volume 654.024805
_symmetry_space_group_name_H-M "P -1"
_symmetry_group_IT_number 2
_symmetry_cell_setting 'triclinic'
loop_
_space_group_symop_operation_xyz
x,y,z
-x,-y,-z
loop_
_atom_site_type_symbol
_atom_site_label
_atom_site_fract_x
_atom_site_fract_y
_atom_site_fract_z
Si Si1 0.985048 0.785192 0.820656
Si Si2 0.944410 0.298653 0.452484
Si Si3 0.739887 0.920086 0.015976
Si Si4 0.721570 0.526153 0.321544
Si Si5 0.407829 0.095187 0.575047
Si Si6 0.239232 0.271012 0.268126
Si Si7 0.882369 0.219902 0.871767
Si Si8 0.597473 0.287010 0.106337
O O1 0.874450 0.760024 0.752442
O O2 0.060669 0.648427 0.738688
O O3 0.954170 0.085363 0.779590
O O4 0.043326 0.697502 0.007299
O O5 0.825409 0.367607 0.453171
O O6 0.000000 0.500000 0.500000
O O7 0.000000 0.000000 0.500000
O O8 0.749026 0.752347 0.197617
O O9 0.647595 0.151715 0.993468
O O10 0.719566 0.792417 0.878947
O O11 0.837570 0.019306 0.984219
O O12 0.630616 0.640506 0.396355
O O13 0.679879 0.382253 0.206489
O O14 0.308708 0.109349 0.442179
O O15 0.500000 0.000000 0.500000
O O16 0.431207 0.905087 0.752665
O O17 0.215244 0.563004 0.234091
O O18 0.500000 0.500000 0.000000
#
# Coordination Sequence:
#
# PCOD9025749 Si02
#       8
#     2   2   2   2   2   2   2   2
#     4  10  23  40  67 105 149 188 256 294 377 448
#     4  12  29  45  77 110 159 211 254 314 391 472
#     4  10  23  42  73 103 143 189 251 303 380 455
#     4  11  27  49  74 105 153 195 254 315 385 474
#     4  11  29  47  74 108 146 186 254 320 401 453
#     4  11  23  42  70 103 149 189 243 313 378 448
#     4  10  22  40  71 106 143 196 239 312 366 460
#     4  11  27  48  76 103 142 196 255 318 395 465
#
# _framework density 24.463906000000001
#
# number of rings (size 3 to 8) (size 9 to 14) (size 15 to 20)
#    0.000    1.250    0.000    3.375   15.750    3.500 
#    0.000    0.000    0.000    0.000    0.000    0.000 
#    0.000    0.000    0.000    0.000    0.000    0.000 
#
# Total GULP energy -89315.349309 kJ/mol
# GULP energy per Si atom -5582.209332 kJ/mol
# Density = 2.440822 g / cm^3
# Si number density = 24.463906 Si / 1000 Ang^3
#
#
#
# Elastic Constant Matrix: (Units=GPa)
#
#
# Indices 1 2 3 4 5 6 
#
# 1 44.6686 29.6028 -0.3551 4.7261 -3.2294 -31.1252
# 2 29.6028 130.5652 36.3288 16.9931 -4.6580 -41.8518
# 3 -0.3551 36.3288 77.8048 16.0412 10.3338 -27.5565
# 4 4.7261 16.9931 16.0412 48.5431 -20.2565 -3.2705
# 5 -3.2294 -4.6580 10.3338 -20.2565 41.3795 1.5220
# 6 -31.1252 -41.8518 -27.5565 -3.2705 1.5220 53.7534
#
#
#
# Elastic Compliance Matrix: (Units=1/GPa)
#
#
# Indices 1 2 3 4 5 6 
#
# 1 0.049061 -0.004087 0.016816 -0.009436 -0.006681 0.033462
# 2 -0.004087 0.011237 -0.003397 -0.001797 0.000749 0.004511
# 3 0.016816 -0.003397 0.025922 -0.012931 -0.012608 0.019952
# 4 -0.009436 -0.001797 -0.012931 0.033621 0.019190 -0.011990
# 5 -0.006681 0.000749 -0.012608 0.019190 0.036626 -0.009618
# 6 0.033462 0.004511 0.019952 -0.011990 -0.009618 0.051262
#
#
# Mechanical properties :
#
#
# Convention : Reuss Voigt Hill
#
# Bulk Modulus (GPa) = 9.53414 42.68795 26.11104
# Shear Modulus (GPa) = 22.31878 41.23268 31.77573
#
# Velocity S-wave (km/s) = 3.02373 4.10988 3.60791
# Velocity P-wave (km/s) = 4.01202 6.32524 5.29646
#
# Compressibility (1/GPa) = 0.10488628
#
# Stress axis : x y z
#
# Youngs Moduli (GPa) = 20.38280 88.98953 38.57666
#
# Poissons Ratio (x) = 0.36367 -0.64872
# Poissons Ratio (y) = 0.08330 0.13104
# Poissons Ratio (z) = -0.34276 0.30228
#
# Static dielectric constant tensor:
#      x y z
#    x 1.976130 0.043130 -0.082900 
#    y 0.043130 2.084220 -0.032130 
#    z -0.082900 -0.032130 1.997010 
# 
# From -- ./inp_files/288668.got.cif
#   From: 2010.05.17/outbox.cif.g08.bks.cpg/sg2_145_cif.got.tgz:288668.got - 2010.06.03 11:33:40.
