data_PCOD9025085
_publ_section_title
;
Structure prediction by ZEFSAII (Michael W. Deem and Ramdas Pophale) SiO2 
 PCOD9025085
Probable space group: P -1
;
_chemical_formula_sum "Si O2"
_cell_formula_units_Z 16
_cell_length_a 15.152652
_cell_length_b 8.847992
_cell_length_c 11.516823
_cell_angle_alpha 100.149890
_cell_angle_beta 42.217381
_cell_angle_gamma 69.275224
_cell_volume 695.437674
_symmetry_space_group_name_H-M "P -1"
_symmetry_group_IT_number 2
_symmetry_cell_setting 'triclinic'
loop_
_space_group_symop_operation_xyz
x,y,z
-x,-y,-z
loop_
_atom_site_type_symbol
_atom_site_label
_atom_site_fract_x
_atom_site_fract_y
_atom_site_fract_z
Si Si1 0.932952 0.604106 0.710776
Si Si2 0.516589 0.082236 0.108532
Si Si3 0.160972 0.008166 0.769337
Si Si4 0.567453 0.649042 0.454205
Si Si5 0.998274 0.146059 0.196652
Si Si6 0.280473 0.456243 0.943277
Si Si7 0.637622 0.913855 0.530041
Si Si8 0.398622 0.682978 0.855525
O O1 0.042513 0.655905 0.673035
O O2 0.000000 0.500000 0.500000
O O3 0.890017 0.490026 0.818187
O O4 0.719113 0.858552 0.936933
O O5 0.523966 0.258913 0.120239
O O6 0.348038 0.164659 0.366327
O O7 0.500000 0.000000 0.000000
O O8 0.362975 0.804962 0.610955
O O9 0.182003 0.150457 0.702615
O O10 0.129037 0.900453 0.691926
O O11 0.021504 0.148888 0.035073
O O12 0.730481 0.483845 0.174868
O O13 0.544085 0.577267 0.588290
O O14 0.586373 0.810182 0.490974
O O15 0.196815 0.916664 0.030352
O O16 0.460509 0.184940 0.735674
O O17 0.353473 0.556244 0.936490
#
# Coordination Sequence:
#
# PCOD9025085 Si02
#       8
#     2   2   2   2   2   2   2   2
#     4  10  21  39  54  72 104 147 181 208 260 312
#     4   9  19  39  55  72 101 139 176 220 258 305
#     4   9  15  29  54  81  98 130 176 207 253 311
#     4   9  16  30  56  79 105 134 164 210 265 317
#     4   9  18  33  53  72 109 140 165 211 261 316
#     4  10  17  31  54  78  99 131 174 212 251 309
#     4   9  17  31  55  79  99 136 175 206 262 311
#     4   9  18  32  52  80 104 131 167 214 269 303
#
# _framework density 23.007093999999999
#
# number of rings (size 3 to 8) (size 9 to 14) (size 15 to 20)
#    0.000    2.750    0.000    4.875    0.000    0.000 
#    9.000    2.500    2.750   14.250    0.000    0.000 
#    0.000    0.000    0.000    0.000    0.000    0.000 
#
# Total GULP energy -89145.979936 kJ/mol
# GULP energy per Si atom -5571.623746 kJ/mol
# Density = 2.295473 g / cm^3
# Si number density = 23.007094 Si / 1000 Ang^3
#
#
#
# Elastic Constant Matrix: (Units=GPa)
#
#
# Indices 1 2 3 4 5 6 
#
# 1 122.2911 50.4694 18.8618 -10.9205 13.8066 48.7151
# 2 50.4694 137.4833 31.6105 -16.5014 6.8209 55.3367
# 3 18.8618 31.6105 63.7768 -10.9805 2.6086 22.5136
# 4 -10.9205 -16.5014 -10.9805 22.9980 4.7943 -14.9174
# 5 13.8066 6.8209 2.6086 4.7943 32.8407 8.8838
# 6 48.7151 55.3367 22.5136 -14.9174 8.8838 49.0508
#
#
#
# Elastic Compliance Matrix: (Units=1/GPa)
#
#
# Indices 1 2 3 4 5 6 
#
# 1 0.013823 0.000718 0.000612 -0.002147 -0.001588 -0.015184
# 2 0.000718 0.013570 -0.001594 -0.001371 0.001530 -0.015984
# 3 0.000612 -0.001594 0.019264 0.004377 -0.000406 -0.006246
# 4 -0.002147 -0.001371 0.004377 0.061447 -0.014340 0.022954
# 5 -0.001588 0.001530 -0.000406 -0.014340 0.035852 -0.010818
# 6 -0.015184 -0.015984 -0.006246 0.022954 -0.010818 0.065306
#
#
# Mechanical properties :
#
#
# Convention : Reuss Voigt Hill
#
# Bulk Modulus (GPa) = 21.67946 58.38163 40.03055
# Shear Modulus (GPa) = 22.20570 35.81854 29.01212
#
# Velocity S-wave (km/s) = 3.11008 3.94997 3.55492
# Velocity P-wave (km/s) = 4.72655 6.79953 5.85550
#
# Compressibility (1/GPa) = 0.04612661
#
# Stress axis : x y z
#
# Youngs Moduli (GPa) = 72.34407 73.69382 51.90992
#
# Poissons Ratio (x) = -0.05289 -0.03174
# Poissons Ratio (y) = -0.05192 0.08276
# Poissons Ratio (z) = -0.04424 0.11748
#
# Static dielectric constant tensor:
#      x y z
#    x 1.902950 -0.019320 -0.011630 
#    y -0.019320 1.909890 0.004680 
#    z -0.011630 0.004680 1.953740 
# 
# From -- ./inp_files/189193.got.cif
#   From: 2010.05.17/outbox.cif.g08.bks.cpg/sg2_95_cif.got.tgz:189193.got - 2010.06.03 11:33:40.
