data_PCOD9025547
_publ_section_title
;
Structure prediction by ZEFSAII (Michael W. Deem and Ramdas Pophale) SiO2 
 PCOD9025547
Probable space group: P -1
;
_chemical_formula_sum "Si O2"
_cell_formula_units_Z 12
_cell_length_a 9.787387
_cell_length_b 8.300004
_cell_length_c 10.330227
_cell_angle_alpha 118.511179
_cell_angle_beta 66.801783
_cell_angle_gamma 68.189307
_cell_volume 488.764360
_symmetry_space_group_name_H-M "P -1"
_symmetry_group_IT_number 2
_symmetry_cell_setting 'triclinic'
loop_
_space_group_symop_operation_xyz
x,y,z
-x,-y,-z
loop_
_atom_site_type_symbol
_atom_site_label
_atom_site_fract_x
_atom_site_fract_y
_atom_site_fract_z
Si Si1 0.470474 0.035517 0.806354
Si Si2 0.774747 0.846882 0.838983
Si Si3 0.055215 0.700081 0.469402
Si Si4 0.830297 0.007258 0.430528
Si Si5 0.157866 0.538263 0.957618
Si Si6 0.568403 0.627466 0.446966
O O1 0.356769 0.282911 0.857669
O O2 0.590153 0.031236 0.876919
O O3 0.605812 0.766772 0.581604
O O4 0.294989 0.062113 0.955049
O O5 0.830734 0.584786 0.707186
O O6 0.966631 0.782694 0.679113
O O7 0.874607 0.864065 0.492355
O O8 0.189797 0.765300 0.430758
O O9 0.632274 0.133622 0.468100
O O10 0.034167 0.792242 0.186323
O O11 0.242880 0.542715 0.791068
O O12 0.000000 0.500000 0.000000
O O13 0.500000 0.500000 0.500000
#
# Coordination Sequence:
#
# PCOD9025547 Si02
#       6
#     2   2   2   2   2   2
#     4  11  23  42  66 100 133 178 226 274 334 405
#     4  10  22  40  69  96 134 177 225 271 336 398
#     4  10  22  42  67  97 134 177 222 277 332 405
#     4  11  24  45  67 101 135 175 226 278 340 395
#     4  12  26  45  72  99 135 184 226 273 341 407
#     4  12  28  45  69 101 138 175 228 289 335 392
#
# _framework density 24.551708999999999
#
# number of rings (size 3 to 8) (size 9 to 14) (size 15 to 20)
#    0.000    1.000    3.333    2.500    4.667    2.000 
#    0.000    2.500    0.000    0.000    0.000    0.000 
#    0.000    0.000    0.000    0.000    0.000    0.000 
#
# Total GULP energy -67098.343842 kJ/mol
# GULP energy per Si atom -5591.528654 kJ/mol
# Density = 2.449583 g / cm^3
# Si number density = 24.551709 Si / 1000 Ang^3
#
#
#
# Elastic Constant Matrix: (Units=GPa)
#
#
# Indices 1 2 3 4 5 6 
#
# 1 46.8309 23.7755 -10.3648 0.0958 0.8781 11.8393
# 2 23.7755 94.9080 27.7549 -7.4517 -10.9615 0.6822
# 3 -10.3648 27.7549 125.2344 -35.4321 -18.5995 24.8900
# 4 0.0958 -7.4517 -35.4321 41.1702 6.7870 0.0188
# 5 0.8781 -10.9615 -18.5995 6.7870 31.7023 0.3217
# 6 11.8393 0.6822 24.8900 0.0188 0.3217 36.0407
#
#
#
# Elastic Compliance Matrix: (Units=1/GPa)
#
#
# Indices 1 2 3 4 5 6 
#
# 1 0.034154 -0.011058 0.011173 0.007482 0.000374 -0.018734
# 2 -0.011058 0.015134 -0.006302 -0.003061 0.002419 0.007678
# 3 0.011173 -0.006302 0.018164 0.013579 0.005425 -0.016151
# 4 0.007482 -0.003061 0.013579 0.035539 -0.000788 -0.011789
# 5 0.000374 0.002419 0.005425 -0.000788 0.035764 -0.004234
# 6 -0.018734 0.007678 -0.016151 -0.011789 -0.004234 0.044953
#
#
# Mechanical properties :
#
#
# Convention : Reuss Voigt Hill
#
# Bulk Modulus (GPa) = 18.15629 38.81162 28.48396
# Shear Modulus (GPa) = 23.31643 36.83647 30.07645
#
# Velocity S-wave (km/s) = 3.08504 3.87765 3.50383
# Velocity P-wave (km/s) = 4.48343 5.99088 5.29112
#
# Compressibility (1/GPa) = 0.05507734
#
# Stress axis : x y z
#
# Youngs Moduli (GPa) = 29.27894 66.07839 55.05458
#
# Poissons Ratio (x) = 0.73071 -0.61513
# Poissons Ratio (y) = 0.32377 0.34696
# Poissons Ratio (z) = -0.32714 0.41643
#
# Static dielectric constant tensor:
#      x y z
#    x 2.011940 -0.026450 -0.052910 
#    y -0.026450 1.931740 -0.072060 
#    z -0.052910 -0.072060 1.989230 
# 
# From -- ./inp_files/237490.got.cif
#   From: 2010.05.17/outbox.cif.g08.bks.cpg/sg2_119_cif.got.tgz:237490.got - 2010.06.03 11:33:40.
