data_PCOD9025707
_publ_section_title
;
Structure prediction by ZEFSAII (Michael W. Deem and Ramdas Pophale) SiO2 
 PCOD9025707
Probable space group: P -1
;
_chemical_formula_sum "Si O2"
_cell_formula_units_Z 15
_cell_length_a 17.036830
_cell_length_b 8.916574
_cell_length_c 5.066069
_cell_angle_alpha 121.312363
_cell_angle_beta 68.157944
_cell_angle_gamma 82.282947
_cell_volume 555.772236
_symmetry_space_group_name_H-M "P -1"
_symmetry_group_IT_number 2
_symmetry_cell_setting 'triclinic'
loop_
_space_group_symop_operation_xyz
x,y,z
-x,-y,-z
loop_
_atom_site_type_symbol
_atom_site_label
_atom_site_fract_x
_atom_site_fract_y
_atom_site_fract_z
Si Si1 0.599485 0.133921 0.683417
Si Si2 0.886794 0.451296 0.890769
Si Si3 0.708214 0.725756 0.140252
Si Si4 0.000000 0.000000 0.000000
Si Si5 0.930631 0.801967 0.374181
Si Si6 0.590954 0.738767 0.807564
Si Si7 0.611127 0.336119 0.377660
Si Si8 0.817932 0.199344 0.120109
O O1 0.560066 0.266503 0.598164
O O2 0.688718 0.946076 0.309806
O O3 0.510451 0.094986 0.852868
O O4 0.628590 0.223508 0.979318
O O5 0.812781 0.565301 0.863799
O O6 0.904823 0.627582 0.162439
O O7 0.839658 0.350260 0.048920
O O8 0.990792 0.279542 0.562344
O O9 0.662764 0.745490 0.505252
O O10 0.646647 0.687186 0.963073
O O11 0.021156 0.123838 0.844416
O O12 0.114300 0.864189 0.771964
O O13 0.847792 0.991645 0.751158
O O14 0.567339 0.561771 0.587586
O O15 0.708527 0.288071 0.361413
#
# Coordination Sequence:
#
# PCOD9025707 Si02
#       8
#     2   2   2   1   2   2   2   2
#     4  12  26  47  73 106 141 192 239 301 363 437
#     4  10  22  45  66 101 140 185 240 288 360 428
#     4  12  25  45  73 105 144 189 239 302 355 439
#     4  10  22  40  70  98 132 180 230 292 350 420
#     4  10  23  45  68  98 140 186 232 294 357 427
#     4  12  25  47  72 105 145 187 239 299 370 424
#     4  12  26  44  74 105 145 186 243 298 358 433
#     4  11  24  44  68  98 142 184 237 291 363 415
#
# _framework density 26.989476
#
# number of rings (size 3 to 8) (size 9 to 14) (size 15 to 20)
#    0.000    0.800    1.333    6.400    3.733    1.067 
#    0.000    5.333    0.000    0.000    0.000    0.000 
#    0.000    0.000    0.000    0.000    0.000    0.000 
#
# Total GULP energy -83806.097084 kJ/mol
# GULP energy per Si atom -5587.073139 kJ/mol
# Density = 2.692805 g / cm^3
# Si number density = 26.989476 Si / 1000 Ang^3
#
#
#
# Elastic Constant Matrix: (Units=GPa)
#
#
# Indices 1 2 3 4 5 6 
#
# 1 94.9683 14.4179 13.8466 6.1737 4.9626 -27.5688
# 2 14.4179 105.8476 29.6248 11.9146 -0.1446 -2.4982
# 3 13.8466 29.6248 91.8979 8.6936 -0.8880 -7.1814
# 4 6.1737 11.9146 8.6936 45.3220 -4.2995 -4.5395
# 5 4.9626 -0.1446 -0.8880 -4.2995 39.0354 0.0664
# 6 -27.5688 -2.4982 -7.1814 -4.5395 0.0664 52.7086
#
#
#
# Elastic Compliance Matrix: (Units=1/GPa)
#
#
# Indices 1 2 3 4 5 6 
#
# 1 0.012885 -0.001245 -0.000979 -0.000758 -0.001759 0.006484
# 2 -0.001245 0.010714 -0.003124 -0.002133 -0.000107 -0.000753
# 3 -0.000979 -0.003124 0.012230 -0.001278 0.000249 0.000896
# 4 -0.000758 -0.002133 -0.001278 0.023357 0.002630 0.001337
# 5 -0.001759 -0.000107 0.000249 0.002630 0.026138 -0.000698
# 6 0.006484 -0.000753 0.000896 0.001337 -0.000698 0.022566
#
#
# Mechanical properties :
#
#
# Convention : Reuss Voigt Hill
#
# Bulk Modulus (GPa) = 39.78977 45.38804 42.58891
# Shear Modulus (GPa) = 39.38174 43.06818 41.22496
#
# Velocity S-wave (km/s) = 3.82403 3.99900 3.91249
# Velocity P-wave (km/s) = 5.85425 6.17869 6.01866
#
# Compressibility (1/GPa) = 0.02513209
#
# Stress axis : x y z
#
# Youngs Moduli (GPa) = 77.60931 93.33770 81.76921
#
# Poissons Ratio (x) = 0.11623 0.08002
# Poissons Ratio (y) = 0.09665 0.25546
# Poissons Ratio (z) = 0.07595 0.29161
#
# Static dielectric constant tensor:
#      x y z
#    x 2.046010 -0.016990 -0.038390 
#    y -0.016990 2.093380 0.019960 
#    z -0.038390 0.019960 2.062520 
# 
# From -- ./inp_files/105736.got.cif
#   From: 2010.05.17/outbox.cif.g08.bks.cpg/sg2_53_cif.got.tgz:105736.got - 2010.06.03 11:33:40.
