data_PCOD9025762
_publ_section_title
;
Structure prediction by ZEFSAII (Michael W. Deem and Ramdas Pophale) SiO2 
 PCOD9025762
Probable space group: P -1
;
_chemical_formula_sum "Si O2"
_cell_formula_units_Z 16
_cell_length_a 22.578209
_cell_length_b 17.537292
_cell_length_c 14.858326
_cell_angle_alpha 149.473318
_cell_angle_beta 19.561069
_cell_angle_gamma 158.110581
_cell_volume 730.405697
_symmetry_space_group_name_H-M "P -1"
_symmetry_group_IT_number 2
_symmetry_cell_setting 'triclinic'
loop_
_space_group_symop_operation_xyz
x,y,z
-x,-y,-z
loop_
_atom_site_type_symbol
_atom_site_label
_atom_site_fract_x
_atom_site_fract_y
_atom_site_fract_z
Si Si1 0.757523 0.187311 0.066700
Si Si2 0.763864 0.172269 0.745345
Si Si3 0.729265 0.718918 0.845131
Si Si4 0.732193 0.007319 0.435390
Si Si5 0.191007 0.579887 0.933034
Si Si6 0.445971 0.453345 0.633757
Si Si7 0.723345 0.825839 0.756143
Si Si8 0.957663 0.085004 0.017274
O O1 0.843169 0.292741 0.952250
O O2 0.544760 0.179412 0.387501
O O3 0.985592 0.342995 0.961874
O O4 0.656028 0.962090 0.991624
O O5 0.725044 0.118291 0.641392
O O6 0.007151 0.215148 0.462758
O O7 0.823298 0.373263 0.897473
O O8 0.500000 0.000000 0.000000
O O9 0.693424 0.738949 0.811006
O O10 0.500000 0.500000 0.000000
O O11 0.775092 0.895429 0.018830
O O12 0.886897 0.958110 0.201073
O O13 0.853258 0.122686 0.285758
O O14 0.442635 0.649063 0.616186
O O15 0.500000 0.500000 0.500000
O O16 0.574692 0.641097 0.709075
O O17 0.160535 0.293503 0.887932
O O18 0.000000 0.000000 0.500000
#
# Coordination Sequence:
#
# PCOD9025762 Si02
#       8
#     2   2   2   2   2   2   2   2
#     4  11  23  42  65 104 136 185 228 299 349 427
#     4  11  22  40  70 108 139 179 248 296 352 428
#     4  11  27  46  75 107 149 198 240 303 376 443
#     4  10  22  40  71  94 139 178 230 294 349 420
#     4  11  23  40  71 101 138 182 241 286 363 419
#     4  12  26  44  73 105 143 188 237 304 365 432
#     4  12  26  45  71 107 151 186 244 304 369 429
#     4  10  23  45  69 101 139 186 245 282 364 437
#
# _framework density 21.905633999999999
#
# number of rings (size 3 to 8) (size 9 to 14) (size 15 to 20)
#    0.000    1.000    3.750    2.250   10.500    1.000 
#    0.000    2.500    0.000    0.000    0.000    0.000 
#    0.000    0.000    0.000    0.000    0.000    0.000 
#
# Total GULP energy -89152.190890 kJ/mol
# GULP energy per Si atom -5572.011931 kJ/mol
# Density = 2.185578 g / cm^3
# Si number density = 21.905634 Si / 1000 Ang^3
#
#
#
# Elastic Constant Matrix: (Units=GPa)
#
#
# Indices 1 2 3 4 5 6 
#
# 1 119.1837 67.1134 62.7931 -13.4141 28.1904 3.6775
# 2 67.1134 107.1619 44.9617 -3.2226 28.8403 11.2124
# 3 62.7931 44.9617 99.0049 -10.4031 39.1340 7.6522
# 4 -13.4141 -3.2226 -10.4031 36.1591 -4.5361 3.1141
# 5 28.1904 28.8403 39.1340 -4.5361 46.6594 4.2642
# 6 3.6775 11.2124 7.6522 3.1141 4.2642 36.6013
#
#
#
# Elastic Compliance Matrix: (Units=1/GPa)
#
#
# Indices 1 2 3 4 5 6 
#
# 1 0.016645 -0.007744 -0.007190 0.003376 0.000924 0.001808
# 2 -0.007744 0.015901 -0.000393 -0.001874 -0.004700 -0.003304
# 3 -0.007190 -0.000393 0.019785 0.001707 -0.011650 -0.002081
# 4 0.003376 -0.001874 0.001707 0.029569 0.000811 -0.002732
# 5 0.000924 -0.004700 -0.011650 0.000811 0.033648 -0.000206
# 6 0.001808 -0.003304 -0.002081 -0.002732 -0.000206 0.028843
#
#
# Mechanical properties :
#
#
# Convention : Reuss Voigt Hill
#
# Bulk Modulus (GPa) = 46.13486 75.00964 60.57225
# Shear Modulus (GPa) = 27.43153 33.91612 30.67383
#
# Velocity S-wave (km/s) = 3.54257 3.93909 3.74608
# Velocity P-wave (km/s) = 6.15138 7.41654 6.81339
#
# Compressibility (1/GPa) = 0.02167558
#
# Stress axis : x y z
#
# Youngs Moduli (GPa) = 60.07775 62.89000 50.54344
#
# Poissons Ratio (x) = 0.48701 0.36342
# Poissons Ratio (y) = 0.46524 0.01988
# Poissons Ratio (z) = 0.43198 0.02474
#
# Static dielectric constant tensor:
#      x y z
#    x 1.967200 -0.068980 0.007700 
#    y -0.068980 1.887310 -0.027800 
#    z 0.007700 -0.027800 1.939090 
# 
# From -- ./inp_files/543172.got.cif
#   From: 2010.05.17/outbox.cif.g08.bks.cpg/sg2_272_cif.got.tgz:543172.got - 2010.06.03 11:33:40.
