data_PCOD9025612
_publ_section_title
;
Structure prediction by ZEFSAII (Michael W. Deem and Ramdas Pophale) SiO2 
 PCOD9025612
Probable space group: P -1
;
_chemical_formula_sum "Si O2"
_cell_formula_units_Z 14
_cell_length_a 12.239135
_cell_length_b 11.232052
_cell_length_c 11.589684
_cell_angle_alpha 151.222122
_cell_angle_beta 136.674303
_cell_angle_gamma 54.343500
_cell_volume 519.015915
_symmetry_space_group_name_H-M "P -1"
_symmetry_group_IT_number 2
_symmetry_cell_setting 'triclinic'
loop_
_space_group_symop_operation_xyz
x,y,z
-x,-y,-z
loop_
_atom_site_type_symbol
_atom_site_label
_atom_site_fract_x
_atom_site_fract_y
_atom_site_fract_z
Si Si1 0.718404 0.703099 0.241563
Si Si2 0.198926 0.319273 0.273342
Si Si3 0.149072 0.550271 0.069737
Si Si4 0.520167 0.275421 0.411389
Si Si5 0.886304 0.060221 0.832626
Si Si6 0.268220 0.851153 0.824407
Si Si7 0.622317 0.215344 0.901280
O O1 0.565564 0.850119 0.263180
O O2 0.865795 0.806832 0.528188
O O3 0.787758 0.676631 0.144497
O O4 0.643047 0.437091 0.012487
O O5 0.387651 0.312610 0.440546
O O6 0.198273 0.610310 0.491622
O O7 0.050963 0.198392 0.137574
O O8 0.181697 0.097010 0.973077
O O9 0.301709 0.683528 0.371897
O O10 0.118257 0.732802 0.097028
O O11 0.000000 0.500000 0.000000
O O12 0.500000 0.500000 0.500000
O O13 0.449881 0.000479 0.074648
O O14 0.724235 0.032277 0.759218
O O15 0.278083 0.730035 0.856567
#
# Coordination Sequence:
#
# PCOD9025612 Si02
#       7
#     2   2   2   2   2   2   2
#     4  10  23  41  68 102 143 184 235 290 355 419
#     4  10  25  43  69 101 145 185 236 286 355 414
#     4  11  24  43  71 102 137 180 239 291 353 418
#     4  10  23  44  70 101 136 186 233 295 351 418
#     4  11  24  42  68 103 141 187 234 291 350 424
#     4  10  24  43  69  99 144 186 234 284 355 418
#     4  10  22  40  70 101 143 185 236 285 356 418
#
# _framework density 26.974125999999998
#
# number of rings (size 3 to 8) (size 9 to 14) (size 15 to 20)
#    0.857    0.857    0.000    3.000    6.000    3.429 
#    0.000    1.429    0.000    0.000    0.000    0.000 
#    0.000    0.000    0.000    0.000    0.000    0.000 
#
# Total GULP energy -78037.242063 kJ/mol
# GULP energy per Si atom -5574.088719 kJ/mol
# Density = 2.691273 g / cm^3
# Si number density = 26.974126 Si / 1000 Ang^3
#
#
#
# Elastic Constant Matrix: (Units=GPa)
#
#
# Indices 1 2 3 4 5 6 
#
# 1 213.4496 43.5803 85.2908 2.4208 14.6158 -3.3001
# 2 43.5803 75.3282 18.1573 4.3446 9.1679 -11.2019
# 3 85.2908 18.1573 160.0477 19.7105 19.0716 -22.3997
# 4 2.4208 4.3446 19.7105 28.4708 -4.8017 1.8508
# 5 14.6158 9.1679 19.0716 -4.8017 44.7294 -1.5641
# 6 -3.3001 -11.2019 -22.3997 1.8508 -1.5641 42.5169
#
#
#
# Elastic Compliance Matrix: (Units=1/GPa)
#
#
# Indices 1 2 3 4 5 6 
#
# 1 0.006969 -0.003678 -0.004109 0.003067 0.000463 -0.002709
# 2 -0.003678 0.016362 0.001696 -0.004215 -0.003153 0.004987
# 3 -0.004109 0.001696 0.010605 -0.008347 -0.004216 0.005923
# 4 0.003067 -0.004215 -0.008347 0.043046 0.007802 -0.006857
# 5 0.000463 -0.003153 -0.004216 0.007802 0.025402 -0.002421
# 6 -0.002709 0.004987 0.005923 -0.006857 -0.002421 0.027954
#
#
# Mechanical properties :
#
#
# Convention : Reuss Voigt Hill
#
# Bulk Modulus (GPa) = 45.96472 82.54247 64.25360
# Shear Modulus (GPa) = 33.38427 43.26322 38.32375
#
# Velocity S-wave (km/s) = 3.52183 4.00919 3.77339
# Velocity P-wave (km/s) = 5.79784 7.21793 6.54651
#
# Compressibility (1/GPa) = 0.02175582
#
# Stress axis : x y z
#
# Youngs Moduli (GPa) = 143.48655 61.11537 94.29805
#
# Poissons Ratio (x) = 0.22477 0.38746
# Poissons Ratio (y) = 0.52771 -0.15996
# Poissons Ratio (z) = 0.58957 -0.10367
#
# Static dielectric constant tensor:
#      x y z
#    x 2.225670 -0.058250 -0.025550 
#    y -0.058250 2.243290 -0.071140 
#    z -0.025550 -0.071140 2.209600 
# 
# From -- ./inp_files/424706.got.cif
#   From: 2010.05.17/outbox.cif.g08.bks.cpg/sg2_213_cif.got.tgz:424706.got - 2010.06.03 11:33:40.
