data_PCOD9025942
_publ_section_title
;
Structure prediction by ZEFSAII (Michael W. Deem and Ramdas Pophale) SiO2 
 PCOD9025942
Probable space group: P -1
;
_chemical_formula_sum "Si O2"
_cell_formula_units_Z 14
_cell_length_a 17.311627
_cell_length_b 8.466796
_cell_length_c 7.593842
_cell_angle_alpha 49.983857
_cell_angle_beta 130.727901
_cell_angle_gamma 104.736548
_cell_volume 619.292031
_symmetry_space_group_name_H-M "P -1"
_symmetry_group_IT_number 2
_symmetry_cell_setting 'triclinic'
loop_
_space_group_symop_operation_xyz
x,y,z
-x,-y,-z
loop_
_atom_site_type_symbol
_atom_site_label
_atom_site_fract_x
_atom_site_fract_y
_atom_site_fract_z
Si Si1 0.688984 0.159655 0.134569
Si Si2 0.202984 0.211814 0.667289
Si Si3 0.542214 0.567233 0.733211
Si Si4 0.066103 0.245763 0.771757
Si Si5 0.547642 0.003972 0.262043
Si Si6 0.911935 0.968348 0.659696
Si Si7 0.626869 0.565498 0.222865
O O1 0.707053 0.005594 0.101012
O O2 0.659773 0.035299 0.349671
O O3 0.806590 0.172123 0.338330
O O4 0.593759 0.372932 0.816117
O O5 0.164866 0.226220 0.800740
O O6 0.107420 0.190643 0.410506
O O7 0.261910 0.395694 0.586898
O O8 0.554788 0.789217 0.527733
O O9 0.426719 0.568271 0.631765
O O10 0.623739 0.487724 0.076161
O O11 0.000000 0.500000 0.500000
O O12 0.087047 0.157507 0.065451
O O13 0.006574 0.078519 0.719012
O O14 0.500000 0.000000 0.000000
O O15 0.466678 0.207191 0.085839
#
# Coordination Sequence:
#
# PCOD9025942 Si02
#       7
#     2   2   2   2   2   2   2
#     4   9  22  40  60  91 129 164 216 260 313 385
#     4  10  22  43  66  94 132 162 218 262 319 379
#     4  10  23  39  66  89 134 175 215 262 314 376
#     4  11  24  43  72  92 128 167 205 269 334 383
#     4  11  20  40  59  91 133 169 209 262 313 367
#     4   9  23  46  61  99 128 160 211 270 320 386
#     4  10  22  41  58  99 126 172 223 260 312 376
#
# _framework density 22.606462000000001
#
# number of rings (size 3 to 8) (size 9 to 14) (size 15 to 20)
#    0.857    1.143    1.429    0.857    4.000    2.857 
#    0.000    4.286    0.000    0.000    0.000    0.000 
#    0.000    0.000    0.000    0.000    0.000    0.000 
#
# Total GULP energy -78008.218370 kJ/mol
# GULP energy per Si atom -5572.015598 kJ/mol
# Density = 2.255501 g / cm^3
# Si number density = 22.606462 Si / 1000 Ang^3
#
#
#
# Elastic Constant Matrix: (Units=GPa)
#
#
# Indices 1 2 3 4 5 6 
#
# 1 104.2306 19.9689 29.8724 -17.2432 -18.3182 -3.7683
# 2 19.9689 90.4092 13.5880 0.7002 -15.6058 8.1148
# 3 29.8724 13.5880 66.6738 -17.9756 -24.7357 3.8212
# 4 -17.2432 0.7002 -17.9756 35.5288 0.3121 1.8330
# 5 -18.3182 -15.6058 -24.7357 0.3121 29.2351 1.2752
# 6 -3.7683 8.1148 3.8212 1.8330 1.2752 34.6612
#
#
#
# Elastic Compliance Matrix: (Units=1/GPa)
#
#
# Indices 1 2 3 4 5 6 
#
# 1 0.012228 -0.001724 -0.002150 0.004759 0.004804 0.001542
# 2 -0.001724 0.012770 0.000532 -0.000698 0.006344 -0.003432
# 3 -0.002150 0.000532 0.028208 0.013275 0.022880 -0.005012
# 4 0.004759 -0.000698 0.013275 0.037235 0.013586 -0.003252
# 5 0.004804 0.006344 0.022880 0.013586 0.060096 -0.006415
# 6 0.001542 -0.003432 -0.005012 -0.003252 -0.006415 0.030782
#
#
# Mechanical properties :
#
#
# Convention : Reuss Voigt Hill
#
# Bulk Modulus (GPa) = 21.49499 43.13023 32.31261
# Shear Modulus (GPa) = 24.56877 33.07731 28.82304
#
# Velocity S-wave (km/s) = 3.30025 3.82930 3.57458
# Velocity P-wave (km/s) = 4.90420 6.21865 5.60012
#
# Compressibility (1/GPa) = 0.04652247
#
# Stress axis : x y z
#
# Youngs Moduli (GPa) = 81.77983 78.30804 35.45064
#
# Poissons Ratio (x) = 0.13497 0.07623
# Poissons Ratio (y) = 0.14095 -0.01886
# Poissons Ratio (z) = 0.17584 -0.04165
#
# Static dielectric constant tensor:
#      x y z
#    x 1.906500 -0.067940 -0.012460 
#    y -0.067940 2.009270 0.090110 
#    z -0.012460 0.090110 1.863900 
# 
# From -- ./inp_files/326952.got.cif
#   From: 2010.05.17/outbox.cif.g08.bks.cpg/sg2_164_cif.got.tgz:326952.got - 2010.06.03 11:33:40.
