data_PCOD9025691
_publ_section_title
;
Structure prediction by ZEFSAII (Michael W. Deem and Ramdas Pophale) SiO2 
 PCOD9025691
Probable space group: P -1
;
_chemical_formula_sum "Si O2"
_cell_formula_units_Z 16
_cell_length_a 11.802851
_cell_length_b 13.092166
_cell_length_c 8.193054
_cell_angle_alpha 132.213058
_cell_angle_beta 128.955216
_cell_angle_gamma 53.852891
_cell_volume 697.689362
_symmetry_space_group_name_H-M "P -1"
_symmetry_group_IT_number 2
_symmetry_cell_setting 'triclinic'
loop_
_space_group_symop_operation_xyz
x,y,z
-x,-y,-z
loop_
_atom_site_type_symbol
_atom_site_label
_atom_site_fract_x
_atom_site_fract_y
_atom_site_fract_z
Si Si1 0.253214 0.200203 0.572691
Si Si2 0.723283 0.393585 0.184820
Si Si3 0.548050 0.782823 0.706184
Si Si4 0.423167 0.528424 0.204597
Si Si5 0.821388 0.061674 0.889285
Si Si6 0.859666 0.629514 0.678777
Si Si7 0.872450 0.517651 0.039225
Si Si8 0.549366 0.085034 0.891370
O O1 0.189720 0.270077 0.416739
O O2 0.172012 0.320677 0.758098
O O3 0.433893 0.164312 0.728916
O O4 0.222587 0.046021 0.393062
O O5 0.588713 0.412422 0.217627
O O6 0.838441 0.473762 0.447575
O O7 0.647236 0.479782 0.047330
O O8 0.784855 0.230732 0.009042
O O9 0.461956 0.676733 0.434534
O O10 0.728883 0.702194 0.769736
O O11 0.522726 0.931778 0.745588
O O12 0.492411 0.823412 0.882993
O O13 0.288096 0.511134 0.178754
O O14 0.720506 0.054927 0.950807
O O15 0.000000 0.000000 0.000000
O O16 0.030921 0.597532 0.862930
O O17 0.000000 0.500000 0.000000
#
# Coordination Sequence:
#
# PCOD9025691 Si02
#       8
#     2   2   2   2   2   2   2   2
#     4  12  24  44  69  99 133 182 229 272 326 406
#     4  10  22  41  67 101 130 171 231 283 316 391
#     4  10  23  44  70  98 132 182 222 283 331 403
#     4  10  22  40  70  97 129 171 233 276 331 388
#     4  12  26  39  66 102 138 172 224 279 335 393
#     4  11  23  43  71  99 133 177 227 273 338 391
#     4  12  26  43  68 102 141 175 215 279 346 403
#     4  11  24  44  68  98 139 177 229 269 347 398
#
# _framework density 22.932842999999998
#
# number of rings (size 3 to 8) (size 9 to 14) (size 15 to 20)
#    0.000    1.000    2.500    3.750    5.250    2.000 
#    0.000    3.125    0.000    5.250    0.000    0.000 
#    0.000    0.000    0.000    0.000    0.000    0.000 
#
# Total GULP energy -89485.003528 kJ/mol
# GULP energy per Si atom -5592.812721 kJ/mol
# Density = 2.288065 g / cm^3
# Si number density = 22.932843 Si / 1000 Ang^3
#
#
#
# Elastic Constant Matrix: (Units=GPa)
#
#
# Indices 1 2 3 4 5 6 
#
# 1 120.7578 35.7231 16.3927 1.6868 -2.1399 -28.2367
# 2 35.7231 105.8417 29.3410 12.1533 3.5932 -12.9790
# 3 16.3927 29.3410 78.1110 24.0377 4.1365 -14.1444
# 4 1.6868 12.1533 24.0377 44.3450 -4.9569 0.5575
# 5 -2.1399 3.5932 4.1365 -4.9569 35.8340 2.7974
# 6 -28.2367 -12.9790 -14.1444 0.5575 2.7974 43.3430
#
#
#
# Elastic Compliance Matrix: (Units=1/GPa)
#
#
# Indices 1 2 3 4 5 6 
#
# 1 0.010535 -0.002838 -0.000265 0.000509 0.000555 0.005885
# 2 -0.002838 0.011566 -0.003081 -0.001539 -0.001242 0.000709
# 3 -0.000265 -0.003081 0.018009 -0.009361 -0.003481 0.005126
# 4 0.000509 -0.001539 -0.009361 0.028696 0.005540 -0.003911
# 5 0.000555 -0.001242 -0.003481 0.005540 0.029476 -0.003120
# 6 0.005885 0.000709 0.005126 -0.003911 -0.003120 0.029042
#
#
# Mechanical properties :
#
#
# Convention : Reuss Voigt Hill
#
# Bulk Modulus (GPa) = 36.04763 51.95825 44.00294
# Shear Modulus (GPa) = 33.57071 39.58800 36.57935
#
# Velocity S-wave (km/s) = 3.83021 4.15933 3.99816
# Velocity P-wave (km/s) = 5.94252 6.76555 6.36735
#
# Compressibility (1/GPa) = 0.02774108
#
# Stress axis : x y z
#
# Youngs Moduli (GPa) = 94.91867 86.46104 55.52895
#
# Poissons Ratio (x) = 0.24537 0.01474
# Poissons Ratio (y) = 0.26937 0.17109
# Poissons Ratio (z) = 0.02519 0.26639
#
# Static dielectric constant tensor:
#      x y z
#    x 1.945640 0.060440 0.009740 
#    y 0.060440 1.892980 -0.001680 
#    z 0.009740 -0.001680 1.875450 
# 
# From -- ./inp_files/274770.got.cif
#   From: 2010.05.17/outbox.cif.g08.bks.cpg/sg2_138_cif.got.tgz:274770.got - 2010.06.03 11:33:40.
