data_PCOD9025360
_publ_section_title
;
Structure prediction by ZEFSAII (Michael W. Deem and Ramdas Pophale) SiO2 
 PCOD9025360
Probable space group: P -1
;
_chemical_formula_sum "Si O2"
_cell_formula_units_Z 16
_cell_length_a 8.455861
_cell_length_b 13.810136
_cell_length_c 16.141757
_cell_angle_alpha 32.656317
_cell_angle_beta 85.067032
_cell_angle_gamma 60.696234
_cell_volume 639.475046
_symmetry_space_group_name_H-M "P -1"
_symmetry_group_IT_number 2
_symmetry_cell_setting 'triclinic'
loop_
_space_group_symop_operation_xyz
x,y,z
-x,-y,-z
loop_
_atom_site_type_symbol
_atom_site_label
_atom_site_fract_x
_atom_site_fract_y
_atom_site_fract_z
Si Si1 0.763346 0.672946 0.771071
Si Si2 0.390356 0.868275 0.185701
Si Si3 0.161059 0.662740 0.123587
Si Si4 0.040128 0.167600 0.253628
Si Si5 0.731720 0.598699 0.212815
Si Si6 0.691193 0.954216 0.368648
Si Si7 0.547278 0.699585 0.481917
Si Si8 0.573714 0.527813 0.108004
O O1 0.833563 0.538294 0.775075
O O2 0.855182 0.786512 0.714937
O O3 0.472366 0.904266 0.641554
O O4 0.909764 0.406325 0.018008
O O5 0.539687 0.691025 0.224042
O O6 0.541468 0.693419 0.388403
O O7 0.332930 0.132705 0.988917
O O8 0.117611 0.018315 0.101113
O O9 0.233618 0.587672 0.270103
O O10 0.380773 0.564091 0.133723
O O11 0.820213 0.244194 0.250826
O O12 0.281834 0.872326 0.410744
O O13 0.680713 0.553927 0.159139
O O14 0.011248 0.314235 0.439114
O O15 0.587452 0.873440 0.379684
O O16 0.592429 0.209681 0.136675
#
# Coordination Sequence:
#
# PCOD9025360 Si02
#       8
#     2   2   2   2   2   2   2   2
#     4   9  19  38  64  93 129 169 212 260 316 378
#     4  11  24  45  69  94 127 164 225 274 307 380
#     4  12  25  40  64  99 135 173 206 261 332 380
#     4   9  19  37  66  90 131 169 209 268 306 378
#     4  11  24  44  71  93 123 172 221 268 316 378
#     4  10  22  40  68  96 124 168 216 268 313 379
#     4  11  22  40  67  98 125 167 219 264 314 381
#     4  11  25  42  61 100 138 165 211 266 320 384
#
# _framework density 25.020523000000001
#
# number of rings (size 3 to 8) (size 9 to 14) (size 15 to 20)
#    0.000    1.500    3.750    1.500    1.750    6.500 
#    0.000    1.250    0.000    0.000    0.000    0.000 
#    0.000    0.000    0.000    0.000    0.000    0.000 
#
# Total GULP energy -89644.500292 kJ/mol
# GULP energy per Si atom -5602.781268 kJ/mol
# Density = 2.496358 g / cm^3
# Si number density = 25.020523 Si / 1000 Ang^3
#
#
#
# Elastic Constant Matrix: (Units=GPa)
#
#
# Indices 1 2 3 4 5 6 
#
# 1 51.4266 21.2552 21.1164 -4.8266 7.2079 -5.2098
# 2 21.2552 116.7195 31.4362 15.6411 10.8594 -1.5123
# 3 21.1164 31.4362 108.7834 21.0316 25.3062 7.3874
# 4 -4.8266 15.6411 21.0316 37.3070 -1.9056 1.8606
# 5 7.2079 10.8594 25.3062 -1.9056 29.6764 -0.6858
# 6 -5.2098 -1.5123 7.3874 1.8606 -0.6858 36.6731
#
#
#
# Elastic Compliance Matrix: (Units=1/GPa)
#
#
# Indices 1 2 3 4 5 6 
#
# 1 0.024417 -0.004026 -0.005572 0.007832 0.000891 0.004044
# 2 -0.004026 0.010349 -0.000775 -0.004557 -0.002437 0.000197
# 3 -0.005572 -0.000775 0.015435 -0.009539 -0.012223 -0.003678
# 4 0.007832 -0.004557 -0.009539 0.035566 0.010212 0.001233
# 5 0.000891 -0.002437 -0.012223 0.010212 0.045516 0.002821
# 6 0.004044 0.000197 -0.003678 0.001233 0.002821 0.028582
#
#
# Mechanical properties :
#
#
# Convention : Reuss Voigt Hill
#
# Bulk Modulus (GPa) = 33.94865 47.17166 40.56016
# Shear Modulus (GPa) = 26.25639 34.27274 30.26457
#
# Velocity S-wave (km/s) = 3.24295 3.70508 3.48169
# Velocity P-wave (km/s) = 5.25548 6.09898 5.69287
#
# Compressibility (1/GPa) = 0.02945625
#
# Stress axis : x y z
#
# Youngs Moduli (GPa) = 40.95495 96.62533 64.78591
#
# Poissons Ratio (x) = 0.38898 0.36102
# Poissons Ratio (y) = 0.16487 0.05019
# Poissons Ratio (z) = 0.22822 0.07485
#
# Static dielectric constant tensor:
#      x y z
#    x 2.054590 -0.019690 -0.060710 
#    y -0.019690 1.909770 0.004180 
#    z -0.060710 0.004180 2.005820 
# 
# From -- ./inp_files/282680.got.cif
#   From: 2010.05.17/outbox.cif.g08.bks.cpg/sg2_142_cif.got.tgz:282680.got - 2010.06.03 11:33:40.
