data_PCOD9025247
_publ_section_title
;
Structure prediction by ZEFSAII (Michael W. Deem and Ramdas Pophale) SiO2 
 PCOD9025247
Probable space group: P -1
;
_chemical_formula_sum "Si O2"
_cell_formula_units_Z 16
_cell_length_a 12.287788
_cell_length_b 5.279531
_cell_length_c 10.805187
_cell_angle_alpha 83.464390
_cell_angle_beta 95.952624
_cell_angle_gamma 116.220403
_cell_volume 623.633966
_symmetry_space_group_name_H-M "P -1"
_symmetry_group_IT_number 2
_symmetry_cell_setting 'triclinic'
loop_
_space_group_symop_operation_xyz
x,y,z
-x,-y,-z
loop_
_atom_site_type_symbol
_atom_site_label
_atom_site_fract_x
_atom_site_fract_y
_atom_site_fract_z
Si Si1 0.585185 0.660576 0.660094
Si Si2 0.206918 0.657515 0.981821
Si Si3 0.014265 0.191322 0.110973
Si Si4 0.002814 0.716213 0.630686
Si Si5 0.798897 0.770981 0.493748
Si Si6 0.575559 0.794384 0.919885
Si Si7 0.800978 0.471119 0.275440
Si Si8 0.447199 0.995331 0.699300
O O1 0.691600 0.751555 0.568957
O O2 0.630026 0.723916 0.804653
O O3 0.504758 0.325328 0.662573
O O4 0.503868 0.832566 0.627501
O O5 0.221643 0.488911 0.873635
O O6 0.094614 0.720589 0.925583
O O7 0.149027 0.448122 0.101180
O O8 0.318794 0.951120 0.010203
O O9 0.997873 0.103344 0.256948
O O10 0.000000 0.000000 0.000000
O O11 0.066745 0.517722 0.688088
O O12 0.866302 0.591952 0.571744
O O13 0.093170 0.916912 0.526496
O O14 0.767777 0.656102 0.357298
O O15 0.500000 0.500000 0.000000
O O16 0.510002 0.072552 0.157741
O O17 0.697793 0.154132 0.309929
#
# Coordination Sequence:
#
# PCOD9025247 Si02
#       8
#     2   2   2   2   2   2   2   2
#     4  10  26  46  71 109 140 199 239 310 360 440
#     4  10  23  41  67 107 140 189 242 305 371 448
#     4  10  22  40  68 101 144 185 240 305 372 442
#     4  10  25  44  67 103 136 197 245 303 377 429
#     4  11  25  45  70 100 143 188 255 302 364 445
#     4  10  24  44  71 106 151 190 250 300 374 441
#     4  11  24  44  71  98 148 189 243 304 365 442
#     4  10  26  46  72 109 147 190 249 292 382 432
#
# _framework density 25.656077
#
# number of rings (size 3 to 8) (size 9 to 14) (size 15 to 20)
#    0.750    1.000    0.000    1.875    7.000    5.000 
#    4.500    0.000    0.000    0.000    0.000    0.000 
#    0.000    0.000    0.000    0.000    0.000    0.000 
#
# Total GULP energy -89467.864246 kJ/mol
# GULP energy per Si atom -5591.741515 kJ/mol
# Density = 2.559768 g / cm^3
# Si number density = 25.656077 Si / 1000 Ang^3
#
#
#
# Elastic Constant Matrix: (Units=GPa)
#
#
# Indices 1 2 3 4 5 6 
#
# 1 117.2714 38.2095 48.6207 2.2693 -11.8139 2.5325
# 2 38.2095 115.3995 52.8914 -4.9130 -9.3068 2.2982
# 3 48.6207 52.8914 172.8762 2.4501 -35.3295 10.0395
# 4 2.2693 -4.9130 2.4501 42.0247 -0.1988 -5.7731
# 5 -11.8139 -9.3068 -35.3295 -0.1988 39.7758 -0.9834
# 6 2.5325 2.2982 10.0395 -5.7731 -0.9834 38.0973
#
#
#
# Elastic Compliance Matrix: (Units=1/GPa)
#
#
# Indices 1 2 3 4 5 6 
#
# 1 0.010231 -0.002460 -0.001962 -0.000737 0.000714 -0.000108
# 2 -0.002460 0.010763 -0.002789 0.001616 -0.000669 0.000477
# 3 -0.001962 -0.002789 0.008618 -0.000961 0.006366 -0.001954
# 4 -0.000737 0.001616 -0.000961 0.024617 -0.000474 0.003923
# 5 0.000714 -0.000669 0.006366 -0.000474 0.030825 -0.000961
# 6 -0.000108 0.000477 -0.001954 0.003923 -0.000961 0.027311
#
#
# Mechanical properties :
#
#
# Convention : Reuss Voigt Hill
#
# Bulk Modulus (GPa) = 65.83030 76.11002 70.97016
# Shear Modulus (GPa) = 37.92212 41.70125 39.81169
#
# Velocity S-wave (km/s) = 3.84877 4.03599 3.94349
# Velocity P-wave (km/s) = 6.74279 7.17279 6.96111
#
# Compressibility (1/GPa) = 0.01519057
#
# Stress axis : x y z
#
# Youngs Moduli (GPa) = 97.74497 92.90698 116.04268
#
# Poissons Ratio (x) = 0.22853 0.22769
# Poissons Ratio (y) = 0.24043 0.32360
# Poissons Ratio (z) = 0.19179 0.25908
#
# Static dielectric constant tensor:
#      x y z
#    x 2.008920 -0.022050 0.033410 
#    y -0.022050 2.035190 0.006700 
#    z 0.033410 0.006700 2.107940 
# 
# From -- ./inp_files/410778.got.cif
#   From: 2010.05.17/outbox.cif.g08.bks.cpg/sg2_206_cif.got.tgz:410778.got - 2010.06.03 11:33:40.
