data_PCOD9025715
_publ_section_title
;
Structure prediction by ZEFSAII (Michael W. Deem and Ramdas Pophale) SiO2 
 PCOD9025715
Probable space group: P -1
;
_chemical_formula_sum "Si O2"
_cell_formula_units_Z 15
_cell_length_a 8.016112
_cell_length_b 11.690375
_cell_length_c 9.338873
_cell_angle_alpha 117.745304
_cell_angle_beta 107.241046
_cell_angle_gamma 51.043664
_cell_volume 602.291540
_symmetry_space_group_name_H-M "P -1"
_symmetry_group_IT_number 2
_symmetry_cell_setting 'triclinic'
loop_
_space_group_symop_operation_xyz
x,y,z
-x,-y,-z
loop_
_atom_site_type_symbol
_atom_site_label
_atom_site_fract_x
_atom_site_fract_y
_atom_site_fract_z
Si Si1 0.000000 0.500000 0.000000
Si Si2 0.824624 0.365407 0.463864
Si Si3 0.476600 0.358013 0.897530
Si Si4 0.840686 0.713477 0.281854
Si Si5 0.561331 0.034207 0.259889
Si Si6 0.160465 0.814612 0.908694
Si Si7 0.174446 0.212376 0.064597
Si Si8 0.454286 0.686524 0.439532
O O1 0.982951 0.357409 0.839305
O O2 0.838963 0.636419 0.907619
O O3 0.831131 0.244710 0.282754
O O4 0.694103 0.536333 0.454414
O O5 0.691083 0.364254 0.561930
O O6 0.051235 0.314617 0.555731
O O7 0.237742 0.396237 0.862410
O O8 0.557278 0.289408 0.719417
O O9 0.500000 0.500000 0.000000
O O10 0.614981 0.243532 0.996529
O O11 0.640067 0.892341 0.310629
O O12 0.319466 0.138179 0.201752
O O13 0.604645 0.154711 0.407368
O O14 0.707475 0.934543 0.102444
O O15 0.058416 0.740551 0.928316
O O16 0.000000 0.000000 0.000000
#
# Coordination Sequence:
#
# PCOD9025715 Si02
#       8
#     1   2   2   2   2   2   2   2
#     4  10  22  40  70  98 138 182 236 290 350 420
#     4  11  27  47  71 108 142 192 242 291 364 422
#     4  12  27  47  71 104 145 188 241 295 363 422
#     4  11  26  42  74 105 141 185 244 295 356 431
#     4  10  23  44  71 107 143 187 235 298 359 425
#     4  12  26  45  72 102 148 189 238 297 359 430
#     4  10  22  43  70 105 140 190 237 290 360 427
#     4  11  26  46  72 101 150 184 239 297 356 428
#
# _framework density 24.904883000000002
#
# number of rings (size 3 to 8) (size 9 to 14) (size 15 to 20)
#    0.000    1.067    1.333    3.200    9.333    3.733 
#    0.000    0.000    0.000    0.000    0.000    0.000 
#    0.000    0.000    0.000    0.000    0.000    0.000 
#
# Total GULP energy -83749.634385 kJ/mol
# GULP energy per Si atom -5583.308959 kJ/mol
# Density = 2.484820 g / cm^3
# Si number density = 24.904883 Si / 1000 Ang^3
#
#
#
# Elastic Constant Matrix: (Units=GPa)
#
#
# Indices 1 2 3 4 5 6 
#
# 1 94.7737 26.3310 32.0306 -20.1278 7.2902 -8.6959
# 2 26.3310 172.8089 60.6344 1.2242 32.5630 -15.8665
# 3 32.0306 60.6344 144.6045 -18.3640 19.6759 -17.6481
# 4 -20.1278 1.2242 -18.3640 38.0164 -3.6459 10.2634
# 5 7.2902 32.5630 19.6759 -3.6459 41.8098 -8.3586
# 6 -8.6959 -15.8665 -17.6481 10.2634 -8.3586 36.0784
#
#
#
# Elastic Compliance Matrix: (Units=1/GPa)
#
#
# Indices 1 2 3 4 5 6 
#
# 1 0.012743 -0.001513 -0.001433 0.006118 0.000165 0.000003
# 2 -0.001513 0.007982 -0.002574 -0.003214 -0.004679 0.001717
# 3 -0.001433 -0.002574 0.009115 0.003114 -0.001410 0.001769
# 4 0.006118 -0.003214 0.003114 0.033329 0.001361 -0.007581
# 5 0.000165 -0.004679 -0.001410 0.001361 0.029042 0.003634
# 6 0.000003 0.001717 0.001769 -0.007581 0.003634 0.032337
#
#
# Mechanical properties :
#
#
# Convention : Reuss Voigt Hill
#
# Bulk Modulus (GPa) = 53.19007 72.24214 62.71610
# Shear Modulus (GPa) = 35.24696 42.72699 38.98697
#
# Velocity S-wave (km/s) = 3.76608 4.14648 3.96085
# Velocity P-wave (km/s) = 6.34939 7.21073 6.79372
#
# Compressibility (1/GPa) = 0.01880050
#
# Stress axis : x y z
#
# Youngs Moduli (GPa) = 78.47332 125.27437 109.70382
#
# Poissons Ratio (x) = 0.18953 0.15725
# Poissons Ratio (y) = 0.11872 0.28237
# Poissons Ratio (z) = 0.11249 0.32245
#
# Static dielectric constant tensor:
#      x y z
#    x 2.237690 -0.021090 -0.127960 
#    y -0.021090 2.011490 -0.048480 
#    z -0.127960 -0.048480 2.064970 
# 
# From -- ./inp_files/158278.got.cif
#   From: 2010.05.17/outbox.cif.g08.bks.cpg/sg2_80_cif.got.tgz:158278.got - 2010.06.03 11:33:40.
