data_PCOD9025375
_publ_section_title
;
Structure prediction by ZEFSAII (Michael W. Deem and Ramdas Pophale) SiO2 
 PCOD9025375
Probable space group: P -1
;
_chemical_formula_sum "Si O2"
_cell_formula_units_Z 13
_cell_length_a 11.803917
_cell_length_b 9.158894
_cell_length_c 8.676384
_cell_angle_alpha 109.657011
_cell_angle_beta 58.117033
_cell_angle_gamma 140.290956
_cell_volume 504.623133
_symmetry_space_group_name_H-M "P -1"
_symmetry_group_IT_number 2
_symmetry_cell_setting 'triclinic'
loop_
_space_group_symop_operation_xyz
x,y,z
-x,-y,-z
loop_
_atom_site_type_symbol
_atom_site_label
_atom_site_fract_x
_atom_site_fract_y
_atom_site_fract_z
Si Si1 0.721883 0.278142 0.850524
Si Si2 0.000000 0.000000 0.500000
Si Si3 0.132833 0.875969 0.105469
Si Si4 0.674685 0.473859 0.203987
Si Si5 0.020234 0.244077 0.307332
Si Si6 0.573305 0.949310 0.562829
Si Si7 0.676833 0.711377 0.057953
O O1 0.803105 0.227972 0.899790
O O2 0.888191 0.513382 0.718928
O O3 0.602994 0.081987 0.739459
O O4 0.615866 0.318721 0.042982
O O5 0.066401 0.215607 0.432354
O O6 0.877518 0.002518 0.711259
O O7 0.909493 0.664496 0.129683
O O8 0.273200 0.068443 0.940119
O O9 0.569182 0.311579 0.370208
O O10 0.629480 0.609552 0.227827
O O11 0.122554 0.209625 0.105851
O O12 0.785068 0.057737 0.407501
O O13 0.500000 0.000000 0.500000
O O14 0.500000 0.500000 0.000000
#
# Coordination Sequence:
#
# PCOD9025375 Si02
#       7
#     2   1   2   2   2   2   2
#     4  11  23  45  72  99 146 191 240 297 355 419
#     4  10  22  40  68  96 140 180 226 292 358 404
#     4  11  22  43  75 100 144 183 244 295 360 420
#     4  11  25  43  69 107 140 190 241 293 358 430
#     4  10  23  43  70 102 143 188 236 290 361 418
#     4  12  25  42  71 110 147 185 239 297 360 428
#     4  10  23  45  72 101 141 191 241 292 359 430
#
# _framework density 25.761797000000001
#
# number of rings (size 3 to 8) (size 9 to 14) (size 15 to 20)
#    0.000    1.231    1.538    3.692    4.308    2.462 
#    0.000    9.231    0.000    0.000    0.000    0.000 
#    0.000    0.000    0.000    0.000    0.000    0.000 
#
# Total GULP energy -72559.876895 kJ/mol
# GULP energy per Si atom -5581.528992 kJ/mol
# Density = 2.570316 g / cm^3
# Si number density = 25.761797 Si / 1000 Ang^3
#
#
#
# Elastic Constant Matrix: (Units=GPa)
#
#
# Indices 1 2 3 4 5 6 
#
# 1 152.5148 78.2042 45.6035 -29.4871 30.7178 -30.8418
# 2 78.2042 160.2433 52.4391 -53.7506 29.2901 -29.5890
# 3 45.6035 52.4391 94.9207 -27.3014 10.7964 -17.1396
# 4 -29.4871 -53.7506 -27.3014 56.8814 -29.5320 15.2211
# 5 30.7178 29.2901 10.7964 -29.5320 56.6117 -20.1362
# 6 -30.8418 -29.5890 -17.1396 15.2211 -20.1362 53.5371
#
#
#
# Elastic Compliance Matrix: (Units=1/GPa)
#
#
# Indices 1 2 3 4 5 6 
#
# 1 0.009901 -0.003598 -0.002496 -0.001681 -0.003122 0.002219
# 2 -0.003598 0.011535 -0.002104 0.008229 0.001313 0.001783
# 3 -0.002496 -0.002104 0.014178 0.004455 0.002658 0.001671
# 4 -0.001681 0.008229 0.004455 0.033462 0.013458 0.000554
# 5 -0.003122 0.001313 0.002658 0.013458 0.027421 0.006265
# 6 0.002219 0.001783 0.001671 0.000554 0.006265 0.023676
#
#
# Mechanical properties :
#
#
# Convention : Reuss Voigt Hill
#
# Bulk Modulus (GPa) = 52.04107 84.46360 68.25234
# Shear Modulus (GPa) = 34.97093 48.83486 41.90289
#
# Velocity S-wave (km/s) = 3.68839 4.35861 4.03743
# Velocity P-wave (km/s) = 6.19545 7.62807 6.94878
#
# Compressibility (1/GPa) = 0.01921559
#
# Stress axis : x y z
#
# Youngs Moduli (GPa) = 101.00051 86.69502 70.53313
#
# Poissons Ratio (x) = 0.31196 0.17608
# Poissons Ratio (y) = 0.36343 0.14841
# Poissons Ratio (z) = 0.25214 0.18242
#
# Static dielectric constant tensor:
#      x y z
#    x 2.020410 0.010500 0.023470 
#    y 0.010500 2.068060 0.003560 
#    z 0.023470 0.003560 2.054700 
# 
# From -- ./inp_files/239663.got.cif
#   From: 2010.05.17/outbox.cif.g08.bks.cpg/sg2_120_cif.got.tgz:239663.got - 2010.06.03 11:33:40.
