data_PCOD9025916
_publ_section_title
;
Structure prediction by ZEFSAII (Michael W. Deem and Ramdas Pophale) SiO2 
 PCOD9025916
Probable space group: P -1
;
_chemical_formula_sum "Si O2"
_cell_formula_units_Z 14
_cell_length_a 7.443207
_cell_length_b 9.438054
_cell_length_c 14.492156
_cell_angle_alpha 90.840622
_cell_angle_beta 137.878478
_cell_angle_gamma 112.015224
_cell_volume 558.506269
_symmetry_space_group_name_H-M "P -1"
_symmetry_group_IT_number 2
_symmetry_cell_setting 'triclinic'
loop_
_space_group_symop_operation_xyz
x,y,z
-x,-y,-z
loop_
_atom_site_type_symbol
_atom_site_label
_atom_site_fract_x
_atom_site_fract_y
_atom_site_fract_z
Si Si1 0.142309 0.969466 0.922925
Si Si2 0.538965 0.825665 0.122180
Si Si3 0.588254 0.186576 0.368271
Si Si4 0.787328 0.544417 0.983034
Si Si5 0.649959 0.393793 0.575271
Si Si6 0.528505 0.165504 0.691244
Si Si7 0.340514 0.663235 0.783588
O O1 0.178863 0.015448 0.828737
O O2 0.423384 0.150515 0.077182
O O3 0.780800 0.901519 0.811279
O O4 0.232143 0.836806 0.983431
O O5 0.454714 0.639570 0.060196
O O6 0.601580 0.844851 0.255428
O O7 0.620978 0.283047 0.474915
O O8 0.795116 0.310924 0.363105
O O9 0.617478 0.029185 0.395149
O O10 0.551596 0.585845 0.845284
O O11 0.000000 0.500000 0.000000
O O12 0.072253 0.717124 0.145587
O O13 0.500000 0.500000 0.500000
O O14 0.483332 0.271864 0.599217
O O15 0.038500 0.535611 0.733442
#
# Coordination Sequence:
#
# PCOD9025916 Si02
#       7
#     2   2   2   2   2   2   2
#     4  11  23  42  77 112 144 181 242 306 366 426
#     4  10  23  39  71 113 143 181 237 306 360 422
#     4  12  25  47  72 107 144 195 240 300 363 436
#     4  10  22  40  76 111 140 180 240 305 361 422
#     4  12  32  48  71 104 151 200 245 291 361 441
#     4  11  23  48  70 104 144 193 241 299 357 427
#     4  12  25  49  76 108 149 188 238 305 370 424
#
# _framework density 25.066863999999999
#
# number of rings (size 3 to 8) (size 9 to 14) (size 15 to 20)
#    0.000    0.857    2.857    3.857   12.000    1.143 
#    0.000    1.429    0.000    0.000    0.000    0.000 
#    0.000    0.000    0.000    0.000    0.000    0.000 
#
# Total GULP energy -78408.080352 kJ/mol
# GULP energy per Si atom -5600.577168 kJ/mol
# Density = 2.500981 g / cm^3
# Si number density = 25.066864 Si / 1000 Ang^3
#
#
#
# Elastic Constant Matrix: (Units=GPa)
#
#
# Indices 1 2 3 4 5 6 
#
# 1 83.0252 46.0514 22.7738 -15.9367 -13.7533 12.1595
# 2 46.0514 197.3328 41.1538 -32.5196 -22.3021 0.9047
# 3 22.7738 41.1538 69.2931 1.0242 -22.5700 -2.5212
# 4 -15.9367 -32.5196 1.0242 47.7148 3.1591 -12.0903
# 5 -13.7533 -22.3021 -22.5700 3.1591 49.2437 -9.6929
# 6 12.1595 0.9047 -2.5212 -12.0903 -9.6929 38.2236
#
#
#
# Elastic Compliance Matrix: (Units=1/GPa)
#
#
# Indices 1 2 3 4 5 6 
#
# 1 0.015573 -0.002346 -0.003722 0.002585 0.000593 -0.004176
# 2 -0.002346 0.007148 -0.003032 0.004616 0.001324 0.002173
# 3 -0.003722 -0.003032 0.020147 -0.003373 0.007722 0.003476
# 4 0.002585 0.004616 -0.003373 0.026901 0.001041 0.007619
# 5 0.000593 0.001324 0.007722 0.001041 0.025962 0.007202
# 6 -0.004176 0.002173 0.003476 0.007619 0.007202 0.031904
#
#
# Mechanical properties :
#
#
# Convention : Reuss Voigt Hill
#
# Bulk Modulus (GPa) = 40.53852 63.28987 51.91420
# Shear Modulus (GPa) = 32.45551 43.01456 37.73504
#
# Velocity S-wave (km/s) = 3.60218 4.14695 3.88413
# Velocity P-wave (km/s) = 5.78862 6.94498 6.39300
#
# Compressibility (1/GPa) = 0.02466790
#
# Stress axis : x y z
#
# Youngs Moduli (GPa) = 64.21543 139.90507 49.63545
#
# Poissons Ratio (x) = 0.32819 0.18473
# Poissons Ratio (y) = 0.15064 0.15050
# Poissons Ratio (z) = 0.23899 0.42421
#
# Static dielectric constant tensor:
#      x y z
#    x 2.007830 0.021270 -0.032370 
#    y 0.021270 1.900190 -0.009610 
#    z -0.032370 -0.009610 1.996450 
# 
# From -- ./inp_files/495002.got.cif
#   From: 2010.05.17/outbox.cif.g08.bks.cpg/sg2_248_cif.got.tgz:495002.got - 2010.06.03 11:33:40.
