data_PCOD9025624
_publ_section_title
;
Structure prediction by ZEFSAII (Michael W. Deem and Ramdas Pophale) SiO2 
 PCOD9025624
Probable space group: P -1
;
_chemical_formula_sum "Si O2"
_cell_formula_units_Z 16
_cell_length_a 17.325905
_cell_length_b 20.980584
_cell_length_c 10.574333
_cell_angle_alpha 145.421100
_cell_angle_beta 146.554611
_cell_angle_gamma 17.042214
_cell_volume 613.052863
_symmetry_space_group_name_H-M "P -1"
_symmetry_group_IT_number 2
_symmetry_cell_setting 'triclinic'
loop_
_space_group_symop_operation_xyz
x,y,z
-x,-y,-z
loop_
_atom_site_type_symbol
_atom_site_label
_atom_site_fract_x
_atom_site_fract_y
_atom_site_fract_z
Si Si1 0.785834 0.858176 0.906512
Si Si2 0.731783 0.662071 0.603040
Si Si3 0.767150 0.750395 0.063581
Si Si4 0.329083 0.760349 0.545394
Si Si5 0.860776 0.926305 0.371913
Si Si6 0.264819 0.897184 0.184269
Si Si7 0.192826 0.165878 0.376360
Si Si8 0.578483 0.345959 0.226725
O O1 0.809838 0.707353 0.686520
O O2 0.880670 0.835877 0.864582
O O3 0.468661 0.096373 0.902752
O O4 0.937583 0.808044 0.151542
O O5 0.461708 0.780949 0.383257
O O6 0.985237 0.403801 0.527949
O O7 0.677361 0.772624 0.835864
O O8 0.847958 0.824881 0.279926
O O9 0.000000 0.500000 0.000000
O O10 0.364276 0.827151 0.590719
O O11 0.428965 0.564812 0.340136
O O12 0.473182 0.678159 0.746472
O O13 0.000000 0.000000 0.500000
O O14 0.178299 0.078390 0.314968
O O15 0.447934 0.720668 0.032650
O O16 0.893007 0.170334 0.391867
O O17 0.000000 0.000000 0.000000
O O18 0.500000 0.000000 0.500000
#
# Coordination Sequence:
#
# PCOD9025624 Si02
#       8
#     2   2   2   2   2   2   2   2
#     4  11  24  46  76 113 148 195 257 327 388 455
#     4  11  26  50  79 114 157 201 262 325 392 466
#     4  11  26  46  75 115 149 198 260 334 392 455
#     4   9  20  43  67 102 143 190 246 303 376 450
#     4  10  22  40  70 102 147 188 249 313 380 450
#     4  12  30  49  77 111 161 208 258 310 395 477
#     4  12  26  51  81 113 156 203 262 324 392 476
#     4  10  23  42  70 104 147 196 246 309 379 458
#
# _framework density 26.098890999999998
#
# number of rings (size 3 to 8) (size 9 to 14) (size 15 to 20)
#    0.000    1.250    1.250    3.375    5.250    5.500 
#   11.250    0.000    0.000    0.000    0.000    0.000 
#    0.000    0.000    0.000    0.000    0.000    0.000 
#
# Total GULP energy -89441.491164 kJ/mol
# GULP energy per Si atom -5590.093198 kJ/mol
# Density = 2.603949 g / cm^3
# Si number density = 26.098891 Si / 1000 Ang^3
#
#
#
# Elastic Constant Matrix: (Units=GPa)
#
#
# Indices 1 2 3 4 5 6 
#
# 1 138.2031 42.2947 47.1197 5.7800 17.6486 23.5899
# 2 42.2947 123.8024 50.0495 25.6312 28.0955 22.6929
# 3 47.1197 50.0495 150.5233 19.6637 -7.3665 23.2947
# 4 5.7800 25.6312 19.6637 64.9130 11.5394 7.0015
# 5 17.6486 28.0955 -7.3665 11.5394 59.7130 -3.3217
# 6 23.5899 22.6929 23.2947 7.0015 -3.3217 41.6314
#
#
#
# Elastic Compliance Matrix: (Units=1/GPa)
#
#
# Indices 1 2 3 4 5 6 
#
# 1 0.009339 -0.001168 -0.002247 0.001248 -0.002943 -0.003842
# 2 -0.001168 0.012242 -0.002991 -0.002361 -0.005572 -0.004386
# 3 -0.002247 -0.002991 0.008982 -0.001784 0.003438 -0.001548
# 4 0.001248 -0.002361 -0.001784 0.017461 -0.002941 -0.001593
# 5 -0.002943 -0.005572 0.003438 -0.002941 0.021508 0.004991
# 6 -0.003842 -0.004386 -0.001548 -0.001593 0.004991 0.030120
#
#
# Mechanical properties :
#
#
# Convention : Reuss Voigt Hill
#
# Bulk Modulus (GPa) = 56.33414 76.82853 66.58133
# Shear Modulus (GPa) = 42.23572 51.45581 46.84576
#
# Velocity S-wave (km/s) = 4.02717 4.44505 4.24126
# Velocity P-wave (km/s) = 6.57692 7.47302 7.03924
#
# Compressibility (1/GPa) = 0.01775123
#
# Stress axis : x y z
#
# Youngs Moduli (GPa) = 107.07903 81.68281 111.32983
#
# Poissons Ratio (x) = 0.09542 0.25021
# Poissons Ratio (y) = 0.12509 0.33294
# Poissons Ratio (z) = 0.24066 0.24428
#
# Static dielectric constant tensor:
#      x y z
#    x 2.537750 -0.179300 -0.105940 
#    y -0.179300 2.236860 -0.020420 
#    z -0.105940 -0.020420 2.060150 
# 
# From -- ./inp_files/466946.got.cif
#   From: 2010.05.17/outbox.cif.g08.bks.cpg/sg2_234_cif.got.tgz:466946.got - 2010.06.03 11:33:40.
