data_PCOD9025054
_publ_section_title
;
Structure prediction by ZEFSAII (Michael W. Deem and Ramdas Pophale) SiO2 
 PCOD9025054
Probable space group: P -1
;
_chemical_formula_sum "Si O2"
_cell_formula_units_Z 16
_cell_length_a 11.723543
_cell_length_b 5.142248
_cell_length_c 12.459748
_cell_angle_alpha 103.879224
_cell_angle_beta 113.490764
_cell_angle_gamma 74.927589
_cell_volume 657.272914
_symmetry_space_group_name_H-M "P -1"
_symmetry_group_IT_number 2
_symmetry_cell_setting 'triclinic'
loop_
_space_group_symop_operation_xyz
x,y,z
-x,-y,-z
loop_
_atom_site_type_symbol
_atom_site_label
_atom_site_fract_x
_atom_site_fract_y
_atom_site_fract_z
Si Si1 0.834700 0.811497 0.039211
Si Si2 0.378463 0.755776 0.055442
Si Si3 0.286447 0.532335 0.198281
Si Si4 0.645501 0.729627 0.147901
Si Si5 0.076085 0.460446 0.413259
Si Si6 0.492566 0.727377 0.613292
Si Si7 0.657913 0.672423 0.389929
Si Si8 0.929731 0.111392 0.732611
O O1 0.742231 0.810941 0.107449
O O2 0.970517 0.819601 0.136376
O O3 0.814683 0.581136 0.925180
O O4 0.762615 0.074712 0.976727
O O5 0.386883 0.606619 0.157886
O O6 0.500903 0.898886 0.109385
O O7 0.376551 0.561292 0.933686
O O8 0.368625 0.311438 0.285496
O O9 0.210820 0.776297 0.264562
O O10 0.696849 0.703819 0.284137
O O11 0.222236 0.366519 0.491488
O O12 0.057265 0.725171 0.356654
O O13 0.000000 0.500000 0.500000
O O14 0.040559 0.209360 0.308944
O O15 0.500000 0.500000 0.500000
O O16 0.398889 0.602972 0.645756
O O17 0.436175 0.039343 0.593571
#
# Coordination Sequence:
#
# PCOD9025054 Si02
#       8
#     2   2   2   2   2   2   2   2
#     4  11  25  42  72 100 148 193 243 292 363 423
#     4  10  22  41  68 103 144 183 234 298 355 428
#     4  11  25  45  70 110 147 190 239 296 361 437
#     4  10  22  40  67 107 137 185 236 296 360 423
#     4  12  28  51  73 107 143 192 249 303 356 425
#     4  12  26  45  72 105 142 184 235 293 365 429
#     4  12  25  44  75 102 138 187 235 297 365 421
#     4  12  29  48  75 104 147 195 247 297 357 432
#
# _framework density 24.343007
#
# number of rings (size 3 to 8) (size 9 to 14) (size 15 to 20)
#    0.000    0.750    1.250    5.250    8.750    0.500 
#    0.000    0.000    0.000    0.000    0.000    0.000 
#    0.000    0.000    0.000    0.000    0.000    0.000 
#
# Total GULP energy -89511.629861 kJ/mol
# GULP energy per Si atom -5594.476866 kJ/mol
# Density = 2.428760 g / cm^3
# Si number density = 24.343007 Si / 1000 Ang^3
#
#
#
# Elastic Constant Matrix: (Units=GPa)
#
#
# Indices 1 2 3 4 5 6 
#
# 1 61.4083 10.1205 18.9046 7.4902 18.6502 -13.1633
# 2 10.1205 59.1534 -13.0240 2.9630 1.7935 1.6343
# 3 18.9046 -13.0240 73.2552 -3.2725 5.5462 6.5341
# 4 7.4902 2.9630 -3.2725 36.7517 -14.0842 0.5141
# 5 18.6502 1.7935 5.5462 -14.0842 41.2669 2.9792
# 6 -13.1633 1.6343 6.5341 0.5141 2.9792 29.9286
#
#
#
# Elastic Compliance Matrix: (Units=1/GPa)
#
#
# Indices 1 2 3 4 5 6 
#
# 1 0.032452 -0.007080 -0.010532 -0.014655 -0.019326 0.019135
# 2 -0.007080 0.019371 0.005652 0.001419 0.002492 -0.005678
# 3 -0.010532 0.005652 0.018103 0.005169 0.004526 -0.009432
# 4 -0.014655 0.001419 0.005169 0.038216 0.019651 -0.010264
# 5 -0.019326 0.002492 0.004526 0.019651 0.039963 -0.013940
# 6 0.019135 -0.005678 -0.009432 -0.010264 -0.013940 0.045762
#
#
# Mechanical properties :
#
#
# Convention : Reuss Voigt Hill
#
# Bulk Modulus (GPa) = 21.73524 25.09102 23.41313
# Shear Modulus (GPa) = 21.44798 33.44385 27.44591
#
# Velocity S-wave (km/s) = 2.97151 3.71058 3.36142
# Velocity P-wave (km/s) = 4.55206 5.35607 4.97035
#
# Compressibility (1/GPa) = 0.04600823
#
# Stress axis : x y z
#
# Youngs Moduli (GPa) = 30.81473 51.62320 55.23888
#
# Poissons Ratio (x) = 0.36547 0.58175
# Poissons Ratio (y) = 0.21816 -0.31222
# Poissons Ratio (z) = 0.32453 -0.29178
#
# Static dielectric constant tensor:
#      x y z
#    x 1.979170 -0.016620 -0.012270 
#    y -0.016620 1.981410 -0.009460 
#    z -0.012270 -0.009460 1.919410 
# 
# From -- ./inp_files/410872.got.cif
#   From: 2010.05.17/outbox.cif.g08.bks.cpg/sg2_206_cif.got.tgz:410872.got - 2010.06.03 11:33:40.
