data_PCOD9025957
_publ_section_title
;
Structure prediction by ZEFSAII (Michael W. Deem and Ramdas Pophale) SiO2 
 PCOD9025957
Probable space group: P -1
;
_chemical_formula_sum "Si O2"
_cell_formula_units_Z 14
_cell_length_a 19.226282
_cell_length_b 16.053277
_cell_length_c 7.614693
_cell_angle_alpha 120.816613
_cell_angle_beta 128.289024
_cell_angle_gamma 19.050730
_cell_volume 576.875215
_symmetry_space_group_name_H-M "P -1"
_symmetry_group_IT_number 2
_symmetry_cell_setting 'triclinic'
loop_
_space_group_symop_operation_xyz
x,y,z
-x,-y,-z
loop_
_atom_site_type_symbol
_atom_site_label
_atom_site_fract_x
_atom_site_fract_y
_atom_site_fract_z
Si Si1 0.770485 0.709007 0.252262
Si Si2 0.683373 0.688803 0.780842
Si Si3 0.220645 0.612047 0.212077
Si Si4 0.698885 0.097341 0.879790
Si Si5 0.442180 0.170597 0.638686
Si Si6 0.701493 0.195613 0.660638
Si Si7 0.778222 0.319255 0.104351
O O1 0.651437 0.742136 0.214871
O O2 0.000000 0.500000 0.500000
O O3 0.582635 0.990074 0.264065
O O4 0.836534 0.608864 0.051169
O O5 0.707971 0.562693 0.781028
O O6 0.730276 0.627653 0.580542
O O7 0.435233 0.465464 0.451481
O O8 0.225676 0.616738 0.014926
O O9 0.932407 0.912293 0.129608
O O10 0.655032 0.033222 0.809280
O O11 0.730216 0.070420 0.690163
O O12 0.446502 0.410681 0.850276
O O13 0.500000 0.000000 0.500000
O O14 0.731299 0.256959 0.903594
O O15 0.953762 0.945211 0.675552
#
# Coordination Sequence:
#
# PCOD9025957 Si02
#       7
#     2   2   2   2   2   2   2
#     4  10  23  41  65  91 125 175 229 278 332 398
#     4  10  22  41  59  93 127 170 221 274 332 392
#     4  11  23  39  66  93 135 170 218 274 337 402
#     4  11  23  41  63  97 131 173 223 277 333 402
#     4  10  22  42  62  91 132 174 220 277 331 391
#     4  10  22  43  66  95 131 175 215 276 341 398
#     4  10  23  41  67  96 133 171 220 275 336 408
#
# _framework density 24.268681000000001
#
# number of rings (size 3 to 8) (size 9 to 14) (size 15 to 20)
#    0.000    1.714    1.429    1.714    4.000    3.429 
#    7.714    0.000    0.000    0.000    0.000    0.000 
#    0.000    0.000    0.000    0.000    0.000    0.000 
#
# Total GULP energy -78091.028823 kJ/mol
# GULP energy per Si atom -5577.930630 kJ/mol
# Density = 2.421344 g / cm^3
# Si number density = 24.268681 Si / 1000 Ang^3
#
#
#
# Elastic Constant Matrix: (Units=GPa)
#
#
# Indices 1 2 3 4 5 6 
#
# 1 94.7191 15.1903 -6.4738 -6.4776 -3.1292 7.8374
# 2 15.1903 91.3425 52.3204 -27.4585 22.3801 -2.2819
# 3 -6.4738 52.3204 110.3533 -44.0177 9.1592 -16.3835
# 4 -6.4776 -27.4585 -44.0177 35.7738 -12.1306 5.3755
# 5 -3.1292 22.3801 9.1592 -12.1306 40.6367 -5.6237
# 6 7.8374 -2.2819 -16.3835 5.3755 -5.6237 37.8539
#
#
#
# Elastic Compliance Matrix: (Units=1/GPa)
#
#
# Indices 1 2 3 4 5 6 
#
# 1 0.012084 -0.003578 0.004459 0.006331 0.003627 -0.001148
# 2 -0.003578 0.018766 -0.008594 0.000643 -0.008934 -0.003266
# 3 0.004459 -0.008594 0.023736 0.025208 0.008146 0.006463
# 4 0.006331 0.000643 0.025208 0.065055 0.014219 0.002513
# 5 0.003627 -0.008934 0.008146 0.014219 0.032923 0.005108
# 6 -0.001148 -0.003266 0.006463 0.002513 0.005108 0.029657
#
#
# Mechanical properties :
#
#
# Convention : Reuss Voigt Hill
#
# Bulk Modulus (GPa) = 25.53612 46.49875 36.01744
# Shear Modulus (GPa) = 23.73032 38.54477 31.13754
#
# Velocity S-wave (km/s) = 3.13040 3.98961 3.58583
# Velocity P-wave (km/s) = 4.85911 6.35801 5.65841
#
# Compressibility (1/GPa) = 0.03916021
#
# Stress axis : x y z
#
# Youngs Moduli (GPa) = 82.75545 53.28781 42.12929
#
# Poissons Ratio (x) = 0.19066 -0.18785
# Poissons Ratio (y) = 0.29609 0.36206
# Poissons Ratio (z) = -0.36900 0.45796
#
# Static dielectric constant tensor:
#      x y z
#    x 1.986660 -0.032630 0.012070 
#    y -0.032630 1.970930 -0.011820 
#    z 0.012070 -0.011820 1.997990 
# 
# From -- ./inp_files/348118.got.cif
#   From: 2010.05.17/outbox.cif.g08.bks.cpg/sg2_175_cif.got.tgz:348118.got - 2010.06.03 11:33:40.
