data_PCOD9025010
_publ_section_title
;
Structure prediction by ZEFSAII (Michael W. Deem and Ramdas Pophale) SiO2 
 PCOD9025010
Probable space group: P -1
;
_chemical_formula_sum "Si O2"
_cell_formula_units_Z 16
_cell_length_a 8.193677
_cell_length_b 14.343615
_cell_length_c 17.484616
_cell_angle_alpha 142.312848
_cell_angle_beta 145.272533
_cell_angle_gamma 45.304841
_cell_volume 707.348108
_symmetry_space_group_name_H-M "P -1"
_symmetry_group_IT_number 2
_symmetry_cell_setting 'triclinic'
loop_
_space_group_symop_operation_xyz
x,y,z
-x,-y,-z
loop_
_atom_site_type_symbol
_atom_site_label
_atom_site_fract_x
_atom_site_fract_y
_atom_site_fract_z
Si Si1 0.997454 0.287440 0.705855
Si Si2 0.920632 0.485468 0.371790
Si Si3 0.899019 0.360661 0.026509
Si Si4 0.373548 0.861527 0.115368
Si Si5 0.528439 0.170839 0.150438
Si Si6 0.044981 0.836878 0.821451
Si Si7 0.730745 0.403848 0.828883
Si Si8 0.291690 0.666814 0.533441
O O1 0.098167 0.457310 0.844327
O O2 0.287450 0.168885 0.756285
O O3 0.801107 0.297845 0.713130
O O4 0.815433 0.267968 0.547523
O O5 0.072733 0.315868 0.294866
O O6 0.576873 0.492873 0.234788
O O7 0.000000 0.500000 0.500000
O O8 0.022385 0.616449 0.444164
O O9 0.229615 0.281744 0.090597
O O10 0.762300 0.280516 0.991909
O O11 0.730367 0.329221 0.863753
O O12 0.283539 0.870933 0.997703
O O13 0.199716 0.016873 0.184887
O O14 0.793856 0.205349 0.223357
O O15 0.586395 0.207660 0.284909
O O16 0.500000 0.000000 0.000000
O O17 0.000000 0.500000 0.000000
O O18 0.500000 0.500000 0.500000
#
# Coordination Sequence:
#
# PCOD9025010 Si02
#       8
#     2   2   2   2   2   2   2   2
#     4  11  21  40  64  97 140 174 233 287 346 406
#     4  12  23  41  69 100 136 180 231 290 345 416
#     4  11  20  39  67  97 133 179 235 283 342 412
#     4  11  23  38  66 100 135 180 226 288 339 420
#     4  12  24  44  67 101 139 188 229 283 352 425
#     4  11  23  42  63 100 138 180 232 278 352 415
#     4  10  22  40  67 100 137 179 232 291 346 412
#     4  12  25  43  70 107 140 180 234 296 354 411
#
# _framework density 22.619695
#
# number of rings (size 3 to 8) (size 9 to 14) (size 15 to 20)
#    0.000    0.750    3.750    6.375    0.000    0.000 
#    0.000    1.875    0.000    3.000    0.000    0.000 
#    0.000    0.000    0.000    0.000    0.000    0.000 
#
# Total GULP energy -89505.742553 kJ/mol
# GULP energy per Si atom -5594.108910 kJ/mol
# Density = 2.256821 g / cm^3
# Si number density = 22.619695 Si / 1000 Ang^3
#
#
#
# Elastic Constant Matrix: (Units=GPa)
#
#
# Indices 1 2 3 4 5 6 
#
# 1 76.0564 19.0659 28.0345 -9.2398 -26.9841 -9.1232
# 2 19.0659 114.6446 59.7550 -28.1374 -9.7430 -25.6153
# 3 28.0345 59.7550 107.4933 -8.4062 -33.7952 -8.2422
# 4 -9.2398 -28.1374 -8.4062 33.9375 9.6331 6.6558
# 5 -26.9841 -9.7430 -33.7952 9.6331 46.3914 -2.8734
# 6 -9.1232 -25.6153 -8.2422 6.6558 -2.8734 35.2555
#
#
#
# Elastic Compliance Matrix: (Units=1/GPa)
#
#
# Indices 1 2 3 4 5 6 
#
# 1 0.017670 -0.000465 -0.000893 0.000521 0.009713 0.004719
# 2 -0.000465 0.018859 -0.010707 0.013063 -0.006321 0.008097
# 3 -0.000893 -0.010707 0.018684 -0.007780 0.012386 -0.001164
# 4 0.000521 0.013063 -0.007780 0.041950 -0.011396 -0.001041
# 5 0.009713 -0.006321 0.012386 -0.011396 0.037642 0.006036
# 6 0.004719 0.008097 -0.001164 -0.001041 0.006036 0.035885
#
#
# Mechanical properties :
#
#
# Convention : Reuss Voigt Hill
#
# Bulk Modulus (GPa) = 32.17307 56.87833 44.52570
# Shear Modulus (GPa) = 24.36872 35.87282 30.12077
#
# Velocity S-wave (km/s) = 3.28582 3.98667 3.65309
# Velocity P-wave (km/s) = 5.35256 6.81113 6.12541
#
# Compressibility (1/GPa) = 0.03108189
#
# Stress axis : x y z
#
# Youngs Moduli (GPa) = 56.59442 53.02576 53.52076
#
# Poissons Ratio (x) = 0.02467 0.04781
# Poissons Ratio (y) = 0.02633 0.57304
# Poissons Ratio (z) = 0.05055 0.56774
#
# Static dielectric constant tensor:
#      x y z
#    x 1.880270 0.022780 0.023380 
#    y 0.022780 1.835870 0.033360 
#    z 0.023380 0.033360 1.876370 
# 
# From -- ./inp_files/392179.got.cif
#   From: 2010.05.17/outbox.cif.g08.bks.cpg/sg2_197_cif.got.tgz:392179.got - 2010.06.03 11:33:40.
