data_PCOD9025442
_publ_section_title
;
Structure prediction by ZEFSAII (Michael W. Deem and Ramdas Pophale) SiO2 
 PCOD9025442
Probable space group: P -1
;
_chemical_formula_sum "Si O2"
_cell_formula_units_Z 14
_cell_length_a 11.499572
_cell_length_b 10.428808
_cell_length_c 8.782193
_cell_angle_alpha 128.114540
_cell_angle_beta 50.597150
_cell_angle_gamma 130.176351
_cell_volume 582.056664
_symmetry_space_group_name_H-M "P -1"
_symmetry_group_IT_number 2
_symmetry_cell_setting 'triclinic'
loop_
_space_group_symop_operation_xyz
x,y,z
-x,-y,-z
loop_
_atom_site_type_symbol
_atom_site_label
_atom_site_fract_x
_atom_site_fract_y
_atom_site_fract_z
Si Si1 0.107989 0.009837 0.062276
Si Si2 0.025790 0.461512 0.181614
Si Si3 0.880396 0.624074 0.621382
Si Si4 0.207731 0.286562 0.745859
Si Si5 0.393045 0.198641 0.267326
Si Si6 0.300931 0.846292 0.886892
Si Si7 0.477137 0.529132 0.216380
O O1 0.163407 0.207501 0.221268
O O2 0.968916 0.873466 0.189827
O O3 0.259129 0.955275 0.864764
O O4 0.000000 0.000000 0.000000
O O5 0.005303 0.633834 0.388927
O O6 0.859518 0.339692 0.139536
O O7 0.050381 0.386298 0.274389
O O8 0.170359 0.456380 0.952965
O O9 0.701267 0.461083 0.619621
O O10 0.270694 0.257351 0.509619
O O11 0.359191 0.303086 0.741899
O O12 0.539740 0.191797 0.247064
O O13 0.471712 0.361994 0.201488
O O14 0.311925 0.996109 0.116749
O O15 0.500000 0.500000 0.000000
#
# Coordination Sequence:
#
# PCOD9025442 Si02
#       7
#     2   2   2   2   2   2   2
#     4  11  20  43  73 101 136 185 232 289 332 413
#     4  10  22  40  69 100 141 181 232 285 347 406
#     4  11  21  42  70 103 141 176 232 293 340 403
#     4  11  24  43  70 104 139 182 232 281 357 406
#     4  11  25  44  69 102 144 184 229 286 351 423
#     4  10  22  45  69  96 145 184 225 283 354 414
#     4  12  23  44  73 101 135 184 229 292 342 414
#
# _framework density 24.052644000000001
#
# number of rings (size 3 to 8) (size 9 to 14) (size 15 to 20)
#    0.000    1.143    5.714    1.286    0.000    2.286 
#    5.143    4.286    0.000    0.000    0.000    0.000 
#    0.000    0.000    0.000    0.000    0.000    0.000 
#
# Total GULP energy -77954.426572 kJ/mol
# GULP energy per Si atom -5568.173327 kJ/mol
# Density = 2.399790 g / cm^3
# Si number density = 24.052644 Si / 1000 Ang^3
#
#
#
# Elastic Constant Matrix: (Units=GPa)
#
#
# Indices 1 2 3 4 5 6 
#
# 1 150.2669 29.8063 28.3591 -3.5068 -9.0535 15.2121
# 2 29.8063 39.7080 14.9881 -10.9213 -2.1937 5.1763
# 3 28.3591 14.9881 142.4320 -14.8134 -13.8223 -13.7139
# 4 -3.5068 -10.9213 -14.8134 20.6008 1.3871 -1.0102
# 5 -9.0535 -2.1937 -13.8223 1.3871 32.2990 8.1902
# 6 15.2121 5.1763 -13.7139 -1.0102 8.1902 52.6249
#
#
#
# Elastic Compliance Matrix: (Units=1/GPa)
#
#
# Indices 1 2 3 4 5 6 
#
# 1 0.008476 -0.006242 -0.001399 -0.003144 0.002146 -0.002595
# 2 -0.006242 0.035009 -0.000846 0.016819 -0.000069 -0.001526
# 3 -0.001399 -0.000846 0.008398 0.005316 0.002302 0.002420
# 4 -0.003144 0.016819 0.005316 0.060876 -0.000559 0.001895
# 5 0.002146 -0.000069 0.002302 -0.000559 0.033911 -0.005302
# 6 -0.002595 -0.001526 0.002420 0.001895 -0.005302 0.021395
#
#
# Mechanical properties :
#
#
# Convention : Reuss Voigt Hill
#
# Bulk Modulus (GPa) = 28.64583 53.19044 40.91813
# Shear Modulus (GPa) = 25.42265 38.38850 31.90558
#
# Velocity S-wave (km/s) = 3.25462 3.99936 3.64605
# Velocity P-wave (km/s) = 5.10479 6.59459 5.89693
#
# Compressibility (1/GPa) = 0.03490910
#
# Stress axis : x y z
#
# Youngs Moduli (GPa) = 117.98490 28.56376 119.07936
#
# Poissons Ratio (x) = 0.17829 0.16663
# Poissons Ratio (y) = 0.73645 0.10070
# Poissons Ratio (z) = 0.16510 0.02415
#
# Static dielectric constant tensor:
#      x y z
#    x 2.054660 -0.022730 -0.004590 
#    y -0.022730 2.011130 0.029510 
#    z -0.004590 0.029510 1.972710 
# 
# From -- ./inp_files/260496.got.cif
#   From: 2010.05.17/outbox.cif.g08.bks.cpg/sg2_131_cif.got.tgz:260496.got - 2010.06.03 11:33:40.
