data_PCOD9025000
_publ_section_title
;
Structure prediction by ZEFSAII (Michael W. Deem and Ramdas Pophale) SiO2 
 PCOD9025000
Probable space group: P -1
;
_chemical_formula_sum "Si O2"
_cell_formula_units_Z 12
_cell_length_a 6.857725
_cell_length_b 8.755013
_cell_length_c 15.353043
_cell_angle_alpha 38.680046
_cell_angle_beta 103.282280
_cell_angle_gamma 102.616568
_cell_volume 559.522525
_symmetry_space_group_name_H-M "P -1"
_symmetry_group_IT_number 2
_symmetry_cell_setting 'triclinic'
loop_
_space_group_symop_operation_xyz
x,y,z
-x,-y,-z
loop_
_atom_site_type_symbol
_atom_site_label
_atom_site_fract_x
_atom_site_fract_y
_atom_site_fract_z
Si Si1 0.652423 0.025814 0.583380
Si Si2 0.256622 0.857800 0.279673
Si Si3 0.005910 0.219259 0.330607
Si Si4 0.916184 0.225363 0.129008
Si Si5 0.096775 0.480958 0.659570
Si Si6 0.420259 0.068632 0.867637
O O1 0.592153 0.079307 0.651907
O O2 0.805186 0.264733 0.480119
O O3 0.500000 0.000000 0.500000
O O4 0.775611 0.785532 0.688977
O O5 0.390506 0.867848 0.203307
O O6 0.109447 0.610151 0.369384
O O7 0.089623 0.056463 0.186481
O O8 0.874205 0.176587 0.249549
O O9 0.958105 0.457691 0.273278
O O10 0.000000 0.000000 0.500000
O O11 0.714636 0.156393 0.086735
O O12 0.000000 0.500000 0.000000
O O13 0.267575 0.287542 0.757857
O O14 0.500000 0.000000 0.000000
#
# Coordination Sequence:
#
# PCOD9025000 Si02
#       6
#     2   2   2   2   2   2
#     4  10  22  40  67 100 123 166 220 263 319 383
#     4  10  24  43  63  92 133 168 209 266 323 386
#     4   9  21  41  66  93 132 165 211 267 321 381
#     4  10  24  43  67  92 128 172 218 268 328 375
#     4  10  23  42  66  90 134 169 206 261 331 380
#     4  11  27  42  63  96 128 170 223 258 317 392
#
# _framework density 21.446857000000001
#
# number of rings (size 3 to 8) (size 9 to 14) (size 15 to 20)
#    0.000    2.000    0.000    0.500   11.667    5.333 
#    0.000    0.000    0.000    0.000    0.000    0.000 
#    0.000    0.000    0.000    0.000    0.000    0.000 
#
# Total GULP energy -66864.017560 kJ/mol
# GULP energy per Si atom -5572.001463 kJ/mol
# Density = 2.139804 g / cm^3
# Si number density = 21.446857 Si / 1000 Ang^3
#
#
#
# Elastic Constant Matrix: (Units=GPa)
#
#
# Indices 1 2 3 4 5 6 
#
# 1 81.1482 65.5072 21.0024 13.1868 -16.4811 5.8613
# 2 65.5072 144.5119 43.2659 31.0491 -9.7205 2.3345
# 3 21.0024 43.2659 61.9430 19.2331 -14.0412 5.2573
# 4 13.1868 31.0491 19.2331 55.6781 2.5992 0.9576
# 5 -16.4811 -9.7205 -14.0412 2.5992 21.0310 4.8959
# 6 5.8613 2.3345 5.2573 0.9576 4.8959 48.0221
#
#
#
# Elastic Compliance Matrix: (Units=1/GPa)
#
#
# Indices 1 2 3 4 5 6 
#
# 1 0.024007 -0.010416 0.004343 -0.002149 0.018262 -0.004718
# 2 -0.010416 0.013803 -0.007003 -0.002538 -0.006632 0.002094
# 3 0.004343 -0.007003 0.026797 -0.007233 0.020122 -0.005031
# 4 -0.002149 -0.002538 -0.007233 0.022862 -0.010939 0.001837
# 5 0.018262 -0.006632 0.020122 -0.010939 0.076298 -0.011670
# 6 -0.004718 0.002094 -0.005031 0.001837 -0.011670 0.023002
#
#
# Mechanical properties :
#
#
# Convention : Reuss Voigt Hill
#
# Bulk Modulus (GPa) = 26.00442 60.79490 43.39966
# Shear Modulus (GPa) = 22.14957 35.46809 28.80883
#
# Velocity S-wave (km/s) = 3.21715 4.07106 3.66904
# Velocity P-wave (km/s) = 5.09426 7.10678 6.18295
#
# Compressibility (1/GPa) = 0.03845501
#
# Stress axis : x y z
#
# Youngs Moduli (GPa) = 41.65529 72.44572 37.31829
#
# Poissons Ratio (x) = 0.75461 -0.16207
# Poissons Ratio (y) = 0.43389 0.26133
# Poissons Ratio (z) = -0.18091 0.50731
#
# Static dielectric constant tensor:
#      x y z
#    x 1.814730 -0.020310 0.001860 
#    y -0.020310 1.855300 0.057810 
#    z 0.001860 0.057810 1.793410 
# 
# From -- ./inp_files/25376.got.cif
#   From: 2010.05.17/outbox.cif.g08.bks.cpg/sg2_13_cif.got.tgz:25376.got - 2010.06.03 11:33:40.
