data_PCOD9025899
_publ_section_title
;
Structure prediction by ZEFSAII (Michael W. Deem and Ramdas Pophale) SiO2 
 PCOD9025899
Probable space group: P -1
;
_chemical_formula_sum "Si O2"
_cell_formula_units_Z 16
_cell_length_a 8.103534
_cell_length_b 12.510104
_cell_length_c 9.862508
_cell_angle_alpha 92.890340
_cell_angle_beta 116.583680
_cell_angle_gamma 52.054577
_cell_volume 668.337047
_symmetry_space_group_name_H-M "P -1"
_symmetry_group_IT_number 2
_symmetry_cell_setting 'triclinic'
loop_
_space_group_symop_operation_xyz
x,y,z
-x,-y,-z
loop_
_atom_site_type_symbol
_atom_site_label
_atom_site_fract_x
_atom_site_fract_y
_atom_site_fract_z
Si Si1 0.147903 0.547790 0.008533
Si Si2 0.328507 0.737269 0.853781
Si Si3 0.127539 0.379154 0.354824
Si Si4 0.989602 0.828523 0.981616
Si Si5 0.562217 0.094349 0.979298
Si Si6 0.932412 0.681053 0.361976
Si Si7 0.991487 0.874615 0.486367
Si Si8 0.548187 0.913586 0.645029
O O1 0.076234 0.585074 0.824710
O O2 0.057327 0.688095 0.063718
O O3 0.439642 0.423325 0.111369
O O4 0.000000 0.500000 0.000000
O O5 0.223875 0.765725 0.970101
O O6 0.111493 0.803508 0.671644
O O7 0.433432 0.817774 0.897497
O O8 0.104199 0.337015 0.492981
O O9 0.380898 0.235051 0.376404
O O10 0.092673 0.519703 0.355549
O O11 0.768444 0.882417 0.803322
O O12 0.850141 0.970551 0.028594
O O13 0.338649 0.214728 0.803266
O O14 0.500000 0.000000 0.000000
O O15 0.070913 0.743356 0.412611
O O16 0.702133 0.973833 0.363473
O O17 0.000000 0.000000 0.500000
O O18 0.500000 0.000000 0.500000
#
# Coordination Sequence:
#
# PCOD9025899 Si02
#       8
#     2   2   2   2   2   2   2   2
#     4  11  24  43  68 101 139 179 227 281 357 411
#     4  12  25  43  65 101 135 175 236 282 341 412
#     4  10  22  40  74  96 129 187 229 275 335 429
#     4  11  23  40  68  93 133 180 227 280 332 418
#     4  12  24  43  68 101 142 180 229 289 352 402
#     4  11  22  44  68  99 137 182 232 275 348 417
#     4  12  25  41  67 100 135 177 229 291 340 408
#     4  11  19  42  68  95 129 178 231 269 341 410
#
# _framework density 23.940016
#
# number of rings (size 3 to 8) (size 9 to 14) (size 15 to 20)
#    0.000    0.750    5.000    3.000    3.500    0.000 
#    0.000    0.625    0.000    0.000    0.000    0.000 
#    0.000    0.000    0.000    0.000    0.000    0.000 
#
# Total GULP energy -89281.004383 kJ/mol
# GULP energy per Si atom -5580.062774 kJ/mol
# Density = 2.388553 g / cm^3
# Si number density = 23.940016 Si / 1000 Ang^3
#
#
#
# Elastic Constant Matrix: (Units=GPa)
#
#
# Indices 1 2 3 4 5 6 
#
# 1 36.9459 -5.9347 8.9793 -18.7867 4.4604 2.5606
# 2 -5.9347 186.0571 30.4520 -10.7840 6.4335 5.2492
# 3 8.9793 30.4520 93.0066 -14.5593 -6.8372 -0.4010
# 4 -18.7867 -10.7840 -14.5593 46.2686 2.6868 6.6311
# 5 4.4604 6.4335 -6.8372 2.6868 27.0138 -1.9286
# 6 2.5606 5.2492 -0.4010 6.6311 -1.9286 38.4094
#
#
#
# Elastic Compliance Matrix: (Units=1/GPa)
#
#
# Indices 1 2 3 4 5 6 
#
# 1 0.038604 0.003220 -0.002880 0.017031 -0.010027 -0.006487
# 2 0.003220 0.006118 -0.002149 0.002461 -0.002895 -0.001643
# 3 -0.002880 -0.002149 0.012325 0.001909 0.003951 0.000483
# 4 0.017031 0.002461 0.001909 0.031106 -0.006519 -0.007149
# 5 -0.010027 -0.002895 0.003951 -0.006519 0.041319 0.004305
# 6 -0.006487 -0.001643 0.000483 -0.007149 0.004305 0.028148
#
#
# Mechanical properties :
#
#
# Convention : Reuss Voigt Hill
#
# Bulk Modulus (GPa) = 18.71665 42.55588 30.63627
# Shear Modulus (GPa) = 27.92554 41.17255 34.54904
#
# Velocity S-wave (km/s) = 3.41908 4.15157 3.80300
# Velocity P-wave (km/s) = 4.83962 6.38712 5.66645
#
# Compressibility (1/GPa) = 0.05342835
#
# Stress axis : x y z
#
# Youngs Moduli (GPa) = 25.90409 163.44802 81.13613
#
# Poissons Ratio (x) = -0.52624 0.23369
# Poissons Ratio (y) = -0.08340 0.17434
# Poissons Ratio (z) = 0.07461 0.35120
#
# Static dielectric constant tensor:
#      x y z
#    x 2.081670 0.085700 -0.053410 
#    y 0.085700 2.016200 0.000680 
#    z -0.053410 0.000680 1.868050 
# 
# From -- ./inp_files/392643.got.cif
#   From: 2010.05.17/outbox.cif.g08.bks.cpg/sg2_197_cif.got.tgz:392643.got - 2010.06.03 11:33:40.
