data_PCOD9025207
_publ_section_title
;
Structure prediction by ZEFSAII (Michael W. Deem and Ramdas Pophale) SiO2 
 PCOD9025207
Probable space group: P -1
;
_chemical_formula_sum "Si O2"
_cell_formula_units_Z 16
_cell_length_a 9.436175
_cell_length_b 8.376679
_cell_length_c 14.132661
_cell_angle_alpha 55.899174
_cell_angle_beta 105.193847
_cell_angle_gamma 69.606536
_cell_volume 700.438104
_symmetry_space_group_name_H-M "P -1"
_symmetry_group_IT_number 2
_symmetry_cell_setting 'triclinic'
loop_
_space_group_symop_operation_xyz
x,y,z
-x,-y,-z
loop_
_atom_site_type_symbol
_atom_site_label
_atom_site_fract_x
_atom_site_fract_y
_atom_site_fract_z
Si Si1 0.221507 0.172233 0.542592
Si Si2 0.939791 0.939161 0.291456
Si Si3 0.452473 0.394732 0.256099
Si Si4 0.001881 0.720993 0.713513
Si Si5 0.359966 0.835778 0.990123
Si Si6 0.684905 0.832162 0.978887
Si Si7 0.196371 0.297969 0.152654
Si Si8 0.339438 0.507982 0.417947
O O1 0.136380 0.186094 0.624807
O O2 0.055695 0.295817 0.395144
O O3 0.323213 0.295218 0.513756
O O4 0.370060 0.888861 0.629743
O O5 0.135589 0.751988 0.333891
O O6 0.956465 0.090203 0.324033
O O7 0.784997 0.122806 0.125839
O O8 0.482450 0.568534 0.147314
O O9 0.286056 0.421249 0.163473
O O10 0.386751 0.478586 0.324216
O O11 0.831042 0.811767 0.724862
O O12 0.169074 0.452274 0.870820
O O13 0.486136 0.898253 0.944390
O O14 0.263955 0.024553 0.997677
O O15 0.685550 0.883566 0.851966
O O16 0.000000 0.500000 0.000000
O O17 0.500000 0.500000 0.500000
#
# Coordination Sequence:
#
# PCOD9025207 Si02
#       8
#     2   2   2   2   2   2   2   2
#     4  12  26  50  75 101 148 194 242 293 360 433
#     4  12  27  45  76 106 146 188 243 298 361 428
#     4  12  26  45  73 100 146 189 240 297 352 430
#     4  11  23  44  72 104 139 189 243 289 358 431
#     4  11  25  44  68 108 142 187 238 298 359 425
#     4  10  23  43  70 102 146 186 236 296 359 423
#     4  10  22  40  67  98 135 187 229 290 348 420
#     4  12  29  48  72 110 145 191 240 301 363 425
#
# _framework density 22.842846999999999
#
# number of rings (size 3 to 8) (size 9 to 14) (size 15 to 20)
#    0.000    0.750    1.250    5.625    5.250    5.000 
#    0.000    0.000    0.000    0.000    0.000    0.000 
#    0.000    0.000    0.000    0.000    0.000    0.000 
#
# Total GULP energy -89530.949956 kJ/mol
# GULP energy per Si atom -5595.684372 kJ/mol
# Density = 2.279086 g / cm^3
# Si number density = 22.842847 Si / 1000 Ang^3
#
#
#
# Elastic Constant Matrix: (Units=GPa)
#
#
# Indices 1 2 3 4 5 6 
#
# 1 57.6126 10.4772 0.1153 10.3252 3.0759 9.7535
# 2 10.4772 74.5074 11.1320 12.9433 12.0348 4.4079
# 3 0.1153 11.1320 58.6258 6.3760 7.2629 -0.8916
# 4 10.3252 12.9433 6.3760 39.9263 3.9543 0.1722
# 5 3.0759 12.0348 7.2629 3.9543 34.9614 -2.4283
# 6 9.7535 4.4079 -0.8916 0.1722 -2.4283 36.3483
#
#
#
# Elastic Compliance Matrix: (Units=1/GPa)
#
#
# Indices 1 2 3 4 5 6 
#
# 1 0.019363 -0.001578 0.000818 -0.004489 -0.001173 -0.005042
# 2 -0.001578 0.015429 -0.001986 -0.003828 -0.004450 -0.001776
# 3 0.000818 -0.001986 0.018028 -0.002164 -0.002869 0.000282
# 4 -0.004489 -0.003828 -0.002164 0.027876 -0.000892 0.001424
# 5 -0.001173 -0.004450 -0.002869 -0.000892 0.031134 0.002868
# 6 -0.005042 -0.001776 0.000282 0.001424 0.002868 0.029272
#
#
# Mechanical properties :
#
#
# Convention : Reuss Voigt Hill
#
# Bulk Modulus (GPa) = 21.12844 26.02163 23.57504
# Shear Modulus (GPa) = 30.79417 33.51528 32.15473
#
# Velocity S-wave (km/s) = 3.67562 3.83457 3.75594
# Velocity P-wave (km/s) = 5.22332 5.56970 5.39929
#
# Compressibility (1/GPa) = 0.04732958
#
# Stress axis : x y z
#
# Youngs Moduli (GPa) = 51.64443 64.81333 55.46959
#
# Poissons Ratio (x) = 0.10225 -0.04539
# Poissons Ratio (y) = 0.08147 0.11016
# Poissons Ratio (z) = -0.04226 0.12871
#
# Static dielectric constant tensor:
#      x y z
#    x 1.874620 -0.035290 -0.008950 
#    y -0.035290 1.909670 -0.018990 
#    z -0.008950 -0.018990 1.830210 
# 
# From -- ./inp_files/494410.got.cif
#   From: 2010.05.17/outbox.cif.g08.bks.cpg/sg2_248_cif.got.tgz:494410.got - 2010.06.03 11:33:40.
