data_PCOD9025519
_publ_section_title
;
Structure prediction by ZEFSAII (Michael W. Deem and Ramdas Pophale) SiO2 
 PCOD9025519
Probable space group: P -1
;
_chemical_formula_sum "Si O2"
_cell_formula_units_Z 16
_cell_length_a 14.549408
_cell_length_b 9.423351
_cell_length_c 5.497373
_cell_angle_alpha 89.569328
_cell_angle_beta 101.929832
_cell_angle_gamma 114.778335
_cell_volume 666.881751
_symmetry_space_group_name_H-M "P -1"
_symmetry_group_IT_number 2
_symmetry_cell_setting 'triclinic'
loop_
_space_group_symop_operation_xyz
x,y,z
-x,-y,-z
loop_
_atom_site_type_symbol
_atom_site_label
_atom_site_fract_x
_atom_site_fract_y
_atom_site_fract_z
Si Si1 0.906985 0.392197 0.699178
Si Si2 0.353525 0.334864 0.984336
Si Si3 0.317206 0.219049 0.458990
Si Si4 0.517607 0.305171 0.799907
Si Si5 0.799279 0.093474 0.331093
Si Si6 0.064469 0.058404 0.786488
Si Si7 0.879727 0.583270 0.272343
Si Si8 0.280545 0.722636 0.028194
O O1 0.883508 0.255067 0.484746
O O2 0.897130 0.537861 0.557506
O O3 0.808485 0.308007 0.820417
O O4 0.026476 0.433619 0.826362
O O5 0.284716 0.256936 0.181924
O O6 0.430742 0.250634 0.967577
O O7 0.306431 0.317596 0.685582
O O8 0.420417 0.510829 0.109005
O O9 0.255133 0.038272 0.494758
O O10 0.441503 0.271061 0.528544
O O11 0.604563 0.242700 0.825123
O O12 0.853535 0.016745 0.183653
O O13 0.719043 0.142851 0.149751
O O14 0.107725 0.245212 0.782699
O O15 0.000000 0.000000 0.500000
O O16 0.000000 0.000000 0.000000
O O17 0.770009 0.445628 0.135360
#
# Coordination Sequence:
#
# PCOD9025519 Si02
#       8
#     2   2   2   2   2   2   2   2
#     4  10  22  43  65  93 137 173 229 270 336 399
#     4   9  21  41  67  97 134 171 219 283 326 391
#     4  10  22  40  69  93 135 172 215 275 336 386
#     4   9  22  39  65  97 134 171 227 271 333 395
#     4  11  26  42  66  99 137 179 220 279 337 398
#     4  12  27  45  72 101 136 173 227 281 334 394
#     4  10  23  41  66  96 128 180 221 279 330 397
#     4  11  24  42  67  97 132 185 221 276 329 411
#
# _framework density 23.992260999999999
#
# number of rings (size 3 to 8) (size 9 to 14) (size 15 to 20)
#    0.750    1.000    1.250    1.500    5.250    3.500 
#    0.000    1.250    0.000    0.000    0.000    0.000 
#    0.000    0.000    0.000    0.000    0.000    0.000 
#
# Total GULP energy -89299.938444 kJ/mol
# GULP energy per Si atom -5581.246153 kJ/mol
# Density = 2.393765 g / cm^3
# Si number density = 23.992261 Si / 1000 Ang^3
#
#
#
# Elastic Constant Matrix: (Units=GPa)
#
#
# Indices 1 2 3 4 5 6 
#
# 1 86.4359 -5.2946 17.0246 1.6237 8.1761 -11.9588
# 2 -5.2946 118.4874 22.1654 -9.3749 -4.7401 -5.9990
# 3 17.0246 22.1654 96.4732 -10.6858 -11.1006 6.1394
# 4 1.6237 -9.3749 -10.6858 23.7486 12.2134 -1.3865
# 5 8.1761 -4.7401 -11.1006 12.2134 34.8107 -3.2695
# 6 -11.9588 -5.9990 6.1394 -1.3865 -3.2695 25.4707
#
#
#
# Elastic Compliance Matrix: (Units=1/GPa)
#
#
# Indices 1 2 3 4 5 6 
#
# 1 0.013708 0.001535 -0.003610 0.000314 -0.003594 0.007223
# 2 0.001535 0.009351 -0.002379 0.003017 -0.000567 0.003588
# 3 -0.003610 -0.002379 0.012541 0.003144 0.002976 -0.004725
# 4 0.000314 0.003017 0.003144 0.053701 -0.017427 0.000786
# 5 -0.003594 -0.000567 0.002976 -0.017427 0.036672 0.001220
# 6 0.007223 0.003588 -0.004725 0.000786 0.001220 0.044836
#
#
# Mechanical properties :
#
#
# Convention : Reuss Voigt Hill
#
# Bulk Modulus (GPa) = 37.46552 41.02083 39.24317
# Shear Modulus (GPa) = 26.50945 34.63940 30.57442
#
# Velocity S-wave (km/s) = 3.32763 3.80382 3.57367
# Velocity P-wave (km/s) = 5.51487 6.03546 5.78103
#
# Compressibility (1/GPa) = 0.02669121
#
# Stress axis : x y z
#
# Youngs Moduli (GPa) = 72.95168 106.94104 79.74158
#
# Poissons Ratio (x) = -0.16412 0.28787
# Poissons Ratio (y) = -0.11196 0.18968
# Poissons Ratio (z) = 0.26335 0.25438
#
# Static dielectric constant tensor:
#      x y z
#    x 1.987180 0.010300 0.032110 
#    y 0.010300 1.887910 0.032680 
#    z 0.032110 0.032680 2.030700 
# 
# From -- ./inp_files/90513.got.cif
#   From: 2010.05.17/outbox.cif.g08.bks.cpg/sg2_46_cif.got.tgz:90513.got - 2010.06.03 11:33:40.
