data_PCOD9025287
_publ_section_title
;
Structure prediction by ZEFSAII (Michael W. Deem and Ramdas Pophale) SiO2 
 PCOD9025287
Probable space group: P -1
;
_chemical_formula_sum "Si O2"
_cell_formula_units_Z 16
_cell_length_a 5.590116
_cell_length_b 11.551519
_cell_length_c 11.760211
_cell_angle_alpha 114.427080
_cell_angle_beta 82.183180
_cell_angle_gamma 110.666659
_cell_volume 646.893882
_symmetry_space_group_name_H-M "P -1"
_symmetry_group_IT_number 2
_symmetry_cell_setting 'triclinic'
loop_
_space_group_symop_operation_xyz
x,y,z
-x,-y,-z
loop_
_atom_site_type_symbol
_atom_site_label
_atom_site_fract_x
_atom_site_fract_y
_atom_site_fract_z
Si Si1 0.753555 0.341151 0.631012
Si Si2 0.611163 0.759613 0.605185
Si Si3 0.210584 0.844856 0.911487
Si Si4 0.223323 0.567448 0.718364
Si Si5 0.486360 0.487552 0.130691
Si Si6 0.890372 0.104120 0.488175
Si Si7 0.575334 0.996861 0.253600
Si Si8 0.678759 0.825281 0.014512
O O1 0.554235 0.288938 0.518974
O O2 0.655449 0.418340 0.765996
O O3 0.007043 0.457524 0.618050
O O4 0.809473 0.207087 0.614193
O O5 0.477090 0.645366 0.659993
O O6 0.902779 0.792806 0.566217
O O7 0.602938 0.908425 0.702080
O O8 0.133673 0.689035 0.817470
O O9 0.223554 0.926250 0.827049
O O10 0.493415 0.872952 0.959600
O O11 0.989777 0.872360 0.012332
O O12 0.268449 0.486280 0.792479
O O13 0.500000 0.500000 0.000000
O O14 0.375704 0.326845 0.083264
O O15 0.674026 0.017871 0.382854
O O16 0.000000 0.000000 0.500000
O O17 0.549433 0.847967 0.150874
#
# Coordination Sequence:
#
# PCOD9025287 Si02
#       8
#     2   2   2   2   2   2   2   2
#     4  11  23  45  70 100 138 176 242 292 363 426
#     4  10  24  43  72 103 135 182 231 302 358 420
#     4  10  22  40  68 107 142 181 233 291 358 422
#     4  10  22  43  71 105 141 179 232 297 359 431
#     4  11  26  43  66  99 142 187 233 288 358 435
#     4  11  27  46  68 100 137 186 238 297 357 431
#     4  10  24  39  69  97 136 181 231 286 357 416
#     4  11  23  42  67 103 143 185 234 292 351 429
#
# _framework density 24.733578000000001
#
# number of rings (size 3 to 8) (size 9 to 14) (size 15 to 20)
#    0.000    1.500    1.250    1.875    7.000    8.500 
#    2.250    0.000    0.000    0.000    0.000    0.000 
#    0.000    0.000    0.000    0.000    0.000    0.000 
#
# Total GULP energy -89207.267961 kJ/mol
# GULP energy per Si atom -5575.454248 kJ/mol
# Density = 2.467728 g / cm^3
# Si number density = 24.733578 Si / 1000 Ang^3
#
#
#
# Elastic Constant Matrix: (Units=GPa)
#
#
# Indices 1 2 3 4 5 6 
#
# 1 77.5894 40.2088 33.4350 6.2986 -14.7070 2.3766
# 2 40.2088 86.1558 43.5968 8.5689 -10.0214 -23.9872
# 3 33.4350 43.5968 146.3017 18.9250 -31.0000 -16.6054
# 4 6.2986 8.5689 18.9250 43.5216 -13.8690 -4.4685
# 5 -14.7070 -10.0214 -31.0000 -13.8690 43.0975 7.8883
# 6 2.3766 -23.9872 -16.6054 -4.4685 7.8883 36.0503
#
#
#
# Elastic Compliance Matrix: (Units=1/GPa)
#
#
# Indices 1 2 3 4 5 6 
#
# 1 0.020720 -0.011317 -0.001481 0.000527 0.005505 -0.010717
# 2 -0.011317 0.022215 -0.003040 -0.001155 -0.003973 0.014853
# 3 -0.001481 -0.003040 0.009450 -0.001632 0.004846 0.001165
# 4 0.000527 -0.001155 -0.001632 0.026120 0.007120 0.000124
# 5 0.005505 -0.003973 0.004846 0.007120 0.031164 -0.006711
# 6 -0.010717 0.014853 0.001165 0.000124 -0.006711 0.040349
#
#
# Mechanical properties :
#
#
# Convention : Reuss Voigt Hill
#
# Bulk Modulus (GPa) = 48.28827 60.50312 54.39570
# Shear Modulus (GPa) = 26.51171 37.38764 31.94967
#
# Velocity S-wave (km/s) = 3.27753 3.89217 3.59800
# Velocity P-wave (km/s) = 5.82140 6.68683 6.26906
#
# Compressibility (1/GPa) = 0.02070896
#
# Stress axis : x y z
#
# Youngs Moduli (GPa) = 48.26229 45.01498 105.82084
#
# Poissons Ratio (x) = 0.50941 0.15674
# Poissons Ratio (y) = 0.54616 0.32172
# Poissons Ratio (z) = 0.07148 0.13686
#
# Static dielectric constant tensor:
#      x y z
#    x 2.035370 0.016440 -0.069910 
#    y 0.016440 2.122500 -0.009280 
#    z -0.069910 -0.009280 2.207920 
# 
# From -- ./inp_files/365268.got.cif
#   From: 2010.05.17/outbox.cif.g08.bks.cpg/sg2_183_cif.got.tgz:365268.got - 2010.06.03 11:33:40.
