data_PCOD9025685
_publ_section_title
;
Structure prediction by ZEFSAII (Michael W. Deem and Ramdas Pophale) SiO2 
 PCOD9025685
Probable space group: P -1
;
_chemical_formula_sum "Si O2"
_cell_formula_units_Z 16
_cell_length_a 12.526698
_cell_length_b 12.502130
_cell_length_c 9.947029
_cell_angle_alpha 38.142480
_cell_angle_beta 72.504849
_cell_angle_gamma 103.079720
_cell_volume 567.798834
_symmetry_space_group_name_H-M "P -1"
_symmetry_group_IT_number 2
_symmetry_cell_setting 'triclinic'
loop_
_space_group_symop_operation_xyz
x,y,z
-x,-y,-z
loop_
_atom_site_type_symbol
_atom_site_label
_atom_site_fract_x
_atom_site_fract_y
_atom_site_fract_z
Si Si1 0.096283 0.318864 0.561618
Si Si2 0.180351 0.558236 0.558524
Si Si3 0.404978 0.953052 0.718520
Si Si4 0.925794 0.820410 0.570415
Si Si5 0.694790 0.876970 0.596951
Si Si6 0.218500 0.677584 0.714944
Si Si7 0.425177 0.473938 0.331177
Si Si8 0.537986 0.796885 0.222862
O O1 0.045135 0.337835 0.708131
O O2 0.984888 0.127332 0.659247
O O3 0.227193 0.318222 0.551600
O O4 0.235688 0.632723 0.141071
O O5 0.115166 0.537242 0.750529
O O6 0.324062 0.581600 0.514227
O O7 0.313660 0.872710 0.148120
O O8 0.350277 0.075546 0.569128
O O9 0.570161 0.117617 0.594675
O O10 0.500000 0.000000 0.500000
O O11 0.799826 0.829884 0.570583
O O12 0.843645 0.545326 0.936575
O O13 0.000000 0.000000 0.500000
O O14 0.785076 0.136547 0.401891
O O15 0.525891 0.616362 0.010987
O O16 0.553157 0.736595 0.127442
O O17 0.421995 0.288687 0.590959
#
# Coordination Sequence:
#
# PCOD9025685 Si02
#       8
#     2   2   2   2   2   2   2   2
#     4  11  21  38  58  92 128 154 192 248 303 361
#     4  10  19  33  58  84 125 166 185 240 301 359
#     4  10  17  35  62  94 124 152 189 242 304 370
#     4  12  28  44  61  84 117 164 216 259 293 344
#     4  11  21  37  65  88 118 164 200 245 304 355
#     4  11  20  42  64  93 125 155 198 242 306 370
#     4  10  17  31  54  96 126 150 192 237 298 376
#     4   9  17  27  51  89 135 158 178 223 302 381
#
# _framework density 28.178992000000001
#
# number of rings (size 3 to 8) (size 9 to 14) (size 15 to 20)
#    0.000    1.500    6.250    2.250    0.000    4.500 
#    0.000    0.625    0.000    0.750    0.000    0.000 
#    0.000    0.000    0.000    0.000    0.000    0.000 
#
# Total GULP energy -89509.319025 kJ/mol
# GULP energy per Si atom -5594.332439 kJ/mol
# Density = 2.811486 g / cm^3
# Si number density = 28.178992 Si / 1000 Ang^3
#
#
#
# Elastic Constant Matrix: (Units=GPa)
#
#
# Indices 1 2 3 4 5 6 
#
# 1 85.8425 4.0564 30.1825 2.0998 17.4358 9.1149
# 2 4.0564 264.4109 23.7699 -19.8087 -16.5394 33.4424
# 3 30.1825 23.7699 110.6751 -0.1740 26.3794 5.6638
# 4 2.0998 -19.8087 -0.1740 32.6359 1.1783 2.1148
# 5 17.4358 -16.5394 26.3794 1.1783 33.5022 6.2898
# 6 9.1149 33.4424 5.6638 2.1148 6.2898 27.4195
#
#
#
# Elastic Compliance Matrix: (Units=1/GPa)
#
#
# Indices 1 2 3 4 5 6 
#
# 1 0.013801 0.000088 -0.002543 -0.000484 -0.004540 -0.003091
# 2 0.000088 0.005652 -0.002219 0.003725 0.005882 -0.008100
# 3 -0.002543 -0.002219 0.012458 -0.000969 -0.010184 0.003390
# 4 -0.000484 0.003725 -0.000969 0.033300 0.003083 -0.007458
# 5 -0.004540 0.005882 -0.010184 0.003083 0.045707 -0.014284
# 6 -0.003091 -0.008100 0.003390 -0.007458 -0.014284 0.050529
#
#
# Mechanical properties :
#
#
# Convention : Reuss Voigt Hill
#
# Bulk Modulus (GPa) = 44.32365 64.10514 54.21439
# Shear Modulus (GPa) = 28.03989 45.57282 36.80635
#
# Velocity S-wave (km/s) = 3.15789 4.02588 3.61801
# Velocity P-wave (km/s) = 5.39071 6.66400 6.06089
#
# Compressibility (1/GPa) = 0.02256132
#
# Stress axis : x y z
#
# Youngs Moduli (GPa) = 72.45644 176.93828 80.27027
#
# Poissons Ratio (x) = -0.01549 0.20414
# Poissons Ratio (y) = -0.00634 0.17814
# Poissons Ratio (z) = 0.18427 0.39266
#
# Static dielectric constant tensor:
#      x y z
#    x 2.299000 0.146600 -0.065070 
#    y 0.146600 2.548070 -0.114510 
#    z -0.065070 -0.114510 2.171080 
# 
# From -- ./inp_files/454369.got.cif
#   From: 2010.05.17/outbox.cif.g08.bks.cpg/sg2_228_cif.got.tgz:454369.got - 2010.06.03 11:33:40.
