data_PCOD9025196
_publ_section_title
;
Structure prediction by ZEFSAII (Michael W. Deem and Ramdas Pophale) SiO2 
 PCOD9025196
Probable space group: P -1
;
_chemical_formula_sum "Si O2"
_cell_formula_units_Z 14
_cell_length_a 10.438682
_cell_length_b 7.828154
_cell_length_c 11.034436
_cell_angle_alpha 53.988309
_cell_angle_beta 128.883745
_cell_angle_gamma 115.683442
_cell_volume 564.788109
_symmetry_space_group_name_H-M "P -1"
_symmetry_group_IT_number 2
_symmetry_cell_setting 'triclinic'
loop_
_space_group_symop_operation_xyz
x,y,z
-x,-y,-z
loop_
_atom_site_type_symbol
_atom_site_label
_atom_site_fract_x
_atom_site_fract_y
_atom_site_fract_z
Si Si1 0.235961 0.672518 0.355102
Si Si2 0.540614 0.976381 0.717102
Si Si3 0.620454 0.841421 0.079274
Si Si4 0.920094 0.491017 0.160212
Si Si5 0.171597 0.104804 0.205365
Si Si6 0.297810 0.590646 0.703305
Si Si7 0.934088 0.038142 0.310944
O O1 0.241873 0.611178 0.523866
O O2 0.119822 0.500889 0.284983
O O3 0.416195 0.769456 0.373553
O O4 0.133840 0.882221 0.203220
O O5 0.629653 0.888261 0.687936
O O6 0.371591 0.826907 0.689497
O O7 0.639754 0.917188 0.920800
O O8 0.790373 0.869370 0.245035
O O9 0.571518 0.587637 0.147591
O O10 0.500000 0.000000 0.000000
O O11 0.840902 0.493601 0.246426
O O12 0.857941 0.262831 0.165562
O O13 0.875892 0.681800 0.971196
O O14 0.086473 0.060352 0.300497
O O15 0.000000 0.000000 0.500000
#
# Coordination Sequence:
#
# PCOD9025196 Si02
#       7
#     2   2   2   2   2   2   2
#     4  10  22  40  67  98 129 172 218 275 328 389
#     4  10  24  43  68  94 134 171 221 265 337 391
#     4  12  26  43  69  95 135 175 226 271 328 397
#     4  12  22  40  70  96 132 175 223 267 326 400
#     4  10  23  41  68  95 133 169 222 268 326 390
#     4  12  22  43  67  99 131 175 219 270 337 393
#     4  12  26  44  66 103 137 173 222 278 331 386
#
# _framework density 24.788059000000001
#
# number of rings (size 3 to 8) (size 9 to 14) (size 15 to 20)
#    0.857    0.000    1.429    6.429    2.000    0.000 
#    0.000    0.714    0.000    0.000    0.000    0.000 
#    0.000    0.000    0.000    0.000    0.000    0.000 
#
# Total GULP energy -78155.397621 kJ/mol
# GULP energy per Si atom -5582.528402 kJ/mol
# Density = 2.473164 g / cm^3
# Si number density = 24.788059 Si / 1000 Ang^3
#
#
#
# Elastic Constant Matrix: (Units=GPa)
#
#
# Indices 1 2 3 4 5 6 
#
# 1 95.2833 16.2587 31.2521 -9.7051 -11.3038 20.7099
# 2 16.2587 98.9967 16.3304 -6.7795 -0.8140 17.4805
# 3 31.2521 16.3304 88.2684 -3.6860 -7.6218 20.9642
# 4 -9.7051 -6.7795 -3.6860 40.2894 4.0321 5.7847
# 5 -11.3038 -0.8140 -7.6218 4.0321 22.4089 -12.9099
# 6 20.7099 17.4805 20.9642 5.7847 -12.9099 35.4855
#
#
#
# Elastic Compliance Matrix: (Units=1/GPa)
#
#
# Indices 1 2 3 4 5 6 
#
# 1 0.013368 -0.000430 -0.002986 0.003526 0.001759 -0.005761
# 2 -0.000430 0.011796 -0.000504 0.003429 -0.004973 -0.007630
# 3 -0.002986 -0.000504 0.014116 0.001593 -0.001034 -0.006984
# 4 0.003526 0.003429 0.001593 0.029351 -0.010493 -0.013290
# 5 0.001759 -0.004973 -0.001034 -0.010493 0.062025 0.026310
# 6 -0.005761 -0.007630 -0.006984 -0.013290 0.026310 0.051165
#
#
# Mechanical properties :
#
#
# Convention : Reuss Voigt Hill
#
# Bulk Modulus (GPa) = 31.80730 45.58120 38.69425
# Shear Modulus (GPa) = 24.98241 34.21724 29.59982
#
# Velocity S-wave (km/s) = 3.17809 3.71939 3.45935
# Velocity P-wave (km/s) = 5.13095 6.07235 5.62139
#
# Compressibility (1/GPa) = 0.03143932
#
# Stress axis : x y z
#
# Youngs Moduli (GPa) = 74.80777 84.77205 70.84340
#
# Poissons Ratio (x) = 0.03643 0.21155
# Poissons Ratio (y) = 0.03215 0.03572
# Poissons Ratio (z) = 0.22339 0.04275
#
# Static dielectric constant tensor:
#      x y z
#    x 2.029630 0.051770 0.038060 
#    y 0.051770 1.980250 0.000720 
#    z 0.038060 0.000720 1.965200 
# 
# From -- ./inp_files/416695.got.cif
#   From: 2010.05.17/outbox.cif.g08.bks.cpg/sg2_209_cif.got.tgz:416695.got - 2010.06.03 11:33:40.
