data_PCOD9025438
_publ_section_title
;
Structure prediction by ZEFSAII (Michael W. Deem and Ramdas Pophale) SiO2 
 PCOD9025438
Probable space group: P -1
;
_chemical_formula_sum "Si O2"
_cell_formula_units_Z 16
_cell_length_a 6.810015
_cell_length_b 20.857457
_cell_length_c 8.511108
_cell_angle_alpha 121.626903
_cell_angle_beta 106.604257
_cell_angle_gamma 44.367727
_cell_volume 711.689954
_symmetry_space_group_name_H-M "P -1"
_symmetry_group_IT_number 2
_symmetry_cell_setting 'triclinic'
loop_
_space_group_symop_operation_xyz
x,y,z
-x,-y,-z
loop_
_atom_site_type_symbol
_atom_site_label
_atom_site_fract_x
_atom_site_fract_y
_atom_site_fract_z
Si Si1 0.500780 0.354913 0.170124
Si Si2 0.432400 0.222219 0.137766
Si Si3 0.318135 0.744038 0.248294
Si Si4 0.227065 0.106955 0.492233
Si Si5 0.583942 0.124747 0.395256
Si Si6 0.107476 0.977639 0.172565
Si Si7 0.861759 0.550681 0.309960
Si Si8 0.143706 0.589700 0.658832
O O1 0.529658 0.284463 0.221397
O O2 0.622187 0.405933 0.310078
O O3 0.163441 0.447071 0.173582
O O4 0.663067 0.281053 0.961720
O O5 0.501707 0.172567 0.262485
O O6 0.094530 0.309243 0.158797
O O7 0.585289 0.137728 0.923868
O O8 0.359466 0.820955 0.403951
O O9 0.592949 0.634119 0.247667
O O10 0.017300 0.799522 0.329897
O O11 0.340799 0.137297 0.432544
O O12 0.500000 0.000000 0.500000
O O13 0.103033 0.066397 0.323533
O O14 0.877623 0.003467 0.275628
O O15 0.000000 0.000000 0.000000
O O16 0.768546 0.508699 0.356453
O O17 0.964448 0.600917 0.486560
#
# Coordination Sequence:
#
# PCOD9025438 Si02
#       8
#     2   2   2   2   2   2   2   2
#     4  11  25  39  71 103 131 176 223 277 331 395
#     4  10  22  41  67  99 135 172 224 273 333 389
#     4  11  25  44  67 100 138 177 216 279 338 396
#     4  11  27  42  69  99 133 179 226 268 340 402
#     4  10  23  45  66  94 135 181 219 275 330 400
#     4   9  22  41  65  95 131 171 220 280 322 389
#     4  10  22  46  65  97 138 176 221 272 342 388
#     4  10  22  40  69 100 135 173 223 275 325 407
#
# _framework density 22.4817
#
# number of rings (size 3 to 8) (size 9 to 14) (size 15 to 20)
#    0.000    1.750    1.250    0.750    5.250    8.500 
#    0.000    0.000    0.000    0.000    0.000    0.000 
#    0.000    0.000    0.000    0.000    0.000    0.000 
#
# Total GULP energy -89314.797544 kJ/mol
# GULP energy per Si atom -5582.174846 kJ/mol
# Density = 2.243053 g / cm^3
# Si number density = 22.481700 Si / 1000 Ang^3
#
#
#
# Elastic Constant Matrix: (Units=GPa)
#
#
# Indices 1 2 3 4 5 6 
#
# 1 152.6080 33.6767 39.1478 0.6314 -23.5213 4.6720
# 2 33.6767 82.9548 18.6812 5.2955 -19.0181 0.3909
# 3 39.1478 18.6812 107.1639 19.5176 -25.4677 4.9163
# 4 0.6314 5.2955 19.5176 39.9965 -11.6041 -6.8308
# 5 -23.5213 -19.0181 -25.4677 -11.6041 33.7239 8.6823
# 6 4.6720 0.3909 4.9163 -6.8308 8.6823 19.7752
#
#
#
# Elastic Compliance Matrix: (Units=1/GPa)
#
#
# Indices 1 2 3 4 5 6 
#
# 1 0.008244 -0.001981 -0.001758 0.001857 0.004688 -0.002888
# 2 -0.001981 0.014635 0.000254 -0.000347 0.007831 -0.003442
# 3 -0.001758 0.000254 0.013636 -0.005400 0.009701 -0.009104
# 4 0.001857 -0.000347 -0.005400 0.030747 0.005223 0.009239
# 5 0.004688 0.007831 0.009701 0.005223 0.052925 -0.025106
# 6 -0.002888 -0.003442 -0.009104 0.009239 -0.025106 0.067796
#
#
# Mechanical properties :
#
#
# Convention : Reuss Voigt Hill
#
# Bulk Modulus (GPa) = 33.84525 58.41533 46.13029
# Shear Modulus (GPa) = 24.41390 35.44719 29.93054
#
# Velocity S-wave (km/s) = 3.29894 3.97509 3.65270
# Velocity P-wave (km/s) = 5.44040 6.86355 6.19299
#
# Compressibility (1/GPa) = 0.02954625
#
# Stress axis : x y z
#
# Youngs Moduli (GPa) = 121.29846 68.32780 73.33556
#
# Poissons Ratio (x) = 0.13537 0.12892
# Poissons Ratio (y) = 0.24031 -0.01866
# Poissons Ratio (z) = 0.21323 -0.01739
#
# Static dielectric constant tensor:
#      x y z
#    x 1.840220 -0.045460 -0.044790 
#    y -0.045460 1.910990 0.046920 
#    z -0.044790 0.046920 1.820110 
# 
# From -- ./inp_files/141511.got.cif
#   From: 2010.05.17/outbox.cif.g08.bks.cpg/sg2_71_cif.got.tgz:141511.got - 2010.06.03 11:33:40.
