data_PCOD9025609
_publ_section_title
;
Structure prediction by ZEFSAII (Michael W. Deem and Ramdas Pophale) SiO2 
 PCOD9025609
Probable space group: P -1
;
_chemical_formula_sum "Si O2"
_cell_formula_units_Z 16
_cell_length_a 10.932506
_cell_length_b 13.460558
_cell_length_c 5.494337
_cell_angle_alpha 59.162516
_cell_angle_beta 109.698319
_cell_angle_gamma 86.215614
_cell_volume 624.435908
_symmetry_space_group_name_H-M "P -1"
_symmetry_group_IT_number 2
_symmetry_cell_setting 'triclinic'
loop_
_space_group_symop_operation_xyz
x,y,z
-x,-y,-z
loop_
_atom_site_type_symbol
_atom_site_label
_atom_site_fract_x
_atom_site_fract_y
_atom_site_fract_z
Si Si1 0.814462 0.769164 0.073056
Si Si2 0.140430 0.390283 0.204710
Si Si3 0.669807 0.163200 0.371507
Si Si4 0.887711 0.237565 0.733667
Si Si5 0.283881 0.521352 0.833794
Si Si6 0.378640 0.011123 0.100711
Si Si7 0.506043 0.396792 0.829794
Si Si8 0.155664 0.953761 0.730137
O O1 0.837458 0.684658 0.438050
O O2 0.951572 0.812937 0.110464
O O3 0.838519 0.695716 0.918699
O O4 0.669273 0.870572 0.903797
O O5 0.247265 0.463374 0.124232
O O6 0.000000 0.500000 0.000000
O O7 0.801811 0.198907 0.511505
O O8 0.747565 0.043815 0.430796
O O9 0.586891 0.119334 0.577374
O O10 0.575222 0.256915 0.000533
O O11 0.841499 0.382622 0.499774
O O12 0.832995 0.182125 0.998367
O O13 0.360066 0.420897 0.820690
O O14 0.393390 0.589130 0.900576
O O15 0.500000 0.000000 0.000000
O O16 0.227371 0.018458 0.887472
O O17 0.500000 0.500000 0.500000
O O18 0.000000 0.000000 0.500000
#
# Coordination Sequence:
#
# PCOD9025609 Si02
#       8
#     2   2   2   2   2   2   2   2
#     4  12  28  47  77 107 154 202 257 309 389 457
#     4  12  28  48  73 112 147 197 248 320 385 466
#     4  10  23  43  69 104 143 194 254 312 377 460
#     4  10  22  42  70 103 141 187 245 319 380 451
#     4  10  23  42  65 100 144 183 245 303 386 453
#     4  11  28  49  69 107 156 206 253 313 383 460
#     4  10  22  40  70 101 139 189 243 311 381 451
#     4  11  23  42  76 103 140 189 258 313 374 449
#
# _framework density 25.623125000000002
#
# number of rings (size 3 to 8) (size 9 to 14) (size 15 to 20)
#    0.000    1.250    1.250    2.625    8.750    4.500 
#    0.000    0.000    0.000    0.000    0.000    0.000 
#    0.000    0.000    0.000    0.000    0.000    0.000 
#
# Total GULP energy -89187.722014 kJ/mol
# GULP energy per Si atom -5574.232626 kJ/mol
# Density = 2.556481 g / cm^3
# Si number density = 25.623125 Si / 1000 Ang^3
#
#
#
# Elastic Constant Matrix: (Units=GPa)
#
#
# Indices 1 2 3 4 5 6 
#
# 1 156.0113 49.0275 23.5039 -0.2790 -8.5013 -14.7101
# 2 49.0275 77.7428 36.9785 3.7720 13.0770 -17.3195
# 3 23.5039 36.9785 88.2293 1.3570 -0.6912 -7.3185
# 4 -0.2790 3.7720 1.3570 33.9139 1.8274 4.1303
# 5 -8.5013 13.0770 -0.6912 1.8274 45.4392 1.9830
# 6 -14.7101 -17.3195 -7.3185 4.1303 1.9830 42.5192
#
#
#
# Elastic Compliance Matrix: (Units=1/GPa)
#
#
# Indices 1 2 3 4 5 6 
#
# 1 0.008452 -0.005969 0.000296 0.000504 0.003269 0.000342
# 2 -0.005969 0.023245 -0.007616 -0.002713 -0.008107 0.006734
# 3 0.000296 -0.007616 0.014409 0.000219 0.002486 -0.000657
# 4 0.000504 -0.002713 0.000219 0.030259 -0.000172 -0.003824
# 5 0.003269 -0.008107 0.002486 -0.000172 0.025123 -0.002899
# 6 0.000342 0.006734 -0.000657 -0.003824 -0.002899 0.026774
#
#
# Mechanical properties :
#
#
# Convention : Reuss Voigt Hill
#
# Bulk Modulus (GPa) = 51.20479 60.11146 55.65813
# Shear Modulus (GPa) = 30.98875 38.53937 34.76406
#
# Velocity S-wave (km/s) = 3.48142 3.88246 3.68740
# Velocity P-wave (km/s) = 6.01561 6.60369 6.31650
#
# Compressibility (1/GPa) = 0.01952942
#
# Stress axis : x y z
#
# Youngs Moduli (GPa) = 118.31063 43.01932 69.40315
#
# Poissons Ratio (x) = 0.25680 -0.02057
# Poissons Ratio (y) = 0.70624 0.52854
# Poissons Ratio (z) = -0.03507 0.32761
#
# Static dielectric constant tensor:
#      x y z
#    x 1.970160 -0.010360 0.019720 
#    y -0.010360 2.526280 0.011410 
#    z 0.019720 0.011410 2.133260 
# 
# From -- ./inp_files/77242.got.cif
#   From: 2010.05.17/outbox.cif.g08.bks.cpg/sg2_39_cif.got.tgz:77242.got - 2010.06.03 11:33:40.
