data_PCOD9025993
_publ_section_title
;
Structure prediction by ZEFSAII (Michael W. Deem and Ramdas Pophale) SiO2 
 PCOD9025993
Probable space group: P -1
;
_chemical_formula_sum "Si O2"
_cell_formula_units_Z 16
_cell_length_a 13.838684
_cell_length_b 15.632673
_cell_length_c 13.778927
_cell_angle_alpha 140.815831
_cell_angle_beta 21.498424
_cell_angle_gamma 131.102268
_cell_volume 663.498488
_symmetry_space_group_name_H-M "P -1"
_symmetry_group_IT_number 2
_symmetry_cell_setting 'triclinic'
loop_
_space_group_symop_operation_xyz
x,y,z
-x,-y,-z
loop_
_atom_site_type_symbol
_atom_site_label
_atom_site_fract_x
_atom_site_fract_y
_atom_site_fract_z
Si Si1 0.812868 0.232582 0.335463
Si Si2 0.023397 0.265360 0.739055
Si Si3 0.620629 0.521590 0.155824
Si Si4 0.406877 0.151752 0.773069
Si Si5 0.554671 0.989859 0.825713
Si Si6 0.818798 0.983151 0.964171
Si Si7 0.747407 0.215235 0.752648
Si Si8 0.202268 0.505524 0.696658
O O1 0.584962 0.352611 0.598806
O O2 0.657654 0.212604 0.562424
O O3 0.116060 0.246837 0.085801
O O4 0.871320 0.093602 0.090166
O O5 0.227846 0.357927 0.597499
O O6 0.920059 0.226007 0.698021
O O7 0.150130 0.121831 0.551894
O O8 0.828189 0.372773 0.088874
O O9 0.451880 0.501176 0.390285
O O10 0.658993 0.373104 0.934270
O O11 0.916226 0.537199 0.928508
O O12 0.500000 0.000000 0.500000
O O13 0.331579 0.113385 0.917539
O O14 0.531759 0.143444 0.939453
O O15 0.369949 0.933563 0.873469
O O16 0.500000 0.000000 0.000000
O O17 0.078052 0.889083 0.581626
#
# Coordination Sequence:
#
# PCOD9025993 Si02
#       8
#     2   2   2   2   2   2   2   2
#     4  11  24  44  75 101 127 172 227 276 331 405
#     4  10  22  41  60  95 128 180 231 269 321 392
#     4  11  24  44  67  96 133 173 225 271 335 386
#     4  10  23  45  71 104 132 166 219 284 338 392
#     4  12  24  39  63  95 136 178 224 263 329 402
#     4  11  25  41  68  97 131 173 215 281 339 385
#     4  11  26  40  62  93 139 176 215 279 333 389
#     4  10  23  41  66  92 134 180 221 280 323 378
#
# _framework density 24.114597
#
# number of rings (size 3 to 8) (size 9 to 14) (size 15 to 20)
#    0.000    1.250    1.250    4.125    8.750    5.500 
#    0.000    1.250    0.000    0.000    0.000    0.000 
#    0.000    0.000    0.000    0.000    0.000    0.000 
#
# Total GULP energy -89425.079661 kJ/mol
# GULP energy per Si atom -5589.067479 kJ/mol
# Density = 2.405971 g / cm^3
# Si number density = 24.114597 Si / 1000 Ang^3
#
#
#
# Elastic Constant Matrix: (Units=GPa)
#
#
# Indices 1 2 3 4 5 6 
#
# 1 116.0571 19.0104 37.5778 4.5962 2.4930 -4.8231
# 2 19.0104 34.3858 28.5869 9.8566 1.3724 1.0536
# 3 37.5778 28.5869 102.6120 -2.6576 -0.3796 -2.1479
# 4 4.5962 9.8566 -2.6576 41.4327 -6.0526 -3.1032
# 5 2.4930 1.3724 -0.3796 -6.0526 46.2466 -2.1919
# 6 -4.8231 1.0536 -2.1479 -3.1032 -2.1919 22.8806
#
#
#
# Elastic Compliance Matrix: (Units=1/GPa)
#
#
# Indices 1 2 3 4 5 6 
#
# 1 0.010155 -0.003190 -0.002804 -0.000469 -0.000446 0.001918
# 2 -0.003190 0.044117 -0.011557 -0.011751 -0.003039 -0.005674
# 3 -0.002804 -0.011557 0.014149 0.004301 0.001267 0.001974
# 4 -0.000469 -0.011751 0.004301 0.028277 0.004352 0.005098
# 5 -0.000446 -0.003039 0.001267 0.004352 0.022455 0.002906
# 6 0.001918 -0.005674 0.001974 0.005098 0.002906 0.045526
#
#
# Mechanical properties :
#
#
# Convention : Reuss Voigt Hill
#
# Bulk Modulus (GPa) = 30.01194 47.04500 38.52847
# Shear Modulus (GPa) = 23.70959 33.30396 28.50678
#
# Velocity S-wave (km/s) = 3.13901 3.72031 3.44195
# Velocity P-wave (km/s) = 5.06067 6.16486 5.63986
#
# Compressibility (1/GPa) = 0.03332008
#
# Stress axis : x y z
#
# Youngs Moduli (GPa) = 98.47747 22.66722 70.67502
#
# Poissons Ratio (x) = 0.07230 0.19816
# Poissons Ratio (y) = 0.31410 0.81678
# Poissons Ratio (z) = 0.27611 0.26196
#
# Static dielectric constant tensor:
#      x y z
#    x 1.972940 0.026270 -0.074350 
#    y 0.026270 1.981810 -0.015910 
#    z -0.074350 -0.015910 1.941980 
# 
# From -- ./inp_files/535019.got.cif
#   From: 2010.05.17/outbox.cif.g08.bks.cpg/sg2_268_cif.got.tgz:535019.got - 2010.06.03 11:33:40.
