data_PCOD9025509
_publ_section_title
;
Structure prediction by ZEFSAII (Michael W. Deem and Ramdas Pophale) SiO2 
 PCOD9025509
Probable space group: P -1
;
_chemical_formula_sum "Si O2"
_cell_formula_units_Z 14
_cell_length_a 9.534035
_cell_length_b 15.578921
_cell_length_c 12.129389
_cell_angle_alpha 139.699654
_cell_angle_beta 129.948926
_cell_angle_gamma 30.912784
_cell_volume 598.222055
_symmetry_space_group_name_H-M "P -1"
_symmetry_group_IT_number 2
_symmetry_cell_setting 'triclinic'
loop_
_space_group_symop_operation_xyz
x,y,z
-x,-y,-z
loop_
_atom_site_type_symbol
_atom_site_label
_atom_site_fract_x
_atom_site_fract_y
_atom_site_fract_z
Si Si1 0.116088 0.063812 0.416826
Si Si2 0.383078 0.816640 0.100383
Si Si3 0.774415 0.381662 0.261791
Si Si4 0.667429 0.657710 0.308597
Si Si5 0.358753 0.053387 0.156491
Si Si6 0.791439 0.479959 0.597314
Si Si7 0.697224 0.072454 0.213089
O O1 0.945994 0.289403 0.564373
O O2 0.946977 0.027626 0.335253
O O3 0.156810 0.010913 0.254260
O O4 0.429659 0.893613 0.448446
O O5 0.600913 0.658083 0.148126
O O6 0.481484 0.869553 0.112482
O O7 0.268786 0.747435 0.918217
O O8 0.630931 0.554895 0.270736
O O9 0.680320 0.464221 0.417966
O O10 0.093948 0.245763 0.275948
O O11 0.970139 0.551210 0.355006
O O12 0.568332 0.052943 0.225187
O O13 0.239951 0.056568 0.984744
O O14 0.540306 0.701170 0.729555
#
# Coordination Sequence:
#
# PCOD9025509 Si02
#       7
#     2   2   2   2   2   2   2
#     4  10  22  41  66  91 134 164 211 263 328 366
#     4  10  22  40  69  92 125 173 221 251 316 387
#     4  12  20  40  72  96 120 172 230 255 301 399
#     4  10  23  40  67  98 128 167 217 269 313 383
#     4  11  21  41  67  92 131 171 219 256 319 389
#     4  12  23  40  69  98 126 168 223 264 313 381
#     4  11  24  39  65 100 133 166 209 275 325 370
#
# _framework density 23.402681000000001
#
# number of rings (size 3 to 8) (size 9 to 14) (size 15 to 20)
#    0.857    0.286    4.286    3.000    0.000    0.000 
#    0.000    1.429    3.143    0.000    0.000    0.000 
#    0.000    0.000    0.000    0.000    0.000    0.000 
#
# Total GULP energy -78261.217791 kJ/mol
# GULP energy per Si atom -5590.086985 kJ/mol
# Density = 2.334942 g / cm^3
# Si number density = 23.402681 Si / 1000 Ang^3
#
#
#
# Elastic Constant Matrix: (Units=GPa)
#
#
# Indices 1 2 3 4 5 6 
#
# 1 83.1031 5.7133 8.7055 8.9042 22.5041 5.7378
# 2 5.7133 66.2717 -5.4855 4.2855 3.6143 9.4755
# 3 8.7055 -5.4855 29.1782 -5.6822 -2.7063 -4.9403
# 4 8.9042 4.2855 -5.6822 21.3962 2.8818 3.3432
# 5 22.5041 3.6143 -2.7063 2.8818 34.2903 4.7056
# 6 5.7378 9.4755 -4.9403 3.3432 4.7056 41.4642
#
#
#
# Elastic Compliance Matrix: (Units=1/GPa)
#
#
# Indices 1 2 3 4 5 6 
#
# 1 0.016645 -0.000851 -0.007723 -0.007177 -0.010670 -0.001239
# 2 -0.000851 0.015925 0.002368 -0.001678 -0.000372 -0.003062
# 3 -0.007723 0.002368 0.040595 0.012073 0.006507 0.003652
# 4 -0.007177 -0.001678 0.012073 0.053312 0.001588 -0.001664
# 5 -0.010670 -0.000372 0.006507 0.001588 0.036856 -0.001974
# 6 -0.001239 -0.003062 0.003652 -0.001664 -0.001974 0.025782
#
#
# Mechanical properties :
#
#
# Convention : Reuss Voigt Hill
#
# Bulk Modulus (GPa) = 16.46016 21.82440 19.14228
# Shear Modulus (GPa) = 22.54511 30.73811 26.64161
#
# Velocity S-wave (km/s) = 3.10716 3.62808 3.37768
# Velocity P-wave (km/s) = 4.46333 5.18618 4.83827
#
# Compressibility (1/GPa) = 0.06075276
#
# Stress axis : x y z
#
# Youngs Moduli (GPa) = 60.07886 62.79289 24.63380
#
# Poissons Ratio (x) = 0.05344 0.19025
# Poissons Ratio (y) = 0.05113 -0.05834
# Poissons Ratio (z) = 0.46400 -0.14870
#
# Static dielectric constant tensor:
#      x y z
#    x 1.860320 0.009890 0.018290 
#    y 0.009890 1.922840 0.010900 
#    z 0.018290 0.010900 1.858430 
# 
# From -- ./inp_files/504486.got.cif
#   From: 2010.05.17/outbox.cif.g08.bks.cpg/sg2_253_cif.got.tgz:504486.got - 2010.06.03 11:33:40.
