data_PCOD9025354
_publ_section_title
;
Structure prediction by ZEFSAII (Michael W. Deem and Ramdas Pophale) SiO2 
 PCOD9025354
Probable space group: P -1
;
_chemical_formula_sum "Si O2"
_cell_formula_units_Z 13
_cell_length_a 9.936838
_cell_length_b 8.392398
_cell_length_c 13.882645
_cell_angle_alpha 32.988605
_cell_angle_beta 90.982559
_cell_angle_gamma 94.399321
_cell_volume 626.114170
_symmetry_space_group_name_H-M "P -1"
_symmetry_group_IT_number 2
_symmetry_cell_setting 'triclinic'
loop_
_space_group_symop_operation_xyz
x,y,z
-x,-y,-z
loop_
_atom_site_type_symbol
_atom_site_label
_atom_site_fract_x
_atom_site_fract_y
_atom_site_fract_z
Si Si1 0.767662 0.257864 0.335974
Si Si2 0.703534 0.592015 0.691596
Si Si3 0.973071 0.335754 0.813350
Si Si4 0.521410 0.515626 0.105737
Si Si5 0.000000 0.500000 0.500000
Si Si6 0.479797 0.818935 0.246356
Si Si7 0.695047 0.424240 0.465210
O O1 0.913751 0.448152 0.237526
O O2 0.656802 0.378687 0.205270
O O3 0.716382 0.304020 0.420515
O O4 0.770153 0.911677 0.495424
O O5 0.607343 0.630002 0.762310
O O6 0.605586 0.428323 0.693641
O O7 0.824240 0.397493 0.813546
O O8 0.986363 0.413593 0.660715
O O9 0.000000 0.000000 0.000000
O O10 0.500000 0.500000 0.000000
O O11 0.533546 0.861568 0.957177
O O12 0.165048 0.547614 0.490383
O O13 0.631701 0.732986 0.297431
O O14 0.414747 0.785025 0.368869
#
# Coordination Sequence:
#
# PCOD9025354 Si02
#       7
#     2   2   2   2   1   2   2
#     4  11  25  44  66  98 140 178 219 290 346 406
#     4  12  24  45  69  98 138 182 227 280 350 407
#     4  11  25  46  72 102 137 182 236 282 345 413
#     4  12  27  42  66 103 138 175 231 286 340 408
#     4  10  22  40  70  98 136 172 228 284 342 396
#     4  11  23  40  68  99 130 178 230 274 342 411
#     4  10  22  40  68  95 134 175 227 275 349 403
#
# _framework density 20.762986000000001
#
# number of rings (size 3 to 8) (size 9 to 14) (size 15 to 20)
#    0.000    0.923    3.077    3.231    8.615    0.000 
#    0.000    0.769    0.000    0.000    0.000    0.000 
#    0.000    0.000    0.000    0.000    0.000    0.000 
#
# Total GULP energy -72458.029403 kJ/mol
# GULP energy per Si atom -5573.694569 kJ/mol
# Density = 2.071573 g / cm^3
# Si number density = 20.762986 Si / 1000 Ang^3
#
#
#
# Elastic Constant Matrix: (Units=GPa)
#
#
# Indices 1 2 3 4 5 6 
#
# 1 87.9092 24.1936 28.9940 5.2635 22.5365 30.8013
# 2 24.1936 78.5252 26.1422 10.5691 8.0953 24.1993
# 3 28.9940 26.1422 79.0920 -12.2873 24.7696 30.7123
# 4 5.2635 10.5691 -12.2873 40.5358 -0.7485 -2.0982
# 5 22.5365 8.0953 24.7696 -0.7485 38.0544 7.7540
# 6 30.8013 24.1993 30.7123 -2.0982 7.7540 29.1043
#
#
#
# Elastic Compliance Matrix: (Units=1/GPa)
#
#
# Indices 1 2 3 4 5 6 
#
# 1 0.021703 0.001489 0.004775 -0.003336 -0.010929 -0.026575
# 2 0.001489 0.018505 -0.001129 -0.006204 -0.000953 -0.015964
# 3 0.004775 -0.001129 0.028512 0.006501 -0.014957 -0.029749
# 4 -0.003336 -0.006204 0.006501 0.028888 -0.001232 0.004240
# 5 -0.010929 -0.000953 -0.014957 -0.001232 0.039069 0.017644
# 6 -0.026575 -0.015964 -0.029749 0.004240 0.017644 0.102755
#
#
# Mechanical properties :
#
#
# Convention : Reuss Voigt Hill
#
# Bulk Modulus (GPa) = 12.65967 44.90957 28.78462
# Shear Modulus (GPa) = 19.57019 32.61867 26.09443
#
# Velocity S-wave (km/s) = 3.07343 3.96789 3.54895
# Velocity P-wave (km/s) = 4.32494 6.53213 5.53958
#
# Compressibility (1/GPa) = 0.07899102
#
# Stress axis : x y z
#
# Youngs Moduli (GPa) = 46.07594 54.04005 35.07321
#
# Poissons Ratio (x) = -0.08045 -0.16749
# Poissons Ratio (y) = -0.06859 0.03958
# Poissons Ratio (z) = -0.22003 0.06098
#
# Static dielectric constant tensor:
#      x y z
#    x 1.732380 -0.025670 -0.008590 
#    y -0.025670 1.760100 -0.017340 
#    z -0.008590 -0.017340 1.754910 
# 
# From -- ./inp_files/147385.got.cif
#   From: 2010.05.17/outbox.cif.g08.bks.cpg/sg2_74_cif.got.tgz:147385.got - 2010.06.03 11:33:40.
