data_PCOD9025723
_publ_section_title
;
Structure prediction by ZEFSAII (Michael W. Deem and Ramdas Pophale) SiO2 
 PCOD9025723
Probable space group: P -1
;
_chemical_formula_sum "Si O2"
_cell_formula_units_Z 16
_cell_length_a 13.507347
_cell_length_b 13.118309
_cell_length_c 8.663090
_cell_angle_alpha 73.017415
_cell_angle_beta 91.523259
_cell_angle_gamma 31.407827
_cell_volume 637.184051
_symmetry_space_group_name_H-M "P -1"
_symmetry_group_IT_number 2
_symmetry_cell_setting 'triclinic'
loop_
_space_group_symop_operation_xyz
x,y,z
-x,-y,-z
loop_
_atom_site_type_symbol
_atom_site_label
_atom_site_fract_x
_atom_site_fract_y
_atom_site_fract_z
Si Si1 0.642957 0.022690 0.466370
Si Si2 0.915263 0.291354 0.614065
Si Si3 0.215975 0.999344 0.005398
Si Si4 0.441799 0.192089 0.695495
Si Si5 0.070596 0.485775 0.762530
Si Si6 0.846811 0.501107 0.909619
Si Si7 0.070607 0.051452 0.429043
Si Si8 0.266888 0.753351 0.288365
O O1 0.595482 0.010710 0.637114
O O2 0.417208 0.237392 0.261579
O O3 0.712133 0.079716 0.474473
O O4 0.865474 0.741006 0.547319
O O5 0.738039 0.556565 0.509632
O O6 0.849501 0.247945 0.723357
O O7 0.901291 0.277852 0.437278
O O8 0.164675 0.071773 0.791366
O O9 0.405382 0.887465 0.146008
O O10 0.293449 0.801090 0.118988
O O11 0.978998 0.269245 0.956041
O O12 0.289011 0.261769 0.760296
O O13 0.983141 0.462319 0.843758
O O14 0.127272 0.506897 0.902208
O O15 0.113634 0.981108 0.285142
O O16 0.000000 0.000000 0.500000
O O17 0.500000 0.500000 0.500000
#
# Coordination Sequence:
#
# PCOD9025723 Si02
#       8
#     2   2   2   2   2   2   2   2
#     4  12  22  47  71  99 140 188 227 288 350 413
#     4  11  23  42  63 102 134 179 231 281 337 417
#     4  12  24  43  68 103 136 183 231 286 346 414
#     4  12  24  42  72  96 141 183 225 287 352 402
#     4  11  26  47  69 104 140 182 237 295 348 407
#     4  11  26  46  71 103 139 182 238 292 347 416
#     4  10  22  40  70  99 140 178 229 282 340 412
#     4  11  21  42  68  92 136 183 225 279 347 409
#
# _framework density 25.110485000000001
#
# number of rings (size 3 to 8) (size 9 to 14) (size 15 to 20)
#    0.000    0.750    6.250    0.750    1.750    1.000 
#    0.000    0.625    0.000    0.000    0.000    0.000 
#    0.000    0.000    0.000    0.000    0.000    0.000 
#
# Total GULP energy -89288.290351 kJ/mol
# GULP energy per Si atom -5580.518147 kJ/mol
# Density = 2.505333 g / cm^3
# Si number density = 25.110485 Si / 1000 Ang^3
#
#
#
# Elastic Constant Matrix: (Units=GPa)
#
#
# Indices 1 2 3 4 5 6 
#
# 1 98.4456 21.6055 53.9154 -1.9142 -2.6411 -11.8230
# 2 21.6055 66.8968 9.7230 0.5420 -0.2498 -7.0828
# 3 53.9154 9.7230 147.1871 -14.0136 -7.0469 -9.4405
# 4 -1.9142 0.5420 -14.0136 21.1533 3.9779 8.7970
# 5 -2.6411 -0.2498 -7.0469 3.9779 34.7646 -6.7012
# 6 -11.8230 -7.0828 -9.4405 8.7970 -6.7012 39.4385
#
#
#
# Elastic Compliance Matrix: (Units=1/GPa)
#
#
# Indices 1 2 3 4 5 6 
#
# 1 0.013992 -0.003407 -0.004970 -0.003544 0.001086 0.003368
# 2 -0.003407 0.016294 0.000191 -0.001715 0.000561 0.002428
# 3 -0.004970 0.000191 0.009149 0.005626 0.000759 -0.000392
# 4 -0.003544 -0.001715 0.005626 0.058380 -0.008618 -0.014510
# 5 0.001086 0.000561 0.000759 -0.008618 0.031511 0.007885
# 6 0.003368 0.002428 -0.000392 -0.014510 0.007885 0.031284
#
#
# Mechanical properties :
#
#
# Convention : Reuss Voigt Hill
#
# Bulk Modulus (GPa) = 43.35893 53.66859 48.51376
# Shear Modulus (GPa) = 27.07538 34.22365 30.64952
#
# Velocity S-wave (km/s) = 3.28723 3.69578 3.49748
# Velocity P-wave (km/s) = 5.63140 6.29533 5.97259
#
# Compressibility (1/GPa) = 0.02306330
#
# Stress axis : x y z
#
# Youngs Moduli (GPa) = 71.46874 61.37163 109.30423
#
# Poissons Ratio (x) = 0.20911 0.54321
# Poissons Ratio (y) = 0.24352 -0.02089
# Poissons Ratio (z) = 0.35518 -0.01173
#
# Static dielectric constant tensor:
#      x y z
#    x 1.985860 -0.058900 -0.121830 
#    y -0.058900 2.061760 0.087510 
#    z -0.121830 0.087510 1.797460 
# 
# From -- ./inp_files/314902.got.cif
#   From: 2010.05.17/outbox.cif.g08.bks.cpg/sg2_158_cif.got.tgz:314902.got - 2010.06.03 11:33:40.
