data_PCOD9025227
_publ_section_title
;
Structure prediction by ZEFSAII (Michael W. Deem and Ramdas Pophale) SiO2 
 PCOD9025227
Probable space group: P -1
;
_chemical_formula_sum "Si O2"
_cell_formula_units_Z 16
_cell_length_a 9.698926
_cell_length_b 12.663901
_cell_length_c 12.494958
_cell_angle_alpha 130.918392
_cell_angle_beta 139.066383
_cell_angle_gamma 56.186600
_cell_volume 753.894232
_symmetry_space_group_name_H-M "P -1"
_symmetry_group_IT_number 2
_symmetry_cell_setting 'triclinic'
loop_
_space_group_symop_operation_xyz
x,y,z
-x,-y,-z
loop_
_atom_site_type_symbol
_atom_site_label
_atom_site_fract_x
_atom_site_fract_y
_atom_site_fract_z
Si Si1 0.451711 0.139279 0.141256
Si Si2 0.152882 0.554757 0.858546
Si Si3 0.071935 0.591497 0.196953
Si Si4 0.165074 0.872383 0.480506
Si Si5 0.377213 0.876329 0.384757
Si Si6 0.489599 0.455119 0.339515
Si Si7 0.421015 0.432594 0.741344
Si Si8 0.016119 0.125962 0.007515
O O1 0.666386 0.157621 0.345023
O O2 0.410437 0.300782 0.177635
O O3 0.249376 0.119206 0.084930
O O4 0.500000 0.000000 0.000000
O O5 0.240662 0.474929 0.751409
O O6 0.973422 0.483620 0.769270
O O7 0.355906 0.539330 0.050040
O O8 0.057265 0.716036 0.885537
O O9 0.011832 0.754290 0.284850
O O10 0.312638 0.585761 0.296429
O O11 0.000000 0.500000 0.000000
O O12 0.304326 0.899474 0.478458
O O13 0.000000 0.000000 0.500000
O O14 0.534456 0.732840 0.365163
O O15 0.160951 0.879969 0.192156
O O16 0.500000 0.000000 0.500000
O O17 0.500000 0.500000 0.500000
O O18 0.640543 0.476685 0.342593
O O19 0.000000 0.000000 0.000000
#
# Coordination Sequence:
#
# PCOD9025227 Si02
#       8
#     2   2   2   2   2   2   2   2
#     4  12  27  44  69 101 137 180 228 288 347 403
#     4  10  22  40  68 100 130 173 228 275 332 410
#     4  12  22  43  72 100 130 181 229 285 337 408
#     4  12  27  45  69 101 136 179 234 282 342 416
#     4  11  23  44  66  96 140 182 222 277 337 410
#     4  12  23  44  71  97 137 175 228 286 343 402
#     4  10  22  41  67  99 132 176 224 273 338 404
#     4  11  24  43  66  97 140 180 221 279 347 402
#
# _framework density 21.223137000000001
#
# number of rings (size 3 to 8) (size 9 to 14) (size 15 to 20)
#    0.000    0.750    5.000    2.250    5.250    0.000 
#    0.000    0.625    0.000    0.000    0.000    0.000 
#    0.000    0.000    0.000    0.000    0.000    0.000 
#
# Total GULP energy -89088.969959 kJ/mol
# GULP energy per Si atom -5568.060622 kJ/mol
# Density = 2.117483 g / cm^3
# Si number density = 21.223137 Si / 1000 Ang^3
#
#
#
# Elastic Constant Matrix: (Units=GPa)
#
#
# Indices 1 2 3 4 5 6 
#
# 1 149.3098 65.9352 39.2511 27.5173 -20.8812 5.0625
# 2 65.9352 116.7851 34.4661 39.5454 -13.6424 2.1892
# 3 39.2511 34.4661 79.4325 26.5214 -18.3619 -0.1247
# 4 27.5173 39.5454 26.5214 44.2157 -3.0837 3.3726
# 5 -20.8812 -13.6424 -18.3619 -3.0837 39.3486 1.7233
# 6 5.0625 2.1892 -0.1247 3.3726 1.7233 45.4389
#
#
#
# Elastic Compliance Matrix: (Units=1/GPa)
#
#
# Indices 1 2 3 4 5 6 
#
# 1 0.009664 -0.004285 -0.002075 -0.000681 0.002662 -0.000926
# 2 -0.004285 0.014767 -0.000479 -0.010161 0.001806 0.000450
# 3 -0.002075 -0.000479 0.018291 -0.008850 0.006543 0.000713
# 4 -0.000681 -0.010161 -0.008850 0.037242 -0.005006 -0.002033
# 5 0.002662 0.001806 0.006543 -0.005006 0.030164 -0.001138
# 6 -0.000926 0.000450 0.000713 -0.002033 -0.001138 0.022285
#
#
# Mechanical properties :
#
#
# Convention : Reuss Voigt Hill
#
# Bulk Modulus (GPa) = 34.43040 69.42580 51.92810
# Shear Modulus (GPa) = 32.09807 39.52566 35.81187
#
# Velocity S-wave (km/s) = 3.89319 4.32022 4.11225
# Velocity P-wave (km/s) = 6.03883 7.59401 6.86063
#
# Compressibility (1/GPa) = 0.02904410
#
# Stress axis : x y z
#
# Youngs Moduli (GPa) = 103.47179 67.72005 54.67187
#
# Poissons Ratio (x) = 0.29018 0.11344
# Poissons Ratio (y) = 0.44338 0.02619
# Poissons Ratio (z) = 0.21470 0.03243
#
# Static dielectric constant tensor:
#      x y z
#    x 1.774950 -0.034280 -0.029440 
#    y -0.034280 1.866280 -0.045860 
#    z -0.029440 -0.045860 1.903830 
# 
# From -- ./inp_files/393218.got.cif
#   From: 2010.05.17/outbox.cif.g08.bks.cpg/sg2_197_cif.got.tgz:393218.got - 2010.06.03 11:33:40.
