data_PCOD9025792
_publ_section_title
;
Structure prediction by ZEFSAII (Michael W. Deem and Ramdas Pophale) SiO2 
 PCOD9025792
Probable space group: P -1
;
_chemical_formula_sum "Si O2"
_cell_formula_units_Z 16
_cell_length_a 11.924413
_cell_length_b 10.071674
_cell_length_c 10.333762
_cell_angle_alpha 41.499506
_cell_angle_beta 101.634310
_cell_angle_gamma 101.470808
_cell_volume 803.265638
_symmetry_space_group_name_H-M "P -1"
_symmetry_group_IT_number 2
_symmetry_cell_setting 'triclinic'
loop_
_space_group_symop_operation_xyz
x,y,z
-x,-y,-z
loop_
_atom_site_type_symbol
_atom_site_label
_atom_site_fract_x
_atom_site_fract_y
_atom_site_fract_z
Si Si1 0.243609 0.741655 0.618048
Si Si2 0.136599 0.538708 0.997765
Si Si3 0.283019 0.198062 0.382720
Si Si4 0.517248 0.240368 0.822079
Si Si5 0.280568 0.246060 0.649741
Si Si6 0.224873 0.803633 0.069660
Si Si7 0.483925 0.548423 0.810603
Si Si8 0.873469 0.399119 0.564079
O O1 0.362386 0.639302 0.697520
O O2 0.169235 0.717726 0.488794
O O3 0.271092 0.971945 0.495317
O O4 0.177541 0.631182 0.803010
O O5 0.198271 0.334989 0.186583
O O6 0.181617 0.688820 0.013686
O O7 0.000000 0.500000 0.000000
O O8 0.254679 0.208617 0.520398
O O9 0.411772 0.295552 0.321358
O O10 0.417626 0.299459 0.659049
O O11 0.652604 0.279019 0.799839
O O12 0.492493 0.349635 0.871238
O O13 0.500000 0.000000 0.000000
O O14 0.208583 0.420865 0.560138
O O15 0.247034 0.038897 0.870494
O O16 0.138982 0.746487 0.208253
O O17 0.500000 0.500000 0.000000
O O18 0.000000 0.500000 0.500000
#
# Coordination Sequence:
#
# PCOD9025792 Si02
#       8
#     2   2   2   2   2   2   2   2
#     4  12  27  45  69 106 141 177 226 291 349 399
#     4  12  25  46  72  97 136 186 233 281 334 409
#     4  12  26  44  72 102 136 184 233 273 348 426
#     4  10  22  40  72 100 131 177 226 272 343 413
#     4  11  24  44  73  98 133 181 226 276 343 414
#     4  11  23  46  70  99 134 177 229 276 334 413
#     4  12  23  43  68 102 144 175 220 290 353 404
#     4  12  27  45  68 101 137 176 230 285 337 393
#
# _framework density 19.918692
#
# number of rings (size 3 to 8) (size 9 to 14) (size 15 to 20)
#    0.000    0.500    6.250    1.125    3.500    6.000 
#    0.000    0.000    0.000    0.000    0.000    0.000 
#    0.000    0.000    0.000    0.000    0.000    0.000 
#
# Total GULP energy -89519.512759 kJ/mol
# GULP energy per Si atom -5594.969547 kJ/mol
# Density = 1.987336 g / cm^3
# Si number density = 19.918692 Si / 1000 Ang^3
#
#
#
# Elastic Constant Matrix: (Units=GPa)
#
#
# Indices 1 2 3 4 5 6 
#
# 1 115.9022 26.6288 16.1963 -12.1451 -20.9892 6.9781
# 2 26.6288 141.8766 33.1814 -7.0336 -10.7029 -9.0546
# 3 16.1963 33.1814 85.8885 -8.5954 -28.7643 -17.2663
# 4 -12.1451 -7.0336 -8.5954 30.0200 -2.1524 -6.1814
# 5 -20.9892 -10.7029 -28.7643 -2.1524 26.9004 5.0605
# 6 6.9781 -9.0546 -17.2663 -6.1814 5.0605 18.8785
#
#
#
# Elastic Compliance Matrix: (Units=1/GPa)
#
#
# Indices 1 2 3 4 5 6 
#
# 1 0.011710 -0.001848 0.001863 0.004620 0.011731 -0.005143
# 2 -0.001848 0.008124 -0.002618 0.000892 -0.001478 0.002873
# 3 0.001863 -0.002618 0.026269 0.013550 0.025903 0.019575
# 4 0.004620 0.000892 0.013550 0.044882 0.018097 0.020957
# 5 0.011731 -0.001478 0.025903 0.018097 0.073994 0.004737
# 6 -0.005143 0.002873 0.019575 0.020957 0.004737 0.079745
#
#
# Mechanical properties :
#
#
# Convention : Reuss Voigt Hill
#
# Bulk Modulus (GPa) = 24.45182 55.07558 39.76370
# Shear Modulus (GPa) = 18.97088 33.00383 25.98735
#
# Velocity S-wave (km/s) = 3.08947 4.07495 3.61594
# Velocity P-wave (km/s) = 5.00289 7.06049 6.11880
#
# Compressibility (1/GPa) = 0.04089675
#
# Stress axis : x y z
#
# Youngs Moduli (GPa) = 85.39448 123.09870 38.06715
#
# Poissons Ratio (x) = 0.22746 -0.07091
# Poissons Ratio (y) = 0.15779 0.09967
# Poissons Ratio (z) = -0.15908 0.32231
#
# Static dielectric constant tensor:
#      x y z
#    x 1.694480 0.011120 0.007260 
#    y 0.011120 1.671990 -0.001360 
#    z 0.007260 -0.001360 1.700600 
# 
# From -- ./inp_files/187089.got.cif
#   From: 2010.05.17/outbox.cif.g08.bks.cpg/sg2_94_cif.got.tgz:187089.got - 2010.06.03 11:33:40.
