data_PCOD9025680
_publ_section_title
;
Structure prediction by ZEFSAII (Michael W. Deem and Ramdas Pophale) SiO2 
 PCOD9025680
Probable space group: P -1
;
_chemical_formula_sum "Si O2"
_cell_formula_units_Z 15
_cell_length_a 8.522331
_cell_length_b 8.206678
_cell_length_c 14.466210
_cell_angle_alpha 66.901378
_cell_angle_beta 94.357328
_cell_angle_gamma 132.812306
_cell_volume 654.899493
_symmetry_space_group_name_H-M "P -1"
_symmetry_group_IT_number 2
_symmetry_cell_setting 'triclinic'
loop_
_space_group_symop_operation_xyz
x,y,z
-x,-y,-z
loop_
_atom_site_type_symbol
_atom_site_label
_atom_site_fract_x
_atom_site_fract_y
_atom_site_fract_z
Si Si1 0.980933 0.800051 0.486574
Si Si2 0.954113 0.680568 0.190056
Si Si3 0.563898 0.060026 0.881872
Si Si4 0.867624 0.902234 0.753675
Si Si5 0.692358 0.931205 0.277771
Si Si6 0.500000 0.500000 0.500000
Si Si7 0.433833 0.577687 0.898158
Si Si8 0.697544 0.187817 0.393339
O O1 0.094991 0.739660 0.563327
O O2 0.723848 0.559900 0.512435
O O3 0.105034 0.942786 0.365585
O O4 0.000000 0.000000 0.500000
O O5 0.815437 0.624913 0.106244
O O6 0.780968 0.443155 0.303957
O O7 0.167690 0.727483 0.166474
O O8 0.050524 0.928261 0.190044
O O9 0.435368 0.113822 0.810025
O O10 0.479655 0.813085 0.882983
O O11 0.500000 0.000000 0.000000
O O12 0.607465 0.660492 0.807314
O O13 0.038553 0.875368 0.759290
O O14 0.615359 0.683954 0.372527
O O15 0.642648 0.034225 0.332714
O O16 0.500000 0.500000 0.000000
O O17 0.500000 0.000000 0.500000
#
# Coordination Sequence:
#
# PCOD9025680 Si02
#       8
#     2   2   2   2   2   1   2   2
#     4  11  22  42  65  97 134 177 225 272 334 412
#     4  11  26  47  68 101 139 183 228 290 350 412
#     4  11  27  48  73 103 140 185 235 290 351 416
#     4  10  25  43  70  97 135 181 233 279 342 418
#     4  11  24  46  67 105 140 179 238 280 343 423
#     4  10  22  40  70  96 132 178 228 274 336 404
#     4  11  26  47  71  99 135 177 234 291 349 406
#     4  12  25  42  72  99 146 185 225 287 352 414
#
# _framework density 22.904278999999999
#
# number of rings (size 3 to 8) (size 9 to 14) (size 15 to 20)
#    0.000    1.067    4.000    1.600    9.333    5.333 
#    0.000    0.000    0.000    0.000    0.000    0.000 
#    0.000    0.000    0.000    0.000    0.000    0.000 
#
# Total GULP energy -83629.221218 kJ/mol
# GULP energy per Si atom -5575.281415 kJ/mol
# Density = 2.285215 g / cm^3
# Si number density = 22.904279 Si / 1000 Ang^3
#
#
#
# Elastic Constant Matrix: (Units=GPa)
#
#
# Indices 1 2 3 4 5 6 
#
# 1 80.6731 20.1842 32.2441 7.6082 10.7969 16.5781
# 2 20.1842 46.0841 28.1305 13.5551 8.3592 10.7120
# 3 32.2441 28.1305 78.0619 16.2367 9.7859 16.1108
# 4 7.6082 13.5551 16.2367 31.5471 9.2460 4.2591
# 5 10.7969 8.3592 9.7859 9.2460 56.4538 8.5373
# 6 16.5781 10.7120 16.1108 4.2591 8.5373 33.2081
#
#
#
# Elastic Compliance Matrix: (Units=1/GPa)
#
#
# Indices 1 2 3 4 5 6 
#
# 1 0.016040 -0.003210 -0.004545 0.000832 -0.001252 -0.004552
# 2 -0.003210 0.030904 -0.007298 -0.008018 -0.000842 -0.003580
# 3 -0.004545 -0.007298 0.019213 -0.005130 0.000074 -0.004059
# 4 0.000832 -0.008018 -0.005130 0.038807 -0.004568 0.000857
# 5 -0.001252 -0.000842 0.000074 -0.004568 0.019347 -0.003527
# 6 -0.004552 -0.003580 -0.004059 0.000857 -0.003527 0.036306
#
#
# Mechanical properties :
#
#
# Convention : Reuss Voigt Hill
#
# Bulk Modulus (GPa) = 27.73955 40.65962 34.19958
# Shear Modulus (GPa) = 24.66199 32.52583 28.59391
#
# Velocity S-wave (km/s) = 3.28493 3.77248 3.53712
# Velocity P-wave (km/s) = 5.15025 6.06350 5.62544
#
# Compressibility (1/GPa) = 0.03604961
#
# Stress axis : x y z
#
# Youngs Moduli (GPa) = 62.34377 32.35831 52.04710
#
# Poissons Ratio (x) = 0.10388 0.23657
# Poissons Ratio (y) = 0.20015 0.37985
# Poissons Ratio (z) = 0.28337 0.23616
#
# Static dielectric constant tensor:
#      x y z
#    x 1.886500 0.010060 -0.072820 
#    y 0.010060 1.936580 -0.074860 
#    z -0.072820 -0.074860 1.922590 
# 
# From -- ./inp_files/494707.got.cif
#   From: 2010.05.17/outbox.cif.g08.bks.cpg/sg2_248_cif.got.tgz:494707.got - 2010.06.03 11:33:40.
