data_PCOD9025477
_publ_section_title
;
Structure prediction by ZEFSAII (Michael W. Deem and Ramdas Pophale) SiO2 
 PCOD9025477
Probable space group: P -1
;
_chemical_formula_sum "Si O2"
_cell_formula_units_Z 12
_cell_length_a 15.030888
_cell_length_b 5.979305
_cell_length_c 7.267012
_cell_angle_alpha 68.326374
_cell_angle_beta 119.277944
_cell_angle_gamma 72.803360
_cell_volume 428.391569
_symmetry_space_group_name_H-M "P -1"
_symmetry_group_IT_number 2
_symmetry_cell_setting 'triclinic'
loop_
_space_group_symop_operation_xyz
x,y,z
-x,-y,-z
loop_
_atom_site_type_symbol
_atom_site_label
_atom_site_fract_x
_atom_site_fract_y
_atom_site_fract_z
Si Si1 0.950407 0.182804 0.203383
Si Si2 0.368749 0.208189 0.568752
Si Si3 0.117537 0.256744 0.821671
Si Si4 0.348545 0.718502 0.279218
Si Si5 0.218234 0.968999 0.465968
Si Si6 0.412043 0.385841 0.954565
O O1 0.881319 0.528237 0.092105
O O2 0.908381 0.998011 0.106840
O O3 0.000000 0.000000 0.500000
O O4 0.073833 0.117121 0.248234
O O5 0.323618 0.469494 0.300355
O O6 0.399893 0.286394 0.771826
O O7 0.257007 0.178201 0.507410
O O8 0.502806 0.902734 0.745859
O O9 0.000000 0.500000 0.500000
O O10 0.266621 0.019642 0.985306
O O11 0.500000 0.500000 0.500000
O O12 0.294722 0.848563 0.388487
O O13 0.274497 0.690384 0.748828
O O14 0.500000 0.500000 0.000000
#
# Coordination Sequence:
#
# PCOD9025477 Si02
#       6
#     2   2   2   2   2   2
#     4  10  24  47  74 104 142 189 247 300 364 443
#     4   9  19  37  61  97 139 184 236 297 361 431
#     4  10  25  50  73 104 143 197 249 305 369 445
#     4  11  26  45  68 104 145 192 245 310 371 433
#     4  10  22  40  69 104 140 189 243 305 367 438
#     4   8  16  35  59  96 137 180 231 289 358 432
#
# _framework density 28.011755999999998
#
# number of rings (size 3 to 8) (size 9 to 14) (size 15 to 20)
#    0.000    2.333    0.000    0.000    7.000    4.667 
#   33.000    0.000    0.000    0.000    0.000    0.000 
#    0.000    0.000    0.000    0.000    0.000    0.000 
#
# Total GULP energy -66889.863642 kJ/mol
# GULP energy per Si atom -5574.155303 kJ/mol
# Density = 2.794800 g / cm^3
# Si number density = 28.011756 Si / 1000 Ang^3
#
#
#
# Elastic Constant Matrix: (Units=GPa)
#
#
# Indices 1 2 3 4 5 6 
#
# 1 90.1567 72.2031 33.9125 -0.5747 16.9526 7.3632
# 2 72.2031 215.7018 81.2932 -7.3814 18.5359 25.4905
# 3 33.9125 81.2932 163.8332 -42.8026 8.8993 7.1695
# 4 -0.5747 -7.3814 -42.8026 88.1744 4.1294 1.6204
# 5 16.9526 18.5359 8.8993 4.1294 49.6575 7.6693
# 6 7.3632 25.4905 7.1695 1.6204 7.6693 49.8843
#
#
#
# Elastic Compliance Matrix: (Units=1/GPa)
#
#
# Indices 1 2 3 4 5 6 
#
# 1 0.015854 -0.004774 -0.000908 -0.000586 -0.003541 0.000793
# 2 -0.004774 0.007625 -0.002851 -0.000716 -0.000225 -0.002724
# 3 -0.000908 -0.002851 0.008781 0.004040 -0.000580 0.000287
# 4 -0.000586 -0.000716 0.004040 0.013306 -0.001308 -0.000359
# 5 -0.003541 -0.000225 -0.000580 -0.001308 0.022049 -0.002626
# 6 0.000793 -0.002724 0.000287 -0.000359 -0.002626 0.021696
#
#
# Mechanical properties :
#
#
# Convention : Reuss Voigt Hill
#
# Bulk Modulus (GPa) = 65.81797 93.83436 79.82617
# Shear Modulus (GPa) = 44.86591 56.36210 50.61400
#
# Velocity S-wave (km/s) = 4.00644 4.49050 4.25536
# Velocity P-wave (km/s) = 6.70445 7.77541 7.25971
#
# Compressibility (1/GPa) = 0.01519342
#
# Stress axis : x y z
#
# Youngs Moduli (GPa) = 63.07443 131.14021 113.88453
#
# Poissons Ratio (x) = 0.62609 0.10344
# Poissons Ratio (y) = 0.30113 0.32470
# Poissons Ratio (z) = 0.05729 0.37390
#
# Static dielectric constant tensor:
#      x y z
#    x 2.332740 0.016510 0.029640 
#    y 0.016510 2.253390 -0.054370 
#    z 0.029640 -0.054370 2.409030 
# 
# From -- ./inp_files/321261.got.cif
#   From: 2010.05.17/outbox.cif.g08.bks.cpg/sg2_161_cif.got.tgz:321261.got - 2010.06.03 11:33:40.
