data_PCOD9025504
_publ_section_title
;
Structure prediction by ZEFSAII (Michael W. Deem and Ramdas Pophale) SiO2 
 PCOD9025504
Probable space group: P -1
;
_chemical_formula_sum "Si O2"
_cell_formula_units_Z 14
_cell_length_a 26.784258
_cell_length_b 11.736161
_cell_length_c 14.417459
_cell_angle_alpha 31.292024
_cell_angle_beta 160.910407
_cell_angle_gamma 149.475878
_cell_volume 730.101855
_symmetry_space_group_name_H-M "P -1"
_symmetry_group_IT_number 2
_symmetry_cell_setting 'triclinic'
loop_
_space_group_symop_operation_xyz
x,y,z
-x,-y,-z
loop_
_atom_site_type_symbol
_atom_site_label
_atom_site_fract_x
_atom_site_fract_y
_atom_site_fract_z
Si Si1 0.108691 0.448114 0.485342
Si Si2 0.312844 0.854202 0.266529
Si Si3 0.756961 0.108616 0.098257
Si Si4 0.682171 0.581331 0.304482
Si Si5 0.241167 0.213762 0.024046
Si Si6 0.121753 0.966516 0.161630
Si Si7 0.530115 0.732159 0.449947
O O1 0.196008 0.402652 0.577938
O O2 0.217503 0.423288 0.780062
O O3 0.088797 0.698619 0.269207
O O4 0.938334 0.255434 0.337574
O O5 0.294122 0.607301 0.451249
O O6 0.500000 0.000000 0.500000
O O7 0.261123 0.847927 0.073752
O O8 0.230476 0.004646 0.080050
O O9 0.718754 0.835290 0.234054
O O10 0.627179 0.191380 0.869574
O O11 0.500000 0.500000 0.000000
O O12 0.409029 0.288464 0.323385
O O13 0.114184 0.109420 0.955651
O O14 0.310883 0.075147 0.445599
O O15 0.000000 0.000000 0.000000
O O16 0.500000 0.500000 0.500000
#
# Coordination Sequence:
#
# PCOD9025504 Si02
#       7
#     2   2   2   2   2   2   2
#     4  12  24  41  65  98 131 168 213 267 321 379
#     4  12  20  40  66  95 130 172 207 261 329 378
#     4  12  25  39  66  99 132 167 215 265 317 387
#     4  12  22  38  65  93 132 171 212 260 320 385
#     4  10  22  40  69  90 129 167 213 260 326 371
#     4  10  22  43  68  88 129 173 215 263 320 373
#     4  10  22  46  67  90 127 169 215 267 314 379
#
# _framework density 19.175407
#
# number of rings (size 3 to 8) (size 9 to 14) (size 15 to 20)
#    0.857    0.000    5.714    2.143    0.000    2.286 
#    0.000    0.714    0.000    0.000    0.000    0.000 
#    0.000    0.000    0.000    0.000    0.000    0.000 
#
# Total GULP energy -78142.894024 kJ/mol
# GULP energy per Si atom -5581.635287 kJ/mol
# Density = 1.913176 g / cm^3
# Si number density = 19.175407 Si / 1000 Ang^3
#
#
#
# Elastic Constant Matrix: (Units=GPa)
#
#
# Indices 1 2 3 4 5 6 
#
# 1 90.3143 13.9209 20.3336 -16.2298 32.9416 3.5186
# 2 13.9209 99.7949 10.7630 -0.9788 13.3764 -3.7458
# 3 20.3336 10.7630 48.5852 -0.4129 15.6947 2.6115
# 4 -16.2298 -0.9788 -0.4129 33.5235 14.1130 3.2650
# 5 32.9416 13.3764 15.6947 14.1130 44.5390 -7.2542
# 6 3.5186 -3.7458 2.6115 3.2650 -7.2542 34.3936
#
#
#
# Elastic Compliance Matrix: (Units=1/GPa)
#
#
# Indices 1 2 3 4 5 6 
#
# 1 0.028290 0.000196 -0.000775 0.028189 -0.031622 -0.012160
# 2 0.000196 0.010620 -0.001355 0.001766 -0.003358 0.000364
# 3 -0.000775 -0.001355 0.024666 0.004469 -0.009852 -0.004443
# 4 0.028189 0.001766 0.004469 0.065093 -0.046684 -0.019057
# 5 -0.031622 -0.003358 -0.009852 -0.046684 0.068787 0.022558
# 6 -0.012160 0.000364 -0.004443 -0.019057 0.022558 0.037263
#
#
# Mechanical properties :
#
#
# Convention : Reuss Voigt Hill
#
# Bulk Modulus (GPa) = 16.74775 36.52548 26.63661
# Shear Modulus (GPa) = 19.34304 35.40302 27.37303
#
# Velocity S-wave (km/s) = 3.17952 4.30149 3.78234
# Velocity P-wave (km/s) = 4.71509 6.61512 5.74421
#
# Compressibility (1/GPa) = 0.05970951
#
# Stress axis : x y z
#
# Youngs Moduli (GPa) = 35.34796 94.15884 40.54146
#
# Poissons Ratio (x) = -0.01845 0.03142
# Poissons Ratio (y) = -0.00693 0.05492
# Poissons Ratio (z) = 0.02739 0.12755
#
# Static dielectric constant tensor:
#      x y z
#    x 1.661320 0.000610 -0.009870 
#    y 0.000610 1.650080 0.012710 
#    z -0.009870 0.012710 1.721560 
# 
# From -- ./inp_files/354438.got.cif
#   From: 2010.05.17/outbox.cif.g08.bks.cpg/sg2_178_cif.got.tgz:354438.got - 2010.06.03 11:33:40.
