data_PCOD9025830
_publ_section_title
;
Structure prediction by ZEFSAII (Michael W. Deem and Ramdas Pophale) SiO2 
 PCOD9025830
Probable space group: P -1
;
_chemical_formula_sum "Si O2"
_cell_formula_units_Z 14
_cell_length_a 11.657858
_cell_length_b 12.734221
_cell_length_c 5.233832
_cell_angle_alpha 110.893699
_cell_angle_beta 65.140957
_cell_angle_gamma 131.784440
_cell_volume 522.308214
_symmetry_space_group_name_H-M "P -1"
_symmetry_group_IT_number 2
_symmetry_cell_setting 'triclinic'
loop_
_space_group_symop_operation_xyz
x,y,z
-x,-y,-z
loop_
_atom_site_type_symbol
_atom_site_label
_atom_site_fract_x
_atom_site_fract_y
_atom_site_fract_z
Si Si1 0.126253 0.717329 0.671674
Si Si2 0.355111 0.453823 0.776000
Si Si3 0.667165 0.304040 0.944448
Si Si4 0.000000 0.000000 0.500000
Si Si5 0.936694 0.766449 0.489400
Si Si6 0.394708 0.025901 0.799475
Si Si7 0.241536 0.177537 0.913535
Si Si8 0.000000 0.500000 0.000000
O O1 0.240055 0.698941 0.384073
O O2 0.992237 0.581852 0.841006
O O3 0.018732 0.727166 0.571345
O O4 0.240324 0.865107 0.838333
O O5 0.500000 0.500000 0.500000
O O6 0.199169 0.363726 0.660656
O O7 0.332403 0.344136 0.913035
O O8 0.382082 0.594292 0.969505
O O9 0.516551 0.141292 0.998802
O O10 0.803623 0.379458 0.095474
O O11 0.931606 0.093685 0.662611
O O12 0.127440 0.099718 0.712572
O O13 0.861087 0.843089 0.751495
O O14 0.337345 0.114493 0.807097
O O15 0.500000 0.000000 0.500000
#
# Coordination Sequence:
#
# PCOD9025830 Si02
#       8
#     2   2   2   1   2   2   2   1
#     4  11  25  47  74 110 152 196 253 315 379 453
#     4  11  26  44  72 108 143 201 252 306 377 454
#     4  11  25  48  71 106 152 200 250 319 372 450
#     4  10  22  40  72 106 144 182 244 298 374 444
#     4  11  23  44  74 109 145 189 251 313 373 444
#     4  10  24  46  72 105 151 198 243 315 379 441
#     4  11  23  45  73 108 149 193 247 313 375 449
#     4  12  26  44  74 106 146 202 252 298 376 458
#
# _framework density 26.804098
#
# number of rings (size 3 to 8) (size 9 to 14) (size 15 to 20)
#    0.000    1.143    1.429    3.429    0.000    8.571 
#    0.000    0.000    0.000    0.000    0.000    0.000 
#    0.000    0.000    0.000    0.000    0.000    0.000 
#
# Total GULP energy -77954.902422 kJ/mol
# GULP energy per Si atom -5568.207316 kJ/mol
# Density = 2.674309 g / cm^3
# Si number density = 26.804098 Si / 1000 Ang^3
#
#
#
# Elastic Constant Matrix: (Units=GPa)
#
#
# Indices 1 2 3 4 5 6 
#
# 1 35.0180 25.0531 108.5709 41.2749 8.8753 -42.9482
# 2 25.0531 195.6971 41.3821 34.9791 -0.6580 -31.4340
# 3 108.5709 41.3821 93.8969 4.8632 -51.0273 -13.7212
# 4 41.2749 34.9791 4.8632 39.8000 -9.2025 12.1249
# 5 8.8753 -0.6580 -51.0273 -9.2025 51.7975 23.3428
# 6 -42.9482 -31.4340 -13.7212 12.1249 23.3428 31.2862
#
#
#
# Elastic Compliance Matrix: (Units=1/GPa)
#
#
# Indices 1 2 3 4 5 6 
#
# 1 0.000934 -0.003303 0.003090 0.006168 0.008018 -0.009053
# 2 -0.003303 0.006187 0.002094 -0.003134 0.000649 0.003332
# 3 0.003090 0.002094 0.008489 -0.010733 -0.000691 0.014744
# 4 0.006168 -0.003134 -0.010733 0.022483 -0.006063 -0.003578
# 5 0.008018 0.000649 -0.000691 -0.006063 0.015075 0.002457
# 6 -0.009053 0.003332 0.014744 -0.003578 0.002457 0.028902
#
#
# Mechanical properties :
#
#
# Convention : Reuss Voigt Hill
#
# Bulk Modulus (GPa) = 51.61844 74.95826 63.28835
# Shear Modulus (GPa) = 58.98514 34.55047 46.76780
#
# Velocity S-wave (km/s) = 4.69615 3.59416 4.18161
# Velocity P-wave (km/s) = 6.97886 6.72680 6.85399
#
# Compressibility (1/GPa) = 0.01937292
#
# Stress axis : x y z
#
# Youngs Moduli (GPa) = 1070.38369 161.61723 117.79482
#
# Poissons Ratio (x) = 0.53376 -0.36398
# Poissons Ratio (y) = 3.53510 -0.24662
# Poissons Ratio (z) = -3.30747 -0.33836
#
# Static dielectric constant tensor:
#      x y z
#    x -0.132800 9.839260 -5.705510 
#    y 9.839260 -41.227530 25.086700 
#    z -5.705510 25.086700 -12.410230 
# 
# From -- ./inp_files/71733.got.cif
#   From: 2010.05.17/outbox.cif.g08.bks.cpg/sg2_36_cif.got.tgz:71733.got - 2010.06.03 11:33:40.
