data_PCOD9025781
_publ_section_title
;
Structure prediction by ZEFSAII (Michael W. Deem and Ramdas Pophale) SiO2 
 PCOD9025781
Probable space group: P -1
;
_chemical_formula_sum "Si O2"
_cell_formula_units_Z 15
_cell_length_a 8.584634
_cell_length_b 14.654118
_cell_length_c 12.136885
_cell_angle_alpha 61.896172
_cell_angle_beta 65.813500
_cell_angle_gamma 29.205707
_cell_volume 657.164362
_symmetry_space_group_name_H-M "P -1"
_symmetry_group_IT_number 2
_symmetry_cell_setting 'triclinic'
loop_
_space_group_symop_operation_xyz
x,y,z
-x,-y,-z
loop_
_atom_site_type_symbol
_atom_site_label
_atom_site_fract_x
_atom_site_fract_y
_atom_site_fract_z
Si Si1 0.000000 0.500000 0.500000
Si Si2 0.733368 0.344644 0.884712
Si Si3 0.686611 0.011494 0.945895
Si Si4 0.876293 0.322370 0.628482
Si Si5 0.826160 0.248119 0.460041
Si Si6 0.358835 0.334103 0.025626
Si Si7 0.431044 0.328063 0.259986
Si Si8 0.147832 0.981370 0.330348
O O1 0.985276 0.634407 0.428839
O O2 0.189530 0.408665 0.375329
O O3 0.932430 0.233066 0.776232
O O4 0.456883 0.401790 0.931694
O O5 0.631714 0.515946 0.821685
O O6 0.953765 0.201994 0.004745
O O7 0.566524 0.151011 0.994700
O O8 0.665197 0.076334 0.796543
O O9 0.500000 0.000000 0.000000
O O10 0.967207 0.222083 0.545279
O O11 0.485957 0.530932 0.614425
O O12 0.082810 0.100894 0.373527
O O13 0.696044 0.198644 0.555631
O O14 0.395422 0.298985 0.165597
O O15 0.000000 0.500000 0.000000
O O16 0.793284 0.130447 0.309812
#
# Coordination Sequence:
#
# PCOD9025781 Si02
#       8
#     1   2   2   2   2   2   2   2
#     4  10  22  42  62 100 130 180 226 278 340 402
#     4  11  23  46  72 101 143 181 227 287 355 407
#     4  12  28  45  71 105 140 183 237 287 347 420
#     4  10  22  40  71  98 134 183 230 280 342 412
#     4  10  22  41  68  98 129 185 231 277 340 412
#     4  12  27  44  73 105 135 185 232 291 349 420
#     4  11  24  44  72  94 144 185 226 287 349 416
#     4  11  23  44  69  98 142 181 232 289 348 403
#
# _framework density 22.825340000000001
#
# number of rings (size 3 to 8) (size 9 to 14) (size 15 to 20)
#    0.000    1.067    4.000    2.400    3.733    6.400 
#    0.000    0.667    0.000    0.000    0.000    0.000 
#    0.000    0.000    0.000    0.000    0.000    0.000 
#
# Total GULP energy -83719.381793 kJ/mol
# GULP energy per Si atom -5581.292120 kJ/mol
# Density = 2.277339 g / cm^3
# Si number density = 22.825340 Si / 1000 Ang^3
#
#
#
# Elastic Constant Matrix: (Units=GPa)
#
#
# Indices 1 2 3 4 5 6 
#
# 1 81.5226 8.5040 41.4562 27.1861 3.2319 14.0931
# 2 8.5040 57.1897 29.8477 12.0814 5.4482 13.7061
# 3 41.4562 29.8477 150.3463 42.6985 6.7378 14.8078
# 4 27.1861 12.0814 42.6985 45.6517 7.8717 16.1477
# 5 3.2319 5.4482 6.7378 7.8717 45.7723 15.3396
# 6 14.0931 13.7061 14.8078 16.1477 15.3396 30.6335
#
#
#
# Elastic Compliance Matrix: (Units=1/GPa)
#
#
# Indices 1 2 3 4 5 6 
#
# 1 0.016229 0.001109 -0.002545 -0.006379 0.001590 -0.004166
# 2 0.001109 0.021252 -0.003750 0.000159 0.000835 -0.008708
# 3 -0.002545 -0.003750 0.010061 -0.007610 -0.000259 0.002126
# 4 -0.006379 0.000159 -0.007610 0.037444 -0.000559 -0.012915
# 5 0.001590 0.000835 -0.000259 -0.000559 0.026436 -0.013923
# 6 -0.004166 -0.008708 0.002126 -0.012915 -0.013923 0.051209
#
#
# Mechanical properties :
#
#
# Convention : Reuss Voigt Hill
#
# Bulk Modulus (GPa) = 26.90226 49.85272 38.37749
# Shear Modulus (GPa) = 26.97010 38.36156 32.66583
#
# Velocity S-wave (km/s) = 3.44115 4.10403 3.78712
# Velocity P-wave (km/s) = 5.25361 6.65926 5.99776
#
# Compressibility (1/GPa) = 0.03717160
#
# Stress axis : x y z
#
# Youngs Moduli (GPa) = 61.61746 47.05534 99.39660
#
# Poissons Ratio (x) = -0.05220 0.25292
# Poissons Ratio (y) = -0.06836 0.37271
# Poissons Ratio (z) = 0.15679 0.17644
#
# Static dielectric constant tensor:
#      x y z
#    x 1.873510 -0.075850 0.024050 
#    y -0.075850 1.916440 0.057040 
#    z 0.024050 0.057040 1.825910 
# 
# From -- ./inp_files/397166.got.cif
#   From: 2010.05.17/outbox.cif.g08.bks.cpg/sg2_199_cif.got.tgz:397166.got - 2010.06.03 11:33:40.
