data_PCOD9025621
_publ_section_title
;
Structure prediction by ZEFSAII (Michael W. Deem and Ramdas Pophale) SiO2 
 PCOD9025621
Probable space group: P -1
;
_chemical_formula_sum "Si O2"
_cell_formula_units_Z 15
_cell_length_a 8.199471
_cell_length_b 9.217414
_cell_length_c 12.044376
_cell_angle_alpha 125.751580
_cell_angle_beta 68.648747
_cell_angle_gamma 121.621935
_cell_volume 626.866928
_symmetry_space_group_name_H-M "P -1"
_symmetry_group_IT_number 2
_symmetry_cell_setting 'triclinic'
loop_
_space_group_symop_operation_xyz
x,y,z
-x,-y,-z
loop_
_atom_site_type_symbol
_atom_site_label
_atom_site_fract_x
_atom_site_fract_y
_atom_site_fract_z
Si Si1 0.101115 0.662933 0.359918
Si Si2 0.477828 0.777340 0.909362
Si Si3 0.334769 0.112125 0.524061
Si Si4 0.790493 0.848524 0.015705
Si Si5 0.674888 0.511868 0.385707
Si Si6 0.311855 0.925859 0.673442
Si Si7 0.000000 0.500000 0.500000
Si Si8 0.826393 0.483972 0.957431
O O1 0.176900 0.894270 0.440489
O O2 0.179914 0.563851 0.389553
O O3 0.129390 0.595129 0.203842
O O4 0.878576 0.551651 0.415982
O O5 0.386334 0.660685 0.766648
O O6 0.680101 0.778459 0.895578
O O7 0.351361 0.662934 0.994557
O O8 0.500000 0.000000 0.000000
O O9 0.374811 0.089361 0.632914
O O10 0.266916 0.284249 0.603279
O O11 0.514441 0.143345 0.412667
O O12 0.695955 0.969177 0.164359
O O13 0.799879 0.678553 0.015941
O O14 0.000000 0.000000 0.000000
O O15 0.500000 0.500000 0.500000
O O16 0.106367 0.747689 0.620664
O O17 0.000000 0.500000 0.000000
#
# Coordination Sequence:
#
# PCOD9025621 Si02
#       8
#     2   2   2   2   2   2   1   2
#     4  11  24  44  73 104 146 192 245 314 376 450
#     4  12  29  50  74 109 155 207 255 315 384 455
#     4  10  23  43  68 102 135 184 238 304 370 435
#     4  12  27  45  76 107 148 201 253 304 383 457
#     4  12  27  44  72 103 147 190 249 308 376 445
#     4  10  22  42  70 100 141 181 240 306 361 446
#     4  10  22  40  70 102 142 184 236 302 376 432
#     4  12  25  48  78 106 152 198 254 315 376 457
#
# _framework density 23.928523999999999
#
# number of rings (size 3 to 8) (size 9 to 14) (size 15 to 20)
#    0.000    0.800    1.333    4.800    5.600    7.467 
#    0.000    0.000    0.000    0.000    0.000    0.000 
#    0.000    0.000    0.000    0.000    0.000    0.000 
#
# Total GULP energy -83647.345746 kJ/mol
# GULP energy per Si atom -5576.489716 kJ/mol
# Density = 2.387406 g / cm^3
# Si number density = 23.928524 Si / 1000 Ang^3
#
#
#
# Elastic Constant Matrix: (Units=GPa)
#
#
# Indices 1 2 3 4 5 6 
#
# 1 93.9278 45.6279 19.9093 16.8371 4.4881 8.8421
# 2 45.6279 186.1109 54.5348 10.8851 -1.9061 -8.3150
# 3 19.9093 54.5348 142.5830 9.0465 9.9996 5.8061
# 4 16.8371 10.8851 9.0465 41.2320 2.5003 -2.9696
# 5 4.4881 -1.9061 9.9996 2.5003 31.1850 2.2693
# 6 8.8421 -8.3150 5.8061 -2.9696 2.2693 57.0436
#
#
#
# Elastic Compliance Matrix: (Units=1/GPa)
#
#
# Indices 1 2 3 4 5 6 
#
# 1 0.013347 -0.003081 -0.000173 -0.004702 -0.001481 -0.002686
# 2 -0.003081 0.006920 -0.002389 -0.000016 0.001512 0.001669
# 3 -0.000173 -0.002389 0.008245 -0.001030 -0.002601 -0.001111
# 4 -0.004702 -0.000016 -0.001030 0.026645 -0.001296 0.002270
# 5 -0.001481 0.001512 -0.002601 -0.001296 0.033360 -0.000680
# 6 -0.002686 0.001669 -0.001111 0.002270 -0.000680 0.018448
#
#
# Mechanical properties :
#
#
# Convention : Reuss Voigt Hill
#
# Bulk Modulus (GPa) = 58.06406 73.64061 65.85234
# Shear Modulus (GPa) = 40.32465 46.06210 43.19337
#
# Velocity S-wave (km/s) = 4.10959 4.39223 4.25326
# Velocity P-wave (km/s) = 6.84373 7.52092 7.19030
#
# Compressibility (1/GPa) = 0.01722236
#
# Stress axis : x y z
#
# Youngs Moduli (GPa) = 74.92492 144.51479 121.29235
#
# Poissons Ratio (x) = 0.44532 0.02104
# Poissons Ratio (y) = 0.23088 0.28981
# Poissons Ratio (z) = 0.01300 0.34530
#
# Static dielectric constant tensor:
#      x y z
#    x 1.880050 -0.140750 0.164090 
#    y -0.140750 2.006500 -0.100380 
#    z 0.164090 -0.100380 2.027690 
# 
# From -- ./inp_files/380261.got.cif
#   From: 2010.05.17/outbox.cif.g08.bks.cpg/sg2_191_cif.got.tgz:380261.got - 2010.06.03 11:33:40.
