data_PCOD9025837
_publ_section_title
;
Structure prediction by ZEFSAII (Michael W. Deem and Ramdas Pophale) SiO2 
 PCOD9025837
Probable space group: P -1
;
_chemical_formula_sum "Si O2"
_cell_formula_units_Z 14
_cell_length_a 25.582858
_cell_length_b 23.557415
_cell_length_c 15.070117
_cell_angle_alpha 18.656206
_cell_angle_beta 17.479537
_cell_angle_gamma 11.276691
_cell_volume 522.113415
_symmetry_space_group_name_H-M "P -1"
_symmetry_group_IT_number 2
_symmetry_cell_setting 'triclinic'
loop_
_space_group_symop_operation_xyz
x,y,z
-x,-y,-z
loop_
_atom_site_type_symbol
_atom_site_label
_atom_site_fract_x
_atom_site_fract_y
_atom_site_fract_z
Si Si1 0.160867 0.571590 0.533714
Si Si2 0.917143 0.500759 0.905681
Si Si3 0.761909 0.659446 0.546951
Si Si4 0.059319 0.880552 0.483627
Si Si5 0.248486 0.661249 0.855298
Si Si6 0.647668 0.939391 0.943435
Si Si7 0.272624 0.689171 0.967126
O O1 0.988593 0.636081 0.632291
O O2 0.956511 0.753792 0.680995
O O3 0.344907 0.246510 0.739699
O O4 0.414338 0.506173 0.214628
O O5 0.027241 0.409273 0.761866
O O6 0.031532 0.251446 0.154711
O O7 0.573278 0.754855 0.099303
O O8 0.500000 0.000000 0.500000
O O9 0.864442 0.446766 0.777957
O O10 0.674868 0.563953 0.763909
O O11 0.403145 0.625855 0.289271
O O12 0.000000 0.000000 0.500000
O O13 0.898636 0.130340 0.299855
O O14 0.202812 0.810056 0.799902
O O15 0.500000 0.000000 0.000000
O O16 0.000000 0.000000 0.000000
#
# Coordination Sequence:
#
# PCOD9025837 Si02
#       7
#     2   2   2   2   2   2   2
#     4  10  22  40  72 113 165 214 276 343 423 506
#     4  11  25  44  77 119 161 216 283 347 424 503
#     4  10  24  52  79 115 166 221 288 349 421 505
#     4  12  27  53  81 122 164 222 284 358 428 509
#     4  10  28  50  82 122 165 222 287 352 427 508
#     4   9  21  39  64 111 157 210 264 342 411 495
#     4  10  24  48  80 117 170 225 280 337 433 510
#
# _framework density 26.814095999999999
#
# number of rings (size 3 to 8) (size 9 to 14) (size 15 to 20)
#    0.857    0.857    0.000    2.143    8.000    1.714 
#    5.143    1.429    0.000    0.000    0.000    0.000 
#    0.000    0.000    0.000    0.000    0.000    0.000 
#
# Total GULP energy -78148.132362 kJ/mol
# GULP energy per Si atom -5582.009454 kJ/mol
# Density = 2.675307 g / cm^3
# Si number density = 26.814096 Si / 1000 Ang^3
#
#
#
# Elastic Constant Matrix: (Units=GPa)
#
#
# Indices 1 2 3 4 5 6 
#
# 1 111.5707 81.5521 80.0012 17.9331 27.6127 20.7462
# 2 81.5521 188.9945 68.5589 27.1649 29.4508 5.8013
# 3 80.0012 68.5589 174.9777 -5.6819 30.5083 2.9996
# 4 17.9331 27.1649 -5.6819 52.9661 10.7084 10.8800
# 5 27.6127 29.4508 30.5083 10.7084 70.8092 1.8098
# 6 20.7462 5.8013 2.9996 10.8800 1.8098 57.9737
#
#
#
# Elastic Compliance Matrix: (Units=1/GPa)
#
#
# Indices 1 2 3 4 5 6 
#
# 1 0.019343 -0.005049 -0.006522 -0.003136 -0.002020 -0.005428
# 2 -0.005049 0.008271 -0.000932 -0.002818 -0.000684 0.001577
# 3 -0.006522 -0.000932 0.009470 0.003794 -0.001755 0.001280
# 4 -0.003136 -0.002818 0.003794 0.022946 -0.002632 -0.003016
# 5 -0.002020 -0.000684 -0.001755 -0.002632 0.016327 0.000867
# 6 -0.005428 0.001577 0.001280 -0.003016 0.000867 0.019506
#
#
# Mechanical properties :
#
#
# Convention : Reuss Voigt Hill
#
# Bulk Modulus (GPa) = 82.79270 103.97417 93.38344
# Shear Modulus (GPa) = 40.03374 52.71184 46.37279
#
# Velocity S-wave (km/s) = 3.86814 4.43857 4.16314
# Velocity P-wave (km/s) = 7.13398 8.07019 7.61648
#
# Compressibility (1/GPa) = 0.01207836
#
# Stress axis : x y z
#
# Youngs Moduli (GPa) = 51.69742 120.90649 105.60208
#
# Poissons Ratio (x) = 0.61040 0.68878
# Poissons Ratio (y) = 0.26099 0.09839
# Poissons Ratio (z) = 0.33719 0.11265
#
# Static dielectric constant tensor:
#      x y z
#    x 2.559020 -0.136750 -0.275290 
#    y -0.136750 1.992090 0.031920 
#    z -0.275290 0.031920 2.444360 
# 
# From -- ./inp_files/545161.got.cif
#   From: 2010.05.17/outbox.cif.g08.bks.cpg/sg2_273_cif.got.tgz:545161.got - 2010.06.03 11:33:40.
