data_PCOD9025594
_publ_section_title
;
Structure prediction by ZEFSAII (Michael W. Deem and Ramdas Pophale) SiO2 
 PCOD9025594
Probable space group: P -1
;
_chemical_formula_sum "Si O2"
_cell_formula_units_Z 14
_cell_length_a 5.659887
_cell_length_b 12.516287
_cell_length_c 10.301650
_cell_angle_alpha 72.896889
_cell_angle_beta 59.098233
_cell_angle_gamma 85.455636
_cell_volume 596.194130
_symmetry_space_group_name_H-M "P -1"
_symmetry_group_IT_number 2
_symmetry_cell_setting 'triclinic'
loop_
_space_group_symop_operation_xyz
x,y,z
-x,-y,-z
loop_
_atom_site_type_symbol
_atom_site_label
_atom_site_fract_x
_atom_site_fract_y
_atom_site_fract_z
Si Si1 0.716491 0.053397 0.528143
Si Si2 0.311250 0.521051 0.850048
Si Si3 0.822318 0.874723 0.968969
Si Si4 0.254763 0.323533 0.733032
Si Si5 0.895737 0.486485 0.685303
Si Si6 0.286359 0.694423 0.605544
Si Si7 0.394321 0.935160 0.878762
O O1 0.795612 0.181154 0.422987
O O2 0.500000 0.000000 0.500000
O O3 0.550801 0.034038 0.715736
O O4 0.000000 0.000000 0.500000
O O5 0.338776 0.437926 0.747331
O O6 0.600413 0.493880 0.837160
O O7 0.355451 0.649109 0.743737
O O8 0.000000 0.500000 0.000000
O O9 0.746375 0.778414 0.130968
O O10 0.763191 0.000732 0.987197
O O11 0.621211 0.861134 0.905620
O O12 0.155207 0.876943 0.874599
O O13 0.453669 0.309001 0.562244
O O14 0.967617 0.359746 0.744702
O O15 0.000000 0.500000 0.500000
O O16 0.058501 0.599292 0.655782
#
# Coordination Sequence:
#
# PCOD9025594 Si02
#       7
#     2   2   2   2   2   2   2
#     4  12  28  47  72 104 146 199 251 301 367 443
#     4  11  25  43  68 107 147 177 234 301 379 437
#     4  10  22  40  70 100 136 182 234 307 349 424
#     4  11  22  41  71 106 136 190 243 291 366 449
#     4  11  21  41  75 107 140 187 247 299 363 460
#     4  11  24  45  70 102 142 193 245 304 362 446
#     4  10  22  43  64 100 139 181 242 292 363 414
#
# _framework density 23.482285000000001
#
# number of rings (size 3 to 8) (size 9 to 14) (size 15 to 20)
#    0.000    1.143    4.286    1.714    4.000    4.571 
#    2.571    0.000    0.000    0.000    0.000    0.000 
#    0.000    0.000    0.000    0.000    0.000    0.000 
#
# Total GULP energy -77939.733963 kJ/mol
# GULP energy per Si atom -5567.123854 kJ/mol
# Density = 2.342884 g / cm^3
# Si number density = 23.482285 Si / 1000 Ang^3
#
#
#
# Elastic Constant Matrix: (Units=GPa)
#
#
# Indices 1 2 3 4 5 6 
#
# 1 141.8952 53.2081 43.5329 2.3890 -18.1544 -36.7073
# 2 53.2081 113.4829 32.8004 -11.9146 -3.9517 -34.7078
# 3 43.5329 32.8004 105.9998 -10.4556 -7.0506 -30.0405
# 4 2.3890 -11.9146 -10.4556 36.5290 -8.7291 7.5264
# 5 -18.1544 -3.9517 -7.0506 -8.7291 36.2668 -1.4374
# 6 -36.7073 -34.7078 -30.0405 7.5264 -1.4374 37.3913
#
#
#
# Elastic Compliance Matrix: (Units=1/GPa)
#
#
# Indices 1 2 3 4 5 6 
#
# 1 0.011182 -0.002386 -0.001428 -0.002483 0.004791 0.008300
# 2 -0.002386 0.013125 -0.000102 0.002804 0.001257 0.009243
# 3 -0.001428 -0.000102 0.012886 0.002671 0.002756 0.008425
# 4 -0.002483 0.002804 0.002671 0.031686 0.007058 -0.003796
# 5 0.004791 0.001257 0.002756 0.007058 0.032657 0.007920
# 6 0.008300 0.009243 0.008425 -0.003796 0.007920 0.051309
#
#
# Mechanical properties :
#
#
# Convention : Reuss Voigt Hill
#
# Bulk Modulus (GPa) = 34.05767 68.94006 51.49886
# Shear Modulus (GPa) = 29.33173 37.49319 33.41246
#
# Velocity S-wave (km/s) = 3.53810 4.00016 3.77620
# Velocity P-wave (km/s) = 5.58801 7.12440 6.40246
#
# Compressibility (1/GPa) = 0.02936196
#
# Stress axis : x y z
#
# Youngs Moduli (GPa) = 89.42900 76.19075 77.60088
#
# Poissons Ratio (x) = 0.18176 0.11084
# Poissons Ratio (y) = 0.21334 0.00791
# Poissons Ratio (z) = 0.12773 0.00777
#
# Static dielectric constant tensor:
#      x y z
#    x 2.504620 -0.060070 0.062480 
#    y -0.060070 1.839870 0.005190 
#    z 0.062480 0.005190 1.889150 
# 
# From -- ./inp_files/47541.got.cif
#   From: 2010.05.17/outbox.cif.g08.bks.cpg/sg2_24_cif.got.tgz:47541.got - 2010.06.03 11:33:40.
