data_PCOD9025771
_publ_section_title
;
Structure prediction by ZEFSAII (Michael W. Deem and Ramdas Pophale) SiO2 
 PCOD9025771
Probable space group: P -1
;
_chemical_formula_sum "Si O2"
_cell_formula_units_Z 14
_cell_length_a 9.621139
_cell_length_b 11.134416
_cell_length_c 13.225967
_cell_angle_alpha 32.244766
_cell_angle_beta 56.276847
_cell_angle_gamma 61.089240
_cell_volume 628.428120
_symmetry_space_group_name_H-M "P -1"
_symmetry_group_IT_number 2
_symmetry_cell_setting 'triclinic'
loop_
_space_group_symop_operation_xyz
x,y,z
-x,-y,-z
loop_
_atom_site_type_symbol
_atom_site_label
_atom_site_fract_x
_atom_site_fract_y
_atom_site_fract_z
Si Si1 0.238756 0.943119 0.376673
Si Si2 0.109922 0.038512 0.583516
Si Si3 0.683994 0.195995 0.173205
Si Si4 0.645248 0.618431 0.749830
Si Si5 0.343508 0.437004 0.675390
Si Si6 0.511716 0.230996 0.948184
Si Si7 0.806284 0.949049 0.104342
O O1 0.269930 0.676942 0.570457
O O2 0.087677 0.968678 0.339230
O O3 0.176179 0.039116 0.440986
O O4 0.395306 0.074169 0.175684
O O5 0.191482 0.259887 0.440220
O O6 0.191286 0.839065 0.759190
O O7 0.492176 0.198993 0.284459
O O8 0.725546 0.010597 0.202433
O O9 0.698990 0.439188 0.941792
O O10 0.546145 0.470505 0.815254
O O11 0.500000 0.500000 0.500000
O O12 0.417322 0.282731 0.845723
O O13 0.220170 0.297620 0.754019
O O14 0.695652 0.111140 0.958628
O O15 0.000000 0.000000 0.000000
#
# Coordination Sequence:
#
# PCOD9025771 Si02
#       7
#     2   2   2   2   2   2   2
#     4  11  26  44  65 102 134 175 221 275 339 392
#     4  11  24  41  70  99 134 170 226 280 328 394
#     4  10  22  41  67  96 135 166 223 279 327 384
#     4  10  22  40  71  97 126 176 223 273 336 391
#     4  12  27  45  71  95 134 185 222 264 334 404
#     4  11  25  47  69  96 139 174 218 280 335 386
#     4  11  26  44  69  99 134 177 225 271 327 396
#
# _framework density 22.277805000000001
#
# number of rings (size 3 to 8) (size 9 to 14) (size 15 to 20)
#    0.000    1.143    1.429    4.286    8.000    0.000 
#    0.000    5.000    0.000    0.000    0.000    0.000 
#    0.000    0.000    0.000    0.000    0.000    0.000 
#
# Total GULP energy -78255.829338 kJ/mol
# GULP energy per Si atom -5589.702096 kJ/mol
# Density = 2.222710 g / cm^3
# Si number density = 22.277805 Si / 1000 Ang^3
#
#
#
# Elastic Constant Matrix: (Units=GPa)
#
#
# Indices 1 2 3 4 5 6 
#
# 1 179.8332 32.4036 56.1115 1.0181 -10.8604 -8.5952
# 2 32.4036 39.3387 21.9356 -7.6105 -20.5568 11.5187
# 3 56.1115 21.9356 75.1756 -3.3147 -2.5770 8.2252
# 4 1.0181 -7.6105 -3.3147 18.5548 7.3361 -2.1389
# 5 -10.8604 -20.5568 -2.5770 7.3361 56.2231 -1.3975
# 6 -8.5952 11.5187 8.2252 -2.1389 -1.3975 30.3323
#
#
#
# Elastic Compliance Matrix: (Units=1/GPa)
#
#
# Indices 1 2 3 4 5 6 
#
# 1 0.008799 -0.007040 -0.005377 -0.003392 -0.000520 0.006362
# 2 -0.007040 0.049857 -0.006332 0.011897 0.014587 -0.017700
# 3 -0.005377 -0.006332 0.019632 0.001800 -0.002799 -0.004445
# 4 -0.003392 0.011897 0.001800 0.060723 -0.004193 -0.001878
# 5 -0.000520 0.014587 -0.002799 -0.004193 0.023335 -0.004148
# 6 0.006362 -0.017700 -0.004445 -0.001878 -0.004148 0.042374
#
#
# Mechanical properties :
#
#
# Convention : Reuss Voigt Hill
#
# Bulk Modulus (GPa) = 24.51526 57.24987 40.88256
# Shear Modulus (GPa) = 19.54549 33.28184 26.41366
#
# Velocity S-wave (km/s) = 2.96523 3.86935 3.44706
# Velocity P-wave (km/s) = 4.76987 6.76140 5.85099
#
# Compressibility (1/GPa) = 0.04079092
#
# Stress axis : x y z
#
# Youngs Moduli (GPa) = 113.65291 20.05750 50.93599
#
# Poissons Ratio (x) = 0.14121 0.27386
# Poissons Ratio (y) = 0.80016 0.32250
# Poissons Ratio (z) = 0.61106 0.12700
#
# Static dielectric constant tensor:
#      x y z
#    x 1.831940 0.027820 -0.004370 
#    y 0.027820 1.987060 -0.116950 
#    z -0.004370 -0.116950 1.903010 
# 
# From -- ./inp_files/498676.got.cif
#   From: 2010.05.17/outbox.cif.g08.bks.cpg/sg2_250_cif.got.tgz:498676.got - 2010.06.03 11:33:40.
