data_PCOD9025492
_publ_section_title
;
Structure prediction by ZEFSAII (Michael W. Deem and Ramdas Pophale) SiO2 
 PCOD9025492
Probable space group: P -1
;
_chemical_formula_sum "Si O2"
_cell_formula_units_Z 16
_cell_length_a 14.797745
_cell_length_b 16.601170
_cell_length_c 11.016213
_cell_angle_alpha 31.747472
_cell_angle_beta 130.539688
_cell_angle_gamma 150.115717
_cell_volume 668.969042
_symmetry_space_group_name_H-M "P -1"
_symmetry_group_IT_number 2
_symmetry_cell_setting 'triclinic'
loop_
_space_group_symop_operation_xyz
x,y,z
-x,-y,-z
loop_
_atom_site_type_symbol
_atom_site_label
_atom_site_fract_x
_atom_site_fract_y
_atom_site_fract_z
Si Si1 0.938973 0.585513 0.414653
Si Si2 0.496552 0.887313 0.412592
Si Si3 0.876747 0.632452 0.548166
Si Si4 0.876027 0.729503 0.777670
Si Si5 0.550946 0.284436 0.883499
Si Si6 0.107991 0.764674 0.794821
Si Si7 0.240591 0.146782 0.899993
Si Si8 0.521112 0.384937 0.069977
O O1 0.712248 0.380077 0.464839
O O2 0.960276 0.605070 0.553879
O O3 0.000000 0.500000 0.500000
O O4 0.064519 0.854140 0.135967
O O5 0.534442 0.834541 0.637733
O O6 0.665472 0.016078 0.301385
O O7 0.495223 0.070565 0.177035
O O8 0.669510 0.367280 0.759206
O O9 0.834431 0.758420 0.301174
O O10 0.032225 0.799589 0.577294
O O11 0.713445 0.531510 0.788591
O O12 0.024442 0.739006 0.881528
O O13 0.744490 0.607363 0.937518
O O14 0.000000 0.000000 0.500000
O O15 0.369825 0.214144 0.814151
O O16 0.000000 0.500000 0.000000
O O17 0.379908 0.274156 0.975515
O O18 0.500000 0.500000 0.000000
#
# Coordination Sequence:
#
# PCOD9025492 Si02
#       8
#     2   2   2   2   2   2   2   2
#     4  12  27  46  69 110 148 191 238 297 364 447
#     4  12  24  46  72 103 150 181 252 290 364 431
#     4  11  24  46  76  99 144 192 240 295 368 428
#     4  10  22  40  69 106 144 177 241 296 360 422
#     4  10  23  46  71 103 139 192 241 297 361 428
#     4  11  23  47  71 103 143 188 240 299 362 429
#     4  11  24  49  74 103 147 190 240 300 367 430
#     4  11  25  45  77 110 148 194 242 306 361 432
#
# _framework density 23.917399
#
# number of rings (size 3 to 8) (size 9 to 14) (size 15 to 20)
#    0.000    1.000    3.750    3.000    0.000    8.500 
#    0.000    0.000    0.000    0.000    0.000    0.000 
#    0.000    0.000    0.000    0.000    0.000    0.000 
#
# Total GULP energy -89499.341437 kJ/mol
# GULP energy per Si atom -5593.708840 kJ/mol
# Density = 2.386296 g / cm^3
# Si number density = 23.917399 Si / 1000 Ang^3
#
#
#
# Elastic Constant Matrix: (Units=GPa)
#
#
# Indices 1 2 3 4 5 6 
#
# 1 181.4552 22.6570 54.0141 -15.4913 -15.9992 23.0332
# 2 22.6570 83.3943 25.7025 -20.5551 -1.2711 16.5374
# 3 54.0141 25.7025 154.4095 -21.7778 12.1742 3.7079
# 4 -15.4913 -20.5551 -21.7778 43.4957 15.5104 -11.7933
# 5 -15.9992 -1.2711 12.1742 15.5104 40.6148 -8.0646
# 6 23.0332 16.5374 3.7079 -11.7933 -8.0646 32.3052
#
#
#
# Elastic Compliance Matrix: (Units=1/GPa)
#
#
# Indices 1 2 3 4 5 6 
#
# 1 0.007099 -0.000557 -0.002754 -0.001425 0.003324 -0.004150
# 2 -0.000557 0.015006 -0.001139 0.005744 -0.002742 -0.005741
# 3 -0.002754 -0.001139 0.008757 0.005364 -0.005365 0.002160
# 4 -0.001425 0.005744 0.005364 0.034640 -0.013901 0.006635
# 5 0.003324 -0.002742 -0.005365 -0.013901 0.033337 0.002897
# 6 -0.004150 -0.005741 0.002160 0.006635 0.002897 0.039750
#
#
# Mechanical properties :
#
#
# Convention : Reuss Voigt Hill
#
# Bulk Modulus (GPa) = 45.53326 69.33403 57.43364
# Shear Modulus (GPa) = 32.29787 44.40881 38.35334
#
# Velocity S-wave (km/s) = 3.67876 4.31369 4.00881
# Velocity P-wave (km/s) = 6.09289 7.33910 6.74484
#
# Compressibility (1/GPa) = 0.02196197
#
# Stress axis : x y z
#
# Youngs Moduli (GPa) = 140.87316 66.63928 114.19659
#
# Poissons Ratio (x) = 0.03714 0.31447
# Poissons Ratio (y) = 0.07852 0.13003
# Poissons Ratio (z) = 0.38793 0.07588
#
# Static dielectric constant tensor:
#      x y z
#    x 2.012700 -0.009710 -0.059690 
#    y -0.009710 1.906210 0.049980 
#    z -0.059690 0.049980 1.944210 
# 
# From -- ./inp_files/456915.got.cif
#   From: 2010.05.17/outbox.cif.g08.bks.cpg/sg2_229_cif.got.tgz:456915.got - 2010.06.03 11:33:40.
