data_PCOD9025233
_publ_section_title
;
Structure prediction by ZEFSAII (Michael W. Deem and Ramdas Pophale) SiO2 
 PCOD9025233
Probable space group: P -1
;
_chemical_formula_sum "Si O2"
_cell_formula_units_Z 16
_cell_length_a 10.958452
_cell_length_b 24.145890
_cell_length_c 5.270878
_cell_angle_alpha 98.229702
_cell_angle_beta 111.854949
_cell_angle_gamma 31.274919
_cell_volume 626.103846
_symmetry_space_group_name_H-M "P -1"
_symmetry_group_IT_number 2
_symmetry_cell_setting 'triclinic'
loop_
_space_group_symop_operation_xyz
x,y,z
-x,-y,-z
loop_
_atom_site_type_symbol
_atom_site_label
_atom_site_fract_x
_atom_site_fract_y
_atom_site_fract_z
Si Si1 0.604834 0.112672 0.419542
Si Si2 0.205154 0.758536 0.482371
Si Si3 0.739007 0.952681 0.586105
Si Si4 0.038492 0.040216 0.834731
Si Si5 0.181870 0.380115 0.750982
Si Si6 0.967762 0.674895 0.605977
Si Si7 0.212950 0.631867 0.271711
Si Si8 0.697764 0.633554 0.671345
O O1 0.814560 0.074361 0.715633
O O2 0.328037 0.218301 0.428841
O O3 0.619478 0.039177 0.343470
O O4 0.723402 0.080637 0.209546
O O5 0.118696 0.852649 0.380445
O O6 0.189668 0.707792 0.274064
O O7 0.522116 0.651123 0.681245
O O8 0.008112 0.823127 0.609905
O O9 0.500000 0.000000 0.500000
O O10 0.831639 0.965607 0.864923
O O11 0.988835 0.404503 0.505409
O O12 0.391943 0.317527 0.651876
O O13 0.995404 0.501811 0.752857
O O14 0.292709 0.322283 0.077107
O O15 0.010355 0.692626 0.388575
O O16 0.148026 0.628780 0.947809
O O17 0.500000 0.500000 0.500000
#
# Coordination Sequence:
#
# PCOD9025233 Si02
#       8
#     2   2   2   2   2   2   2   2
#     4  10  24  43  72 107 144 191 244 304 368 435
#     4  11  26  41  70 100 138 193 246 295 367 434
#     4  11  25  43  70 103 146 192 242 304 364 442
#     4  10  24  46  69 103 147 187 244 308 367 432
#     4  10  22  42  67 102 136 177 231 296 361 419
#     4  12  26  45  75 103 142 193 245 296 367 442
#     4  12  29  49  71 106 148 195 245 304 364 439
#     4  10  22  40  68 100 137 176 231 296 357 429
#
# _framework density 25.554866000000001
#
# number of rings (size 3 to 8) (size 9 to 14) (size 15 to 20)
#    0.000    1.250    0.000    3.750   10.500    3.000 
#    0.000    0.000    0.000    0.000    0.000    0.000 
#    0.000    0.000    0.000    0.000    0.000    0.000 
#
# Total GULP energy -89084.905231 kJ/mol
# GULP energy per Si atom -5567.806577 kJ/mol
# Density = 2.549670 g / cm^3
# Si number density = 25.554866 Si / 1000 Ang^3
#
#
#
# Elastic Constant Matrix: (Units=GPa)
#
#
# Indices 1 2 3 4 5 6 
#
# 1 128.2990 38.2204 49.8166 11.8138 23.7327 -18.6356
# 2 38.2204 113.6966 28.1950 23.2091 7.6494 -23.2600
# 3 49.8166 28.1950 154.4330 44.6621 17.7290 -15.3148
# 4 11.8138 23.2091 44.6621 31.1219 -2.3432 9.2450
# 5 23.7327 7.6494 17.7290 -2.3432 41.0765 9.3146
# 6 -18.6356 -23.2600 -15.3148 9.2450 9.3146 46.1135
#
#
#
# Elastic Compliance Matrix: (Units=1/GPa)
#
#
# Indices 1 2 3 4 5 6 
#
# 1 0.011186 0.000204 0.000810 -0.008794 -0.009287 0.008531
# 2 0.000204 0.023606 0.016801 -0.053185 -0.022219 0.032720
# 3 0.000810 0.016801 0.031365 -0.071933 -0.030251 0.039751
# 4 -0.008794 -0.053185 -0.071933 0.218980 0.084664 -0.115275
# 5 -0.009287 -0.022219 -0.030251 0.084664 0.064195 -0.054948
# 6 0.008531 0.032720 0.039751 -0.115275 -0.054948 0.089049
#
#
# Mechanical properties :
#
#
# Convention : Reuss Voigt Hill
#
# Bulk Modulus (GPa) = 9.82446 69.87697 39.85071
# Shear Modulus (GPa) = 11.45006 42.34214 26.89610
#
# Velocity S-wave (km/s) = 2.11903 4.07493 3.24772
# Velocity P-wave (km/s) = 3.13686 7.03870 5.44900
#
# Compressibility (1/GPa) = 0.10178675
#
# Stress axis : x y z
#
# Youngs Moduli (GPa) = 89.39908 42.36236 31.88297
#
# Poissons Ratio (x) = -0.00865 -0.02582
# Poissons Ratio (y) = -0.01826 -0.53567
# Poissons Ratio (z) = -0.07240 -0.71174
#
# Static dielectric constant tensor:
#      x y z
#    x 2.318020 0.197780 -0.283440 
#    y 0.197780 2.375390 -0.199830 
#    z -0.283440 -0.199830 2.275190 
# 
# From -- ./inp_files/85111.got.cif
#   From: 2010.05.17/outbox.cif.g08.bks.cpg/sg2_43_cif.got.tgz:85111.got - 2010.06.03 11:33:40.
