data_PCOD9025491
_publ_section_title
;
Structure prediction by ZEFSAII (Michael W. Deem and Ramdas Pophale) SiO2 
 PCOD9025491
Probable space group: P -1
;
_chemical_formula_sum "Si O2"
_cell_formula_units_Z 13
_cell_length_a 16.683657
_cell_length_b 7.905264
_cell_length_c 9.237286
_cell_angle_alpha 96.923766
_cell_angle_beta 34.986176
_cell_angle_gamma 72.505791
_cell_volume 494.102268
_symmetry_space_group_name_H-M "P -1"
_symmetry_group_IT_number 2
_symmetry_cell_setting 'triclinic'
loop_
_space_group_symop_operation_xyz
x,y,z
-x,-y,-z
loop_
_atom_site_type_symbol
_atom_site_label
_atom_site_fract_x
_atom_site_fract_y
_atom_site_fract_z
Si Si1 0.084841 0.651004 0.766743
Si Si2 0.214805 0.875649 0.218780
Si Si3 0.984563 0.691662 0.244652
Si Si4 0.315793 0.318438 0.927906
Si Si5 0.424793 0.240929 0.067670
Si Si6 0.717851 0.038848 0.168569
Si Si7 0.500000 0.500000 0.000000
O O1 0.315175 0.477043 0.361979
O O2 0.068910 0.459687 0.735041
O O3 0.041869 0.718131 0.005277
O O4 0.926173 0.881747 0.925815
O O5 0.341994 0.645207 0.106235
O O6 0.000000 0.000000 0.500000
O O7 0.172080 0.081933 0.397670
O O8 0.317512 0.822309 0.907985
O O9 0.171794 0.537799 0.056588
O O10 0.285402 0.151267 0.904623
O O11 0.533405 0.196509 0.562086
O O12 0.286555 0.334137 0.144228
O O13 0.589210 0.235316 0.779968
O O14 0.500000 0.000000 0.000000
#
# Coordination Sequence:
#
# PCOD9025491 Si02
#       7
#     2   2   2   2   2   2   1
#     4  10  22  40  69 106 139 184 239 299 358 432
#     4  12  26  49  68 101 146 198 236 302 362 434
#     4  10  22  41  70 103 141 185 241 293 363 428
#     4  10  22  40  69 106 139 184 239 299 358 432
#     4  12  26  45  74 103 144 193 239 300 364 428
#     4  10  22  41  70 103 141 185 241 293 363 428
#     4  12  28  44  76 108 140 182 260 288 360 436
#
# _framework density 26.31034
#
# number of rings (size 3 to 8) (size 9 to 14) (size 15 to 20)
#    0.000    1.231    0.000    5.538   12.923    2.462 
#    2.769    3.077    0.000    0.000    0.000    0.000 
#    0.000    0.000    0.000    0.000    0.000    0.000 
#
# Total GULP energy -72453.279811 kJ/mol
# GULP energy per Si atom -5573.329216 kJ/mol
# Density = 2.625046 g / cm^3
# Si number density = 26.310340 Si / 1000 Ang^3
#
#
#
# Elastic Constant Matrix: (Units=GPa)
#
#
# Indices 1 2 3 4 5 6 
#
# 1 150.6337 84.5827 44.8271 4.9407 1.2184 -36.3198
# 2 84.5827 162.7865 23.8395 6.0285 8.2825 -32.7334
# 3 44.8271 23.8395 25.1162 -12.6980 -14.8662 -11.4635
# 4 4.9407 6.0285 -12.6980 29.5888 -16.3629 7.3110
# 5 1.2184 8.2825 -14.8662 -16.3629 44.4513 8.2208
# 6 -36.3198 -32.7334 -11.4635 7.3110 8.2208 60.4638
#
#
#
# Elastic Compliance Matrix: (Units=1/GPa)
#
#
# Indices 1 2 3 4 5 6 
#
# 1 0.001553 -0.006776 0.024223 0.022390 0.018177 -0.003322
# 2 -0.006776 0.008696 0.007081 0.003061 0.001808 0.001364
# 3 0.024223 0.007081 -0.068220 -0.070241 -0.054607 0.021367
# 4 0.022390 0.003061 -0.070241 -0.022034 -0.034477 0.009141
# 5 0.018177 0.001808 -0.054607 -0.034477 -0.010616 0.007157
# 6 -0.003322 0.001364 0.021367 0.009141 0.007157 0.017254
#
#
# Mechanical properties :
#
#
# Convention : Reuss Voigt Hill
#
# Bulk Modulus (GPa) = -112.15754 71.67056 -20.24349
# Shear Modulus (GPa) = -39.87410 39.25325 -0.31043
#
# Velocity S-wave (km/s) = -3.89720 3.86674 -0.34386
# Velocity P-wave (km/s) = 7.93550 6.87279 2.80508
#
# Compressibility (1/GPa) = -0.00891603
#
# Stress axis : x y z
#
# Youngs Moduli (GPa) = 644.10291 114.99852 -14.65854
#
# Poissons Ratio (x) = 0.77924 0.35508
# Poissons Ratio (y) = 4.36451 0.10379
# Poissons Ratio (z) = -15.60221 -0.81425
#
# Static dielectric constant tensor:
#      x y z
#    x 2.087700 -0.186090 0.201860 
#    y -0.186090 1.598550 0.556020 
#    z 0.201860 0.556020 1.501670 
# 
# From -- ./inp_files/327506.got.cif
#   From: 2010.05.17/outbox.cif.g08.bks.cpg/sg2_164_cif.got.tgz:327506.got - 2010.06.03 11:33:40.
