data_PCOD9025716
_publ_section_title
;
Structure prediction by ZEFSAII (Michael W. Deem and Ramdas Pophale) SiO2 
 PCOD9025716
Probable space group: P -1
;
_chemical_formula_sum "Si O2"
_cell_formula_units_Z 16
_cell_length_a 5.407222
_cell_length_b 12.602902
_cell_length_c 11.275364
_cell_angle_alpha 100.642634
_cell_angle_beta 75.078865
_cell_angle_gamma 95.253710
_cell_volume 728.913990
_symmetry_space_group_name_H-M "P -1"
_symmetry_group_IT_number 2
_symmetry_cell_setting 'triclinic'
loop_
_space_group_symop_operation_xyz
x,y,z
-x,-y,-z
loop_
_atom_site_type_symbol
_atom_site_label
_atom_site_fract_x
_atom_site_fract_y
_atom_site_fract_z
Si Si1 0.290877 0.056062 0.114450
Si Si2 0.995117 0.826575 0.486277
Si Si3 0.468852 0.719328 0.819978
Si Si4 0.989571 0.390347 0.692350
Si Si5 0.249665 0.572091 0.024690
Si Si6 0.634847 0.007367 0.634162
Si Si7 0.536783 0.504307 0.637381
Si Si8 0.834253 0.121518 0.272218
O O1 0.346068 0.185770 0.130697
O O2 0.985852 0.054709 0.140854
O O3 0.310543 0.009215 0.236172
O O4 0.500000 0.000000 0.000000
O O5 0.924303 0.717691 0.404158
O O6 0.250681 0.879550 0.403723
O O7 0.032538 0.815542 0.620586
O O8 0.780572 0.914803 0.527019
O O9 0.583416 0.623574 0.710500
O O10 0.307899 0.788494 0.763007
O O11 0.318210 0.660434 0.933957
O O12 0.831608 0.374850 0.830412
O O13 0.782145 0.441469 0.639539
O O14 0.252849 0.459307 0.704589
O O15 0.500000 0.500000 0.000000
O O16 0.000000 0.500000 0.000000
O O17 0.339747 0.970381 0.658672
O O18 0.500000 0.500000 0.500000
#
# Coordination Sequence:
#
# PCOD9025716 Si02
#       8
#     2   2   2   2   2   2   2   2
#     4  10  24  42  65 101 134 178 236 286 345 425
#     4  10  22  40  70  98 139 176 227 296 351 419
#     4  11  25  42  71  92 139 183 228 290 357 402
#     4  12  26  45  69 107 137 181 239 288 345 427
#     4  12  25  49  69  99 140 184 240 287 349 420
#     4   9  21  42  64  99 135 179 227 283 358 417
#     4  12  27  45  71 105 141 181 233 289 353 426
#     4  10  22  42  70  96 136 178 230 286 354 425
#
# _framework density 21.950462000000002
#
# number of rings (size 3 to 8) (size 9 to 14) (size 15 to 20)
#    0.000    1.250    2.500    1.500   12.250    2.000 
#    0.000    1.250    0.000    0.000    0.000    0.000 
#    0.000    0.000    0.000    0.000    0.000    0.000 
#
# Total GULP energy -89246.282204 kJ/mol
# GULP energy per Si atom -5577.892638 kJ/mol
# Density = 2.190050 g / cm^3
# Si number density = 21.950462 Si / 1000 Ang^3
#
#
#
# Elastic Constant Matrix: (Units=GPa)
#
#
# Indices 1 2 3 4 5 6 
#
# 1 76.4835 28.2442 3.4198 1.6057 -11.8543 9.4953
# 2 28.2442 75.1114 31.7841 -9.9441 -11.8064 6.0911
# 3 3.4198 31.7841 112.8637 5.2971 -22.6852 6.5961
# 4 1.6057 -9.9441 5.2971 46.2565 -2.7088 -0.7398
# 5 -11.8543 -11.8064 -22.6852 -2.7088 29.2496 -8.2695
# 6 9.4953 6.0911 6.5961 -0.7398 -8.2695 29.1230
#
#
#
# Elastic Compliance Matrix: (Units=1/GPa)
#
#
# Indices 1 2 3 4 5 6 
#
# 1 0.016614 -0.006586 0.002646 -0.002054 0.005013 -0.003267
# 2 -0.006586 0.018808 -0.005032 0.004931 0.001445 -0.000111
# 3 0.002646 -0.005032 0.011922 -0.002074 0.008015 -0.000288
# 4 -0.002054 0.004931 -0.002074 0.023128 0.002053 0.001279
# 5 0.005013 0.001445 0.008015 0.002053 0.045844 0.009317
# 6 -0.003267 -0.000111 -0.000288 0.001279 0.009317 0.038169
#
#
# Mechanical properties :
#
#
# Convention : Reuss Voigt Hill
#
# Bulk Modulus (GPa) = 34.01131 43.48387 38.74759
# Shear Modulus (GPa) = 27.43787 34.32653 30.88220
#
# Velocity S-wave (km/s) = 3.53936 3.95880 3.75494
# Velocity P-wave (km/s) = 5.67723 6.38351 6.04070
#
# Compressibility (1/GPa) = 0.02940199
#
# Stress axis : x y z
#
# Youngs Moduli (GPa) = 60.18854 53.16756 83.87788
#
# Poissons Ratio (x) = 0.35018 -0.22198
# Poissons Ratio (y) = 0.39643 0.42204
# Poissons Ratio (z) = -0.15929 0.26752
#
# Static dielectric constant tensor:
#      x y z
#    x 2.028030 0.049190 -0.011710 
#    y 0.049190 1.783340 -0.016210 
#    z -0.011710 -0.016210 1.821180 
# 
# From -- ./inp_files/84794.got.cif
#   From: 2010.05.17/outbox.cif.g08.bks.cpg/sg2_43_cif.got.tgz:84794.got - 2010.06.03 11:33:40.
