data_PCOD9025764
_publ_section_title
;
Structure prediction by ZEFSAII (Michael W. Deem and Ramdas Pophale) SiO2 
 PCOD9025764
Probable space group: P -1
;
_chemical_formula_sum "Si O2"
_cell_formula_units_Z 14
_cell_length_a 10.925585
_cell_length_b 8.222939
_cell_length_c 7.478336
_cell_angle_alpha 72.572552
_cell_angle_beta 82.708201
_cell_angle_gamma 63.115262
_cell_volume 571.705640
_symmetry_space_group_name_H-M "P -1"
_symmetry_group_IT_number 2
_symmetry_cell_setting 'triclinic'
loop_
_space_group_symop_operation_xyz
x,y,z
-x,-y,-z
loop_
_atom_site_type_symbol
_atom_site_label
_atom_site_fract_x
_atom_site_fract_y
_atom_site_fract_z
Si Si1 0.211682 0.272241 0.590446
Si Si2 0.273732 0.386505 0.894948
Si Si3 0.031202 0.683081 0.964874
Si Si4 0.549594 0.287438 0.988111
Si Si5 0.779169 0.064803 0.760969
Si Si6 0.061479 0.713434 0.372301
Si Si7 0.388112 0.137213 0.283995
O O1 0.231575 0.268875 0.799952
O O2 0.137255 0.496590 0.490234
O O3 0.350879 0.185821 0.480251
O O4 0.099366 0.201290 0.572483
O O5 0.172719 0.607368 0.850882
O O6 0.432242 0.328114 0.845955
O O7 0.282589 0.311557 0.121301
O O8 0.055173 0.713550 0.156879
O O9 0.909215 0.870440 0.851735
O O10 0.000000 0.500000 0.000000
O O11 0.524463 0.147719 0.180630
O O12 0.500000 0.500000 0.000000
O O13 0.698278 0.186425 0.909468
O O14 0.848652 0.183336 0.613870
O O15 0.662351 0.021603 0.701578
#
# Coordination Sequence:
#
# PCOD9025764 Si02
#       7
#     2   2   2   2   2   2   2
#     4  11  21  42  66  97 133 183 222 276 333 395
#     4  10  22  40  71  95 129 181 223 270 337 396
#     4  12  19  40  65  99 131 175 223 276 334 395
#     4  10  22  45  71  95 131 181 228 271 341 402
#     4  12  23  39  69 101 136 175 229 278 336 401
#     4  11  23  36  64  98 140 172 226 273 339 391
#     4  10  22  41  68  92 134 171 226 272 334 388
#
# _framework density 24.488123000000002
#
# number of rings (size 3 to 8) (size 9 to 14) (size 15 to 20)
#    0.857    0.286    4.286    2.571    2.000    0.571 
#    0.000    3.571    0.000    0.000    0.000    0.000 
#    0.000    0.000    0.000    0.000    0.000    0.000 
#
# Total GULP energy -78120.405293 kJ/mol
# GULP energy per Si atom -5580.028950 kJ/mol
# Density = 2.443239 g / cm^3
# Si number density = 24.488123 Si / 1000 Ang^3
#
#
#
# Elastic Constant Matrix: (Units=GPa)
#
#
# Indices 1 2 3 4 5 6 
#
# 1 77.7118 30.8911 9.7468 -9.6236 -24.9876 7.9599
# 2 30.8911 95.9165 17.5314 -0.4641 -11.9871 -3.8126
# 3 9.7468 17.5314 75.7410 3.5157 -3.8294 -2.5027
# 4 -9.6236 -0.4641 3.5157 29.3386 2.6467 -12.9993
# 5 -24.9876 -11.9871 -3.8294 2.6467 35.8311 4.0249
# 6 7.9599 -3.8126 -2.5027 -12.9993 4.0249 51.8117
#
#
#
# Elastic Compliance Matrix: (Units=1/GPa)
#
#
# Indices 1 2 3 4 5 6 
#
# 1 0.019584 -0.004713 -0.001113 0.003904 0.012052 -0.003366
# 2 -0.004713 0.012461 -0.002181 -0.000533 0.000536 0.001360
# 3 -0.001113 -0.002181 0.013955 -0.002006 0.000115 0.000172
# 4 0.003904 -0.000533 -0.002006 0.039918 -0.001676 0.009409
# 5 0.012052 0.000536 0.000115 -0.001676 0.037203 -0.005117
# 6 -0.003366 0.001360 0.000172 0.009409 -0.005117 0.022685
#
#
# Mechanical properties :
#
#
# Convention : Reuss Voigt Hill
#
# Bulk Modulus (GPa) = 33.34673 40.63422 36.99047
# Shear Modulus (GPa) = 29.10115 36.14293 32.62204
#
# Velocity S-wave (km/s) = 3.45103 3.84596 3.65383
# Velocity P-wave (km/s) = 5.43383 6.02921 5.73924
#
# Compressibility (1/GPa) = 0.02998795
#
# Stress axis : x y z
#
# Youngs Moduli (GPa) = 51.06104 80.25304 71.65654
#
# Poissons Ratio (x) = 0.37822 0.07972
# Poissons Ratio (y) = 0.24064 0.15628
# Poissons Ratio (z) = 0.05681 0.17503
#
# Static dielectric constant tensor:
#      x y z
#    x 2.103450 0.004510 -0.021090 
#    y 0.004510 1.944670 0.005570 
#    z -0.021090 0.005570 1.930100 
# 
# From -- ./inp_files/238307.got.cif
#   From: 2010.05.17/outbox.cif.g08.bks.cpg/sg2_120_cif.got.tgz:238307.got - 2010.06.03 11:33:40.
