data_PCOD9025271
_publ_section_title
;
Structure prediction by ZEFSAII (Michael W. Deem and Ramdas Pophale) SiO2 
 PCOD9025271
Probable space group: P -1
;
_chemical_formula_sum "Si O2"
_cell_formula_units_Z 14
_cell_length_a 11.534363
_cell_length_b 5.295816
_cell_length_c 11.183453
_cell_angle_alpha 61.703009
_cell_angle_beta 88.854464
_cell_angle_gamma 74.999415
_cell_volume 576.747416
_symmetry_space_group_name_H-M "P -1"
_symmetry_group_IT_number 2
_symmetry_cell_setting 'triclinic'
loop_
_space_group_symop_operation_xyz
x,y,z
-x,-y,-z
loop_
_atom_site_type_symbol
_atom_site_label
_atom_site_fract_x
_atom_site_fract_y
_atom_site_fract_z
Si Si1 0.100180 0.803697 0.130771
Si Si2 0.146177 0.369999 0.034046
Si Si3 0.980923 0.818947 0.374900
Si Si4 0.442498 0.754185 0.845727
Si Si5 0.705672 0.616312 0.206696
Si Si6 0.195148 0.852997 0.516961
Si Si7 0.446505 0.866250 0.419168
O O1 0.177357 0.526859 0.115799
O O2 0.017453 0.762404 0.250549
O O3 0.178966 0.015208 0.125227
O O4 0.000000 0.000000 0.000000
O O5 0.201360 0.441259 0.893391
O O6 0.000000 0.500000 0.000000
O O7 0.000000 0.500000 0.500000
O O8 0.082115 0.944024 0.409407
O O9 0.851914 0.003193 0.385561
O O10 0.388155 0.570036 0.789212
O O11 0.347120 0.027424 0.855239
O O12 0.523003 0.946335 0.735803
O O13 0.500000 0.500000 0.000000
O O14 0.760302 0.490743 0.362906
O O15 0.305094 0.933337 0.435116
O O16 0.500000 0.500000 0.500000
O O17 0.500000 0.000000 0.500000
#
# Coordination Sequence:
#
# PCOD9025271 Si02
#       7
#     2   2   2   2   2   2   2
#     4  10  22  42  66  96 148 194 245 297 371 453
#     4  10  22  40  68 104 140 187 243 291 365 460
#     4  11  28  44  73 114 158 200 257 320 381 465
#     4  12  27  50  78 117 150 193 267 335 390 454
#     4  12  25  47  81 108 151 207 251 320 401 462
#     4  11  26  46  77 112 156 207 259 316 390 472
#     4  12  25  51  80 114 149 206 268 315 389 469
#
# _framework density 24.274056000000002
#
# number of rings (size 3 to 8) (size 9 to 14) (size 15 to 20)
#    0.000    0.857    2.857    3.000   12.000    1.143 
#    2.571    0.000    0.000    0.000    0.000    0.000 
#    0.000    0.000    0.000    0.000    0.000    0.000 
#
# Total GULP energy -78221.572575 kJ/mol
# GULP energy per Si atom -5587.255184 kJ/mol
# Density = 2.421881 g / cm^3
# Si number density = 24.274056 Si / 1000 Ang^3
#
#
#
# Elastic Constant Matrix: (Units=GPa)
#
#
# Indices 1 2 3 4 5 6 
#
# 1 83.3805 30.1698 24.7921 6.8823 -25.4288 -7.9496
# 2 30.1698 164.0011 36.1314 -0.1366 -4.5270 20.3973
# 3 24.7921 36.1314 173.8489 7.4816 -32.6790 -13.2413
# 4 6.8823 -0.1366 7.4816 45.7034 -4.6335 -4.7179
# 5 -25.4288 -4.5270 -32.6790 -4.6335 47.6961 4.9249
# 6 -7.9496 20.3973 -13.2413 -4.7179 4.9249 34.1580
#
#
#
# Elastic Compliance Matrix: (Units=1/GPa)
#
#
# Indices 1 2 3 4 5 6 
#
# 1 0.016054 -0.003368 0.000285 -0.001208 0.007847 0.004559
# 2 -0.003368 0.007835 -0.001934 0.000055 -0.001757 -0.005951
# 3 0.000285 -0.001934 0.007238 -0.000431 0.004544 0.003312
# 4 -0.001208 0.000055 -0.000431 0.022490 0.000994 0.002482
# 5 0.007847 -0.001757 0.004544 0.000994 0.028118 0.000720
# 6 0.004559 -0.005951 0.003312 0.002482 0.000720 0.035414
#
#
# Mechanical properties :
#
#
# Convention : Reuss Voigt Hill
#
# Bulk Modulus (GPa) = 47.40734 67.04635 57.22685
# Shear Modulus (GPa) = 37.25387 47.52066 42.38726
#
# Velocity S-wave (km/s) = 3.92180 4.42936 4.18328
# Velocity P-wave (km/s) = 6.33086 7.33754 6.85271
#
# Compressibility (1/GPa) = 0.02109378
#
# Stress axis : x y z
#
# Youngs Moduli (GPa) = 62.28786 127.63570 138.15188
#
# Poissons Ratio (x) = 0.42983 -0.03932
# Poissons Ratio (y) = 0.20976 0.26718
# Poissons Ratio (z) = -0.01773 0.24684
#
# Static dielectric constant tensor:
#      x y z
#    x 2.001560 0.035290 0.090990 
#    y 0.035290 2.309830 0.101700 
#    z 0.090990 0.101700 1.981100 
# 
# From -- ./inp_files/408935.got.cif
#   From: 2010.05.17/outbox.cif.g08.bks.cpg/sg2_205_cif.got.tgz:408935.got - 2010.06.03 11:33:40.
