data_PCOD9025001
_publ_section_title
;
Structure prediction by ZEFSAII (Michael W. Deem and Ramdas Pophale) SiO2 
 PCOD9025001
Probable space group: P -1
;
_chemical_formula_sum "Si O2"
_cell_formula_units_Z 14
_cell_length_a 10.737893
_cell_length_b 19.211772
_cell_length_c 7.014797
_cell_angle_alpha 75.985501
_cell_angle_beta 106.042462
_cell_angle_gamma 152.292553
_cell_volume 646.631651
_symmetry_space_group_name_H-M "P -1"
_symmetry_group_IT_number 2
_symmetry_cell_setting 'triclinic'
loop_
_space_group_symop_operation_xyz
x,y,z
-x,-y,-z
loop_
_atom_site_type_symbol
_atom_site_label
_atom_site_fract_x
_atom_site_fract_y
_atom_site_fract_z
Si Si1 0.261970 0.344400 0.609265
Si Si2 0.001150 0.832486 0.767462
Si Si3 0.854772 0.362266 0.937210
Si Si4 0.067673 0.737854 0.145905
Si Si5 0.373764 0.119404 0.157528
Si Si6 0.237786 0.216860 0.969609
Si Si7 0.515287 0.852516 0.375622
O O1 0.500000 0.500000 0.500000
O O2 0.118600 0.323039 0.723989
O O3 0.363076 0.324522 0.783347
O O4 0.064433 0.224854 0.434570
O O5 0.207323 0.998537 0.716283
O O6 0.106725 0.818127 0.950938
O O7 0.749543 0.739690 0.846760
O O8 0.673531 0.294896 0.720434
O O9 0.038323 0.386027 0.922155
O O10 0.634485 0.220568 0.082218
O O11 0.000000 0.500000 0.000000
O O12 0.346351 0.844557 0.285558
O O13 0.433961 0.141892 0.390687
O O14 0.340225 0.186308 0.043510
O O15 0.086367 0.942669 0.110297
#
# Coordination Sequence:
#
# PCOD9025001 Si02
#       7
#     2   2   2   2   2   2   2
#     4  11  25  43  68  97 131 175 220 271 336 384
#     4  11  21  42  69  96 133 169 218 277 324 389
#     4  10  24  43  64  96 135 168 216 270 330 388
#     4   9  24  41  66 100 128 167 224 265 334 387
#     4  11  22  41  68  95 137 171 221 266 324 394
#     4  10  23  42  65 100 130 175 222 270 318 390
#     4  10  22  40  67 100 127 175 218 263 335 387
#
# _framework density 21.650658
#
# number of rings (size 3 to 8) (size 9 to 14) (size 15 to 20)
#    0.857    0.857    2.857    0.429    2.000    7.429 
#    0.000    0.000    0.000    0.000    0.000    0.000 
#    0.000    0.000    0.000    0.000    0.000    0.000 
#
# Total GULP energy -78126.652157 kJ/mol
# GULP energy per Si atom -5580.475154 kJ/mol
# Density = 2.160138 g / cm^3
# Si number density = 21.650658 Si / 1000 Ang^3
#
#
#
# Elastic Constant Matrix: (Units=GPa)
#
#
# Indices 1 2 3 4 5 6 
#
# 1 73.2270 18.5412 47.3360 0.4539 -8.1675 -19.9402
# 2 18.5412 61.2880 32.8164 3.3402 -8.9989 -10.9948
# 3 47.3360 32.8164 154.0483 -4.5404 -17.9502 -4.5776
# 4 0.4539 3.3402 -4.5404 37.4013 -6.9077 -5.8799
# 5 -8.1675 -8.9989 -17.9502 -6.9077 30.1661 1.2426
# 6 -19.9402 -10.9948 -4.5776 -5.8799 1.2426 27.4445
#
#
#
# Elastic Compliance Matrix: (Units=1/GPa)
#
#
# Indices 1 2 3 4 5 6 
#
# 1 0.021897 -0.000592 -0.005863 0.001812 0.002061 0.014989
# 2 -0.000592 0.020121 -0.003530 -0.000536 0.003340 0.006776
# 3 -0.005863 -0.003530 0.009376 0.001544 0.003454 -0.003936
# 4 0.001812 -0.000536 0.001544 0.029527 0.007709 0.007337
# 5 0.002061 0.003340 0.003454 0.007709 0.038388 0.003325
# 6 0.014989 0.006776 -0.003936 0.007337 0.003325 0.050807
#
#
# Mechanical properties :
#
#
# Convention : Reuss Voigt Hill
#
# Bulk Modulus (GPa) = 31.82349 53.99451 42.90900
# Shear Modulus (GPa) = 24.93022 31.66036 28.29529
#
# Velocity S-wave (km/s) = 3.39702 3.82819 3.61903
# Velocity P-wave (km/s) = 5.48789 6.67332 6.10942
#
# Compressibility (1/GPa) = 0.03142333
#
# Stress axis : x y z
#
# Youngs Moduli (GPa) = 45.66937 49.70039 106.65381
#
# Poissons Ratio (x) = 0.02942 0.62535
# Poissons Ratio (y) = 0.02704 0.37645
# Poissons Ratio (z) = 0.26777 0.17542
#
# Static dielectric constant tensor:
#      x y z
#    x 1.815360 0.003240 -0.032260 
#    y 0.003240 1.846030 0.041240 
#    z -0.032260 0.041240 1.774130 
# 
# From -- ./inp_files/82558.got.cif
#   From: 2010.05.17/outbox.cif.g08.bks.cpg/sg2_42_cif.got.tgz:82558.got - 2010.06.03 11:33:40.
