data_PCOD9025529
_publ_section_title
;
Structure prediction by ZEFSAII (Michael W. Deem and Ramdas Pophale) SiO2 
 PCOD9025529
Probable space group: P -1
;
_chemical_formula_sum "Si O2"
_cell_formula_units_Z 16
_cell_length_a 17.523193
_cell_length_b 11.283274
_cell_length_c 7.997340
_cell_angle_alpha 126.344591
_cell_angle_beta 91.171217
_cell_angle_gamma 129.954297
_cell_volume 742.353303
_symmetry_space_group_name_H-M "P -1"
_symmetry_group_IT_number 2
_symmetry_cell_setting 'triclinic'
loop_
_space_group_symop_operation_xyz
x,y,z
-x,-y,-z
loop_
_atom_site_type_symbol
_atom_site_label
_atom_site_fract_x
_atom_site_fract_y
_atom_site_fract_z
Si Si1 0.391109 0.025633 0.426653
Si Si2 0.416786 0.454109 0.313279
Si Si3 0.952225 0.796356 0.706299
Si Si4 0.183586 0.981926 0.682230
Si Si5 0.954474 0.524226 0.673429
Si Si6 0.675144 0.430218 0.372121
Si Si7 0.532370 0.975159 0.216978
Si Si8 0.133168 0.791227 0.191990
O O1 0.484459 0.304057 0.602512
O O2 0.438915 0.956766 0.272445
O O3 0.404678 0.006873 0.606782
O O4 0.246199 0.848635 0.224428
O O5 0.500000 0.500000 0.500000
O O6 0.330727 0.443119 0.395158
O O7 0.314247 0.207506 0.984258
O O8 0.900831 0.590376 0.657721
O O9 0.819418 0.637187 0.474967
O O10 0.067346 0.901664 0.688549
O O11 0.000000 0.000000 0.000000
O O12 0.147709 0.751714 0.488390
O O13 0.182353 0.995361 0.491358
O O14 0.000000 0.500000 0.500000
O O15 0.081572 0.765328 0.989680
O O16 0.626655 0.209705 0.289244
O O17 0.562323 0.278681 0.103874
O O18 0.000000 0.500000 0.000000
#
# Coordination Sequence:
#
# PCOD9025529 Si02
#       8
#     2   2   2   2   2   2   2   2
#     4  10  23  42  65  93 134 170 215 279 334 397
#     4  11  25  42  64  95 134 176 225 273 330 402
#     4  11  22  41  67  93 130 167 217 278 322 391
#     4  10  23  43  61  96 130 170 219 269 332 395
#     4   9  22  39  67  93 124 169 217 268 324 393
#     4  10  22  40  69  95 126 175 223 270 334 389
#     4   9  22  42  65  95 127 170 221 270 333 399
#     4  10  23  40  63  99 126 165 221 268 333 388
#
# _framework density 21.553077999999999
#
# number of rings (size 3 to 8) (size 9 to 14) (size 15 to 20)
#    0.000    2.000    1.250    0.000   14.000    1.500 
#    2.250    0.625    0.000    0.000    0.000    0.000 
#    0.000    0.000    0.000    0.000    0.000    0.000 
#
# Total GULP energy -89175.309950 kJ/mol
# GULP energy per Si atom -5573.456872 kJ/mol
# Density = 2.150402 g / cm^3
# Si number density = 21.553078 Si / 1000 Ang^3
#
#
#
# Elastic Constant Matrix: (Units=GPa)
#
#
# Indices 1 2 3 4 5 6 
#
# 1 87.4400 13.9429 34.5507 12.2341 17.2388 14.7789
# 2 13.9429 28.4921 11.8812 -4.3343 2.2530 5.1962
# 3 34.5507 11.8812 152.8386 -11.1450 1.2337 4.6530
# 4 12.2341 -4.3343 -11.1450 30.6490 -0.8778 1.0495
# 5 17.2388 2.2530 1.2337 -0.8778 38.7899 9.2665
# 6 14.7789 5.1962 4.6530 1.0495 9.2665 27.2891
#
#
#
# Elastic Compliance Matrix: (Units=1/GPa)
#
#
# Indices 1 2 3 4 5 6 
#
# 1 0.017471 -0.006949 -0.003891 -0.009380 -0.006257 -0.004990
# 2 -0.006949 0.040874 -0.000856 0.008472 0.002107 -0.004915
# 3 -0.003891 -0.000856 0.007782 0.004299 0.001570 0.000245
# 4 -0.009380 0.008472 0.004299 0.039272 0.004501 -0.000305
# 5 -0.006257 0.002107 0.001570 0.004501 0.030343 -0.007757
# 6 -0.004990 -0.004915 0.000245 -0.000305 -0.007757 0.042887
#
#
# Mechanical properties :
#
#
# Convention : Reuss Voigt Hill
#
# Bulk Modulus (GPa) = 23.40030 43.28002 33.34016
# Shear Modulus (GPa) = 23.11956 33.23866 28.17911
#
# Velocity S-wave (km/s) = 3.27873 3.93132 3.61976
# Velocity P-wave (km/s) = 5.02136 6.38210 5.74218
#
# Compressibility (1/GPa) = 0.04273450
#
# Stress axis : x y z
#
# Youngs Moduli (GPa) = 57.23650 24.46570 128.49663
#
# Poissons Ratio (x) = 0.17002 0.49997
# Poissons Ratio (y) = 0.39776 0.11000
# Poissons Ratio (z) = 0.22270 0.02094
#
# Static dielectric constant tensor:
#      x y z
#    x 1.761080 -0.045060 0.030100 
#    y -0.045060 2.118490 -0.116800 
#    z 0.030100 -0.116800 1.811040 
# 
# From -- ./inp_files/333787.got.cif
#   From: 2010.05.17/outbox.cif.g08.bks.cpg/sg2_167_cif.got.tgz:333787.got - 2010.06.03 11:33:40.
