data_PCOD9025505
_publ_section_title
;
Structure prediction by ZEFSAII (Michael W. Deem and Ramdas Pophale) SiO2 
 PCOD9025505
Probable space group: P -1
;
_chemical_formula_sum "Si O2"
_cell_formula_units_Z 14
_cell_length_a 8.219252
_cell_length_b 9.351769
_cell_length_c 12.823155
_cell_angle_alpha 46.414250
_cell_angle_beta 79.593549
_cell_angle_gamma 66.122215
_cell_volume 645.588757
_symmetry_space_group_name_H-M "P -1"
_symmetry_group_IT_number 2
_symmetry_cell_setting 'triclinic'
loop_
_space_group_symop_operation_xyz
x,y,z
-x,-y,-z
loop_
_atom_site_type_symbol
_atom_site_label
_atom_site_fract_x
_atom_site_fract_y
_atom_site_fract_z
Si Si1 0.195564 0.817390 0.577081
Si Si2 0.568664 0.186215 0.246888
Si Si3 0.518580 0.756049 0.428553
Si Si4 0.906759 0.909371 0.968695
Si Si5 0.747946 0.455291 0.977949
Si Si6 0.618960 0.321960 0.726544
Si Si7 0.698603 0.631544 0.127365
O O1 0.314305 0.838588 0.650538
O O2 0.316798 0.814870 0.465464
O O3 0.187085 0.587429 0.714277
O O4 0.000000 0.000000 0.500000
O O5 0.364292 0.364966 0.183265
O O6 0.569754 0.957354 0.334458
O O7 0.654572 0.288932 0.098289
O O8 0.636254 0.545238 0.587369
O O9 0.512396 0.697170 0.339048
O O10 0.802821 0.116041 0.805596
O O11 0.753420 0.823142 0.060873
O O12 0.055643 0.700540 0.002892
O O13 0.000000 0.000000 0.000000
O O14 0.736540 0.580816 0.025398
O O15 0.507616 0.328891 0.841168
#
# Coordination Sequence:
#
# PCOD9025505 Si02
#       7
#     2   2   2   2   2   2   2
#     4  10  23  38  64  96 124 161 216 262 314 375
#     4  10  22  40  69  90 130 163 221 259 315 374
#     4  10  22  41  67  88 127 176 208 260 319 379
#     4  12  27  38  67  97 133 162 217 267 315 375
#     4  10  24  41  68  97 123 170 217 262 315 374
#     4  10  24  43  63  94 131 172 209 253 333 381
#     4  10  23  45  65  89 132 172 209 261 319 378
#
# _framework density 21.685631999999998
#
# number of rings (size 3 to 8) (size 9 to 14) (size 15 to 20)
#    0.000    1.714    0.000    2.143   16.000    1.143 
#    0.000    0.714    0.000    0.000    0.000    0.000 
#    0.000    0.000    0.000    0.000    0.000    0.000 
#
# Total GULP energy -78196.717310 kJ/mol
# GULP energy per Si atom -5585.479808 kJ/mol
# Density = 2.163627 g / cm^3
# Si number density = 21.685632 Si / 1000 Ang^3
#
#
#
# Elastic Constant Matrix: (Units=GPa)
#
#
# Indices 1 2 3 4 5 6 
#
# 1 61.1751 31.7945 47.4214 -18.3166 6.0331 19.8429
# 2 31.7945 85.2611 47.4595 -11.9929 10.2935 18.8097
# 3 47.4214 47.4595 94.6291 -28.6372 12.0554 19.5502
# 4 -18.3166 -11.9929 -28.6372 51.0570 2.4574 -3.9245
# 5 6.0331 10.2935 12.0554 2.4574 34.0296 -20.5868
# 6 19.8429 18.8097 19.5502 -3.9245 -20.5868 40.6803
#
#
#
# Elastic Compliance Matrix: (Units=1/GPa)
#
#
# Indices 1 2 3 4 5 6 
#
# 1 0.032157 -0.000994 -0.008657 0.005760 -0.013126 -0.017152
# 2 -0.000994 0.018671 -0.005049 0.000859 -0.010315 -0.010859
# 3 -0.008657 -0.005049 0.023751 0.008834 -0.012125 -0.010141
# 4 0.005760 0.000859 0.008834 0.026557 -0.013385 -0.011664
# 5 -0.013126 -0.010315 -0.012125 -0.013385 0.071483 0.051883
# 6 -0.017152 -0.010859 -0.010141 -0.011664 0.051883 0.067974
#
#
# Mechanical properties :
#
#
# Convention : Reuss Voigt Hill
#
# Bulk Modulus (GPa) = 22.13357 54.93512 38.53435
# Shear Modulus (GPa) = 17.54067 32.77938 25.16003
#
# Velocity S-wave (km/s) = 2.84713 3.89211 3.40989
# Velocity P-wave (km/s) = 4.58661 6.75171 5.77159
#
# Compressibility (1/GPa) = 0.04518023
#
# Stress axis : x y z
#
# Youngs Moduli (GPa) = 31.09786 53.55801 42.10276
#
# Poissons Ratio (x) = 0.05321 0.36449
# Poissons Ratio (y) = 0.03090 0.21257
# Poissons Ratio (z) = 0.26922 0.27040
#
# Static dielectric constant tensor:
#      x y z
#    x 1.815230 -0.019460 0.006870 
#    y -0.019460 1.838960 0.019650 
#    z 0.006870 0.019650 1.817440 
# 
# From -- ./inp_files/208345.got.cif
#   From: 2010.05.17/outbox.cif.g08.bks.cpg/sg2_105_cif.got.tgz:208345.got - 2010.06.03 11:33:40.
