data_PCOD9025904
_publ_section_title
;
Structure prediction by ZEFSAII (Michael W. Deem and Ramdas Pophale) SiO2 
 PCOD9025904
Probable space group: P -1
;
_chemical_formula_sum "Si O2"
_cell_formula_units_Z 13
_cell_length_a 24.847209
_cell_length_b 13.811622
_cell_length_c 8.962969
_cell_angle_alpha 141.134780
_cell_angle_beta 150.465143
_cell_angle_gamma 22.023678
_cell_volume 562.056003
_symmetry_space_group_name_H-M "P -1"
_symmetry_group_IT_number 2
_symmetry_cell_setting 'triclinic'
loop_
_space_group_symop_operation_xyz
x,y,z
-x,-y,-z
loop_
_atom_site_type_symbol
_atom_site_label
_atom_site_fract_x
_atom_site_fract_y
_atom_site_fract_z
Si Si1 0.204013 0.758965 0.132198
Si Si2 0.457998 0.202296 0.733002
Si Si3 0.764261 0.075819 0.868492
Si Si4 0.500000 0.500000 0.000000
Si Si5 0.520408 0.145149 0.155770
Si Si6 0.973683 0.345917 0.751806
Si Si7 0.264137 0.862042 0.678007
O O1 0.190089 0.833877 0.020910
O O2 0.332548 0.462211 0.097722
O O3 0.299537 0.776403 0.492264
O O4 0.000000 0.000000 0.000000
O O5 0.239446 0.457049 0.527714
O O6 0.500000 0.000000 0.500000
O O7 0.549970 0.090429 0.983834
O O8 0.556105 0.244540 0.950162
O O9 0.682423 0.041558 0.516432
O O10 0.603862 0.306927 0.870224
O O11 0.927909 0.828891 0.071622
O O12 0.710085 0.308573 0.353658
O O13 0.500000 0.000000 0.000000
O O14 0.082647 0.159397 0.644154
O O15 0.000000 0.500000 0.000000
#
# Coordination Sequence:
#
# PCOD9025904 Si02
#       7
#     2   2   2   1   2   2   2
#     4  12  26  49  75 111 153 202 260 322 378 461
#     4  12  25  44  72 102 153 198 243 312 387 444
#     4  11  24  47  78 105 152 198 253 315 382 464
#     4  10  22  40  74  98 136 192 240 304 374 432
#     4  12  26  47  75 107 148 198 256 315 390 455
#     4  11  24  45  70 115 154 191 256 316 381 463
#     4  11  23  44  72 102 148 196 250 306 375 458
#
# _framework density 23.129367999999999
#
# number of rings (size 3 to 8) (size 9 to 14) (size 15 to 20)
#    0.000    0.615    4.615    3.231    2.154    2.462 
#    0.000    6.154    0.000    0.000    0.000    0.000 
#    0.000    0.000    0.000    0.000    0.000    0.000 
#
# Total GULP energy -72520.182270 kJ/mol
# GULP energy per Si atom -5578.475559 kJ/mol
# Density = 2.307672 g / cm^3
# Si number density = 23.129368 Si / 1000 Ang^3
#
#
#
# Elastic Constant Matrix: (Units=GPa)
#
#
# Indices 1 2 3 4 5 6 
#
# 1 129.1841 43.4712 38.3031 14.2909 -19.9354 6.0184
# 2 43.4712 123.2484 34.5936 18.0828 -1.4695 -2.1111
# 3 38.3031 34.5936 114.1395 11.7860 -9.8292 -1.0241
# 4 14.2909 18.0828 11.7860 40.9695 -9.3146 -5.4090
# 5 -19.9354 -1.4695 -9.8292 -9.3146 54.5193 2.0773
# 6 6.0184 -2.1111 -1.0241 -5.4090 2.0773 44.6143
#
#
#
# Elastic Compliance Matrix: (Units=1/GPa)
#
#
# Indices 1 2 3 4 5 6 
#
# 1 0.009989 -0.002738 -0.002151 -0.001202 0.003055 -0.001814
# 2 -0.002738 0.010090 -0.001942 -0.003252 -0.001653 0.000485
# 3 -0.002151 -0.001942 0.010260 -0.001126 0.000808 0.000260
# 4 -0.001202 -0.003252 -0.001126 0.027897 0.003915 0.003182
# 5 0.003055 -0.001653 0.000808 0.003915 0.020265 -0.000941
# 6 -0.001814 0.000485 0.000260 0.003182 -0.000941 0.023118
#
#
# Mechanical properties :
#
#
# Convention : Reuss Voigt Hill
#
# Bulk Modulus (GPa) = 59.96159 66.58977 63.27568
# Shear Modulus (GPa) = 41.37737 44.70088 43.03912
#
# Velocity S-wave (km/s) = 4.23419 4.40096 4.31838
# Velocity P-wave (km/s) = 7.06295 7.39440 7.23057
#
# Compressibility (1/GPa) = 0.01667734
#
# Stress axis : x y z
#
# Youngs Moduli (GPa) = 100.11088 99.10846 97.46684
#
# Poissons Ratio (x) = 0.27132 0.20970
# Poissons Ratio (y) = 0.27407 0.18924
# Poissons Ratio (z) = 0.21539 0.19243
#
# Static dielectric constant tensor:
#      x y z
#    x -1.650620 -2.654490 1.017300 
#    y -2.654490 -0.151950 0.736690 
#    z 1.017300 0.736690 1.777780 
# 
# From -- ./inp_files/357352.got.cif
#   From: 2010.05.17/outbox.cif.g08.bks.cpg/sg2_179_cif.got.tgz:357352.got - 2010.06.03 11:33:40.
