data_PCOD9025103
_publ_section_title
;
Structure prediction by ZEFSAII (Michael W. Deem and Ramdas Pophale) SiO2 
 PCOD9025103
Probable space group: P -1
;
_chemical_formula_sum "Si O2"
_cell_formula_units_Z 14
_cell_length_a 6.183559
_cell_length_b 14.592447
_cell_length_c 7.422777
_cell_angle_alpha 77.628717
_cell_angle_beta 91.321024
_cell_angle_gamma 72.894188
_cell_volume 622.624670
_symmetry_space_group_name_H-M "P -1"
_symmetry_group_IT_number 2
_symmetry_cell_setting 'triclinic'
loop_
_space_group_symop_operation_xyz
x,y,z
-x,-y,-z
loop_
_atom_site_type_symbol
_atom_site_label
_atom_site_fract_x
_atom_site_fract_y
_atom_site_fract_z
Si Si1 0.364489 0.223001 0.066194
Si Si2 0.159373 0.388484 0.698277
Si Si3 0.736109 0.428409 0.462987
Si Si4 0.486092 0.284916 0.435522
Si Si5 0.576793 0.902412 0.348157
Si Si6 0.205011 0.962362 0.880986
Si Si7 0.857154 0.906517 0.680574
O O1 0.427738 0.263994 0.239803
O O2 0.588252 0.136840 0.037975
O O3 0.173986 0.171623 0.140257
O O4 0.275658 0.308763 0.883313
O O5 0.172065 0.498319 0.689006
O O6 0.281464 0.355555 0.520520
O O7 0.902556 0.394202 0.649812
O O8 0.500000 0.500000 0.500000
O O9 0.685761 0.334891 0.414478
O O10 0.531050 0.185422 0.595227
O O11 0.793336 0.869749 0.503486
O O12 0.691757 0.947523 0.174357
O O13 0.361547 0.997023 0.345303
O O14 0.083813 0.935358 0.710173
O O15 0.000000 0.000000 0.000000
#
# Coordination Sequence:
#
# PCOD9025103 Si02
#       7
#     2   2   2   2   2   2   2
#     4  10  24  42  61  98 128 168 221 259 312 387
#     4  10  22  42  68  93 133 164 205 267 324 383
#     4   9  21  44  67  98 127 164 207 262 328 388
#     4  10  22  40  67  93 128 170 217 259 316 381
#     4   9  20  38  58  85 120 167 211 259 307 371
#     4  11  24  37  60  90 130 169 215 261 314 367
#     4   9  20  38  57  83 126 162 209 260 309 364
#
# _framework density 22.485458000000001
#
# number of rings (size 3 to 8) (size 9 to 14) (size 15 to 20)
#    0.000    2.286    0.000    1.286    4.000    7.429 
#    0.000    6.429    0.000    0.000    0.000    0.000 
#    0.000    0.000    0.000    0.000    0.000    0.000 
#
# Total GULP energy -78055.614960 kJ/mol
# GULP energy per Si atom -5575.401069 kJ/mol
# Density = 2.243428 g / cm^3
# Si number density = 22.485458 Si / 1000 Ang^3
#
#
#
# Elastic Constant Matrix: (Units=GPa)
#
#
# Indices 1 2 3 4 5 6 
#
# 1 89.9217 44.3220 56.5401 -9.1921 11.4038 13.1891
# 2 44.3220 110.0514 68.1659 -22.6682 -5.8369 34.7426
# 3 56.5401 68.1659 143.0686 -25.3616 8.9399 8.0679
# 4 -9.1921 -22.6682 -25.3616 35.9590 -0.9009 3.9020
# 5 11.4038 -5.8369 8.9399 -0.9009 28.1593 7.5429
# 6 13.1891 34.7426 8.0679 3.9020 7.5429 31.0543
#
#
#
# Elastic Compliance Matrix: (Units=1/GPa)
#
#
# Indices 1 2 3 4 5 6 
#
# 1 0.016991 -0.006828 -0.003730 -0.003210 -0.008231 0.003795
# 2 -0.006828 0.040845 -0.011942 0.021672 0.028963 -0.049452
# 3 -0.003730 -0.011942 0.013882 -0.000390 -0.009022 0.013578
# 4 -0.003210 0.021672 -0.000390 0.044273 0.015964 -0.032222
# 5 -0.008231 0.028963 -0.009022 0.015964 0.059765 -0.043085
# 6 0.003795 -0.049452 0.013578 -0.032222 -0.043085 0.096902
#
#
# Mechanical properties :
#
#
# Convention : Reuss Voigt Hill
#
# Bulk Modulus (GPa) = 37.42715 75.67755 56.55235
# Shear Modulus (GPa) = 15.31094 30.63544 22.97319
#
# Velocity S-wave (km/s) = 2.61229 3.69515 3.19986
# Velocity P-wave (km/s) = 5.07739 7.20658 6.23357
#
# Compressibility (1/GPa) = 0.02671857
#
# Stress axis : x y z
#
# Youngs Moduli (GPa) = 58.85509 24.48271 72.03337
#
# Poissons Ratio (x) = 0.16717 0.26869
# Poissons Ratio (y) = 0.40187 0.86021
# Poissons Ratio (z) = 0.21953 0.29237
#
# Static dielectric constant tensor:
#      x y z
#    x 1.839760 0.037480 -0.006000 
#    y 0.037480 1.930080 0.087390 
#    z -0.006000 0.087390 1.912430 
# 
# From -- ./inp_files/135009.got.cif
#   From: 2010.05.17/outbox.cif.g08.bks.cpg/sg2_68_cif.got.tgz:135009.got - 2010.06.03 11:33:40.
