data_PCOD9025853
_publ_section_title
;
Structure prediction by ZEFSAII (Michael W. Deem and Ramdas Pophale) SiO2 
 PCOD9025853
Probable space group: P -1
;
_chemical_formula_sum "Si O2"
_cell_formula_units_Z 16
_cell_length_a 8.738710
_cell_length_b 9.353443
_cell_length_c 16.412048
_cell_angle_alpha 43.073163
_cell_angle_beta 67.923159
_cell_angle_gamma 91.186639
_cell_volume 750.903586
_symmetry_space_group_name_H-M "P -1"
_symmetry_group_IT_number 2
_symmetry_cell_setting 'triclinic'
loop_
_space_group_symop_operation_xyz
x,y,z
-x,-y,-z
loop_
_atom_site_type_symbol
_atom_site_label
_atom_site_fract_x
_atom_site_fract_y
_atom_site_fract_z
Si Si1 0.798472 0.790698 0.449913
Si Si2 0.605013 0.518102 0.317461
Si Si3 0.913867 0.720697 0.626158
Si Si4 0.401228 0.588408 0.048059
Si Si5 0.057644 0.140783 0.781703
Si Si6 0.641573 0.890049 0.014455
Si Si7 0.914307 0.338927 0.004245
Si Si8 0.201686 0.736898 0.670490
O O1 0.589290 0.604916 0.545261
O O2 0.841700 0.672060 0.569208
O O3 0.930343 0.824264 0.332881
O O4 0.801381 0.039600 0.375281
O O5 0.775222 0.655022 0.287369
O O6 0.613544 0.707518 0.169138
O O7 0.615326 0.294830 0.364452
O O8 0.753062 0.589964 0.781129
O O9 0.096805 0.698939 0.621134
O O10 0.000000 0.000000 0.500000
O O11 0.576516 0.752406 0.000226
O O12 0.283224 0.689782 0.977541
O O13 0.500000 0.500000 0.000000
O O14 0.086769 0.908700 0.883218
O O15 0.857472 0.082172 0.884252
O O16 0.500000 0.000000 0.000000
O O17 0.066789 0.496898 0.842988
O O18 0.000000 0.500000 0.000000
#
# Coordination Sequence:
#
# PCOD9025853 Si02
#       8
#     2   2   2   2   2   2   2   2
#     4  11  23  45  69 100 140 181 225 279 341 418
#     4  12  25  44  69 100 139 180 231 283 343 408
#     4   9  21  41  65  95 140 175 220 269 344 395
#     4  11  24  40  70 102 131 171 233 280 328 400
#     4  12  26  44  70 100 138 180 235 283 348 402
#     4  12  27  46  68  97 137 181 230 286 351 404
#     4  11  21  41  69 101 133 173 223 288 332 401
#     4  10  22  40  72  97 133 181 225 273 347 400
#
# _framework density 21.307662000000001
#
# number of rings (size 3 to 8) (size 9 to 14) (size 15 to 20)
#    0.000    1.000    3.750    2.625    7.000    0.000 
#    4.500    3.750    0.000    0.000    0.000    0.000 
#    0.000    0.000    0.000    0.000    0.000    0.000 
#
# Total GULP energy -89239.060210 kJ/mol
# GULP energy per Si atom -5577.441263 kJ/mol
# Density = 2.125916 g / cm^3
# Si number density = 21.307662 Si / 1000 Ang^3
#
#
#
# Elastic Constant Matrix: (Units=GPa)
#
#
# Indices 1 2 3 4 5 6 
#
# 1 79.2662 15.0040 40.5810 7.1037 3.1412 -2.6902
# 2 15.0040 83.2056 18.3297 -0.6472 12.4523 6.4818
# 3 40.5810 18.3297 77.4721 9.2436 3.9247 -1.0719
# 4 7.1037 -0.6472 9.2436 28.0361 9.3675 -9.3629
# 5 3.1412 12.4523 3.9247 9.3675 37.6025 -4.1872
# 6 -2.6902 6.4818 -1.0719 -9.3629 -4.1872 37.2695
#
#
#
# Elastic Compliance Matrix: (Units=1/GPa)
#
#
# Indices 1 2 3 4 5 6 
#
# 1 0.017450 -0.001378 -0.008652 -0.001407 0.000356 0.000937
# 2 -0.001378 0.013816 -0.002608 0.002367 -0.005062 -0.002551
# 3 -0.008652 -0.002608 0.018542 -0.004434 0.000681 -0.000675
# 4 -0.001407 0.002367 -0.004434 0.044028 -0.010138 0.009281
# 5 0.000356 -0.005062 0.000681 -0.010138 0.030901 0.001850
# 6 0.000937 -0.002551 -0.000675 0.009281 0.001850 0.029863
#
#
# Mechanical properties :
#
#
# Convention : Reuss Voigt Hill
#
# Bulk Modulus (GPa) = 40.76307 43.08593 41.92450
# Shear Modulus (GPa) = 26.58819 31.65024 29.11921
#
# Velocity S-wave (km/s) = 3.53629 3.85826 3.70078
# Velocity P-wave (km/s) = 5.98715 6.33348 6.16275
#
# Compressibility (1/GPa) = 0.02453201
#
# Stress axis : x y z
#
# Youngs Moduli (GPa) = 57.30818 72.37869 53.93142
#
# Poissons Ratio (x) = 0.09974 0.46659
# Poissons Ratio (y) = 0.07897 0.14068
# Poissons Ratio (z) = 0.49580 0.18879
#
# Static dielectric constant tensor:
#      x y z
#    x 1.786580 0.058140 0.024660 
#    y 0.058140 1.695150 0.032200 
#    z 0.024660 0.032200 1.825070 
# 
# From -- ./inp_files/186819.got.cif
#   From: 2010.05.17/outbox.cif.g08.bks.cpg/sg2_94_cif.got.tgz:186819.got - 2010.06.03 11:33:40.
