data_PCOD9025820
_publ_section_title
;
Structure prediction by ZEFSAII (Michael W. Deem and Ramdas Pophale) SiO2 
 PCOD9025820
Probable space group: P -1
;
_chemical_formula_sum "Si O2"
_cell_formula_units_Z 13
_cell_length_a 11.785292
_cell_length_b 12.597119
_cell_length_c 6.447212
_cell_angle_alpha 45.425800
_cell_angle_beta 59.158719
_cell_angle_gamma 54.777729
_cell_volume 547.341186
_symmetry_space_group_name_H-M "P -1"
_symmetry_group_IT_number 2
_symmetry_cell_setting 'triclinic'
loop_
_space_group_symop_operation_xyz
x,y,z
-x,-y,-z
loop_
_atom_site_type_symbol
_atom_site_label
_atom_site_fract_x
_atom_site_fract_y
_atom_site_fract_z
Si Si1 0.000000 0.000000 0.000000
Si Si2 0.162372 0.084625 0.092488
Si Si3 0.260423 0.701066 0.274525
Si Si4 0.950723 0.373376 0.106160
Si Si5 0.302340 0.502481 0.116550
Si Si6 0.426458 0.136870 0.551800
Si Si7 0.374068 0.773421 0.448366
O O1 0.954328 0.918077 0.958603
O O2 0.167055 0.863348 0.025143
O O3 0.291438 0.109223 0.815901
O O4 0.088283 0.224404 0.128356
O O5 0.224034 0.918975 0.384447
O O6 0.149597 0.676336 0.575625
O O7 0.303123 0.550899 0.289015
O O8 0.386180 0.723669 0.261686
O O9 0.856973 0.444658 0.894099
O O10 0.000000 0.500000 0.000000
O O11 0.375141 0.315878 0.262184
O O12 0.370964 0.618496 0.782853
O O13 0.524648 0.152234 0.630675
O O14 0.500000 0.000000 0.500000
#
# Coordination Sequence:
#
# PCOD9025820 Si02
#       7
#     1   2   2   2   2   2   2
#     4  10  22  40  72 104 142 178 228 284 360 422
#     4  11  25  45  74 107 145 181 238 298 355 422
#     4  10  23  41  75 103 140 186 228 291 355 424
#     4  11  25  41  71 110 145 176 228 300 367 421
#     4  11  25  49  73 106 142 189 240 294 356 423
#     4  12  29  47  73 102 146 195 242 292 350 423
#     4  10  26  48  71 104 141 193 241 284 351 426
#
# _framework density 23.751182
#
# number of rings (size 3 to 8) (size 9 to 14) (size 15 to 20)
#    0.000    1.231    1.538    1.846   10.769    3.692 
#    5.538    0.000    0.000    0.000    0.000    0.000 
#    0.000    0.000    0.000    0.000    0.000    0.000 
#
# Total GULP energy -72497.063048 kJ/mol
# GULP energy per Si atom -5576.697158 kJ/mol
# Density = 2.369712 g / cm^3
# Si number density = 23.751182 Si / 1000 Ang^3
#
#
#
# Elastic Constant Matrix: (Units=GPa)
#
#
# Indices 1 2 3 4 5 6 
#
# 1 141.4750 30.5099 50.0445 4.9742 11.5433 24.3364
# 2 30.5099 207.1659 70.9847 -15.8992 -2.7738 10.4517
# 3 50.0445 70.9847 97.7172 -5.3983 -7.8314 1.5900
# 4 4.9742 -15.8992 -5.3983 38.9071 0.0845 -3.9450
# 5 11.5433 -2.7738 -7.8314 0.0845 23.5903 0.9027
# 6 24.3364 10.4517 1.5900 -3.9450 0.9027 35.0135
#
#
#
# Elastic Compliance Matrix: (Units=1/GPa)
#
#
# Indices 1 2 3 4 5 6 
#
# 1 0.011528 0.000832 -0.007148 -0.002927 -0.007597 -0.008071
# 2 0.000832 0.006740 -0.005298 0.001700 -0.001298 -0.002125
# 3 -0.007148 -0.005298 0.018457 0.001868 0.008777 0.005696
# 4 -0.002927 0.001700 0.001868 0.027481 0.001982 0.004488
# 5 -0.007597 -0.001298 0.008777 0.001982 0.048700 0.004237
# 6 -0.008071 -0.002125 0.005696 0.004488 0.004237 0.034942
#
#
# Mechanical properties :
#
#
# Convention : Reuss Voigt Hill
#
# Bulk Modulus (GPa) = 74.08458 83.27072 78.67765
# Shear Modulus (GPa) = 28.47787 39.15679 33.81733
#
# Velocity S-wave (km/s) = 3.46643 4.06473 3.77744
# Velocity P-wave (km/s) = 6.87613 7.56076 7.22656
#
# Compressibility (1/GPa) = 0.01349808
#
# Stress axis : x y z
#
# Youngs Moduli (GPa) = 86.74166 148.36542 54.18038
#
# Poissons Ratio (x) = -0.12346 0.38728
# Poissons Ratio (y) = -0.07218 0.28704
# Poissons Ratio (z) = 0.62002 0.78603
#
# Static dielectric constant tensor:
#      x y z
#    x 1.922690 0.000360 0.031150 
#    y 0.000360 1.947740 0.011560 
#    z 0.031150 0.011560 1.970650 
# 
# From -- ./inp_files/65337.got.cif
#   From: 2010.05.17/outbox.cif.g08.bks.cpg/sg2_33_cif.got.tgz:65337.got - 2010.06.03 11:33:40.
