data_PCOD9025735
_publ_section_title
;
Structure prediction by ZEFSAII (Michael W. Deem and Ramdas Pophale) SiO2 
 PCOD9025735
Probable space group: P -1
;
_chemical_formula_sum "Si O2"
_cell_formula_units_Z 14
_cell_length_a 9.264495
_cell_length_b 11.881227
_cell_length_c 12.716305
_cell_angle_alpha 133.019250
_cell_angle_beta 123.431094
_cell_angle_gamma 39.673826
_cell_volume 652.339948
_symmetry_space_group_name_H-M "P -1"
_symmetry_group_IT_number 2
_symmetry_cell_setting 'triclinic'
loop_
_space_group_symop_operation_xyz
x,y,z
-x,-y,-z
loop_
_atom_site_type_symbol
_atom_site_label
_atom_site_fract_x
_atom_site_fract_y
_atom_site_fract_z
Si Si1 0.234675 0.453325 0.556544
Si Si2 0.800694 0.158238 0.903791
Si Si3 0.558059 0.069429 0.892762
Si Si4 0.281973 0.793518 0.788014
Si Si5 0.670888 0.525623 0.171380
Si Si6 0.083103 0.404986 0.855931
Si Si7 0.656128 0.680897 0.721541
O O1 0.244237 0.633009 0.671385
O O2 0.328042 0.371044 0.658616
O O3 0.333058 0.344188 0.415350
O O4 0.000000 0.500000 0.500000
O O5 0.709973 0.049581 0.845856
O O6 0.595788 0.341531 0.869418
O O7 0.803111 0.286351 0.078367
O O8 0.036139 0.009323 0.845124
O O9 0.304347 0.172272 0.819251
O O10 0.664968 0.859946 0.857436
O O11 0.558190 0.213033 0.065190
O O12 0.418514 0.753415 0.712329
O O13 0.792677 0.537089 0.129169
O O14 0.866213 0.486144 0.747738
O O15 0.000000 0.500000 0.000000
#
# Coordination Sequence:
#
# PCOD9025735 Si02
#       7
#     2   2   2   2   2   2   2
#     4  12  25  46  68  96 143 187 225 271 347 416
#     4  10  22  40  71 102 129 172 240 286 331 397
#     4  11  23  43  71 103 132 178 235 281 334 405
#     4  12  24  42  69 102 137 178 229 284 339 403
#     4  10  22  43  68 101 134 178 229 288 334 405
#     4  11  23  41  68 104 137 173 227 290 342 391
#     4  12  26  45  69 104 146 179 221 282 350 406
#
# _framework density 21.461203999999999
#
# number of rings (size 3 to 8) (size 9 to 14) (size 15 to 20)
#    0.000    0.857    4.286    3.000    2.000    0.000 
#    2.571    2.857    0.000    0.000    0.000    0.000 
#    0.000    0.000    0.000    0.000    0.000    0.000 
#
# Total GULP energy -78004.256112 kJ/mol
# GULP energy per Si atom -5571.732579 kJ/mol
# Density = 2.141236 g / cm^3
# Si number density = 21.461204 Si / 1000 Ang^3
#
#
#
# Elastic Constant Matrix: (Units=GPa)
#
#
# Indices 1 2 3 4 5 6 
#
# 1 138.1815 28.4461 44.3111 3.9434 -27.2008 -19.3478
# 2 28.4461 79.1009 2.8429 -6.7366 -3.3135 -26.5437
# 3 44.3111 2.8429 74.9072 -13.3904 -16.1742 0.1141
# 4 3.9434 -6.7366 -13.3904 22.5121 5.3935 2.4596
# 5 -27.2008 -3.3135 -16.1742 5.3935 46.5070 7.4677
# 6 -19.3478 -26.5437 0.1141 2.4596 7.4677 37.0645
#
#
#
# Elastic Compliance Matrix: (Units=1/GPa)
#
#
# Indices 1 2 3 4 5 6 
#
# 1 0.012082 -0.003481 -0.007662 -0.009215 0.004659 0.003510
# 2 -0.003481 0.018025 0.001968 0.006582 -0.002626 0.011177
# 3 -0.007662 0.001968 0.020767 0.014271 0.001865 -0.003977
# 4 -0.009215 0.006582 0.014271 0.058297 -0.006278 -0.002744
# 5 0.004659 -0.002626 0.001865 -0.006278 0.026107 -0.004297
# 6 0.003510 0.011177 -0.003977 -0.002744 -0.004297 0.037877
#
#
# Mechanical properties :
#
#
# Convention : Reuss Voigt Hill
#
# Bulk Modulus (GPa) = 30.74665 49.26554 40.00609
# Shear Modulus (GPa) = 24.71024 35.65601 30.18312
#
# Velocity S-wave (km/s) = 3.39690 4.08047 3.75427
# Velocity P-wave (km/s) = 5.45371 6.72352 6.12163
#
# Compressibility (1/GPa) = 0.03252387
#
# Stress axis : x y z
#
# Youngs Moduli (GPa) = 82.76838 55.47980 48.15288
#
# Poissons Ratio (x) = 0.19314 0.36892
# Poissons Ratio (y) = 0.28814 -0.09476
# Poissons Ratio (z) = 0.63413 -0.10918
#
# Static dielectric constant tensor:
#      x y z
#    x 1.807710 0.022090 0.024420 
#    y 0.022090 1.862750 -0.109160 
#    z 0.024420 -0.109160 2.118080 
# 
# From -- ./inp_files/209433.got.cif
#   From: 2010.05.17/outbox.cif.g08.bks.cpg/sg2_105_cif.got.tgz:209433.got - 2010.06.03 11:33:40.
