data_PCOD9025254
_publ_section_title
;
Structure prediction by ZEFSAII (Michael W. Deem and Ramdas Pophale) SiO2 
 PCOD9025254
Probable space group: P -1
;
_chemical_formula_sum "Si O2"
_cell_formula_units_Z 14
_cell_length_a 5.452831
_cell_length_b 19.115447
_cell_length_c 8.936057
_cell_angle_alpha 139.770663
_cell_angle_beta 65.949252
_cell_angle_gamma 114.789749
_cell_volume 540.027115
_symmetry_space_group_name_H-M "P -1"
_symmetry_group_IT_number 2
_symmetry_cell_setting 'triclinic'
loop_
_space_group_symop_operation_xyz
x,y,z
-x,-y,-z
loop_
_atom_site_type_symbol
_atom_site_label
_atom_site_fract_x
_atom_site_fract_y
_atom_site_fract_z
Si Si1 0.799130 0.564406 0.243722
Si Si2 0.327321 0.162429 0.805845
Si Si3 0.162060 0.576178 0.715778
Si Si4 0.181945 0.919780 0.511706
Si Si5 0.766216 0.704455 0.216785
Si Si6 0.302091 0.265799 0.264795
Si Si7 0.326240 0.025721 0.947005
O O1 0.707712 0.485191 0.279034
O O2 0.640753 0.617869 0.235967
O O3 0.902749 0.677542 0.494223
O O4 0.000000 0.500000 0.000000
O O5 0.618303 0.133096 0.732026
O O6 0.405564 0.243806 0.779522
O O7 0.142757 0.039453 0.655597
O O8 0.189563 0.230028 0.070859
O O9 0.413465 0.652416 0.697564
O O10 0.000000 0.500000 0.500000
O O11 0.960706 0.641555 0.964543
O O12 0.931167 0.820246 0.432657
O O13 0.355119 0.952792 0.674292
O O14 0.380363 0.156075 0.130242
O O15 0.500000 0.000000 0.000000
O O16 0.000000 0.000000 0.000000
#
# Coordination Sequence:
#
# PCOD9025254 Si02
#       7
#     2   2   2   2   2   2   2
#     4  10  24  43  64  97 135 180 251 310 363 429
#     4  10  22  40  68 104 134 187 239 292 374 457
#     4  11  24  45  68  99 140 194 256 310 369 449
#     4  10  22  40  68 102 144 182 244 293 360 470
#     4  11  22  42  70  99 142 189 236 315 379 435
#     4  11  23  46  72 103 145 200 243 310 379 452
#     4  11  27  46  74 118 158 195 243 309 388 469
#
# _framework density 25.924627999999998
#
# number of rings (size 3 to 8) (size 9 to 14) (size 15 to 20)
#    0.000    1.429    1.429    2.571    4.000    4.571 
#    0.000    2.143    0.000    0.000    0.000    0.000 
#    0.000    0.000    0.000    0.000    0.000    0.000 
#
# Total GULP energy -78026.338637 kJ/mol
# GULP energy per Si atom -5573.309903 kJ/mol
# Density = 2.586562 g / cm^3
# Si number density = 25.924628 Si / 1000 Ang^3
#
#
#
# Elastic Constant Matrix: (Units=GPa)
#
#
# Indices 1 2 3 4 5 6 
#
# 1 56.2457 46.1422 32.9395 8.2730 13.5286 -8.8589
# 2 46.1422 174.3753 30.5517 21.2061 10.0850 -16.2304
# 3 32.9395 30.5517 172.5504 3.2334 0.3416 0.7519
# 4 8.2730 21.2061 3.2334 44.4373 0.2151 1.9982
# 5 13.5286 10.0850 0.3416 0.2151 41.8734 4.9570
# 6 -8.8589 -16.2304 0.7519 1.9982 4.9570 32.7772
#
#
#
# Elastic Compliance Matrix: (Units=1/GPa)
#
#
# Indices 1 2 3 4 5 6 
#
# 1 0.028149 -0.005245 -0.004406 -0.002671 -0.008559 0.006569
# 2 -0.005245 0.007808 -0.000339 -0.002844 -0.000488 0.002704
# 3 -0.004406 -0.000339 0.006690 0.000568 0.001661 -0.001798
# 4 -0.002671 -0.002844 0.000568 0.024484 0.001882 -0.003920
# 5 -0.008559 -0.000488 0.001661 0.001882 0.027555 -0.006875
# 6 0.006569 0.002704 -0.001798 -0.003920 -0.006875 0.034943
#
#
# Mechanical properties :
#
#
# Convention : Reuss Voigt Hill
#
# Bulk Modulus (GPa) = 44.11824 69.15979 56.63902
# Shear Modulus (GPa) = 31.81352 43.38679 37.60015
#
# Velocity S-wave (km/s) = 3.50688 4.09537 3.81250
# Velocity P-wave (km/s) = 5.78381 7.00699 6.42458
#
# Compressibility (1/GPa) = 0.02266636
#
# Stress axis : x y z
#
# Youngs Moduli (GPa) = 35.52525 128.07622 149.46663
#
# Poissons Ratio (x) = 0.67180 0.65862
# Poissons Ratio (y) = 0.18634 0.05062
# Poissons Ratio (z) = 0.15654 0.04337
#
# Static dielectric constant tensor:
#      x y z
#    x 2.087170 -0.018660 0.004280 
#    y -0.018660 2.194450 -0.130760 
#    z 0.004280 -0.130760 2.234630 
# 
# From -- ./inp_files/139684.got.cif
#   From: 2010.05.17/outbox.cif.g08.bks.cpg/sg2_70_cif.got.tgz:139684.got - 2010.06.03 11:33:40.
