data_PCOD9025106
_publ_section_title
;
Structure prediction by ZEFSAII (Michael W. Deem and Ramdas Pophale) SiO2 
 PCOD9025106
Probable space group: P -1
;
_chemical_formula_sum "Si O2"
_cell_formula_units_Z 16
_cell_length_a 15.467950
_cell_length_b 8.156785
_cell_length_c 10.766672
_cell_angle_alpha 44.417416
_cell_angle_beta 128.900847
_cell_angle_gamma 132.304617
_cell_volume 674.095682
_symmetry_space_group_name_H-M "P -1"
_symmetry_group_IT_number 2
_symmetry_cell_setting 'triclinic'
loop_
_space_group_symop_operation_xyz
x,y,z
-x,-y,-z
loop_
_atom_site_type_symbol
_atom_site_label
_atom_site_fract_x
_atom_site_fract_y
_atom_site_fract_z
Si Si1 0.735577 0.509694 0.007684
Si Si2 0.100865 0.131831 0.831116
Si Si3 0.425585 0.761670 0.770247
Si Si4 0.920103 0.706429 0.541277
Si Si5 0.392603 0.219415 0.417281
Si Si6 0.661782 0.660381 0.425382
Si Si7 0.049508 0.430120 0.957629
Si Si8 0.345269 0.172798 0.931615
O O1 0.668041 0.674549 0.799825
O O2 0.842887 0.685844 0.101050
O O3 0.644766 0.294292 0.131615
O O4 0.805616 0.430520 0.006990
O O5 0.080420 0.280720 0.614912
O O6 0.208312 0.051971 0.922765
O O7 0.987238 0.873840 0.902751
O O8 0.393698 0.482418 0.834393
O O9 0.383640 0.933202 0.551187
O O10 0.565748 0.903533 0.862517
O O11 0.784530 0.627374 0.517272
O O12 0.981159 0.521640 0.742105
O O13 0.000000 0.000000 0.500000
O O14 0.535689 0.406983 0.449050
O O15 0.332064 0.230461 0.489636
O O16 0.647849 0.837503 0.205017
O O17 0.000000 0.500000 0.000000
#
# Coordination Sequence:
#
# PCOD9025106 Si02
#       8
#     2   2   2   2   2   2   2   2
#     4  11  25  44  63 100 134 164 224 263 324 394
#     4  10  24  43  66  96 130 171 213 274 318 388
#     4  10  22  40  67  93 130 177 201 268 329 376
#     4  11  24  44  67  94 131 168 219 270 314 387
#     4  11  24  41  66  95 134 170 208 275 321 387
#     4  10  23  43  62  98 130 165 224 262 323 390
#     4  12  25  42  70  95 128 178 215 268 327 375
#     4   9  20  43  62  95 134 161 220 259 319 397
#
# _framework density 23.735503999999999
#
# number of rings (size 3 to 8) (size 9 to 14) (size 15 to 20)
#    0.000    1.500    2.500    1.125    3.500    4.500 
#    0.000    0.000    0.000    0.000    0.000    0.000 
#    0.000    0.000    0.000    0.000    0.000    0.000 
#
# Total GULP energy -89533.685407 kJ/mol
# GULP energy per Si atom -5595.855338 kJ/mol
# Density = 2.368148 g / cm^3
# Si number density = 23.735504 Si / 1000 Ang^3
#
#
#
# Elastic Constant Matrix: (Units=GPa)
#
#
# Indices 1 2 3 4 5 6 
#
# 1 95.7257 3.1854 35.9832 -0.3153 -13.4035 10.3933
# 2 3.1854 25.1218 22.8321 4.5246 -2.0631 -1.3994
# 3 35.9832 22.8321 134.5141 1.0035 7.6222 13.6741
# 4 -0.3153 4.5246 1.0035 22.0286 0.6144 1.7480
# 5 -13.4035 -2.0631 7.6222 0.6144 29.7975 3.7976
# 6 10.3933 -1.3994 13.6741 1.7480 3.7976 29.3806
#
#
#
# Elastic Compliance Matrix: (Units=1/GPa)
#
#
# Indices 1 2 3 4 5 6 
#
# 1 0.013366 0.002409 -0.004041 -0.000038 0.007688 -0.003724
# 2 0.002409 0.051766 -0.010364 -0.010807 0.006751 0.006207
# 3 -0.004041 -0.010364 0.010906 0.001999 -0.004904 -0.003625
# 4 -0.000038 -0.010807 0.001999 0.047894 -0.001748 -0.004055
# 5 0.007688 0.006751 -0.004904 -0.001748 0.039427 -0.005108
# 6 -0.003724 0.006207 -0.003625 -0.004055 -0.005108 0.038238
#
#
# Mechanical properties :
#
#
# Convention : Reuss Voigt Hill
#
# Bulk Modulus (GPa) = 19.21384 42.15144 30.68264
# Shear Modulus (GPa) = 20.58132 29.13207 24.85670
#
# Velocity S-wave (km/s) = 2.94787 3.50717 3.23961
# Velocity P-wave (km/s) = 4.43837 5.84788 5.19119
#
# Compressibility (1/GPa) = 0.05204582
#
# Stress axis : x y z
#
# Youngs Moduli (GPa) = 74.81574 19.31753 91.69403
#
# Poissons Ratio (x) = -0.04653 0.37055
# Poissons Ratio (y) = -0.18022 0.95032
# Poissons Ratio (z) = 0.30234 0.20021
#
# Static dielectric constant tensor:
#      x y z
#    x 1.943660 -0.038830 -0.006980 
#    y -0.038830 1.903740 0.006930 
#    z -0.006980 0.006930 1.866390 
# 
# From -- ./inp_files/429108.got.cif
#   From: 2010.05.17/outbox.cif.g08.bks.cpg/sg2_215_cif.got.tgz:429108.got - 2010.06.03 11:33:40.
