data_PCOD9025083
_publ_section_title
;
Structure prediction by ZEFSAII (Michael W. Deem and Ramdas Pophale) SiO2 
 PCOD9025083
Probable space group: P -1
;
_chemical_formula_sum "Si O2"
_cell_formula_units_Z 16
_cell_length_a 19.200923
_cell_length_b 8.975140
_cell_length_c 14.842543
_cell_angle_alpha 114.062415
_cell_angle_beta 29.718175
_cell_angle_gamma 93.494738
_cell_volume 882.216993
_symmetry_space_group_name_H-M "P -1"
_symmetry_group_IT_number 2
_symmetry_cell_setting 'triclinic'
loop_
_space_group_symop_operation_xyz
x,y,z
-x,-y,-z
loop_
_atom_site_type_symbol
_atom_site_label
_atom_site_fract_x
_atom_site_fract_y
_atom_site_fract_z
Si Si1 0.796978 0.959294 0.662925
Si Si2 0.186700 0.931627 0.809635
Si Si3 0.663368 0.263330 0.227823
Si Si4 0.908347 0.529835 0.513233
Si Si5 0.528498 0.700149 0.236486
Si Si6 0.746272 0.857735 0.079760
Si Si7 0.509702 0.688507 0.045202
Si Si8 0.798696 0.217291 0.867282
O O1 0.852390 0.733436 0.569758
O O2 0.984411 0.909274 0.409827
O O3 0.636786 0.113164 0.808065
O O4 0.749194 0.086028 0.841373
O O5 0.201517 0.825757 0.861695
O O6 0.355276 0.781044 0.513606
O O7 0.202137 0.107952 0.871345
O O8 0.000000 0.000000 0.000000
O O9 0.500000 0.500000 0.500000
O O10 0.737463 0.261568 0.049328
O O11 0.630640 0.092786 0.222214
O O12 0.000000 0.500000 0.500000
O O13 0.063815 0.314955 0.230135
O O14 0.717655 0.580988 0.758537
O O15 0.476494 0.762001 0.205295
O O16 0.625872 0.785978 0.191046
O O17 0.684525 0.442894 0.000132
O O18 0.500000 0.500000 0.000000
#
# Coordination Sequence:
#
# PCOD9025083 Si02
#       8
#     2   2   2   2   2   2   2   2
#     4  11  25  40  63  99 136 172 218 271 325 390
#     4  10  25  41  65  97 124 165 215 273 331 376
#     4  10  22  40  67  92 121 166 217 265 320 391
#     4  12  23  45  66  96 135 174 221 264 335 394
#     4  12  22  45  66  94 131 174 219 263 326 395
#     4  10  23  41  69  91 126 171 215 269 319 394
#     4  12  27  40  65 101 138 178 214 276 329 385
#     4  11  21  40  67  94 128 174 222 262 324 396
#
# _framework density 18.136126999999998
#
# number of rings (size 3 to 8) (size 9 to 14) (size 15 to 20)
#    0.750    0.250    5.000    1.500    7.000    0.000 
#    0.000    0.000    0.000    2.250    0.000    0.000 
#    0.000    0.000    0.000    0.000    0.000    0.000 
#
# Total GULP energy -89155.528121 kJ/mol
# GULP energy per Si atom -5572.220508 kJ/mol
# Density = 1.809485 g / cm^3
# Si number density = 18.136127 Si / 1000 Ang^3
#
#
#
# Elastic Constant Matrix: (Units=GPa)
#
#
# Indices 1 2 3 4 5 6 
#
# 1 113.7527 11.6369 44.3173 -3.6699 -0.4898 -4.6247
# 2 11.6369 57.3691 7.3945 14.0951 -1.2451 6.7574
# 3 44.3173 7.3945 94.4540 1.3704 6.8953 5.6468
# 4 -3.6699 14.0951 1.3704 34.4263 1.9079 0.9395
# 5 -0.4898 -1.2451 6.8953 1.9079 29.1681 -4.3819
# 6 -4.6247 6.7574 5.6468 0.9395 -4.3819 30.8681
#
#
#
# Elastic Compliance Matrix: (Units=1/GPa)
#
#
# Indices 1 2 3 4 5 6 
#
# 1 0.011427 -0.002536 -0.005532 0.002284 0.001762 0.003460
# 2 -0.002536 0.020624 -0.000084 -0.008629 0.000745 -0.004511
# 3 -0.005532 -0.000084 0.013712 -0.000782 -0.003864 -0.003844
# 4 0.002284 -0.008629 -0.000782 0.032945 -0.002140 0.001068
# 5 0.001762 0.000745 -0.003864 -0.002140 0.036304 0.006027
# 6 0.003460 -0.004511 -0.003844 0.001068 0.006027 0.035428
#
#
# Mechanical properties :
#
#
# Convention : Reuss Voigt Hill
#
# Bulk Modulus (GPa) = 33.94397 43.58591 38.76494
# Shear Modulus (GPa) = 28.31836 32.37431 30.34634
#
# Velocity S-wave (km/s) = 3.95578 4.22960 4.09498
# Velocity P-wave (km/s) = 6.29453 6.92369 6.61659
#
# Compressibility (1/GPa) = 0.02946031
#
# Stress axis : x y z
#
# Youngs Moduli (GPa) = 87.50841 48.48783 72.92623
#
# Poissons Ratio (x) = 0.12294 0.40341
# Poissons Ratio (y) = 0.22188 0.00615
# Poissons Ratio (z) = 0.48408 0.00409
#
# Static dielectric constant tensor:
#      x y z
#    x 1.599320 0.029840 0.031250 
#    y 0.029840 1.608910 -0.012020 
#    z 0.031250 -0.012020 1.589970 
# 
# From -- ./inp_files/528388.got.cif
#   From: 2010.05.17/outbox.cif.g08.bks.cpg/sg2_265_cif.got.tgz:528388.got - 2010.06.03 11:33:40.
