data_PCOD9025395
_publ_section_title
;
Structure prediction by ZEFSAII (Michael W. Deem and Ramdas Pophale) SiO2 
 PCOD9025395
Probable space group: P -1
;
_chemical_formula_sum "Si O2"
_cell_formula_units_Z 16
_cell_length_a 11.054665
_cell_length_b 9.765937
_cell_length_c 11.672381
_cell_angle_alpha 127.471305
_cell_angle_beta 43.166099
_cell_angle_gamma 123.759011
_cell_volume 669.489625
_symmetry_space_group_name_H-M "P -1"
_symmetry_group_IT_number 2
_symmetry_cell_setting 'triclinic'
loop_
_space_group_symop_operation_xyz
x,y,z
-x,-y,-z
loop_
_atom_site_type_symbol
_atom_site_label
_atom_site_fract_x
_atom_site_fract_y
_atom_site_fract_z
Si Si1 0.868892 0.803638 0.815097
Si Si2 0.145618 0.717344 0.726638
Si Si3 0.558599 0.009458 0.193565
Si Si4 0.982654 0.079302 0.679090
Si Si5 0.851645 0.542172 0.214274
Si Si6 0.399200 0.827305 0.415044
Si Si7 0.554641 0.530145 0.847084
Si Si8 0.365584 0.750960 0.928359
O O1 0.769653 0.613936 0.737210
O O2 0.963665 0.786245 0.863482
O O3 0.973031 0.933212 0.711134
O O4 0.697975 0.887984 0.005891
O O5 0.111240 0.534747 0.725841
O O6 0.215410 0.739645 0.559645
O O7 0.306681 0.840117 0.748922
O O8 0.398321 0.899019 0.323262
O O9 0.508184 0.099093 0.158621
O O10 0.806009 0.168476 0.870505
O O11 0.142547 0.251249 0.676759
O O12 0.000000 0.000000 0.500000
O O13 0.679724 0.414402 0.213347
O O14 0.000000 0.500000 0.000000
O O15 0.500130 0.664467 0.268107
O O16 0.500000 0.000000 0.500000
O O17 0.500000 0.500000 0.000000
O O18 0.452507 0.666501 0.928184
#
# Coordination Sequence:
#
# PCOD9025395 Si02
#       8
#     2   2   2   2   2   2   2   2
#     4  11  24  41  64  99 132 174 221 263 330 399
#     4  10  22  40  68  98 131 166 220 282 324 380
#     4   9  19  43  68  97 127 174 221 267 327 399
#     4  10  23  41  65 103 135 166 216 277 338 377
#     4   9  20  40  68  93 126 176 218 263 326 392
#     4  10  23  44  67  98 133 168 220 275 335 384
#     4  12  26  43  66  96 130 181 223 266 330 400
#     4   9  22  44  68  90 132 178 225 263 317 407
#
# _framework density 23.898800000000001
#
# number of rings (size 3 to 8) (size 9 to 14) (size 15 to 20)
#    0.000    2.000    1.250    1.125    5.250    5.500 
#    2.250    5.625    0.000    0.000    0.000    0.000 
#    0.000    0.000    0.000    0.000    0.000    0.000 
#
# Total GULP energy -89225.045451 kJ/mol
# GULP energy per Si atom -5576.565341 kJ/mol
# Density = 2.384441 g / cm^3
# Si number density = 23.898800 Si / 1000 Ang^3
#
#
#
# Elastic Constant Matrix: (Units=GPa)
#
#
# Indices 1 2 3 4 5 6 
#
# 1 87.3270 48.7097 4.5322 -11.8189 10.4749 -36.0033
# 2 48.7097 164.6793 46.8471 -23.6632 15.6056 -25.3305
# 3 4.5322 46.8471 61.0441 -3.2230 19.8838 -7.0159
# 4 -11.8189 -23.6632 -3.2230 36.3408 -7.7517 14.7002
# 5 10.4749 15.6056 19.8838 -7.7517 17.3775 -2.7664
# 6 -36.0033 -25.3305 -7.0159 14.7002 -2.7664 43.1802
#
#
#
# Elastic Compliance Matrix: (Units=1/GPa)
#
#
# Indices 1 2 3 4 5 6 
#
# 1 0.024652 -0.006915 0.013324 -0.008647 -0.024563 0.020033
# 2 -0.006915 0.010885 -0.010934 0.007118 0.009608 -0.002965
# 3 0.013324 -0.010934 0.040538 -0.015046 -0.049199 0.013252
# 4 -0.008647 0.007118 -0.015046 0.041990 0.031946 -0.017728
# 5 -0.024563 0.009608 -0.049199 0.031946 0.130230 -0.025370
# 6 0.020033 -0.002965 0.013252 -0.017728 -0.025370 0.044686
#
#
# Mechanical properties :
#
#
# Convention : Reuss Voigt Hill
#
# Bulk Modulus (GPa) = 14.92035 57.02538 35.97286
# Shear Modulus (GPa) = 15.41430 33.57711 24.49570
#
# Velocity S-wave (km/s) = 2.54240 3.75236 3.20500
# Velocity P-wave (km/s) = 3.85683 6.53350 5.36478
#
# Compressibility (1/GPa) = 0.06702256
#
# Stress axis : x y z
#
# Youngs Moduli (GPa) = 40.56395 91.87278 24.66830
#
# Poissons Ratio (x) = 0.63534 -0.32867
# Poissons Ratio (y) = 0.28052 0.26973
# Poissons Ratio (z) = -0.54046 1.00457
#
# Static dielectric constant tensor:
#      x y z
#    x 2.090130 0.136390 -0.039840 
#    y 0.136390 2.006190 -0.005620 
#    z -0.039840 -0.005620 2.057390 
# 
# From -- ./inp_files/418036.got.cif
#   From: 2010.05.17/outbox.cif.g08.bks.cpg/sg2_210_cif.got.tgz:418036.got - 2010.06.03 11:33:40.
