data_PCOD9025435
_publ_section_title
;
Structure prediction by ZEFSAII (Michael W. Deem and Ramdas Pophale) SiO2 
 PCOD9025435
Probable space group: P -1
;
_chemical_formula_sum "Si O2"
_cell_formula_units_Z 14
_cell_length_a 7.689553
_cell_length_b 8.598087
_cell_length_c 11.399887
_cell_angle_alpha 120.625906
_cell_angle_beta 121.798519
_cell_angle_gamma 71.273821
_cell_volume 549.800071
_symmetry_space_group_name_H-M "P -1"
_symmetry_group_IT_number 2
_symmetry_cell_setting 'triclinic'
loop_
_space_group_symop_operation_xyz
x,y,z
-x,-y,-z
loop_
_atom_site_type_symbol
_atom_site_label
_atom_site_fract_x
_atom_site_fract_y
_atom_site_fract_z
Si Si1 0.224411 0.401798 0.550416
Si Si2 0.887185 0.267168 0.767911
Si Si3 0.681131 0.596807 0.668799
Si Si4 0.676304 0.917390 0.171949
Si Si5 0.685390 0.264845 0.154546
Si Si6 0.001948 0.211041 0.051550
Si Si7 0.775807 0.966613 0.462585
O O1 0.247965 0.321318 0.398366
O O2 0.361087 0.561897 0.709479
O O3 0.234898 0.237211 0.579303
O O4 0.000000 0.500000 0.500000
O O5 0.801070 0.430228 0.717524
O O6 0.124240 0.220484 0.801544
O O7 0.755083 0.102512 0.615886
O O8 0.899563 0.274935 0.916170
O O9 0.500000 0.500000 0.500000
O O10 0.755755 0.750197 0.843299
O O11 0.622532 0.999475 0.312411
O O12 0.744942 0.088752 0.187924
O O13 0.500743 0.806132 0.012599
O O14 0.861511 0.307099 0.141043
O O15 0.000000 0.000000 0.000000
O O16 0.000000 0.000000 0.500000
#
# Coordination Sequence:
#
# PCOD9025435 Si02
#       7
#     2   2   2   2   2   2   2
#     4  12  22  43  70 100 136 181 241 284 351 417
#     4  11  23  47  71  97 143 182 232 293 355 416
#     4  12  29  47  72 103 142 192 239 294 355 424
#     4  10  22  42  69 104 137 179 232 289 355 415
#     4  11  24  41  71 104 139 185 230 290 350 428
#     4  12  25  46  71 104 145 187 234 289 361 423
#     4  10  22  40  69 100 132 177 228 294 347 413
#
# _framework density 25.463802999999999
#
# number of rings (size 3 to 8) (size 9 to 14) (size 15 to 20)
#    0.000    0.857    2.857    5.571    2.000    2.857 
#    0.000    2.143    0.000    0.000    0.000    0.000 
#    0.000    0.000    0.000    0.000    0.000    0.000 
#
# Total GULP energy -78136.432739 kJ/mol
# GULP energy per Si atom -5581.173767 kJ/mol
# Density = 2.540585 g / cm^3
# Si number density = 25.463803 Si / 1000 Ang^3
#
#
#
# Elastic Constant Matrix: (Units=GPa)
#
#
# Indices 1 2 3 4 5 6 
#
# 1 29.2872 10.8969 36.8848 -14.6663 -3.2193 9.8469
# 2 10.8969 122.8698 59.9642 -13.0971 21.9727 24.9496
# 3 36.8848 59.9642 217.5966 -14.0401 -0.3718 23.9049
# 4 -14.6663 -13.0971 -14.0401 55.2902 12.3569 -0.9050
# 5 -3.2193 21.9727 -0.3718 12.3569 44.8340 1.5034
# 6 9.8469 24.9496 23.9049 -0.9050 1.5034 30.3681
#
#
#
# Elastic Compliance Matrix: (Units=1/GPa)
#
#
# Indices 1 2 3 4 5 6 
#
# 1 0.053560 0.003321 -0.007657 0.013047 -0.000984 -0.013631
# 2 0.003321 0.012767 -0.002822 0.004611 -0.007016 -0.008859
# 3 -0.007657 -0.002822 0.006648 -0.001303 0.001266 -0.000533
# 4 0.013047 0.004611 -0.001303 0.023941 -0.007735 -0.005897
# 5 -0.000984 -0.007016 0.001266 -0.007735 0.027698 0.003485
# 6 -0.013631 -0.008859 -0.000533 -0.005897 0.003485 0.044699
#
#
# Mechanical properties :
#
#
# Convention : Reuss Voigt Hill
#
# Bulk Modulus (GPa) = 17.04769 65.02726 41.03748
# Shear Modulus (GPa) = 24.60867 43.56562 34.08714
#
# Velocity S-wave (km/s) = 3.11210 4.14077 3.66273
# Velocity P-wave (km/s) = 4.42978 6.96088 5.83425
#
# Compressibility (1/GPa) = 0.05865896
#
# Stress axis : x y z
#
# Youngs Moduli (GPa) = 18.67064 78.32950 150.42229
#
# Poissons Ratio (x) = -0.26014 1.15172
# Poissons Ratio (y) = -0.06201 0.42454
# Poissons Ratio (z) = 0.14295 0.22107
#
# Static dielectric constant tensor:
#      x y z
#    x 2.350340 0.083440 -0.008530 
#    y 0.083440 2.150070 0.040760 
#    z -0.008530 0.040760 2.080190 
# 
# From -- ./inp_files/383399.got.cif
#   From: 2010.05.17/outbox.cif.g08.bks.cpg/sg2_192_cif.got.tgz:383399.got - 2010.06.03 11:33:40.
