data_PCOD9025358
_publ_section_title
;
Structure prediction by ZEFSAII (Michael W. Deem and Ramdas Pophale) SiO2 
 PCOD9025358
Probable space group: P -1
;
_chemical_formula_sum "Si O2"
_cell_formula_units_Z 16
_cell_length_a 18.765793
_cell_length_b 9.773984
_cell_length_c 8.006629
_cell_angle_alpha 121.146117
_cell_angle_beta 133.125067
_cell_angle_gamma 36.026881
_cell_volume 628.243314
_symmetry_space_group_name_H-M "P -1"
_symmetry_group_IT_number 2
_symmetry_cell_setting 'triclinic'
loop_
_space_group_symop_operation_xyz
x,y,z
-x,-y,-z
loop_
_atom_site_type_symbol
_atom_site_label
_atom_site_fract_x
_atom_site_fract_y
_atom_site_fract_z
Si Si1 0.279746 0.607561 0.443217
Si Si2 0.009687 0.818900 0.317391
Si Si3 0.219218 0.017442 0.733856
Si Si4 0.662003 0.848036 0.370746
Si Si5 0.451160 0.387961 0.268675
Si Si6 0.866631 0.560360 0.253528
Si Si7 0.071425 0.295298 0.124390
Si Si8 0.484415 0.294777 0.872665
O O1 0.164133 0.632762 0.366193
O O2 0.228941 0.854562 0.522945
O O3 0.317737 0.510201 0.255348
O O4 0.407849 0.449504 0.681881
O O5 0.000000 0.000000 0.500000
O O6 0.941885 0.791829 0.335500
O O7 0.901082 0.905540 0.050413
O O8 0.239092 0.171917 0.801065
O O9 0.350290 0.851976 0.966595
O O10 0.764501 0.613412 0.266359
O O11 0.785387 0.792508 0.637789
O O12 0.555496 0.846496 0.280503
O O13 0.561771 0.110713 0.307001
O O14 0.500000 0.500000 0.500000
O O15 0.439974 0.408178 0.061565
O O16 0.000000 0.500000 0.500000
O O17 0.951199 0.388567 0.125535
O O18 0.000000 0.500000 0.000000
#
# Coordination Sequence:
#
# PCOD9025358 Si02
#       8
#     2   2   2   2   2   2   2   2
#     4  11  26  45  73 107 145 193 244 298 369 435
#     4  10  24  43  69 102 139 185 240 297 358 426
#     4  11  22  45  70 101 145 192 234 305 363 419
#     4  11  26  45  67 107 147 186 241 302 364 426
#     4  12  26  46  74 105 147 194 245 293 368 442
#     4  10  22  40  68  95 146 186 236 293 362 416
#     4  11  22  41  70 101 135 187 240 288 360 433
#     4  12  26  45  73 106 150 189 241 304 364 430
#
# _framework density 25.467839000000001
#
# number of rings (size 3 to 8) (size 9 to 14) (size 15 to 20)
#    0.000    1.000    3.750    1.500    5.250    1.500 
#    0.000    0.000    0.000    7.500    0.000    0.000 
#    0.000    0.000    0.000    0.000    0.000    0.000 
#
# Total GULP energy -89088.572662 kJ/mol
# GULP energy per Si atom -5568.035791 kJ/mol
# Density = 2.540987 g / cm^3
# Si number density = 25.467839 Si / 1000 Ang^3
#
#
#
# Elastic Constant Matrix: (Units=GPa)
#
#
# Indices 1 2 3 4 5 6 
#
# 1 92.4390 22.2405 23.0643 -0.4086 20.3625 -30.5407
# 2 22.2405 61.3320 25.7528 12.7226 -3.0811 -26.0538
# 3 23.0643 25.7528 108.0892 17.9358 2.8079 -6.3639
# 4 -0.4086 12.7226 17.9358 39.0020 -7.7980 7.0007
# 5 20.3625 -3.0811 2.8079 -7.7980 48.8927 -0.2200
# 6 -30.5407 -26.0538 -6.3639 7.0007 -0.2200 43.6245
#
#
#
# Elastic Compliance Matrix: (Units=1/GPa)
#
#
# Indices 1 2 3 4 5 6 
#
# 1 0.016882 -0.000010 -0.002335 -0.002307 -0.007212 0.011806
# 2 -0.000010 0.027506 -0.003825 -0.010278 0.000397 0.017514
# 3 -0.002335 -0.003825 0.011193 -0.003723 -0.000513 -0.001691
# 4 -0.002307 -0.010278 -0.003723 0.034341 0.005942 -0.013778
# 5 -0.007212 0.000397 -0.000513 0.005942 0.024433 -0.005717
# 6 0.011806 0.017514 -0.001691 -0.013778 -0.005717 0.043583
#
#
# Mechanical properties :
#
#
# Convention : Reuss Voigt Hill
#
# Bulk Modulus (GPa) = 23.12580 44.88616 34.00598
# Shear Modulus (GPa) = 27.07207 39.02402 33.04805
#
# Velocity S-wave (km/s) = 3.26389 3.91869 3.60618
# Velocity P-wave (km/s) = 4.82743 6.17558 5.54264
#
# Compressibility (1/GPa) = 0.04324175
#
# Stress axis : x y z
#
# Youngs Moduli (GPa) = 59.23476 36.35520 89.34463
#
# Poissons Ratio (x) = 0.00036 0.20858
# Poissons Ratio (y) = 0.00059 0.34175
# Poissons Ratio (z) = 0.13829 0.13906
#
# Static dielectric constant tensor:
#      x y z
#    x 2.261300 -0.096290 -0.021430 
#    y -0.096290 2.021250 0.085970 
#    z -0.021430 0.085970 2.091750 
# 
# From -- ./inp_files/346397.got.cif
#   From: 2010.05.17/outbox.cif.g08.bks.cpg/sg2_174_cif.got.tgz:346397.got - 2010.06.03 11:33:40.
