data_PCOD9025463
_publ_section_title
;
Structure prediction by ZEFSAII (Michael W. Deem and Ramdas Pophale) SiO2 
 PCOD9025463
Probable space group: P -1
;
_chemical_formula_sum "Si O2"
_cell_formula_units_Z 16
_cell_length_a 11.125491
_cell_length_b 15.566745
_cell_length_c 9.404342
_cell_angle_alpha 37.408793
_cell_angle_beta 72.223810
_cell_angle_gamma 52.136422
_cell_volume 722.547919
_symmetry_space_group_name_H-M "P -1"
_symmetry_group_IT_number 2
_symmetry_cell_setting 'triclinic'
loop_
_space_group_symop_operation_xyz
x,y,z
-x,-y,-z
loop_
_atom_site_type_symbol
_atom_site_label
_atom_site_fract_x
_atom_site_fract_y
_atom_site_fract_z
Si Si1 0.257226 0.652541 0.680533
Si Si2 0.861146 0.546032 0.878157
Si Si3 0.428699 0.237665 0.829655
Si Si4 0.913565 0.209530 0.726907
Si Si5 0.375624 0.726709 0.772365
Si Si6 0.433698 0.162442 0.594074
Si Si7 0.951217 0.491032 0.374502
Si Si8 0.399917 0.657539 0.171349
O O1 0.127903 0.763139 0.459169
O O2 0.232618 0.780115 0.648664
O O3 0.433233 0.539105 0.685049
O O4 0.235637 0.512234 0.938752
O O5 0.721878 0.736591 0.591704
O O6 0.977241 0.436666 0.845051
O O7 0.000000 0.500000 0.000000
O O8 0.414395 0.245686 0.650959
O O9 0.240747 0.384519 0.754744
O O10 0.539742 0.275380 0.818740
O O11 0.496833 0.040032 0.123931
O O12 0.011749 0.284586 0.613068
O O13 0.747216 0.328116 0.727821
O O14 0.000000 0.000000 0.000000
O O15 0.448587 0.816388 0.562613
O O16 0.500000 0.500000 0.000000
O O17 0.339443 0.766189 0.899941
O O18 0.000000 0.500000 0.500000
#
# Coordination Sequence:
#
# PCOD9025463 Si02
#       8
#     2   2   2   2   2   2   2   2
#     4  11  23  45  72  99 132 183 229 284 346 413
#     4  12  23  44  68  97 143 181 223 281 353 413
#     4  11  25  44  72 105 131 189 237 292 341 410
#     4  12  28  46  70 103 141 184 232 291 351 418
#     4  10  22  40  69 103 130 173 227 288 342 396
#     4  11  24  43  71 102 142 174 239 295 338 413
#     4  12  27  44  71 100 143 188 231 284 360 418
#     4  11  23  43  72 100 130 178 236 276 343 414
#
# _framework density 22.14386
#
# number of rings (size 3 to 8) (size 9 to 14) (size 15 to 20)
#    0.000    0.750    6.250    1.125    7.000    1.500 
#    2.250    0.625    0.000    0.000    0.000    0.000 
#    0.000    0.000    0.000    0.000    0.000    0.000 
#
# Total GULP energy -89160.551775 kJ/mol
# GULP energy per Si atom -5572.534486 kJ/mol
# Density = 2.209346 g / cm^3
# Si number density = 22.143860 Si / 1000 Ang^3
#
#
#
# Elastic Constant Matrix: (Units=GPa)
#
#
# Indices 1 2 3 4 5 6 
#
# 1 92.7949 24.7143 44.5340 6.2343 -4.1668 12.3859
# 2 24.7143 55.8313 42.8096 25.0565 1.8331 11.3027
# 3 44.5340 42.8096 141.8536 30.3848 7.1075 7.6366
# 4 6.2343 25.0565 30.3848 41.4342 3.8507 1.7517
# 5 -4.1668 1.8331 7.1075 3.8507 28.0931 21.8981
# 6 12.3859 11.3027 7.6366 1.7517 21.8981 40.0131
#
#
#
# Elastic Compliance Matrix: (Units=1/GPa)
#
#
# Indices 1 2 3 4 5 6 
#
# 1 0.015069 -0.002882 -0.004349 0.002107 0.009873 -0.008516
# 2 -0.002882 0.032577 -0.005416 -0.015760 0.010658 -0.012420
# 3 -0.004349 -0.005416 0.010911 -0.003712 -0.005735 0.004095
# 4 0.002107 -0.015760 -0.003712 0.036556 -0.008715 0.007677
# 5 0.009873 0.010658 -0.005735 -0.008715 0.074273 -0.045238
# 6 -0.008516 -0.012420 0.004095 0.007677 -0.045238 0.054776
#
#
# Mechanical properties :
#
#
# Convention : Reuss Voigt Hill
#
# Bulk Modulus (GPa) = 30.06224 57.17730 43.61977
# Shear Modulus (GPa) = 19.19052 33.80284 26.49668
#
# Velocity S-wave (km/s) = 2.94705 3.91130 3.46290
# Velocity P-wave (km/s) = 5.01852 6.80254 5.97746
#
# Compressibility (1/GPa) = 0.03326433
#
# Stress axis : x y z
#
# Youngs Moduli (GPa) = 66.35921 30.69628 91.64757
#
# Poissons Ratio (x) = 0.08846 0.39855
# Poissons Ratio (y) = 0.19124 0.49639
# Poissons Ratio (z) = 0.28858 0.16626
#
# Static dielectric constant tensor:
#      x y z
#    x 1.884080 -0.030760 0.187090 
#    y -0.030760 1.895860 -0.150090 
#    z 0.187090 -0.150090 2.814540 
# 
# From -- ./inp_files/271526.got.cif
#   From: 2010.05.17/outbox.cif.g08.bks.cpg/sg2_136_cif.got.tgz:271526.got - 2010.06.03 11:33:40.
