data_PCOD9025623
_publ_section_title
;
Structure prediction by ZEFSAII (Michael W. Deem and Ramdas Pophale) SiO2 
 PCOD9025623
Probable space group: P -1
;
_chemical_formula_sum "Si O2"
_cell_formula_units_Z 14
_cell_length_a 11.417062
_cell_length_b 13.458485
_cell_length_c 7.816576
_cell_angle_alpha 67.836485
_cell_angle_beta 60.299816
_cell_angle_gamma 120.052693
_cell_volume 501.280362
_symmetry_space_group_name_H-M "P -1"
_symmetry_group_IT_number 2
_symmetry_cell_setting 'triclinic'
loop_
_space_group_symop_operation_xyz
x,y,z
-x,-y,-z
loop_
_atom_site_type_symbol
_atom_site_label
_atom_site_fract_x
_atom_site_fract_y
_atom_site_fract_z
Si Si1 0.877201 0.011742 0.329724
Si Si2 0.350290 0.356584 0.532416
Si Si3 0.648694 0.050991 0.023051
Si Si4 0.703520 0.300913 0.016099
Si Si5 0.639417 0.409071 0.687954
Si Si6 0.676187 0.368972 0.324292
Si Si7 0.051960 0.913484 0.397801
O O1 0.014265 0.150577 0.314462
O O2 0.603823 0.884955 0.606159
O O3 0.873669 0.881211 0.458286
O O4 0.054222 0.146103 0.949116
O O5 0.500000 0.500000 0.500000
O O6 0.375384 0.477840 0.317524
O O7 0.483337 0.332682 0.419789
O O8 0.473261 0.840157 0.373203
O O9 0.714738 0.186189 0.025042
O O10 0.500000 0.000000 0.000000
O O11 0.895204 0.157860 0.695955
O O12 0.841430 0.442247 0.993544
O O13 0.757802 0.410360 0.740316
O O14 0.778397 0.487744 0.351947
O O15 0.341135 0.165934 0.031675
#
# Coordination Sequence:
#
# PCOD9025623 Si02
#       7
#     2   2   2   2   2   2   2
#     4  10  17  31  54  88 104 140 183 228 269 317
#     4  10  18  34  55  79 116 143 178 225 273 323
#     4  11  17  36  54  80 113 147 174 227 272 323
#     4  11  22  33  60  83 114 136 186 226 270 324
#     4   9  18  36  54  79 110 145 174 222 269 321
#     4  10  20  34  54  84 108 148 179 221 273 325
#     4   9  17  31  56  80 109 134 187 214 275 316
#
# _framework density 27.928481999999999
#
# number of rings (size 3 to 8) (size 9 to 14) (size 15 to 20)
#    0.000    2.000    8.571    0.429    0.000    1.143 
#    0.000    0.000    0.000   13.714    0.000    6.000 
#    0.000    0.000    0.000    0.000    0.000    0.000 
#
# Total GULP energy -78455.605517 kJ/mol
# GULP energy per Si atom -5603.971823 kJ/mol
# Density = 2.786492 g / cm^3
# Si number density = 27.928482 Si / 1000 Ang^3
#
#
#
# Elastic Constant Matrix: (Units=GPa)
#
#
# Indices 1 2 3 4 5 6 
#
# 1 141.3419 63.5029 34.9180 2.4373 11.6801 -15.5721
# 2 63.5029 179.6534 46.6688 32.6794 5.9494 -46.2424
# 3 34.9180 46.6688 69.1067 6.9745 -7.2940 -10.2046
# 4 2.4373 32.6794 6.9745 55.7693 0.8958 -1.0033
# 5 11.6801 5.9494 -7.2940 0.8958 52.2278 3.6582
# 6 -15.5721 -46.2424 -10.2046 -1.0033 3.6582 68.5683
#
#
#
# Elastic Compliance Matrix: (Units=1/GPa)
#
#
# Indices 1 2 3 4 5 6 
#
# 1 0.009223 -0.002625 -0.003288 0.001582 -0.002248 -0.000022
# 2 -0.002625 0.009988 -0.004244 -0.005085 -0.001442 0.005510
# 3 -0.003288 -0.004244 0.019262 0.000141 0.003973 -0.000952
# 4 0.001582 -0.005085 0.000141 0.020773 0.000081 -0.002749
# 5 -0.002248 -0.001442 0.003973 0.000081 0.020506 -0.001985
# 6 -0.000022 0.005510 -0.000952 -0.002749 -0.001985 0.018219
#
#
# Mechanical properties :
#
#
# Convention : Reuss Voigt Hill
#
# Bulk Modulus (GPa) = 55.06688 75.58681 65.32685
# Shear Modulus (GPa) = 40.21337 51.64722 45.93029
#
# Velocity S-wave (km/s) = 3.79868 4.30498 4.05973
# Velocity P-wave (km/s) = 6.24499 7.19956 6.73919
#
# Compressibility (1/GPa) = 0.01815973
#
# Stress axis : x y z
#
# Youngs Moduli (GPa) = 108.42876 100.12415 51.91571
#
# Poissons Ratio (x) = 0.26282 0.17067
# Poissons Ratio (y) = 0.28462 0.22032
# Poissons Ratio (z) = 0.35646 0.42491
#
# Static dielectric constant tensor:
#      x y z
#    x 2.199420 0.083600 0.003690 
#    y 0.083600 2.286310 0.026050 
#    z 0.003690 0.026050 2.168600 
# 
# From -- ./inp_files/272110.got.cif
#   From: 2010.05.17/outbox.cif.g08.bks.cpg/sg2_137_cif.got.tgz:272110.got - 2010.06.03 11:33:40.
