data_PCOD9025385
_publ_section_title
;
Structure prediction by ZEFSAII (Michael W. Deem and Ramdas Pophale) SiO2 
 PCOD9025385
Probable space group: P -1
;
_chemical_formula_sum "Si O2"
_cell_formula_units_Z 12
_cell_length_a 17.616516
_cell_length_b 11.747414
_cell_length_c 5.775761
_cell_angle_alpha 119.049170
_cell_angle_beta 67.164350
_cell_angle_gamma 148.076235
_cell_volume 551.797752
_symmetry_space_group_name_H-M "P -1"
_symmetry_group_IT_number 2
_symmetry_cell_setting 'triclinic'
loop_
_space_group_symop_operation_xyz
x,y,z
-x,-y,-z
loop_
_atom_site_type_symbol
_atom_site_label
_atom_site_fract_x
_atom_site_fract_y
_atom_site_fract_z
Si Si1 0.197734 0.020841 0.465515
Si Si2 0.447752 0.490325 0.806547
Si Si3 0.926097 0.988869 0.776159
Si Si4 0.574671 0.894225 0.832082
Si Si5 0.898771 0.682498 0.719974
Si Si6 0.614694 0.197666 0.374479
O O1 0.189614 0.068434 0.262715
O O2 0.036017 0.803595 0.536177
O O3 0.281265 0.235042 0.731956
O O4 0.293235 0.015449 0.343723
O O5 0.500000 0.500000 0.500000
O O6 0.496541 0.702575 0.928107
O O7 0.500000 0.500000 0.000000
O O8 0.870676 0.797673 0.805685
O O9 0.000000 0.000000 0.500000
O O10 0.043193 0.230909 0.002428
O O11 0.455883 0.776772 0.664605
O O12 0.633661 0.102857 0.080027
O O13 0.758607 0.423174 0.559669
O O14 0.500000 0.000000 0.500000
#
# Coordination Sequence:
#
# PCOD9025385 Si02
#       6
#     2   2   2   2   2   2
#     4  10  22  40  70  99 132 170 230 294 349 407
#     4  10  23  40  71 105 141 172 223 297 359 416
#     4   9  20  39  63  98 135 166 219 284 357 408
#     4  10  25  45  66  99 138 182 235 283 354 415
#     4  10  22  40  68  97 133 178 228 283 348 417
#     4  11  26  44  66  93 140 192 232 281 344 430
#
# _framework density 21.747098999999999
#
# number of rings (size 3 to 8) (size 9 to 14) (size 15 to 20)
#    0.000    2.000    0.000    1.000    9.333   10.000 
#    0.000    1.667    0.000    0.000    0.000    0.000 
#    0.000    0.000    0.000    0.000    0.000    0.000 
#
# Total GULP energy -66972.451212 kJ/mol
# GULP energy per Si atom -5581.037601 kJ/mol
# Density = 2.169760 g / cm^3
# Si number density = 21.747099 Si / 1000 Ang^3
#
#
#
# Elastic Constant Matrix: (Units=GPa)
#
#
# Indices 1 2 3 4 5 6 
#
# 1 131.1745 49.8925 54.1640 4.9091 7.9357 6.7208
# 2 49.8925 134.1514 52.7959 28.8936 10.5439 21.6286
# 3 54.1640 52.7959 120.4918 22.8197 20.0251 12.7470
# 4 4.9091 28.8936 22.8197 48.9874 11.9987 7.8903
# 5 7.9357 10.5439 20.0251 11.9987 51.4375 -10.2624
# 6 6.7208 21.6286 12.7470 7.8903 -10.2624 26.8713
#
#
#
# Elastic Compliance Matrix: (Units=1/GPa)
#
#
# Indices 1 2 3 4 5 6 
#
# 1 0.010191 -0.002951 -0.003873 0.002297 0.000219 0.001072
# 2 -0.002951 0.011423 -0.001912 -0.004039 -0.001591 -0.006971
# 3 -0.003873 -0.001912 0.012505 -0.002622 -0.004110 -0.004224
# 4 0.002297 -0.004039 -0.002622 0.026172 -0.005804 -0.005982
# 5 0.000219 -0.001591 -0.004110 -0.005804 0.025612 0.014661
# 6 0.001072 -0.006971 -0.004224 -0.005982 0.014661 0.051916
#
#
# Mechanical properties :
#
#
# Convention : Reuss Voigt Hill
#
# Bulk Modulus (GPa) = 60.07124 77.72474 68.89799
# Shear Modulus (GPa) = 31.08702 40.72359 35.90530
#
# Velocity S-wave (km/s) = 3.78495 4.33205 4.06771
# Velocity P-wave (km/s) = 6.83986 7.80000 7.33566
#
# Compressibility (1/GPa) = 0.01664690
#
# Stress axis : x y z
#
# Youngs Moduli (GPa) = 98.12801 87.54347 79.97081
#
# Poissons Ratio (x) = 0.25831 0.30972
# Poissons Ratio (y) = 0.28954 0.15291
# Poissons Ratio (z) = 0.38004 0.16739
#
# Static dielectric constant tensor:
#      x y z
#    x 1.838070 -0.002760 0.023140 
#    y -0.002760 1.846630 -0.047290 
#    z 0.023140 -0.047290 1.862850 
# 
# From -- ./inp_files/109252.got.cif
#   From: 2010.05.17/outbox.cif.g08.bks.cpg/sg2_55_cif.got.tgz:109252.got - 2010.06.03 11:33:40.
