data_PCOD9025309
_publ_section_title
;
Structure prediction by ZEFSAII (Michael W. Deem and Ramdas Pophale) SiO2 
 PCOD9025309
Probable space group: P -1
;
_chemical_formula_sum "Si O2"
_cell_formula_units_Z 16
_cell_length_a 8.328067
_cell_length_b 14.606215
_cell_length_c 12.718705
_cell_angle_alpha 61.599528
_cell_angle_beta 71.668027
_cell_angle_gamma 121.016443
_cell_volume 781.508843
_symmetry_space_group_name_H-M "P -1"
_symmetry_group_IT_number 2
_symmetry_cell_setting 'triclinic'
loop_
_space_group_symop_operation_xyz
x,y,z
-x,-y,-z
loop_
_atom_site_type_symbol
_atom_site_label
_atom_site_fract_x
_atom_site_fract_y
_atom_site_fract_z
Si Si1 0.513942 0.630151 0.440083
Si Si2 0.087356 0.021183 0.145604
Si Si3 0.827601 0.865428 0.704905
Si Si4 0.972145 0.378746 0.793398
Si Si5 0.825547 0.463239 0.960869
Si Si6 0.810310 0.159105 0.302368
Si Si7 0.416746 0.767834 0.231999
Si Si8 0.786407 0.087551 0.110371
O O1 0.500000 0.500000 0.500000
O O2 0.424268 0.658394 0.344339
O O3 0.825544 0.817999 0.297389
O O4 0.304244 0.555629 0.618897
O O5 0.164917 0.063262 0.228801
O O6 0.988945 0.087721 0.089314
O O7 0.335014 0.106966 0.972995
O O8 0.005813 0.851077 0.703508
O O9 0.497264 0.680210 0.858478
O O10 0.000000 0.000000 0.500000
O O11 0.843464 0.397134 0.892132
O O12 0.852324 0.339385 0.723042
O O13 0.899460 0.226722 0.928505
O O14 0.999829 0.653170 0.798936
O O15 0.000000 0.500000 0.000000
O O16 0.767113 0.138549 0.196572
O O17 0.500000 0.000000 0.500000
O O18 0.500648 0.894645 0.232867
#
# Coordination Sequence:
#
# PCOD9025309 Si02
#       8
#     2   2   2   2   2   2   2   2
#     4  11  24  42  64  97 133 175 218 270 335 403
#     4  10  22  43  67  92 131 171 220 274 334 404
#     4  11  25  45  68 101 131 179 232 278 338 402
#     4  12  24  41  67 100 133 167 221 279 336 394
#     4  12  25  45  69  98 139 175 226 281 342 400
#     4  11  25  44  71  98 135 179 226 279 341 402
#     4  11  22  43  66  95 131 170 220 270 334 400
#     4  10  22  40  68  91 130 174 215 265 341 397
#
# _framework density 20.473216000000001
#
# number of rings (size 3 to 8) (size 9 to 14) (size 15 to 20)
#    0.000    1.000    2.500    4.875    7.000    0.000 
#    2.250    0.000    0.000    0.000    0.000    0.000 
#    0.000    0.000    0.000    0.000    0.000    0.000 
#
# Total GULP energy -89395.507157 kJ/mol
# GULP energy per Si atom -5587.219197 kJ/mol
# Density = 2.042662 g / cm^3
# Si number density = 20.473216 Si / 1000 Ang^3
#
#
#
# Elastic Constant Matrix: (Units=GPa)
#
#
# Indices 1 2 3 4 5 6 
#
# 1 56.9799 38.2483 59.0544 -11.6335 -0.3126 12.3725
# 2 38.2483 97.2933 42.8946 -14.0552 8.1587 4.4553
# 3 59.0544 42.8946 141.5857 -25.8787 -12.4778 0.3676
# 4 -11.6335 -14.0552 -25.8787 31.1599 2.3802 3.2526
# 5 -0.3126 8.1587 -12.4778 2.3802 50.3759 -1.4617
# 6 12.3725 4.4553 0.3676 3.2526 -1.4617 33.9289
#
#
#
# Elastic Compliance Matrix: (Units=1/GPa)
#
#
# Indices 1 2 3 4 5 6 
#
# 1 0.042438 -0.009091 -0.014937 0.001019 -0.002428 -0.014322
# 2 -0.009091 0.014600 -0.000310 0.003029 -0.002612 0.000999
# 3 -0.014937 -0.000310 0.014729 0.005736 0.003478 0.004928
# 4 0.001019 0.003029 0.005736 0.039166 -0.001048 -0.004631
# 5 -0.002428 -0.002612 0.003478 -0.001048 0.021234 0.002206
# 6 -0.014322 0.000999 0.004928 -0.004631 0.002206 0.035051
#
#
# Mechanical properties :
#
#
# Convention : Reuss Voigt Hill
#
# Bulk Modulus (GPa) = 43.30962 64.02818 53.66890
# Shear Modulus (GPa) = 22.36224 33.47037 27.91631
#
# Velocity S-wave (km/s) = 3.30853 4.04770 3.69664
# Velocity P-wave (km/s) = 5.98293 7.29295 6.67018
#
# Compressibility (1/GPa) = 0.02308956
#
# Stress axis : x y z
#
# Youngs Moduli (GPa) = 23.56383 68.49330 67.89313
#
# Poissons Ratio (x) = 0.62271 1.01411
# Poissons Ratio (y) = 0.21423 0.02107
# Poissons Ratio (z) = 0.35197 0.02126
#
# Static dielectric constant tensor:
#      x y z
#    x 1.762880 -0.019710 0.041190 
#    y -0.019710 1.742340 -0.014940 
#    z 0.041190 -0.014940 1.754060 
# 
# From -- ./inp_files/274344.got.cif
#   From: 2010.05.17/outbox.cif.g08.bks.cpg/sg2_138_cif.got.tgz:274344.got - 2010.06.03 11:33:40.
