data_PCOD9025618
_publ_section_title
;
Structure prediction by ZEFSAII (Michael W. Deem and Ramdas Pophale) SiO2 
 PCOD9025618
Probable space group: P -1
;
_chemical_formula_sum "Si O2"
_cell_formula_units_Z 15
_cell_length_a 8.371341
_cell_length_b 8.852769
_cell_length_c 13.696451
_cell_angle_alpha 60.124961
_cell_angle_beta 101.931463
_cell_angle_gamma 58.732207
_cell_volume 585.600226
_symmetry_space_group_name_H-M "P -1"
_symmetry_group_IT_number 2
_symmetry_cell_setting 'triclinic'
loop_
_space_group_symop_operation_xyz
x,y,z
-x,-y,-z
loop_
_atom_site_type_symbol
_atom_site_label
_atom_site_fract_x
_atom_site_fract_y
_atom_site_fract_z
Si Si1 0.200780 0.446719 0.979399
Si Si2 0.264833 0.805229 0.368923
Si Si3 0.456818 0.345644 0.232086
Si Si4 0.773765 0.637433 0.277564
Si Si5 0.500000 0.000000 0.000000
Si Si6 0.902406 0.342886 0.740911
Si Si7 0.389144 0.167909 0.595854
Si Si8 0.078270 0.783790 0.674043
O O1 0.377680 0.183920 0.026538
O O2 0.094140 0.656781 0.815849
O O3 0.352223 0.433432 0.082228
O O4 0.000000 0.500000 0.000000
O O5 0.500000 0.500000 0.500000
O O6 0.090348 0.838456 0.262739
O O7 0.376492 0.902537 0.324247
O O8 0.147600 0.918634 0.423837
O O9 0.248831 0.560451 0.212276
O O10 0.691381 0.278233 0.289573
O O11 0.529995 0.085921 0.343904
O O12 0.757313 0.713455 0.360007
O O13 0.940805 0.341811 0.374447
O O14 0.840580 0.759715 0.180122
O O15 0.536973 0.782811 0.139542
O O16 0.758851 0.602264 0.575605
#
# Coordination Sequence:
#
# PCOD9025618 Si02
#       8
#     2   2   2   2   1   2   2   2
#     4  11  23  44  72 105 138 188 233 289 358 418
#     4  10  23  44  65  97 136 176 234 288 341 413
#     4  12  23  43  67 100 144 180 231 286 345 423
#     4  11  22  42  68  99 136 180 231 285 358 404
#     4  10  22  40  70 102 138 172 232 284 348 420
#     4  11  24  42  66 102 134 183 238 284 349 418
#     4  11  22  42  69  96 137 182 230 286 345 413
#     4  11  25  42  68 101 141 183 231 286 351 417
#
# _framework density 25.614744999999999
#
# number of rings (size 3 to 8) (size 9 to 14) (size 15 to 20)
#    0.000    1.067    1.333    6.000    0.000    2.133 
#    0.000    6.667    0.000    0.000    0.000    0.000 
#    0.000    0.000    0.000    0.000    0.000    0.000 
#
# Total GULP energy -83770.278001 kJ/mol
# GULP energy per Si atom -5584.685200 kJ/mol
# Density = 2.555645 g / cm^3
# Si number density = 25.614745 Si / 1000 Ang^3
#
#
#
# Elastic Constant Matrix: (Units=GPa)
#
#
# Indices 1 2 3 4 5 6 
#
# 1 147.5357 38.8183 -18.2035 -6.2830 4.5763 3.4971
# 2 38.8183 165.0341 -2.0865 -6.1507 9.6912 -16.0732
# 3 -18.2035 -2.0865 71.9371 1.9507 -18.0649 -7.6229
# 4 -6.2830 -6.1507 1.9507 39.4325 -0.5235 -2.7884
# 5 4.5763 9.6912 -18.0649 -0.5235 28.8798 2.5680
# 6 3.4971 -16.0732 -7.6229 -2.7884 2.5680 50.2837
#
#
#
# Elastic Compliance Matrix: (Units=1/GPa)
#
#
# Indices 1 2 3 4 5 6 
#
# 1 0.007529 -0.001839 0.001924 0.000770 0.000714 -0.000814
# 2 -0.001839 0.006911 -0.000704 0.000955 -0.002666 0.002419
# 3 0.001924 -0.000704 0.017203 -0.000395 0.010535 0.001689
# 4 0.000770 0.000955 -0.000395 0.025762 -0.000368 0.001639
# 5 0.000714 -0.002666 0.010535 -0.000368 0.042122 -0.001476
# 6 -0.000814 0.002419 0.001689 0.001639 -0.001476 0.021139
#
#
# Mechanical properties :
#
#
# Convention : Reuss Voigt Hill
#
# Bulk Modulus (GPa) = 32.88948 46.84039 39.86494
# Shear Modulus (GPa) = 37.86765 48.11779 42.99272
#
# Velocity S-wave (km/s) = 3.84911 4.33889 4.10132
# Velocity P-wave (km/s) = 5.71158 6.58995 6.16643
#
# Compressibility (1/GPa) = 0.03040485
#
# Stress axis : x y z
#
# Youngs Moduli (GPa) = 132.81559 144.70062 58.13058
#
# Poissons Ratio (x) = 0.26612 -0.11185
# Poissons Ratio (y) = 0.24427 0.04092
# Poissons Ratio (z) = -0.25555 0.10185
#
# Static dielectric constant tensor:
#      x y z
#    x 1.655110 -0.002160 -0.546580 
#    y -0.002160 2.065050 -0.063800 
#    z -0.546580 -0.063800 1.382960 
# 
# From -- ./inp_files/180686.got.cif
#   From: 2010.05.17/outbox.cif.g08.bks.cpg/sg2_91_cif.got.tgz:180686.got - 2010.06.03 11:33:40.
