data_PCOD9025231
_publ_section_title
;
Structure prediction by ZEFSAII (Michael W. Deem and Ramdas Pophale) SiO2 
 PCOD9025231
Probable space group: P -1
;
_chemical_formula_sum "Si O2"
_cell_formula_units_Z 14
_cell_length_a 10.273974
_cell_length_b 8.502078
_cell_length_c 10.676453
_cell_angle_alpha 108.958472
_cell_angle_beta 114.057318
_cell_angle_gamma 39.180674
_cell_volume 537.938935
_symmetry_space_group_name_H-M "P -1"
_symmetry_group_IT_number 2
_symmetry_cell_setting 'triclinic'
loop_
_space_group_symop_operation_xyz
x,y,z
-x,-y,-z
loop_
_atom_site_type_symbol
_atom_site_label
_atom_site_fract_x
_atom_site_fract_y
_atom_site_fract_z
Si Si1 0.817069 0.412542 0.914232
Si Si2 0.620495 0.058256 0.113008
Si Si3 0.749915 0.230943 0.041191
Si Si4 0.656409 0.212793 0.447785
Si Si5 0.327218 0.273980 0.448350
Si Si6 0.101804 0.765942 0.639811
Si Si7 0.966042 0.565559 0.205682
O O1 0.565806 0.653313 0.854721
O O2 0.915066 0.398395 0.822446
O O3 0.840491 0.212033 0.936071
O O4 0.894889 0.476364 0.067018
O O5 0.745170 0.044329 0.043615
O O6 0.758456 0.857105 0.227195
O O7 0.500000 0.000000 0.000000
O O8 0.846887 0.254054 0.199616
O O9 0.500000 0.500000 0.000000
O O10 0.500000 0.500000 0.500000
O O11 0.475543 0.230732 0.391408
O O12 0.786993 0.172758 0.370435
O O13 0.851326 0.996034 0.564189
O O14 0.222643 0.499469 0.561190
O O15 0.119598 0.376898 0.326903
O O16 0.500000 0.000000 0.500000
#
# Coordination Sequence:
#
# PCOD9025231 Si02
#       7
#     2   2   2   2   2   2   2
#     4   9  21  43  62  96 134 172 225 278 338 404
#     4   9  20  40  66  96 128 169 220 272 344 409
#     4  10  22  40  68 100 132 173 225 276 342 413
#     4   9  22  43  68  95 130 175 231 277 335 411
#     4  11  26  44  65 102 135 181 236 278 336 405
#     4  10  23  45  69  96 135 181 223 284 345 396
#     4  10  22  41  66  92 134 182 219 282 341 392
#
# _framework density 26.025258000000001
#
# number of rings (size 3 to 8) (size 9 to 14) (size 15 to 20)
#    0.000    2.286    0.000    0.000   12.000    1.143 
#   18.000    0.000    0.000    0.000    0.000    0.000 
#    0.000    0.000    0.000    0.000    0.000    0.000 
#
# Total GULP energy -78146.877379 kJ/mol
# GULP energy per Si atom -5581.919813 kJ/mol
# Density = 2.596602 g / cm^3
# Si number density = 26.025258 Si / 1000 Ang^3
#
#
#
# Elastic Constant Matrix: (Units=GPa)
#
#
# Indices 1 2 3 4 5 6 
#
# 1 113.7906 7.5437 15.6297 1.6881 -4.5926 0.3974
# 2 7.5437 176.4570 68.6578 -39.9034 -6.6119 2.5315
# 3 15.6297 68.6578 158.0991 -38.7024 5.2873 -6.5712
# 4 1.6881 -39.9034 -38.7024 52.1812 -1.1294 -13.8691
# 5 -4.5926 -6.6119 5.2873 -1.1294 40.5270 -4.0989
# 6 0.3974 2.5315 -6.5712 -13.8691 -4.0989 40.3045
#
#
#
# Elastic Compliance Matrix: (Units=1/GPa)
#
#
# Indices 1 2 3 4 5 6 
#
# 1 0.009040 -0.000199 -0.001246 -0.001533 0.001041 -0.000702
# 2 -0.000199 0.007592 -0.002212 0.004439 0.001716 0.000866
# 3 -0.001246 -0.002212 0.009064 0.005997 -0.001156 0.003575
# 4 -0.001533 0.004439 0.005997 0.030082 0.001744 0.011243
# 5 0.001041 0.001716 -0.001156 0.001744 0.025565 0.002893
# 6 -0.000702 0.000866 0.003575 0.011243 0.002893 0.029509
#
#
# Mechanical properties :
#
#
# Convention : Reuss Voigt Hill
#
# Bulk Modulus (GPa) = 54.40494 70.22323 62.31409
# Shear Modulus (GPa) = 40.22721 50.37025 45.29873
#
# Velocity S-wave (km/s) = 3.93580 4.40413 4.17654
# Velocity P-wave (km/s) = 6.45012 7.27346 6.87413
#
# Compressibility (1/GPa) = 0.01838069
#
# Stress axis : x y z
#
# Youngs Moduli (GPa) = 110.62336 131.71847 110.32343
#
# Poissons Ratio (x) = 0.02622 0.13752
# Poissons Ratio (y) = 0.02202 0.24404
# Poissons Ratio (z) = 0.13789 0.29137
#
# Static dielectric constant tensor:
#      x y z
#    x 2.158290 0.028500 -0.095880 
#    y 0.028500 2.198470 -0.093030 
#    z -0.095880 -0.093030 2.242460 
# 
# From -- ./inp_files/512184.got.cif
#   From: 2010.05.17/outbox.cif.g08.bks.cpg/sg2_257_cif.got.tgz:512184.got - 2010.06.03 11:33:40.
