data_PCOD9025214
_publ_section_title
;
Structure prediction by ZEFSAII (Michael W. Deem and Ramdas Pophale) SiO2 
 PCOD9025214
Probable space group: P -1
;
_chemical_formula_sum "Si O2"
_cell_formula_units_Z 16
_cell_length_a 16.073741
_cell_length_b 9.349807
_cell_length_c 16.398014
_cell_angle_alpha 76.791168
_cell_angle_beta 34.382261
_cell_angle_gamma 49.319794
_cell_volume 729.566790
_symmetry_space_group_name_H-M "P -1"
_symmetry_group_IT_number 2
_symmetry_cell_setting 'triclinic'
loop_
_space_group_symop_operation_xyz
x,y,z
-x,-y,-z
loop_
_atom_site_type_symbol
_atom_site_label
_atom_site_fract_x
_atom_site_fract_y
_atom_site_fract_z
Si Si1 0.497511 0.056112 0.700556
Si Si2 0.983365 0.357266 0.775968
Si Si3 0.320970 0.043827 0.694619
Si Si4 0.715410 0.206477 0.156383
Si Si5 0.983213 0.187938 0.502917
Si Si6 0.530060 0.673908 0.199275
Si Si7 0.771334 0.846681 0.841552
Si Si8 0.558921 0.188363 0.123987
O O1 0.549873 0.873674 0.741161
O O2 0.778955 0.870417 0.451984
O O3 0.295024 0.160818 0.781884
O O4 0.354284 0.308018 0.831012
O O5 0.938938 0.569593 0.780395
O O6 0.084780 0.208339 0.799928
O O7 0.673958 0.555688 0.008451
O O8 0.500000 0.000000 0.500000
O O9 0.430974 0.795785 0.670505
O O10 0.543504 0.499157 0.245742
O O11 0.741428 0.113073 0.056813
O O12 0.000000 0.000000 0.000000
O O13 0.055870 0.217612 0.359200
O O14 0.695712 0.489711 0.727237
O O15 0.233602 0.996408 0.386587
O O16 0.000000 0.000000 0.500000
O O17 0.500000 0.000000 0.000000
O O18 0.697863 0.022332 0.949471
#
# Coordination Sequence:
#
# PCOD9025214 Si02
#       8
#     2   2   2   2   2   2   2   2
#     4  10  22  40  67  99 128 171 226 272 327 396
#     4  11  21  40  65  97 131 164 225 273 324 386
#     4   9  21  40  66  93 131 173 216 277 324 391
#     4  11  23  44  69  97 138 172 217 280 335 392
#     4  12  26  44  64  96 141 172 217 274 330 397
#     4  12  24  41  67  99 129 179 217 271 340 386
#     4  12  25  42  69 100 129 174 228 273 320 396
#     4  11  24  44  69  97 132 181 221 267 336 394
#
# _framework density 21.930824000000001
#
# number of rings (size 3 to 8) (size 9 to 14) (size 15 to 20)
#    0.000    1.000    6.250    0.000    1.750    3.000 
#    2.250    2.500    0.000    0.000    0.000    0.000 
#    0.000    0.000    0.000    0.000    0.000    0.000 
#
# Total GULP energy -89177.307465 kJ/mol
# GULP energy per Si atom -5573.581717 kJ/mol
# Density = 2.188091 g / cm^3
# Si number density = 21.930824 Si / 1000 Ang^3
#
#
#
# Elastic Constant Matrix: (Units=GPa)
#
#
# Indices 1 2 3 4 5 6 
#
# 1 77.7965 24.4867 8.4664 5.0698 11.2311 1.3099
# 2 24.4867 151.8150 21.3379 -12.3318 18.9714 5.0829
# 3 8.4664 21.3379 66.4058 7.9085 12.7720 0.8040
# 4 5.0698 -12.3318 7.9085 23.7342 7.1817 -6.2864
# 5 11.2311 18.9714 12.7720 7.1817 29.4689 3.7398
# 6 1.3099 5.0829 0.8040 -6.2864 3.7398 32.2903
#
#
#
# Elastic Compliance Matrix: (Units=1/GPa)
#
#
# Indices 1 2 3 4 5 6 
#
# 1 0.014214 -0.002136 -0.000127 -0.003297 -0.003118 -0.000518
# 2 -0.002136 0.008553 -0.002305 0.007634 -0.005673 0.000941
# 3 -0.000127 -0.002305 0.017379 -0.005774 -0.004507 -0.000667
# 4 -0.003297 0.007634 -0.005774 0.056940 -0.016565 0.012080
# 5 -0.003118 -0.005673 -0.004507 -0.016565 0.045702 -0.007386
# 6 -0.000518 0.000941 -0.000667 0.012080 -0.007386 0.034066
#
#
# Mechanical properties :
#
#
# Convention : Reuss Voigt Hill
#
# Bulk Modulus (GPa) = 32.24914 44.95547 38.60231
# Shear Modulus (GPa) = 25.46774 33.21375 29.34075
#
# Velocity S-wave (km/s) = 3.41145 3.89585 3.66167
# Velocity P-wave (km/s) = 5.50038 6.38593 5.95963
#
# Compressibility (1/GPa) = 0.03100858
#
# Stress axis : x y z
#
# Youngs Moduli (GPa) = 70.35426 116.91822 57.54187
#
# Poissons Ratio (x) = 0.24968 0.00733
# Poissons Ratio (y) = 0.15024 0.13266
# Poissons Ratio (z) = 0.00896 0.26955
#
# Static dielectric constant tensor:
#      x y z
#    x 2.021430 -0.059860 -0.185760 
#    y -0.059860 1.780270 0.022220 
#    z -0.185760 0.022220 1.944800 
# 
# From -- ./inp_files/349530.got.cif
#   From: 2010.05.17/outbox.cif.g08.bks.cpg/sg2_175_cif.got.tgz:349530.got - 2010.06.03 11:33:40.
