data_PCOD9025464
_publ_section_title
;
Structure prediction by ZEFSAII (Michael W. Deem and Ramdas Pophale) SiO2 
 PCOD9025464
Probable space group: P -1
;
_chemical_formula_sum "Si O2"
_cell_formula_units_Z 14
_cell_length_a 16.956526
_cell_length_b 8.764840
_cell_length_c 6.821470
_cell_angle_alpha 52.207094
_cell_angle_beta 95.236287
_cell_angle_gamma 58.012745
_cell_volume 532.874377
_symmetry_space_group_name_H-M "P -1"
_symmetry_group_IT_number 2
_symmetry_cell_setting 'triclinic'
loop_
_space_group_symop_operation_xyz
x,y,z
-x,-y,-z
loop_
_atom_site_type_symbol
_atom_site_label
_atom_site_fract_x
_atom_site_fract_y
_atom_site_fract_z
Si Si1 0.516112 0.429234 0.793926
Si Si2 0.918912 0.988272 0.599000
Si Si3 0.252566 0.977290 0.339223
Si Si4 0.290407 0.662230 0.197125
Si Si5 0.242174 0.372522 0.802761
Si Si6 0.495230 0.990715 0.742372
Si Si7 0.896467 0.304141 0.849836
O O1 0.500000 0.500000 0.500000
O O2 0.392650 0.732671 0.614931
O O3 0.637892 0.323449 0.938008
O O4 0.522022 0.197419 0.043928
O O5 0.833484 0.960723 0.568718
O O6 0.820224 0.315012 0.403953
O O7 0.000000 0.000000 0.500000
O O8 0.022561 0.714672 0.978508
O O9 0.251801 0.848871 0.236718
O O10 0.210280 0.262116 0.033153
O O11 0.182444 0.724881 0.048119
O O12 0.389895 0.319367 0.531019
O O13 0.188489 0.429564 0.529983
O O14 0.381468 0.151283 0.035425
O O15 0.500000 0.000000 0.500000
O O16 0.000000 0.000000 0.000000
#
# Coordination Sequence:
#
# PCOD9025464 Si02
#       7
#     2   2   2   2   2   2   2
#     4  10  22  40  69 103 133 179 231 289 347 416
#     4  11  25  47  69  97 148 187 229 288 355 409
#     4  11  22  41  73 102 135 179 238 294 336 417
#     4  11  23  41  70 105 137 177 243 280 355 415
#     4  11  23  45  71 100 136 180 241 284 347 421
#     4  12  27  44  69 106 150 186 225 299 368 415
#     4  10  22  44  68  98 135 185 234 286 330 418
#
# _framework density 26.272611000000001
#
# number of rings (size 3 to 8) (size 9 to 14) (size 15 to 20)
#    0.000    1.143    5.714    0.857    6.000    4.571 
#    2.571    0.000    0.000    0.000    0.000    0.000 
#    0.000    0.000    0.000    0.000    0.000    0.000 
#
# Total GULP energy -78204.285298 kJ/mol
# GULP energy per Si atom -5586.020378 kJ/mol
# Density = 2.621281 g / cm^3
# Si number density = 26.272611 Si / 1000 Ang^3
#
#
#
# Elastic Constant Matrix: (Units=GPa)
#
#
# Indices 1 2 3 4 5 6 
#
# 1 195.1395 16.8396 81.3060 6.8803 -1.1154 -56.0058
# 2 16.8396 51.5024 28.9293 11.9034 2.6952 -14.3635
# 3 81.3060 28.9293 137.0607 -0.5133 -4.5494 -9.1519
# 4 6.8803 11.9034 -0.5133 35.7730 -10.6823 -10.8434
# 5 -1.1154 2.6952 -4.5494 -10.6823 81.1715 -0.0514
# 6 -56.0058 -14.3635 -9.1519 -10.8434 -0.0514 53.3119
#
#
#
# Elastic Compliance Matrix: (Units=1/GPa)
#
#
# Indices 1 2 3 4 5 6 
#
# 1 0.010552 0.003053 -0.006188 0.000072 -0.000287 0.010860
# 2 0.003053 0.026368 -0.006979 -0.007857 -0.002254 0.007513
# 3 -0.006188 -0.006979 0.012095 0.002247 0.001117 -0.005847
# 4 0.000072 -0.007857 0.002247 0.033595 0.004812 0.005182
# 5 -0.000287 -0.002254 0.001117 0.004812 0.013087 0.000275
# 6 0.010860 0.007513 -0.005847 0.005182 0.000275 0.032241
#
#
# Mechanical properties :
#
#
# Convention : Reuss Voigt Hill
#
# Bulk Modulus (GPa) = 34.73883 70.87249 52.80566
# Shear Modulus (GPa) = 31.69363 51.15979 41.42671
#
# Velocity S-wave (km/s) = 3.47700 4.41757 3.97520
# Velocity P-wave (km/s) = 5.41946 7.28384 6.41969
#
# Compressibility (1/GPa) = 0.02878623
#
# Stress axis : x y z
#
# Youngs Moduli (GPa) = 94.76877 37.92530 82.67900
#
# Poissons Ratio (x) = -0.11578 0.51162
# Poissons Ratio (y) = -0.28931 0.57701
# Poissons Ratio (z) = 0.58643 0.26468
#
# Static dielectric constant tensor:
#      x y z
#    x 2.169340 -0.001350 0.043900 
#    y -0.001350 2.209880 0.145530 
#    z 0.043900 0.145530 2.069090 
# 
# From -- ./inp_files/331548.got.cif
#   From: 2010.05.17/outbox.cif.g08.bks.cpg/sg2_166_cif.got.tgz:331548.got - 2010.06.03 11:33:40.
