data_PCOD9025204
_publ_section_title
;
Structure prediction by ZEFSAII (Michael W. Deem and Ramdas Pophale) SiO2 
 PCOD9025204
Probable space group: P -1
;
_chemical_formula_sum "Si O2"
_cell_formula_units_Z 12
_cell_length_a 8.722921
_cell_length_b 14.879857
_cell_length_c 10.205245
_cell_angle_alpha 154.827192
_cell_angle_beta 60.599952
_cell_angle_gamma 120.941710
_cell_volume 482.049700
_symmetry_space_group_name_H-M "P -1"
_symmetry_group_IT_number 2
_symmetry_cell_setting 'triclinic'
loop_
_space_group_symop_operation_xyz
x,y,z
-x,-y,-z
loop_
_atom_site_type_symbol
_atom_site_label
_atom_site_fract_x
_atom_site_fract_y
_atom_site_fract_z
Si Si1 0.708839 0.204650 0.075632
Si Si2 0.701985 0.617403 0.734801
Si Si3 0.755608 0.829640 0.259263
Si Si4 0.078384 0.801804 0.761685
Si Si5 0.564771 0.057060 0.315420
Si Si6 0.043623 0.717241 0.183251
O O1 0.608005 0.388189 0.418612
O O2 0.842706 0.159904 0.074711
O O3 0.814556 0.275435 0.987745
O O4 0.567325 0.991808 0.817375
O O5 0.901039 0.623305 0.599846
O O6 0.741404 0.656797 0.922920
O O7 0.613608 0.821497 0.007913
O O8 0.555487 0.859232 0.415605
O O9 0.862827 0.760390 0.246530
O O10 0.866936 0.068057 0.489643
O O11 0.249461 0.786108 0.582158
O O12 0.000000 0.000000 0.000000
O O13 0.000000 0.500000 0.000000
#
# Coordination Sequence:
#
# PCOD9025204 Si02
#       6
#     2   2   2   2   2   2
#     4  11  22  44  67 100 137 170 234 282 325 408
#     4  11  22  42  69  96 136 177 221 281 334 395
#     4  10  22  45  66  98 141 175 225 284 334 404
#     4  10  22  40  67  98 133 182 224 274 342 404
#     4  10  23  42  66  98 137 179 217 278 345 397
#     4  10  23  43  71  98 136 183 226 275 345 403
#
# _framework density 24.893699999999999
#
# number of rings (size 3 to 8) (size 9 to 14) (size 15 to 20)
#    0.000    1.667    1.667    2.000    0.000    4.000 
#    9.000    0.833    0.000    0.000    0.000    1.167 
#    0.000    0.000    0.000    0.000    0.000    0.000 
#
# Total GULP energy -67085.468737 kJ/mol
# GULP energy per Si atom -5590.455728 kJ/mol
# Density = 2.483704 g / cm^3
# Si number density = 24.893700 Si / 1000 Ang^3
#
#
#
# Elastic Constant Matrix: (Units=GPa)
#
#
# Indices 1 2 3 4 5 6 
#
# 1 93.4892 44.4955 9.6068 -0.1840 -24.6903 6.8148
# 2 44.4955 126.0539 34.9632 14.1996 -22.0585 -6.2499
# 3 9.6068 34.9632 119.1862 3.5982 -14.4028 8.7120
# 4 -0.1840 14.1996 3.5982 27.5887 -3.7301 -15.2839
# 5 -24.6903 -22.0585 -14.4028 -3.7301 34.1281 -9.9337
# 6 6.8148 -6.2499 8.7120 -15.2839 -9.9337 47.4622
#
#
#
# Elastic Compliance Matrix: (Units=1/GPa)
#
#
# Indices 1 2 3 4 5 6 
#
# 1 0.015043 -0.004443 0.001053 0.003460 0.008841 0.000026
# 2 -0.004443 0.011323 -0.002608 -0.003996 0.003143 0.001978
# 3 0.001053 -0.002608 0.009529 -0.000629 0.002467 -0.001930
# 4 0.003460 -0.003996 -0.000629 0.049189 0.009985 0.017022
# 5 0.008841 0.003143 0.002467 0.009985 0.043038 0.010915
# 6 0.000026 0.001978 -0.001930 0.017022 0.010915 0.029446
#
#
# Mechanical properties :
#
#
# Convention : Reuss Voigt Hill
#
# Bulk Modulus (GPa) = 41.84393 57.42894 49.63643
# Shear Modulus (GPa) = 28.16422 38.48006 33.32214
#
# Velocity S-wave (km/s) = 3.36725 3.93590 3.66263
# Velocity P-wave (km/s) = 5.65361 6.61625 6.15379
#
# Compressibility (1/GPa) = 0.02389833
#
# Stress axis : x y z
#
# Youngs Moduli (GPa) = 66.47710 88.31552 104.94830
#
# Poissons Ratio (x) = 0.39241 -0.11050
# Poissons Ratio (y) = 0.29538 0.27367
# Poissons Ratio (z) = -0.07000 0.23030
#
# Static dielectric constant tensor:
#      x y z
#    x 2.015890 0.032190 0.007900 
#    y 0.032190 2.066080 -0.005260 
#    z 0.007900 -0.005260 1.920040 
# 
# From -- ./inp_files/204909.got.cif
#   From: 2010.05.17/outbox.cif.g08.bks.cpg/sg2_103_cif.got.tgz:204909.got - 2010.06.03 11:33:40.
