data_PCOD9025571
_publ_section_title
;
Structure prediction by ZEFSAII (Michael W. Deem and Ramdas Pophale) SiO2 
 PCOD9025571
Probable space group: P -1
;
_chemical_formula_sum "Si O2"
_cell_formula_units_Z 14
_cell_length_a 12.900074
_cell_length_b 13.546580
_cell_length_c 8.834596
_cell_angle_alpha 135.036856
_cell_angle_beta 124.582693
_cell_angle_gamma 35.155438
_cell_volume 627.953041
_symmetry_space_group_name_H-M "P -1"
_symmetry_group_IT_number 2
_symmetry_cell_setting 'triclinic'
loop_
_space_group_symop_operation_xyz
x,y,z
-x,-y,-z
loop_
_atom_site_type_symbol
_atom_site_label
_atom_site_fract_x
_atom_site_fract_y
_atom_site_fract_z
Si Si1 0.620325 0.438111 0.674327
Si Si2 0.031618 0.487125 0.833039
Si Si3 0.525883 0.612131 0.252307
Si Si4 0.938343 0.284729 0.350961
Si Si5 0.910081 0.113206 0.393555
Si Si6 0.810644 0.904236 0.938333
Si Si7 0.552786 0.768903 0.162037
O O1 0.500000 0.500000 0.500000
O O2 0.613057 0.309491 0.640841
O O3 0.798718 0.329187 0.610146
O O4 0.562507 0.613665 0.914520
O O5 0.245062 0.333989 0.803121
O O6 0.969702 0.402035 0.594341
O O7 0.907633 0.713616 0.917390
O O8 0.000000 0.500000 0.000000
O O9 0.726946 0.441922 0.303601
O O10 0.511461 0.760263 0.293973
O O11 0.500000 0.500000 0.000000
O O12 0.000820 0.106894 0.315841
O O13 0.054481 0.188520 0.191678
O O14 0.000000 0.000000 0.500000
O O15 0.807613 0.056276 0.186558
O O16 0.614622 0.022239 0.833021
#
# Coordination Sequence:
#
# PCOD9025571 Si02
#       7
#     2   2   2   2   2   2   2
#     4  11  20  40  65  99 139 177 226 288 351 391
#     4  12  28  50  72 100 144 188 230 289 355 417
#     4  10  22  40  69  98 136 184 224 283 351 406
#     4  12  25  47  70 101 146 188 228 288 352 418
#     4  12  25  40  70 107 140 178 236 297 342 407
#     4  12  26  46  73 103 140 184 240 286 344 422
#     4  11  24  45  69 100 140 185 233 284 345 420
#
# _framework density 22.294661000000001
#
# number of rings (size 3 to 8) (size 9 to 14) (size 15 to 20)
#    0.000    0.571    4.286    4.286    4.000    1.143 
#    0.000    0.000    0.000    0.000    0.000    0.000 
#    0.000    0.000    0.000    0.000    0.000    0.000 
#
# Total GULP energy -78075.308418 kJ/mol
# GULP energy per Si atom -5576.807744 kJ/mol
# Density = 2.224392 g / cm^3
# Si number density = 22.294661 Si / 1000 Ang^3
#
#
#
# Elastic Constant Matrix: (Units=GPa)
#
#
# Indices 1 2 3 4 5 6 
#
# 1 126.6164 64.6651 39.3742 -19.3115 -10.5903 15.6178
# 2 64.6651 123.8493 31.4283 -20.7572 4.6429 20.4803
# 3 39.3742 31.4283 103.3582 -22.5109 -0.5022 3.1694
# 4 -19.3115 -20.7572 -22.5109 35.3916 -1.7792 -6.7502
# 5 -10.5903 4.6429 -0.5022 -1.7792 40.8409 -13.2592
# 6 15.6178 20.4803 3.1694 -6.7502 -13.2592 36.9472
#
#
#
# Elastic Compliance Matrix: (Units=1/GPa)
#
#
# Indices 1 2 3 4 5 6 
#
# 1 0.012102 -0.005471 -0.002495 0.001967 0.003763 -0.000159
# 2 -0.005471 0.012775 -0.001111 0.002436 -0.004699 -0.005915
# 3 -0.002495 -0.001111 0.012252 0.006175 0.000528 0.001938
# 4 0.001967 0.002436 0.006175 0.035835 0.003526 0.005101
# 5 0.003763 -0.004699 0.000528 0.003526 0.030197 0.012450
# 6 -0.000159 -0.005915 0.001938 0.005101 0.012450 0.035645
#
#
# Mechanical properties :
#
#
# Convention : Reuss Voigt Hill
#
# Bulk Modulus (GPa) = 52.70264 69.41768 61.06016
# Shear Modulus (GPa) = 30.62092 37.19301 33.90696
#
# Velocity S-wave (km/s) = 3.71005 4.08885 3.90405
# Velocity P-wave (km/s) = 6.48406 7.31407 6.91154
#
# Compressibility (1/GPa) = 0.01897438
#
# Stress axis : x y z
#
# Youngs Moduli (GPa) = 82.62911 78.27532 81.62101
#
# Poissons Ratio (x) = 0.42823 0.20367
# Poissons Ratio (y) = 0.45205 0.09071
# Poissons Ratio (z) = 0.20619 0.08699
#
# Static dielectric constant tensor:
#      x y z
#    x 1.857700 0.007420 0.008510 
#    y 0.007420 1.882260 0.026050 
#    z 0.008510 0.026050 1.785040 
# 
# From -- ./inp_files/263534.got.cif
#   From: 2010.05.17/outbox.cif.g08.bks.cpg/sg2_132_cif.got.tgz:263534.got - 2010.06.03 11:33:40.
