data_PCOD9025543
_publ_section_title
;
Structure prediction by ZEFSAII (Michael W. Deem and Ramdas Pophale) SiO2 
 PCOD9025543
Probable space group: P -1
;
_chemical_formula_sum "Si O2"
_cell_formula_units_Z 16
_cell_length_a 15.191424
_cell_length_b 12.175483
_cell_length_c 8.695170
_cell_angle_alpha 107.085504
_cell_angle_beta 130.740145
_cell_angle_gamma 112.312572
_cell_volume 715.683351
_symmetry_space_group_name_H-M "P -1"
_symmetry_group_IT_number 2
_symmetry_cell_setting 'triclinic'
loop_
_space_group_symop_operation_xyz
x,y,z
-x,-y,-z
loop_
_atom_site_type_symbol
_atom_site_label
_atom_site_fract_x
_atom_site_fract_y
_atom_site_fract_z
Si Si1 0.426167 0.652829 0.075829
Si Si2 0.153385 0.240290 0.632537
Si Si3 0.221212 0.199179 0.361085
Si Si4 0.040149 0.487154 0.210982
Si Si5 0.253604 0.094070 0.877213
Si Si6 0.641794 0.454542 0.405717
Si Si7 0.697730 0.108982 0.204056
Si Si8 0.324621 0.829871 0.125986
O O1 0.624113 0.781384 0.441928
O O2 0.362767 0.733725 0.058378
O O3 0.263680 0.443493 0.876027
O O4 0.431750 0.624543 0.887794
O O5 0.227824 0.256488 0.562130
O O6 0.205512 0.180095 0.784722
O O7 0.927258 0.072121 0.292016
O O8 0.301141 0.369147 0.424294
O O9 0.000000 0.000000 0.000000
O O10 0.176550 0.484131 0.351705
O O11 0.147588 0.676439 0.491316
O O12 0.000000 0.500000 0.000000
O O13 0.860177 0.315878 0.038556
O O14 0.254384 0.981884 0.721655
O O15 0.471918 0.278714 0.248863
O O16 0.686790 0.094729 0.001392
O O17 0.500000 0.000000 0.000000
O O18 0.500000 0.000000 0.500000
#
# Coordination Sequence:
#
# PCOD9025543 Si02
#       8
#     2   2   2   2   2   2   2   2
#     4  11  21  46  69  95 134 179 230 275 344 413
#     4  10  22  40  69  96 128 174 229 276 336 413
#     4  11  24  40  66 100 131 177 222 286 340 399
#     4  12  27  46  67 102 138 182 236 289 347 406
#     4  11  21  39  69  97 128 173 231 274 338 410
#     4  11  22  44  71  92 136 179 228 281 342 416
#     4  12  24  43  70  99 138 186 226 281 348 411
#     4  12  28  44  70 102 138 185 234 286 343 415
#
# _framework density 22.356256999999999
#
# number of rings (size 3 to 8) (size 9 to 14) (size 15 to 20)
#    0.000    0.750    5.000    2.625    5.250    1.000 
#    0.000    0.625    0.000    0.000    0.000    0.000 
#    0.000    0.000    0.000    0.000    0.000    0.000 
#
# Total GULP energy -89384.784275 kJ/mol
# GULP energy per Si atom -5586.549017 kJ/mol
# Density = 2.230537 g / cm^3
# Si number density = 22.356257 Si / 1000 Ang^3
#
#
#
# Elastic Constant Matrix: (Units=GPa)
#
#
# Indices 1 2 3 4 5 6 
#
# 1 59.9957 20.8632 16.2811 -1.1062 33.4072 1.5768
# 2 20.8632 89.3346 39.1938 9.2711 15.9289 -5.4073
# 3 16.2811 39.1938 112.0705 6.6605 24.9955 14.1698
# 4 -1.1062 9.2711 6.6605 40.5977 7.7240 8.4790
# 5 33.4072 15.9289 24.9955 7.7240 46.4328 2.9243
# 6 1.5768 -5.4073 14.1698 8.4790 2.9243 44.8377
#
#
#
# Elastic Compliance Matrix: (Units=1/GPa)
#
#
# Indices 1 2 3 4 5 6 
#
# 1 0.030293 -0.004819 0.002123 0.006228 -0.022192 -0.002048
# 2 -0.004819 0.014985 -0.005180 -0.003875 0.001492 0.004249
# 3 0.002123 -0.005180 0.012318 0.001350 -0.006326 -0.004435
# 4 0.006228 -0.003875 0.001350 0.028263 -0.008206 -0.005922
# 5 -0.022192 0.001492 -0.006326 -0.008206 0.041648 0.001795
# 6 -0.002048 0.004249 -0.004435 -0.005922 0.001795 0.025291
#
#
# Mechanical properties :
#
#
# Convention : Reuss Voigt Hill
#
# Bulk Modulus (GPa) = 23.89912 46.00853 34.95383
# Shear Modulus (GPa) = 27.39709 38.71116 33.05413
#
# Velocity S-wave (km/s) = 3.50448 4.16571 3.84932
# Velocity P-wave (km/s) = 5.20466 6.61528 5.95191
#
# Compressibility (1/GPa) = 0.04184255
#
# Stress axis : x y z
#
# Youngs Moduli (GPa) = 33.01068 66.73133 81.18369
#
# Poissons Ratio (x) = 0.32160 -0.17234
# Poissons Ratio (y) = 0.15909 0.42057
# Poissons Ratio (z) = -0.07008 0.34570
#
# Static dielectric constant tensor:
#      x y z
#    x 1.810410 -0.010630 0.037550 
#    y -0.010630 1.847340 0.016530 
#    z 0.037550 0.016530 1.801470 
# 
# From -- ./inp_files/226801.got.cif
#   From: 2010.05.17/outbox.cif.g08.bks.cpg/sg2_114_cif.got.tgz:226801.got - 2010.06.03 11:33:40.
