data_PCOD9025175
_publ_section_title
;
Structure prediction by ZEFSAII (Michael W. Deem and Ramdas Pophale) SiO2 
 PCOD9025175
Probable space group: P -1
;
_chemical_formula_sum "Si O2"
_cell_formula_units_Z 14
_cell_length_a 11.711649
_cell_length_b 9.943596
_cell_length_c 12.705305
_cell_angle_alpha 51.227498
_cell_angle_beta 35.507853
_cell_angle_gamma 37.299433
_cell_volume 519.809940
_symmetry_space_group_name_H-M "P -1"
_symmetry_group_IT_number 2
_symmetry_cell_setting 'triclinic'
loop_
_space_group_symop_operation_xyz
x,y,z
-x,-y,-z
loop_
_atom_site_type_symbol
_atom_site_label
_atom_site_fract_x
_atom_site_fract_y
_atom_site_fract_z
Si Si1 0.918052 0.687894 0.240575
Si Si2 0.362031 0.454307 0.882879
Si Si3 0.783068 0.473003 0.596955
Si Si4 0.206772 0.970219 0.544813
Si Si5 0.720507 0.049412 0.941670
Si Si6 0.701185 0.669192 0.214601
Si Si7 0.500000 0.500000 0.000000
Si Si8 0.500000 0.000000 0.500000
O O1 0.809526 0.653037 0.445932
O O2 0.865006 0.576088 0.244212
O O3 0.717381 0.950061 0.271213
O O4 0.199748 0.591252 0.044316
O O5 0.555786 0.500599 0.695867
O O6 0.526132 0.198483 0.919374
O O7 0.217916 0.486051 0.870220
O O8 0.040365 0.225681 0.503419
O O9 0.700773 0.495917 0.767891
O O10 0.366281 0.953779 0.530363
O O11 0.999651 0.944871 0.745027
O O12 0.411313 0.782358 0.403020
O O13 0.643508 0.240449 0.987527
O O14 0.692996 0.874928 0.090100
#
# Coordination Sequence:
#
# PCOD9025175 Si02
#       8
#     2   2   2   2   2   2   1   1
#     4  11  25  40  61  97 130 176 213 270 328 380
#     4  10  23  42  66  95 127 180 224 257 319 388
#     4  10  23  41  66  95 128 173 214 270 323 389
#     4   9  22  41  61  96 126 167 212 271 325 378
#     4  10  22  40  67  97 127 173 215 275 318 381
#     4  11  23  41  64  97 135 171 220 263 322 387
#     4   8  20  38  62  94 124 162 216 254 324 378
#     4  10  24  40  60  96 128 164 214 264 336 382
#
# _framework density 26.932918999999998
#
# number of rings (size 3 to 8) (size 9 to 14) (size 15 to 20)
#    0.000    2.286    0.000    1.714   12.000    6.857 
#    0.000    3.571    0.000    0.000    0.000    0.000 
#    0.000    0.000    0.000    0.000    0.000    0.000 
#
# Total GULP energy -77938.701181 kJ/mol
# GULP energy per Si atom -5567.050084 kJ/mol
# Density = 2.687162 g / cm^3
# Si number density = 26.932919 Si / 1000 Ang^3
#
#
#
# Elastic Constant Matrix: (Units=GPa)
#
#
# Indices 1 2 3 4 5 6 
#
# 1 72.9241 10.2043 16.2019 -8.6702 9.3812 8.5373
# 2 10.2043 92.7688 41.4995 -5.5844 -0.3091 -1.9532
# 3 16.2019 41.4995 145.1530 34.0428 0.7737 1.5155
# 4 -8.6702 -5.5844 34.0428 50.6015 -4.1527 -1.4107
# 5 9.3812 -0.3091 0.7737 -4.1527 43.1291 15.8482
# 6 8.5373 -1.9532 1.5155 -1.4107 15.8482 23.9338
#
#
#
# Elastic Compliance Matrix: (Units=1/GPa)
#
#
# Indices 1 2 3 4 5 6 
#
# 1 0.015487 -0.000432 -0.002506 0.004060 -0.001373 -0.004252
# 2 -0.000432 0.013343 -0.004900 0.004751 0.000081 0.001780
# 3 -0.002506 -0.004900 0.010463 -0.008045 -0.000286 -0.000454
# 4 0.004060 0.004751 -0.008045 0.026547 0.001954 -0.000281
# 5 -0.001373 0.000081 -0.000286 0.001954 0.030987 -0.019889
# 6 -0.004252 0.001780 -0.000454 -0.000281 -0.019889 0.056626
#
#
# Mechanical properties :
#
#
# Convention : Reuss Voigt Hill
#
# Bulk Modulus (GPa) = 42.34155 49.62858 45.98507
# Shear Modulus (GPa) = 28.24834 39.72887 33.98860
#
# Velocity S-wave (km/s) = 3.24209 3.84488 3.55628
# Velocity P-wave (km/s) = 5.45620 6.17879 5.82871
#
# Compressibility (1/GPa) = 0.02361746
#
# Stress axis : x y z
#
# Youngs Moduli (GPa) = 64.56896 74.94767 95.57575
#
# Poissons Ratio (x) = 0.03240 0.23948
# Poissons Ratio (y) = 0.02792 0.46829
# Poissons Ratio (z) = 0.16179 0.36722
#
# Static dielectric constant tensor:
#      x y z
#    x 1.910830 0.258280 0.066650 
#    y 0.258280 0.998050 -0.251430 
#    z 0.066650 -0.251430 2.093300 
# 
# From -- ./inp_files/425388.got.cif
#   From: 2010.05.17/outbox.cif.g08.bks.cpg/sg2_213_cif.got.tgz:425388.got - 2010.06.03 11:33:40.
