data_PCOD9025114
_publ_section_title
;
Structure prediction by ZEFSAII (Michael W. Deem and Ramdas Pophale) SiO2 
 PCOD9025114
Probable space group: P -1
;
_chemical_formula_sum "Si O2"
_cell_formula_units_Z 12
_cell_length_a 9.428353
_cell_length_b 10.485862
_cell_length_c 11.531083
_cell_angle_alpha 39.524384
_cell_angle_beta 96.566406
_cell_angle_gamma 67.088016
_cell_volume 472.366506
_symmetry_space_group_name_H-M "P -1"
_symmetry_group_IT_number 2
_symmetry_cell_setting 'triclinic'
loop_
_space_group_symop_operation_xyz
x,y,z
-x,-y,-z
loop_
_atom_site_type_symbol
_atom_site_label
_atom_site_fract_x
_atom_site_fract_y
_atom_site_fract_z
Si Si1 0.371948 0.426779 0.523909
Si Si2 0.913416 0.919235 0.231941
Si Si3 0.623123 0.275149 0.282598
Si Si4 0.716492 0.570758 0.738111
Si Si5 0.547008 0.745586 0.090991
Si Si6 0.022780 0.620654 0.700051
O O1 0.500000 0.500000 0.500000
O O2 0.402110 0.307654 0.483196
O O3 0.427506 0.252551 0.769860
O O4 0.110066 0.719100 0.301204
O O5 0.994983 0.736745 0.486502
O O6 0.832036 0.233562 0.010757
O O7 0.711296 0.990598 0.135123
O O8 0.477453 0.234793 0.323431
O O9 0.609137 0.449663 0.263412
O O10 0.872985 0.940081 0.530201
O O11 0.500000 0.500000 0.000000
O O12 0.900613 0.544004 0.770022
O O13 0.715145 0.678571 0.066282
#
# Coordination Sequence:
#
# PCOD9025114 Si02
#       6
#     2   2   2   2   2   2
#     4  11  21  41  69  97 123 169 216 250 327 379
#     4  10  22  42  66  90 133 164 205 266 310 375
#     4  11  20  42  69  86 132 172 205 262 318 366
#     4  11  23  41  67  97 126 167 210 268 311 372
#     4  10  22  40  67  94 124 174 205 260 320 372
#     4  11  23  42  65  96 129 163 217 258 317 376
#
# _framework density 25.404002999999999
#
# number of rings (size 3 to 8) (size 9 to 14) (size 15 to 20)
#    0.000    1.333    6.667    1.500    0.000    2.667 
#    3.000    2.500    0.000    0.000    0.000    0.000 
#    0.000    0.000    0.000    0.000    0.000    0.000 
#
# Total GULP energy -66993.463497 kJ/mol
# GULP energy per Si atom -5582.788625 kJ/mol
# Density = 2.534618 g / cm^3
# Si number density = 25.404003 Si / 1000 Ang^3
#
#
#
# Elastic Constant Matrix: (Units=GPa)
#
#
# Indices 1 2 3 4 5 6 
#
# 1 229.8175 29.5469 36.6182 -5.1675 5.7839 -39.0439
# 2 29.5469 61.3534 11.1686 -6.8795 10.4484 -34.2981
# 3 36.6182 11.1686 72.7082 -11.8830 1.3251 -22.6079
# 4 -5.1675 -6.8795 -11.8830 18.2290 -12.2431 3.2417
# 5 5.7839 10.4484 1.3251 -12.2431 44.8812 -5.3693
# 6 -39.0439 -34.2981 -22.6079 3.2417 -5.3693 41.5229
#
#
#
# Elastic Compliance Matrix: (Units=1/GPa)
#
#
# Indices 1 2 3 4 5 6 
#
# 1 0.005288 0.000126 -0.001381 -0.000275 -0.000229 0.004316
# 2 0.000126 0.033147 0.005697 0.009874 -0.001665 0.029613
# 3 -0.001381 0.005697 0.020279 0.015256 0.004063 0.013783
# 4 -0.000275 0.009874 0.015256 0.080067 0.020638 0.012622
# 5 -0.000229 -0.001665 0.004063 0.020638 0.028531 0.002701
# 6 0.004316 0.029613 0.013783 0.012622 0.002701 0.059470
#
#
# Mechanical properties :
#
#
# Convention : Reuss Voigt Hill
#
# Bulk Modulus (GPa) = 14.79362 57.61628 36.20495
# Shear Modulus (GPa) = 20.79597 40.02964 30.41280
#
# Velocity S-wave (km/s) = 2.86424 3.97384 3.46376
# Velocity P-wave (km/s) = 4.09567 6.61698 5.50268
#
# Compressibility (1/GPa) = 0.06759670
#
# Stress axis : x y z
#
# Youngs Moduli (GPa) = 189.10650 30.16903 49.31191
#
# Poissons Ratio (x) = -0.00379 0.06812
# Poissons Ratio (y) = -0.02375 -0.28094
# Poissons Ratio (z) = 0.26122 -0.17188
#
# Static dielectric constant tensor:
#      x y z
#    x 2.076980 0.023240 0.000090 
#    y 0.023240 2.082040 -0.131680 
#    z 0.000090 -0.131680 2.128440 
# 
# From -- ./inp_files/213141.got.cif
#   From: 2010.05.17/outbox.cif.g08.bks.cpg/sg2_107_cif.got.tgz:213141.got - 2010.06.03 11:33:40.
