data_PCOD9025850
_publ_section_title
;
Structure prediction by ZEFSAII (Michael W. Deem and Ramdas Pophale) SiO2 
 PCOD9025850
Probable space group: P -1
;
_chemical_formula_sum "Si O2"
_cell_formula_units_Z 16
_cell_length_a 10.918940
_cell_length_b 5.260208
_cell_length_c 16.908010
_cell_angle_alpha 124.879816
_cell_angle_beta 59.541917
_cell_angle_gamma 98.893698
_cell_volume 674.044412
_symmetry_space_group_name_H-M "P -1"
_symmetry_group_IT_number 2
_symmetry_cell_setting 'triclinic'
loop_
_space_group_symop_operation_xyz
x,y,z
-x,-y,-z
loop_
_atom_site_type_symbol
_atom_site_label
_atom_site_fract_x
_atom_site_fract_y
_atom_site_fract_z
Si Si1 0.856241 0.920695 0.664242
Si Si2 0.125209 0.697723 0.888474
Si Si3 0.695163 0.865166 0.186207
Si Si4 0.160390 0.512496 0.543148
Si Si5 0.986607 0.515615 0.263780
Si Si6 0.406408 0.829326 0.558446
Si Si7 0.489297 0.525178 0.913641
Si Si8 0.726278 0.890480 0.864502
O O1 0.798959 0.791588 0.579841
O O2 0.742974 0.976232 0.782723
O O3 0.993826 0.660129 0.602801
O O4 0.930543 0.219635 0.684610
O O5 0.187793 0.461406 0.896581
O O6 0.062152 0.469468 0.807245
O O7 0.243271 0.862188 0.832412
O O8 0.000000 0.000000 0.000000
O O9 0.566272 0.760461 0.160265
O O10 0.645058 0.975195 0.310497
O O11 0.270169 0.748313 0.539777
O O12 0.150603 0.467125 0.631985
O O13 0.110229 0.202222 0.174421
O O14 0.500000 0.500000 0.500000
O O15 0.500000 0.000000 0.500000
O O16 0.635934 0.609658 0.846908
O O17 0.500000 0.500000 0.000000
O O18 0.364538 0.840443 0.003307
#
# Coordination Sequence:
#
# PCOD9025850 Si02
#       8
#     2   2   2   2   2   2   2   2
#     4  10  22  40  72  95 139 175 235 296 356 412
#     4  12  27  45  78 108 147 190 239 299 365 439
#     4  12  28  50  73 109 145 193 243 299 364 431
#     4  10  23  43  65 103 133 182 234 296 352 421
#     4  11  22  42  69  99 140 177 236 290 363 415
#     4  12  28  48  74 103 146 196 243 296 358 435
#     4  11  26  45  70  94 146 181 235 290 355 426
#     4  10  24  41  65 104 129 186 229 295 348 432
#
# _framework density 23.737310000000001
#
# number of rings (size 3 to 8) (size 9 to 14) (size 15 to 20)
#    0.000    1.000    1.250    3.750   12.250    2.000 
#    0.000    0.000    0.000    0.000    0.000    0.000 
#    0.000    0.000    0.000    0.000    0.000    0.000 
#
# Total GULP energy -89491.239483 kJ/mol
# GULP energy per Si atom -5593.202468 kJ/mol
# Density = 2.368328 g / cm^3
# Si number density = 23.737310 Si / 1000 Ang^3
#
#
#
# Elastic Constant Matrix: (Units=GPa)
#
#
# Indices 1 2 3 4 5 6 
#
# 1 80.7633 11.0535 18.6087 2.3710 19.6590 20.0877
# 2 11.0535 106.0886 10.8918 -12.4318 -7.8285 22.6121
# 3 18.6087 10.8918 68.4444 1.2048 -1.2085 24.3901
# 4 2.3710 -12.4318 1.2048 37.7291 11.2285 -7.5660
# 5 19.6590 -7.8285 -1.2085 11.2285 32.6363 12.1439
# 6 20.0877 22.6121 24.3901 -7.5660 12.1439 51.4163
#
#
#
# Elastic Compliance Matrix: (Units=1/GPa)
#
#
# Indices 1 2 3 4 5 6 
#
# 1 0.016301 -0.001667 -0.004006 0.001465 -0.010483 -0.001044
# 2 -0.001667 0.011297 0.000842 0.000945 0.005617 -0.005904
# 3 -0.004006 0.000842 0.019779 -0.005078 0.009230 -0.011115
# 4 0.001465 0.000945 -0.005078 0.033783 -0.016276 0.010237
# 5 -0.010483 0.005617 0.009230 -0.016276 0.050607 -0.017101
# 6 -0.001044 -0.005904 -0.011115 0.010237 -0.017101 0.033271
#
#
# Mechanical properties :
#
#
# Convention : Reuss Voigt Hill
#
# Bulk Modulus (GPa) = 26.51382 37.37825 31.94603
# Shear Modulus (GPa) = 26.69926 38.67249 32.68587
#
# Velocity S-wave (km/s) = 3.35741 4.04070 3.71480
# Velocity P-wave (km/s) = 5.12089 6.12784 5.64686
#
# Compressibility (1/GPa) = 0.03771618
#
# Stress axis : x y z
#
# Youngs Moduli (GPa) = 61.34489 88.52026 50.55951
#
# Poissons Ratio (x) = 0.14752 0.20252
# Poissons Ratio (y) = 0.10223 -0.04256
# Poissons Ratio (z) = 0.24572 -0.07452
#
# Static dielectric constant tensor:
#      x y z
#    x 1.971120 -0.089800 -0.045190 
#    y -0.089800 1.938980 0.048330 
#    z -0.045190 0.048330 1.926660 
# 
# From -- ./inp_files/101120.got.cif
#   From: 2010.05.17/outbox.cif.g08.bks.cpg/sg2_51_cif.got.tgz:101120.got - 2010.06.03 11:33:40.
