data_PCOD9025069
_publ_section_title
;
Structure prediction by ZEFSAII (Michael W. Deem and Ramdas Pophale) SiO2 
 PCOD9025069
Probable space group: P -1
;
_chemical_formula_sum "Si O2"
_cell_formula_units_Z 16
_cell_length_a 15.980117
_cell_length_b 11.829278
_cell_length_c 8.948908
_cell_angle_alpha 52.598816
_cell_angle_beta 148.385541
_cell_angle_gamma 130.923223
_cell_volume 664.759665
_symmetry_space_group_name_H-M "P -1"
_symmetry_group_IT_number 2
_symmetry_cell_setting 'triclinic'
loop_
_space_group_symop_operation_xyz
x,y,z
-x,-y,-z
loop_
_atom_site_type_symbol
_atom_site_label
_atom_site_fract_x
_atom_site_fract_y
_atom_site_fract_z
Si Si1 0.406961 0.031258 0.687896
Si Si2 0.083579 0.292718 0.860504
Si Si3 0.270541 0.774617 0.456907
Si Si4 0.689234 0.622050 0.380733
Si Si5 0.057062 0.795731 0.839715
Si Si6 0.402949 0.322248 0.509397
Si Si7 0.060031 0.938590 0.412756
Si Si8 0.668459 0.522677 0.119845
O O1 0.480217 0.211169 0.630818
O O2 0.388926 0.926243 0.599157
O O3 0.220809 0.998605 0.501082
O O4 0.500000 0.000000 0.000000
O O5 0.179964 0.442819 0.794341
O O6 0.905079 0.271727 0.678736
O O7 0.071414 0.163937 0.823901
O O8 0.217679 0.294734 0.187400
O O9 0.344481 0.639129 0.701044
O O10 0.208419 0.784248 0.184452
O O11 0.884490 0.647568 0.702324
O O12 0.625336 0.720118 0.323271
O O13 0.709552 0.644796 0.216726
O O14 0.510713 0.482436 0.218351
O O15 0.095331 0.844143 0.684606
O O16 0.003605 0.932111 0.720249
O O17 0.500000 0.500000 0.500000
#
# Coordination Sequence:
#
# PCOD9025069 Si02
#       8
#     2   2   2   2   2   2   2   2
#     4  11  24  44  66  96 135 168 210 272 330 380
#     4  11  21  39  63  95 125 173 220 263 318 387
#     4  11  24  41  64  96 131 166 215 278 322 372
#     4  11  22  42  64  91 130 175 211 262 318 385
#     4  11  21  41  66  94 122 170 218 266 317 386
#     4  12  23  41  68  97 127 170 223 262 317 393
#     4  10  22  40  67  90 125 170 216 261 324 387
#     4  11  24  41  61  94 135 175 213 264 326 385
#
# _framework density 24.068850999999999
#
# number of rings (size 3 to 8) (size 9 to 14) (size 15 to 20)
#    0.000    1.000    5.000    1.875    0.000    2.500 
#    2.250    0.625    0.000    0.000    0.000    0.000 
#    0.000    0.000    0.000    0.000    0.000    0.000 
#
# Total GULP energy -89101.554133 kJ/mol
# GULP energy per Si atom -5568.847133 kJ/mol
# Density = 2.401407 g / cm^3
# Si number density = 24.068851 Si / 1000 Ang^3
#
#
#
# Elastic Constant Matrix: (Units=GPa)
#
#
# Indices 1 2 3 4 5 6 
#
# 1 76.2206 18.2827 13.0045 1.8401 -19.4734 -11.5474
# 2 18.2827 101.5148 60.3480 12.9544 -6.7562 -5.7439
# 3 13.0045 60.3480 107.0957 14.7625 -25.2416 -10.0130
# 4 1.8401 12.9544 14.7625 36.5430 -8.3918 -10.8777
# 5 -19.4734 -6.7562 -25.2416 -8.3918 36.8326 4.8832
# 6 -11.5474 -5.7439 -10.0130 -10.8777 4.8832 22.8722
#
#
#
# Elastic Compliance Matrix: (Units=1/GPa)
#
#
# Indices 1 2 3 4 5 6 
#
# 1 0.017542 -0.004285 0.002942 0.004500 0.010336 0.009002
# 2 -0.004285 0.016513 -0.010079 -0.003956 -0.006663 -0.002888
# 3 0.002942 -0.010079 0.017709 0.000168 0.011301 0.004374
# 4 0.004500 -0.003956 0.000168 0.035106 0.007589 0.016428
# 5 0.010336 -0.006663 0.011301 0.007589 0.040406 0.003476
# 6 0.009002 -0.002888 0.004374 0.016428 0.003476 0.056526
#
#
# Mechanical properties :
#
#
# Convention : Reuss Voigt Hill
#
# Bulk Modulus (GPa) = 34.58020 52.01128 43.29574
# Shear Modulus (GPa) = 23.11758 32.12929 27.62343
#
# Velocity S-wave (km/s) = 3.10252 3.65758 3.39142
# Velocity P-wave (km/s) = 5.21848 6.28438 5.77607
#
# Compressibility (1/GPa) = 0.02891828
#
# Stress axis : x y z
#
# Youngs Moduli (GPa) = 57.00716 60.56014 56.46734
#
# Poissons Ratio (x) = 0.25952 -0.16614
# Poissons Ratio (y) = 0.24429 0.56916
# Poissons Ratio (z) = -0.16772 0.61041
#
# Static dielectric constant tensor:
#      x y z
#    x 1.953190 0.073070 -0.051650 
#    y 0.073070 2.058390 -0.001750 
#    z -0.051650 -0.001750 1.968980 
# 
# From -- ./inp_files/298151.got.cif
#   From: 2010.05.17/outbox.cif.g08.bks.cpg/sg2_150_cif.got.tgz:298151.got - 2010.06.03 11:33:40.
