data_PCOD9025906
_publ_section_title
;
Structure prediction by ZEFSAII (Michael W. Deem and Ramdas Pophale) SiO2 
 PCOD9025906
Probable space group: P -1
;
_chemical_formula_sum "Si O2"
_cell_formula_units_Z 15
_cell_length_a 8.299551
_cell_length_b 8.254703
_cell_length_c 14.900325
_cell_angle_alpha 101.545284
_cell_angle_beta 127.286145
_cell_angle_gamma 59.324259
_cell_volume 689.632490
_symmetry_space_group_name_H-M "P -1"
_symmetry_group_IT_number 2
_symmetry_cell_setting 'triclinic'
loop_
_space_group_symop_operation_xyz
x,y,z
-x,-y,-z
loop_
_atom_site_type_symbol
_atom_site_label
_atom_site_fract_x
_atom_site_fract_y
_atom_site_fract_z
Si Si1 0.930668 0.755109 0.736852
Si Si2 0.149208 0.402596 0.907801
Si Si3 0.767136 0.229944 0.317707
Si Si4 0.673138 0.892251 0.218760
Si Si5 0.301162 0.541613 0.139917
Si Si6 0.212173 0.946559 0.131875
Si Si7 0.500000 0.000000 0.500000
Si Si8 0.882533 0.719476 0.453914
O O1 0.017129 0.583231 0.816665
O O2 0.122941 0.711102 0.720882
O O3 0.891277 0.940002 0.799265
O O4 0.685112 0.829482 0.611928
O O5 0.289133 0.217344 0.873534
O O6 0.953266 0.385772 0.896345
O O7 0.303311 0.444491 0.034881
O O8 0.499425 0.390086 0.254474
O O9 0.924801 0.217123 0.453588
O O10 0.771519 0.036975 0.271466
O O11 0.398836 0.999938 0.161893
O O12 0.809372 0.744010 0.328539
O O13 0.339433 0.720028 0.160975
O O14 0.000000 0.000000 0.000000
O O15 0.344499 0.135178 0.548818
O O16 0.000000 0.500000 0.500000
#
# Coordination Sequence:
#
# PCOD9025906 Si02
#       8
#     2   2   2   2   2   2   1   2
#     4  11  22  44  68 102 133 183 227 285 350 417
#     4  11  25  44  70  97 140 181 231 287 353 412
#     4  11  26  42  70 101 140 178 233 282 345 419
#     4  12  25  45  68  99 142 183 228 291 346 412
#     4  11  25  44  65 102 135 180 234 289 343 420
#     4  12  24  41  71  97 136 182 231 280 347 410
#     4  10  22  40  74  98 142 176 230 282 350 412
#     4  11  23  46  72 105 138 186 235 290 353 420
#
# _framework density 21.750716000000001
#
# number of rings (size 3 to 8) (size 9 to 14) (size 15 to 20)
#    0.000    0.800    2.667    5.200    3.733    1.600 
#    0.000    0.667    0.000    0.000    0.000    0.000 
#    0.000    0.000    0.000    0.000    0.000    0.000 
#
# Total GULP energy -83642.813986 kJ/mol
# GULP energy per Si atom -5576.187599 kJ/mol
# Density = 2.170121 g / cm^3
# Si number density = 21.750716 Si / 1000 Ang^3
#
#
#
# Elastic Constant Matrix: (Units=GPa)
#
#
# Indices 1 2 3 4 5 6 
#
# 1 44.3670 9.6151 8.2645 5.9201 5.1136 3.0027
# 2 9.6151 68.1313 -11.8968 10.4424 7.8351 5.2425
# 3 8.2645 -11.8968 73.4531 7.0783 2.2591 3.4737
# 4 5.9201 10.4424 7.0783 42.7768 -3.4909 -4.3556
# 5 5.1136 7.8351 2.2591 -3.4909 25.5736 3.6981
# 6 3.0027 5.2425 3.4737 -4.3556 3.6981 38.4732
#
#
#
# Elastic Compliance Matrix: (Units=1/GPa)
#
#
# Indices 1 2 3 4 5 6 
#
# 1 0.024605 -0.003018 -0.002826 -0.002642 -0.003936 -0.001175
# 2 -0.003018 0.017407 0.003946 -0.005187 -0.005416 -0.002559
# 3 -0.002826 0.003946 0.015056 -0.003430 -0.002174 -0.001856
# 4 -0.002642 -0.005187 -0.003430 0.026400 0.005492 0.003684
# 5 -0.003936 -0.005416 -0.002174 0.005492 0.042817 -0.002252
# 6 -0.001175 -0.002559 -0.001856 0.003684 -0.002252 0.027234
#
#
# Mechanical properties :
#
#
# Convention : Reuss Voigt Hill
#
# Bulk Modulus (GPa) = 18.77081 21.99079 20.38080
# Shear Modulus (GPa) = 28.55954 33.36262 30.96108
#
# Velocity S-wave (km/s) = 3.62752 3.92071 3.77696
# Velocity P-wave (km/s) = 5.11800 5.53428 5.33020
#
# Compressibility (1/GPa) = 0.05327421
#
# Stress axis : x y z
#
# Youngs Moduli (GPa) = 40.64145 57.44664 66.41675
#
# Poissons Ratio (x) = 0.17337 0.18770
# Poissons Ratio (y) = 0.12265 -0.26211
# Poissons Ratio (z) = 0.11486 -0.22671
#
# Static dielectric constant tensor:
#      x y z
#    x 1.772430 0.011450 -0.002550 
#    y 0.011450 1.793070 0.030420 
#    z -0.002550 0.030420 1.816760 
# 
# From -- ./inp_files/178736.got.cif
#   From: 2010.05.17/outbox.cif.g08.bks.cpg/sg2_90_cif.got.tgz:178736.got - 2010.06.03 11:33:40.
