data_PCOD9025596
_publ_section_title
;
Structure prediction by ZEFSAII (Michael W. Deem and Ramdas Pophale) SiO2 
 PCOD9025596
Probable space group: P -1
;
_chemical_formula_sum "Si O2"
_cell_formula_units_Z 16
_cell_length_a 10.724047
_cell_length_b 12.381350
_cell_length_c 7.975055
_cell_angle_alpha 61.839501
_cell_angle_beta 107.826554
_cell_angle_gamma 128.478583
_cell_volume 730.716105
_symmetry_space_group_name_H-M "P -1"
_symmetry_group_IT_number 2
_symmetry_cell_setting 'triclinic'
loop_
_space_group_symop_operation_xyz
x,y,z
-x,-y,-z
loop_
_atom_site_type_symbol
_atom_site_label
_atom_site_fract_x
_atom_site_fract_y
_atom_site_fract_z
Si Si1 0.104624 0.435002 0.561706
Si Si2 0.492820 0.675413 0.009397
Si Si3 0.769400 0.645658 0.015300
Si Si4 0.671046 0.938850 0.342346
Si Si5 0.454420 0.618140 0.417988
Si Si6 0.872864 0.118022 0.621512
Si Si7 0.987146 0.046503 0.269969
Si Si8 0.447692 0.017006 0.281611
O O1 0.131924 0.374146 0.788858
O O2 0.280211 0.545234 0.476455
O O3 0.000000 0.500000 0.500000
O O4 0.000034 0.289787 0.509813
O O5 0.651903 0.683235 0.024694
O O6 0.470454 0.680343 0.193888
O O7 0.346534 0.514894 0.001590
O O8 0.502058 0.815318 0.834597
O O9 0.888809 0.779575 0.842145
O O10 0.582387 0.763245 0.471311
O O11 0.769500 0.033374 0.476527
O O12 0.804525 0.989739 0.218945
O O13 0.540264 0.973305 0.230666
O O14 0.500000 0.500000 0.500000
O O15 0.743597 0.091713 0.723670
O O16 0.964486 0.042546 0.759893
O O17 0.000000 0.000000 0.500000
O O18 0.500000 0.000000 0.500000
#
# Coordination Sequence:
#
# PCOD9025596 Si02
#       8
#     2   2   2   2   2   2   2   2
#     4  12  28  45  72 109 150 184 232 301 367 418
#     4  11  26  44  74 106 141 191 244 290 352 433
#     4  11  26  45  72 107 144 187 243 291 358 429
#     4  10  24  39  70  99 140 185 234 283 356 415
#     4  12  26  45  73 105 146 190 241 290 356 427
#     4  10  22  41  71  97 138 187 233 277 359 418
#     4  10  22  40  70 100 137 180 232 289 352 411
#     4  10  22  42  72  98 138 187 235 283 353 420
#
# _framework density 21.896329000000001
#
# number of rings (size 3 to 8) (size 9 to 14) (size 15 to 20)
#    0.000    1.250    2.500    1.500   14.000    3.000 
#    0.000    1.250    0.000    0.000    0.000    0.000 
#    0.000    0.000    0.000    0.000    0.000    0.000 
#
# Total GULP energy -89433.120548 kJ/mol
# GULP energy per Si atom -5589.570034 kJ/mol
# Density = 2.184649 g / cm^3
# Si number density = 21.896329 Si / 1000 Ang^3
#
#
#
# Elastic Constant Matrix: (Units=GPa)
#
#
# Indices 1 2 3 4 5 6 
#
# 1 182.0488 21.9755 32.5781 -16.4830 11.0812 21.4459
# 2 21.9755 111.2038 24.4976 -21.3781 2.0907 21.3499
# 3 32.5781 24.4976 131.3700 -17.7725 2.4070 7.1159
# 4 -16.4830 -21.3781 -17.7725 35.4998 -1.6260 -9.2436
# 5 11.0812 2.0907 2.4070 -1.6260 33.7249 -20.0746
# 6 21.4459 21.3499 7.1159 -9.2436 -20.0746 26.5369
#
#
#
# Elastic Compliance Matrix: (Units=1/GPa)
#
#
# Indices 1 2 3 4 5 6 
#
# 1 0.008713 0.002655 -0.001405 -0.001202 -0.015414 -0.020879
# 2 0.002655 0.014254 -0.001409 0.001826 -0.016495 -0.025078
# 3 -0.001405 -0.001409 0.008537 0.003435 0.001465 0.002285
# 4 -0.001202 0.001826 0.003435 0.037296 0.015868 0.023576
# 5 -0.015414 -0.016495 0.001465 0.015868 0.099634 0.106233
# 6 -0.020879 -0.025078 0.002285 0.023576 0.106233 0.162696
#
#
# Mechanical properties :
#
#
# Convention : Reuss Voigt Hill
#
# Bulk Modulus (GPa) = 32.06481 64.74723 48.40602
# Shear Modulus (GPa) = 14.62656 42.19040 28.40848
#
# Velocity S-wave (km/s) = 2.58736 4.39432 3.60586
# Velocity P-wave (km/s) = 4.85815 7.44183 6.28421
#
# Compressibility (1/GPa) = 0.03118684
#
# Stress axis : x y z
#
# Youngs Moduli (GPa) = 114.77050 70.15590 117.13188
#
# Poissons Ratio (x) = -0.18627 0.16457
# Poissons Ratio (y) = -0.30473 0.16502
# Poissons Ratio (z) = 0.16125 0.09884
#
# Static dielectric constant tensor:
#      x y z
#    x 1.965980 0.006390 0.005740 
#    y 0.006390 1.835690 0.004260 
#    z 0.005740 0.004260 1.785480 
# 
# From -- ./inp_files/261676.got.cif
#   From: 2010.05.17/outbox.cif.g08.bks.cpg/sg2_131_cif.got.tgz:261676.got - 2010.06.03 11:33:40.
