data_PCOD9025132
_publ_section_title
;
Structure prediction by ZEFSAII (Michael W. Deem and Ramdas Pophale) SiO2 
 PCOD9025132
Probable space group: P -1
;
_chemical_formula_sum "Si O2"
_cell_formula_units_Z 16
_cell_length_a 7.673692
_cell_length_b 15.249608
_cell_length_c 9.566678
_cell_angle_alpha 128.010626
_cell_angle_beta 102.574867
_cell_angle_gamma 111.436818
_cell_volume 654.510642
_symmetry_space_group_name_H-M "P -1"
_symmetry_group_IT_number 2
_symmetry_cell_setting 'triclinic'
loop_
_space_group_symop_operation_xyz
x,y,z
-x,-y,-z
loop_
_atom_site_type_symbol
_atom_site_label
_atom_site_fract_x
_atom_site_fract_y
_atom_site_fract_z
Si Si1 0.599276 0.864061 0.265442
Si Si2 0.776796 0.568058 0.787409
Si Si3 0.253944 0.424947 0.510774
Si Si4 0.030307 0.173919 0.752388
Si Si5 0.403542 0.056648 0.938758
Si Si6 0.241757 0.160913 0.220880
Si Si7 0.037220 0.746853 0.454882
Si Si8 0.386038 0.709653 0.354754
O O1 0.784960 0.850684 0.220018
O O2 0.476358 0.871187 0.118185
O O3 0.432490 0.741313 0.230096
O O4 0.771338 0.020384 0.528870
O O5 0.527162 0.533316 0.705834
O O6 0.804982 0.534028 0.601023
O O7 0.746676 0.455332 0.780395
O O8 0.962870 0.732518 0.034059
O O9 0.211857 0.279389 0.314373
O O10 0.099799 0.377833 0.574867
O O11 0.111286 0.268350 0.716095
O O12 0.151840 0.902949 0.698349
O O13 0.401804 0.167673 0.137854
O O14 0.500000 0.000000 0.000000
O O15 0.366932 0.193267 0.423305
O O16 0.000000 0.000000 0.000000
O O17 0.241230 0.755295 0.432054
#
# Coordination Sequence:
#
# PCOD9025132 Si02
#       8
#     2   2   2   2   2   2   2   2
#     4  10  24  41  68 100 129 169 223 271 324 391
#     4  10  23  43  65  95 129 173 225 268 326 383
#     4  10  22  40  67  95 127 175 223 274 317 391
#     4  10  22  42  69  96 129 170 221 273 321 394
#     4  11  22  41  63 100 136 166 209 274 341 386
#     4  11  21  37  69  95 131 170 221 272 324 381
#     4  11  23  41  62  96 137 170 217 269 331 388
#     4  11  25  42  61  99 138 172 218 273 324 402
#
# _framework density 24.445743
#
# number of rings (size 3 to 8) (size 9 to 14) (size 15 to 20)
#    0.000    1.500    2.500    2.250    5.250    5.000 
#    2.250    0.000    0.000    0.000    0.000    0.000 
#    0.000    0.000    0.000    0.000    0.000    0.000 
#
# Total GULP energy -89535.905655 kJ/mol
# GULP energy per Si atom -5595.994103 kJ/mol
# Density = 2.439010 g / cm^3
# Si number density = 24.445743 Si / 1000 Ang^3
#
#
#
# Elastic Constant Matrix: (Units=GPa)
#
#
# Indices 1 2 3 4 5 6 
#
# 1 53.5804 27.7796 5.2165 -3.0806 -6.8225 -4.4195
# 2 27.7796 157.3208 6.7243 -36.8552 2.7159 -6.1142
# 3 5.2165 6.7243 63.7855 -2.0294 -6.6187 -20.9470
# 4 -3.0806 -36.8552 -2.0294 42.7428 -3.8695 -4.1472
# 5 -6.8225 2.7159 -6.6187 -3.8695 15.2471 0.3726
# 6 -4.4195 -6.1142 -20.9470 -4.1472 0.3726 29.7583
#
#
#
# Elastic Compliance Matrix: (Units=1/GPa)
#
#
# Indices 1 2 3 4 5 6 
#
# 1 0.022342 -0.004240 0.000561 -0.000796 0.010730 0.002596
# 2 -0.004240 0.008988 0.000307 0.007566 -0.001506 0.002506
# 3 0.000561 0.000307 0.022085 0.003854 0.010368 0.016099
# 4 -0.000796 0.007566 0.003854 0.031569 0.007775 0.008451
# 5 0.010730 -0.001506 0.010368 0.007775 0.076917 0.008703
# 6 0.002596 0.002506 0.016099 0.008451 0.008703 0.046906
#
#
# Mechanical properties :
#
#
# Convention : Reuss Voigt Hill
#
# Bulk Modulus (GPa) = 21.42745 39.34751 30.38748
# Shear Modulus (GPa) = 21.63496 33.21404 27.42450
#
# Velocity S-wave (km/s) = 2.97816 3.69003 3.35304
# Velocity P-wave (km/s) = 4.53985 5.85542 5.23909
#
# Compressibility (1/GPa) = 0.04666911
#
# Stress axis : x y z
#
# Youngs Moduli (GPa) = 44.75899 111.26256 45.28011
#
# Poissons Ratio (x) = 0.47173 -0.02538
# Poissons Ratio (y) = 0.18977 -0.01388
# Poissons Ratio (z) = -0.02509 -0.03412
#
# Static dielectric constant tensor:
#      x y z
#    x 1.969920 0.007820 0.025340 
#    y 0.007820 2.014500 -0.029100 
#    z 0.025340 -0.029100 1.957740 
# 
# From -- ./inp_files/208779.got.cif
#   From: 2010.05.17/outbox.cif.g08.bks.cpg/sg2_105_cif.got.tgz:208779.got - 2010.06.03 11:33:40.
