data_PCOD9025944
_publ_section_title
;
Structure prediction by ZEFSAII (Michael W. Deem and Ramdas Pophale) SiO2 
 PCOD9025944
Probable space group: P -1
;
_chemical_formula_sum "Si O2"
_cell_formula_units_Z 16
_cell_length_a 18.841314
_cell_length_b 9.509675
_cell_length_c 11.123700
_cell_angle_alpha 141.531404
_cell_angle_beta 48.564785
_cell_angle_gamma 149.963841
_cell_volume 619.789367
_symmetry_space_group_name_H-M "P -1"
_symmetry_group_IT_number 2
_symmetry_cell_setting 'triclinic'
loop_
_space_group_symop_operation_xyz
x,y,z
-x,-y,-z
loop_
_atom_site_type_symbol
_atom_site_label
_atom_site_fract_x
_atom_site_fract_y
_atom_site_fract_z
Si Si1 0.869769 0.203672 0.584891
Si Si2 0.569106 0.758525 0.704825
Si Si3 0.476653 0.688283 0.222785
Si Si4 0.192709 0.624428 0.852354
Si Si5 0.739802 0.469422 0.510494
Si Si6 0.080778 0.285254 0.289794
Si Si7 0.938312 0.234589 0.061880
Si Si8 0.485161 0.848124 0.069499
O O1 0.854813 0.388420 0.634540
O O2 0.920066 0.079858 0.366549
O O3 0.728840 0.947415 0.651878
O O4 0.000391 0.503778 0.725854
O O5 0.500000 0.500000 0.500000
O O6 0.571800 0.027576 0.844397
O O7 0.473013 0.609479 0.834172
O O8 0.357189 0.486718 0.322765
O O9 0.619258 0.057719 0.360322
O O10 0.425386 0.743879 0.202028
O O11 0.500000 0.500000 0.000000
O O12 0.178923 0.402204 0.619928
O O13 0.344069 0.853622 0.898177
O O14 0.067510 0.414378 0.946456
O O15 0.175210 0.824894 0.927571
O O16 0.843278 0.624095 0.608282
O O17 0.099587 0.082800 0.062644
#
# Coordination Sequence:
#
# PCOD9025944 Si02
#       8
#     2   2   2   2   2   2   2   2
#     4  11  24  46  64 101 135 171 235 278 323 416
#     4  11  25  44  70  94 132 179 226 279 337 390
#     4  10  23  41  66  94 136 178 216 275 337 394
#     4  10  22  43  68  95 144 164 223 278 326 417
#     4  10  22  41  59 102 131 170 230 268 320 409
#     4  11  25  40  71  97 135 178 221 280 338 393
#     4  11  23  44  66 102 133 182 212 279 347 390
#     4  10  23  43  64  98 128 172 223 278 324 409
#
# _framework density 25.815221000000001
#
# number of rings (size 3 to 8) (size 9 to 14) (size 15 to 20)
#    0.000    1.500    2.500    1.125    5.250    4.500 
#    0.000    1.250    0.000    0.000    0.000    0.000 
#    0.000    0.000    0.000    0.000    0.000    0.000 
#
# Total GULP energy -89471.722765 kJ/mol
# GULP energy per Si atom -5591.982673 kJ/mol
# Density = 2.575646 g / cm^3
# Si number density = 25.815221 Si / 1000 Ang^3
#
#
#
# Elastic Constant Matrix: (Units=GPa)
#
#
# Indices 1 2 3 4 5 6 
#
# 1 66.3296 2.9931 -6.3173 6.5570 -20.0870 7.1848
# 2 2.9931 59.3558 14.0649 -24.2557 -5.6361 11.2013
# 3 -6.3173 14.0649 131.0212 -12.9281 -12.3908 12.9540
# 4 6.5570 -24.2557 -12.9281 48.0701 7.5336 4.1762
# 5 -20.0870 -5.6361 -12.3908 7.5336 51.4037 -5.8317
# 6 7.1848 11.2013 12.9540 4.1762 -5.8317 35.2897
#
#
#
# Elastic Compliance Matrix: (Units=1/GPa)
#
#
# Indices 1 2 3 4 5 6 
#
# 1 0.018249 -0.001840 0.001602 -0.004019 0.007681 -0.001975
# 2 -0.001840 0.023998 -0.000611 0.013138 -0.001155 -0.008764
# 3 0.001602 -0.000611 0.008438 0.001700 0.001992 -0.003102
# 4 -0.004019 0.013138 0.001700 0.029957 -0.005059 -0.008357
# 5 0.007681 -0.001155 0.001992 -0.005059 0.023846 0.002611
# 6 -0.001975 -0.008764 -0.003102 -0.008357 0.002611 0.034080
#
#
# Mechanical properties :
#
#
# Convention : Reuss Voigt Hill
#
# Bulk Modulus (GPa) = 20.41356 30.90979 25.66167
# Shear Modulus (GPa) = 31.92939 43.35041 37.63990
#
# Velocity S-wave (km/s) = 3.52069 4.10232 3.82259
# Velocity P-wave (km/s) = 4.94487 5.86841 5.42632
#
# Compressibility (1/GPa) = 0.04898704
#
# Stress axis : x y z
#
# Youngs Moduli (GPa) = 54.79723 41.66942 118.51170
#
# Poissons Ratio (x) = 0.07669 -0.18991
# Poissons Ratio (y) = 0.10085 0.07244
# Poissons Ratio (z) = -0.08781 0.02547
#
# Static dielectric constant tensor:
#      x y z
#    x 2.080420 -0.076290 -0.019810 
#    y -0.076290 2.095990 0.004090 
#    z -0.019810 0.004090 2.061250 
# 
# From -- ./inp_files/428639.got.cif
#   From: 2010.05.17/outbox.cif.g08.bks.cpg/sg2_215_cif.got.tgz:428639.got - 2010.06.03 11:33:40.
