data_PCOD9025496
_publ_section_title
;
Structure prediction by ZEFSAII (Michael W. Deem and Ramdas Pophale) SiO2 
 PCOD9025496
Probable space group: P -1
;
_chemical_formula_sum "Si O2"
_cell_formula_units_Z 13
_cell_length_a 10.508122
_cell_length_b 9.811780
_cell_length_c 5.686214
_cell_angle_alpha 114.241901
_cell_angle_beta 112.640893
_cell_angle_gamma 77.617338
_cell_volume 492.265988
_symmetry_space_group_name_H-M "P -1"
_symmetry_group_IT_number 2
_symmetry_cell_setting 'triclinic'
loop_
_space_group_symop_operation_xyz
x,y,z
-x,-y,-z
loop_
_atom_site_type_symbol
_atom_site_label
_atom_site_fract_x
_atom_site_fract_y
_atom_site_fract_z
Si Si1 0.147707 0.965923 0.203623
Si Si2 0.642845 0.565229 0.411576
Si Si3 0.396449 0.142890 0.595536
Si Si4 0.798794 0.572476 0.027546
Si Si5 0.500000 0.000000 0.000000
Si Si6 0.694277 0.243927 0.191959
Si Si7 0.067515 0.722065 0.286996
O O1 0.243559 0.105310 0.381215
O O2 0.102504 0.885688 0.349271
O O3 0.250994 0.840096 0.062407
O O4 0.000000 0.000000 0.000000
O O5 0.548854 0.717833 0.409335
O O6 0.711137 0.580728 0.728137
O O7 0.595513 0.397055 0.235685
O O8 0.728372 0.578722 0.236744
O O9 0.500000 0.000000 0.500000
O O10 0.413296 0.134002 0.879552
O O11 0.882120 0.409327 0.951768
O O12 0.908492 0.698758 0.192005
O O13 0.372201 0.889018 0.809947
O O14 0.835328 0.304294 0.438042
#
# Coordination Sequence:
#
# PCOD9025496 Si02
#       7
#     2   2   2   2   1   2   2
#     4  12  25  44  73 111 152 200 256 326 392 465
#     4  11  26  48  78 113 150 208 263 318 389 467
#     4  12  28  49  74 109 157 206 259 325 392 465
#     4  10  23  42  74 113 156 193 256 324 389 465
#     4  12  26  50  74 104 156 202 262 318 390 460
#     4  11  25  47  76 108 152 203 262 320 387 467
#     4  10  22  40  69 107 152 200 247 317 391 463
#
# _framework density 26.408486
#
# number of rings (size 3 to 8) (size 9 to 14) (size 15 to 20)
#    0.000    0.923    4.615    0.923    6.462    4.308 
#    0.000    0.769    0.000    0.000    0.000    0.000 
#    0.000    0.000    0.000    0.000    0.000    0.000 
#
# Total GULP energy -72371.978760 kJ/mol
# GULP energy per Si atom -5567.075289 kJ/mol
# Density = 2.634838 g / cm^3
# Si number density = 26.408486 Si / 1000 Ang^3
#
#
#
# Elastic Constant Matrix: (Units=GPa)
#
#
# Indices 1 2 3 4 5 6 
#
# 1 96.1185 30.0861 67.3954 2.9180 -0.0618 0.2094
# 2 30.0861 184.3641 29.0105 8.3697 8.2049 13.9363
# 3 67.3954 29.0105 112.1285 7.1976 19.8040 15.9375
# 4 2.9180 8.3697 7.1976 46.1964 -3.8642 2.8423
# 5 -0.0618 8.2049 19.8040 -3.8642 60.5957 3.4863
# 6 0.2094 13.9363 15.9375 2.8423 3.4863 39.5614
#
#
#
# Elastic Compliance Matrix: (Units=1/GPa)
#
#
# Indices 1 2 3 4 5 6 
#
# 1 0.020304 -0.001875 -0.013346 0.001169 0.004397 0.005458
# 2 -0.001875 0.005945 0.000065 -0.000912 -0.000772 -0.001977
# 3 -0.013346 0.000065 0.019118 -0.002222 -0.006011 -0.006964
# 4 0.001169 -0.000912 -0.002222 0.022314 0.002308 -0.000597
# 5 0.004397 -0.000772 -0.006011 0.002308 0.018674 0.000859
# 6 0.005458 -0.001977 -0.006964 -0.000597 0.000859 0.028717
#
#
# Mechanical properties :
#
#
# Convention : Reuss Voigt Hill
#
# Bulk Modulus (GPa) = 66.42686 71.73278 69.07982
# Shear Modulus (GPa) = 33.24406 47.01197 40.12801
#
# Velocity S-wave (km/s) = 3.55186 4.22380 3.90232
# Velocity P-wave (km/s) = 6.48299 7.14206 6.82049
#
# Compressibility (1/GPa) = 0.01505415
#
# Stress axis : x y z
#
# Youngs Moduli (GPa) = 49.25144 168.20864 52.30771
#
# Poissons Ratio (x) = 0.31532 0.69811
# Poissons Ratio (y) = 0.09233 -0.00338
# Poissons Ratio (z) = 0.65732 -0.01085
#
# Static dielectric constant tensor:
#      x y z
#    x 2.202150 -0.118450 -0.112870 
#    y -0.118450 2.227320 -0.001200 
#    z -0.112870 -0.001200 2.210180 
# 
# From -- ./inp_files/60039.got.cif
#   From: 2010.05.17/outbox.cif.g08.bks.cpg/sg2_31_cif.got.tgz:60039.got - 2010.06.03 11:33:40.
