data_PCOD9025518
_publ_section_title
;
Structure prediction by ZEFSAII (Michael W. Deem and Ramdas Pophale) SiO2 
 PCOD9025518
Probable space group: P -1
;
_chemical_formula_sum "Si O2"
_cell_formula_units_Z 16
_cell_length_a 9.265472
_cell_length_b 12.273139
_cell_length_c 9.517551
_cell_angle_alpha 95.922193
_cell_angle_beta 85.540186
_cell_angle_gamma 39.665706
_cell_volume 665.762361
_symmetry_space_group_name_H-M "P -1"
_symmetry_group_IT_number 2
_symmetry_cell_setting 'triclinic'
loop_
_space_group_symop_operation_xyz
x,y,z
-x,-y,-z
loop_
_atom_site_type_symbol
_atom_site_label
_atom_site_fract_x
_atom_site_fract_y
_atom_site_fract_z
Si Si1 0.131573 0.769324 0.084494
Si Si2 0.651609 0.183153 0.112726
Si Si3 0.987787 0.611416 0.118428
Si Si4 0.493348 0.903767 0.091736
Si Si5 0.258377 0.040528 0.401580
Si Si6 0.786536 0.259813 0.596920
Si Si7 0.787500 0.695555 0.430016
Si Si8 0.596666 0.607024 0.559034
O O1 0.198088 0.762925 0.238773
O O2 0.121783 0.642484 0.068314
O O3 0.293264 0.732337 0.951576
O O4 0.880695 0.971536 0.090305
O O5 0.538910 0.261211 0.282337
O O6 0.489732 0.215151 0.018563
O O7 0.714697 0.802810 0.154039
O O8 0.986168 0.582727 0.278731
O O9 0.000000 0.500000 0.000000
O O10 0.277014 0.018986 0.228722
O O11 0.500000 0.000000 0.000000
O O12 0.210426 0.194975 0.465449
O O13 0.045934 0.097054 0.489475
O O14 0.512253 0.859998 0.419884
O O15 0.704595 0.430874 0.584939
O O16 0.588822 0.307872 0.539556
O O17 0.789305 0.576408 0.485589
#
# Coordination Sequence:
#
# PCOD9025518 Si02
#       8
#     2   2   2   2   2   2   2   2
#     4  11  25  47  68 102 135 182 232 276 350 407
#     4  11  26  44  71 104 137 179 232 285 337 411
#     4  11  25  43  69 103 138 180 224 281 347 411
#     4  11  23  41  66 104 137 177 228 280 342 403
#     4  10  22  40  69  93 133 178 225 284 332 403
#     4  11  26  45  67  98 139 183 225 281 350 403
#     4  10  22  43  67 100 129 178 233 279 338 402
#     4  11  27  44  67 102 137 180 232 281 342 414
#
# _framework density 24.032599999999999
#
# number of rings (size 3 to 8) (size 9 to 14) (size 15 to 20)
#    0.000    1.250    2.500    1.500   10.500    5.000 
#    0.000    0.000    0.000    0.000    0.000    0.000 
#    0.000    0.000    0.000    0.000    0.000    0.000 
#
# Total GULP energy -89472.719487 kJ/mol
# GULP energy per Si atom -5592.044968 kJ/mol
# Density = 2.397790 g / cm^3
# Si number density = 24.032600 Si / 1000 Ang^3
#
#
#
# Elastic Constant Matrix: (Units=GPa)
#
#
# Indices 1 2 3 4 5 6 
#
# 1 152.7845 16.9383 43.0898 -10.1450 -2.0413 29.4071
# 2 16.9383 58.9899 12.6338 -13.1288 -7.5739 12.3602
# 3 43.0898 12.6338 93.6672 -9.9245 19.3950 29.0107
# 4 -10.1450 -13.1288 -9.9245 37.2188 1.1100 4.5403
# 5 -2.0413 -7.5739 19.3950 1.1100 29.4034 -13.8646
# 6 29.4071 12.3602 29.0107 4.5403 -13.8646 54.8909
#
#
#
# Elastic Compliance Matrix: (Units=1/GPa)
#
#
# Indices 1 2 3 4 5 6 
#
# 1 0.008025 -0.000711 -0.002915 0.001424 0.001093 -0.002440
# 2 -0.000711 0.020195 -0.002069 0.006504 0.005187 -0.002301
# 3 -0.002915 -0.002069 0.023597 0.007620 -0.024758 -0.017328
# 4 0.001424 0.006504 0.007620 0.033284 -0.009940 -0.011519
# 5 0.001093 0.005187 -0.024758 -0.009940 0.065682 0.028744
# 6 -0.002440 -0.002301 -0.017328 -0.011519 0.028744 0.037414
#
#
# Mechanical properties :
#
#
# Convention : Reuss Voigt Hill
#
# Bulk Modulus (GPa) = 24.73676 50.08504 37.41090
# Shear Modulus (GPa) = 23.46711 39.82125 31.64418
#
# Velocity S-wave (km/s) = 3.12824 4.07500 3.63260
# Velocity P-wave (km/s) = 4.83355 6.55946 5.76150
#
# Compressibility (1/GPa) = 0.04042566
#
# Stress axis : x y z
#
# Youngs Moduli (GPa) = 124.60906 49.51717 42.37833
#
# Poissons Ratio (x) = 0.03523 0.12355
# Poissons Ratio (y) = 0.08865 0.08768
# Poissons Ratio (z) = 0.36329 0.10245
#
# Static dielectric constant tensor:
#      x y z
#    x 1.916730 -0.040980 0.006500 
#    y -0.040980 1.984580 -0.022110 
#    z 0.006500 -0.022110 2.027110 
# 
# From -- ./inp_files/187473.got.cif
#   From: 2010.05.17/outbox.cif.g08.bks.cpg/sg2_94_cif.got.tgz:187473.got - 2010.06.03 11:33:40.
