data_PCOD9025116
_publ_section_title
;
Structure prediction by ZEFSAII (Michael W. Deem and Ramdas Pophale) SiO2 
 PCOD9025116
Probable space group: P -1
;
_chemical_formula_sum "Si O2"
_cell_formula_units_Z 16
_cell_length_a 12.123937
_cell_length_b 8.161296
_cell_length_c 26.787857
_cell_angle_alpha 126.446809
_cell_angle_beta 161.494457
_cell_angle_gamma 55.753292
_cell_volume 676.734529
_symmetry_space_group_name_H-M "P -1"
_symmetry_group_IT_number 2
_symmetry_cell_setting 'triclinic'
loop_
_space_group_symop_operation_xyz
x,y,z
-x,-y,-z
loop_
_atom_site_type_symbol
_atom_site_label
_atom_site_fract_x
_atom_site_fract_y
_atom_site_fract_z
Si Si1 0.349118 0.692969 0.857403
Si Si2 0.132258 0.057149 0.378788
Si Si3 0.271491 0.317751 0.889429
Si Si4 0.752388 0.400070 0.549743
Si Si5 0.034695 0.553395 0.967625
Si Si6 0.445998 0.953446 0.235294
Si Si7 0.335954 0.405666 0.276640
Si Si8 0.860708 0.934500 0.506669
O O1 0.697674 0.616596 0.967378
O O2 0.092686 0.818499 0.735295
O O3 0.130476 0.488263 0.738279
O O4 0.478571 0.790062 0.982143
O O5 0.500000 0.000000 0.500000
O O6 0.160871 0.161153 0.464613
O O7 0.902783 0.851610 0.250360
O O8 0.953279 0.440063 0.799595
O O9 0.500000 0.500000 0.000000
O O10 0.500000 0.500000 0.500000
O O11 0.655176 0.444581 0.458047
O O12 0.715734 0.160387 0.495133
O O13 0.208862 0.777636 0.078906
O O14 0.000000 0.500000 0.000000
O O15 0.685620 0.556829 0.785098
O O16 0.753567 0.030296 0.344104
O O17 0.252992 0.164374 0.204520
O O18 0.632151 0.859621 0.347871
#
# Coordination Sequence:
#
# PCOD9025116 Si02
#       8
#     2   2   2   2   2   2   2   2
#     4  11  24  41  63  97 137 171 216 271 337 396
#     4  12  26  43  68 101 137 173 219 280 345 399
#     4  11  24  43  68  99 131 176 220 274 331 401
#     4  11  20  41  68  97 128 169 219 277 333 397
#     4  11  25  42  61  95 134 174 215 275 330 392
#     4  10  22  43  65  94 126 171 227 270 316 395
#     4  10  23  39  68  95 126 169 224 269 325 395
#     4  10  22  40  67  94 126 170 224 271 325 396
#
# _framework density 23.642949000000002
#
# number of rings (size 3 to 8) (size 9 to 14) (size 15 to 20)
#    0.000    1.250    1.250    4.500    3.500    5.000 
#    0.000    1.250    0.000    0.000    0.000    0.000 
#    0.000    0.000    0.000    0.000    0.000    0.000 
#
# Total GULP energy -89347.542151 kJ/mol
# GULP energy per Si atom -5584.221384 kJ/mol
# Density = 2.358914 g / cm^3
# Si number density = 23.642949 Si / 1000 Ang^3
#
#
#
# Elastic Constant Matrix: (Units=GPa)
#
#
# Indices 1 2 3 4 5 6 
#
# 1 93.0038 -8.8964 44.2599 1.9760 -39.5885 11.4717
# 2 -8.8964 61.6404 10.6779 -7.7859 -10.8056 5.9530
# 3 44.2599 10.6779 108.9717 5.6482 -43.8953 6.5758
# 4 1.9760 -7.7859 5.6482 33.6523 8.1193 -5.5526
# 5 -39.5885 -10.8056 -43.8953 8.1193 39.8259 -4.3023
# 6 11.4717 5.9530 6.5758 -5.5526 -4.3023 32.2557
#
#
#
# Elastic Compliance Matrix: (Units=1/GPa)
#
#
# Indices 1 2 3 4 5 6 
#
# 1 0.024182 0.007994 0.002170 -0.008362 0.029436 -0.008031
# 2 0.007994 0.020120 0.000453 0.000085 0.013363 -0.004852
# 3 0.002170 0.000453 0.018916 -0.009681 0.024771 -0.003074
# 4 -0.008362 0.000085 -0.009681 0.039516 -0.026125 0.008250
# 5 0.029436 0.013363 0.024771 -0.026125 0.089485 -0.010547
# 6 -0.008031 -0.004852 -0.003074 0.008250 -0.010547 0.035394
#
#
# Mechanical properties :
#
#
# Convention : Reuss Voigt Hill
#
# Bulk Modulus (GPa) = 11.84097 39.52209 25.68153
# Shear Modulus (GPa) = 21.31918 35.65174 28.48546
#
# Velocity S-wave (km/s) = 3.00611 3.88741 3.47482
# Velocity P-wave (km/s) = 4.13135 6.07469 5.19470
#
# Compressibility (1/GPa) = 0.08445257
#
# Stress axis : x y z
#
# Youngs Moduli (GPa) = 41.35230 49.70122 52.86452
#
# Poissons Ratio (x) = -0.39730 -0.11473
# Poissons Ratio (y) = -0.33056 -0.02393
# Poissons Ratio (z) = -0.08974 -0.02250
#
# Static dielectric constant tensor:
#      x y z
#    x 3.386150 -0.773260 -0.668910 
#    y -0.773260 2.383490 0.373090 
#    z -0.668910 0.373090 2.161200 
# 
# From -- ./inp_files/618226.got.cif
#   From: 2010.05.17/outbox.cif.g08.bks.cpg/sg2_310_cif.got.tgz:618226.got - 2010.06.03 11:33:40.
