data_PCOD9025050
_publ_section_title
;
Structure prediction by ZEFSAII (Michael W. Deem and Ramdas Pophale) SiO2 
 PCOD9025050
Probable space group: P -1
;
_chemical_formula_sum "Si O2"
_cell_formula_units_Z 16
_cell_length_a 7.700592
_cell_length_b 10.876870
_cell_length_c 17.891765
_cell_angle_alpha 136.956557
_cell_angle_beta 47.032309
_cell_angle_gamma 138.258156
_cell_volume 649.656765
_symmetry_space_group_name_H-M "P -1"
_symmetry_group_IT_number 2
_symmetry_cell_setting 'triclinic'
loop_
_space_group_symop_operation_xyz
x,y,z
-x,-y,-z
loop_
_atom_site_type_symbol
_atom_site_label
_atom_site_fract_x
_atom_site_fract_y
_atom_site_fract_z
Si Si1 0.706587 0.880076 0.868057
Si Si2 0.729096 0.108753 0.651412
Si Si3 0.345800 0.627208 0.109035
Si Si4 0.176683 0.768793 0.696929
Si Si5 0.843884 0.529628 0.128751
Si Si6 0.733244 0.029208 0.082315
Si Si7 0.902048 0.010922 0.716535
Si Si8 0.827542 0.636446 0.485895
O O1 0.460868 0.654423 0.858980
O O2 0.977317 0.858520 0.778271
O O3 0.688372 0.946862 0.818837
O O4 0.731978 0.038692 0.996000
O O5 0.623614 0.269481 0.773711
O O6 0.823369 0.059348 0.680343
O O7 0.984326 0.213498 0.569011
O O8 0.451946 0.896237 0.623079
O O9 0.490166 0.809791 0.087065
O O10 0.023865 0.514795 0.137261
O O11 0.500000 0.500000 0.000000
O O12 0.074999 0.530816 0.605282
O O13 0.233930 0.810819 0.789097
O O14 0.867533 0.756567 0.223300
O O15 0.000000 0.500000 0.000000
O O16 0.000000 0.000000 0.000000
O O17 0.900501 0.797178 0.604269
O O18 0.500000 0.500000 0.500000
#
# Coordination Sequence:
#
# PCOD9025050 Si02
#       8
#     2   2   2   2   2   2   2   2
#     4  11  25  47  71 103 153 188 235 299 359 443
#     4  10  24  46  72 103 143 179 246 297 351 433
#     4  10  22  40  67 105 134 181 231 286 356 419
#     4  10  24  46  73 108 136 191 248 291 367 415
#     4  11  25  45  67 103 148 188 231 289 370 426
#     4   9  20  42  68 103 140 178 235 293 345 435
#     4  11  27  46  68 108 139 188 236 297 366 418
#     4  12  26  44  80 103 137 192 247 308 351 426
#
# _framework density 24.628388999999999
#
# number of rings (size 3 to 8) (size 9 to 14) (size 15 to 20)
#    0.000    1.500    2.500    0.375    7.000    5.000 
#    6.750    1.250    0.000    0.000    0.000    0.000 
#    0.000    0.000    0.000    0.000    0.000    0.000 
#
# Total GULP energy -89338.207916 kJ/mol
# GULP energy per Si atom -5583.637995 kJ/mol
# Density = 2.457233 g / cm^3
# Si number density = 24.628389 Si / 1000 Ang^3
#
#
#
# Elastic Constant Matrix: (Units=GPa)
#
#
# Indices 1 2 3 4 5 6 
#
# 1 40.4285 15.7077 24.5738 -0.6861 11.1418 0.2705
# 2 15.7077 155.7173 69.3595 -7.9295 13.0526 12.0930
# 3 24.5738 69.3595 164.7080 17.5185 11.4500 -16.8295
# 4 -0.6861 -7.9295 17.5185 66.2904 -1.1940 -0.8068
# 5 11.1418 13.0526 11.4500 -1.1940 29.7886 -2.5850
# 6 0.2705 12.0930 -16.8295 -0.8068 -2.5850 33.6829
#
#
#
# Elastic Compliance Matrix: (Units=1/GPa)
#
#
# Indices 1 2 3 4 5 6 
#
# 1 0.030068 -0.000021 -0.004237 0.001214 -0.009827 -0.003076
# 2 -0.000021 0.009210 -0.004502 0.002173 -0.002706 -0.005712
# 3 -0.004237 -0.004502 0.009550 -0.003023 0.000319 0.006374
# 4 0.001214 0.002173 -0.003023 0.016138 0.000238 -0.001895
# 5 -0.009827 -0.002706 0.000319 0.000238 0.038681 0.004184
# 6 -0.003076 -0.005712 0.006374 -0.001895 0.004184 0.035224
#
#
# Mechanical properties :
#
#
# Convention : Reuss Voigt Hill
#
# Bulk Modulus (GPa) = 31.94146 64.45955 48.20051
# Shear Modulus (GPa) = 29.97085 42.69991 36.33538
#
# Velocity S-wave (km/s) = 3.49223 4.16837 3.84519
# Velocity P-wave (km/s) = 5.40910 7.02828 6.27117
#
# Compressibility (1/GPa) = 0.03130727
#
# Stress axis : x y z
#
# Youngs Moduli (GPa) = 33.25766 108.57380 104.71206
#
# Poissons Ratio (x) = 0.00231 0.44371
# Poissons Ratio (y) = 0.00071 0.47141
# Poissons Ratio (z) = 0.14093 0.48880
#
# Static dielectric constant tensor:
#      x y z
#    x 2.140190 0.015860 -0.048450 
#    y 0.015860 1.968690 0.025230 
#    z -0.048450 0.025230 2.021200 
# 
# From -- ./inp_files/589612.got.cif
#   From: 2010.05.17/outbox.cif.g08.bks.cpg/sg2_295_cif.got.tgz:589612.got - 2010.06.03 11:33:40.
