data_PCOD9025173
_publ_section_title
;
Structure prediction by ZEFSAII (Michael W. Deem and Ramdas Pophale) SiO2 
 PCOD9025173
Probable space group: P -1
;
_chemical_formula_sum "Si O2"
_cell_formula_units_Z 16
_cell_length_a 14.267735
_cell_length_b 11.118294
_cell_length_c 8.450553
_cell_angle_alpha 127.075022
_cell_angle_beta 76.458479
_cell_angle_gamma 131.066597
_cell_volume 776.625335
_symmetry_space_group_name_H-M "P -1"
_symmetry_group_IT_number 2
_symmetry_cell_setting 'triclinic'
loop_
_space_group_symop_operation_xyz
x,y,z
-x,-y,-z
loop_
_atom_site_type_symbol
_atom_site_label
_atom_site_fract_x
_atom_site_fract_y
_atom_site_fract_z
Si Si1 0.400703 0.321295 0.515788
Si Si2 0.725173 0.021891 0.963194
Si Si3 0.847801 0.848429 0.896266
Si Si4 0.241872 0.432717 0.594135
Si Si5 0.132430 0.572052 0.947458
Si Si6 0.416907 0.535373 0.152255
Si Si7 0.349481 0.789896 0.290483
Si Si8 0.396476 0.860525 0.687299
O O1 0.500000 0.500000 0.500000
O O2 0.308813 0.370789 0.624697
O O3 0.492264 0.355675 0.643428
O O4 0.328511 0.120150 0.282434
O O5 0.815325 0.249344 0.052021
O O6 0.803678 0.975040 0.987035
O O7 0.621380 0.004933 0.096655
O O8 0.825237 0.727428 0.649452
O O9 0.731361 0.665065 0.909420
O O10 0.000000 0.000000 0.000000
O O11 0.338859 0.659282 0.652889
O O12 0.143893 0.426230 0.735168
O O13 0.222523 0.657656 0.133081
O O14 0.000000 0.500000 0.000000
O O15 0.408812 0.684826 0.187393
O O16 0.500000 0.500000 0.000000
O O17 0.327830 0.805252 0.497198
O O18 0.455763 0.996053 0.315690
#
# Coordination Sequence:
#
# PCOD9025173 Si02
#       8
#     2   2   2   2   2   2   2   2
#     4  11  21  40  68  96 126 159 217 263 319 379
#     4  10  24  42  67  93 125 170 215 258 316 391
#     4  11  24  43  67  94 128 175 218 258 318 395
#     4  10  22  45  68  93 125 173 215 266 316 388
#     4  11  27  43  64  90 131 172 215 261 317 381
#     4  12  24  41  66  98 133 165 212 274 327 375
#     4  11  24  38  63  99 133 156 212 269 320 377
#     4  10  22  40  67  97 126 164 207 268 326 369
#
# _framework density 20.601955
#
# number of rings (size 3 to 8) (size 9 to 14) (size 15 to 20)
#    0.000    1.250    3.750    1.500    8.750    2.000 
#    2.250    3.750    0.000    0.000    0.000    0.000 
#    0.000    0.000    0.000    0.000    0.000    0.000 
#
# Total GULP energy -89238.948353 kJ/mol
# GULP energy per Si atom -5577.434272 kJ/mol
# Density = 2.055506 g / cm^3
# Si number density = 20.601955 Si / 1000 Ang^3
#
#
#
# Elastic Constant Matrix: (Units=GPa)
#
#
# Indices 1 2 3 4 5 6 
#
# 1 134.3806 51.5155 47.6072 13.8722 -10.0775 -1.1487
# 2 51.5155 68.4820 24.7964 -4.1085 -5.9813 11.7236
# 3 47.6072 24.7964 82.0965 2.8006 -20.8659 12.9835
# 4 13.8722 -4.1085 2.8006 25.5959 3.6765 -6.6941
# 5 -10.0775 -5.9813 -20.8659 3.6765 43.4018 0.9569
# 6 -1.1487 11.7236 12.9835 -6.6941 0.9569 32.4290
#
#
#
# Elastic Compliance Matrix: (Units=1/GPa)
#
#
# Indices 1 2 3 4 5 6 
#
# 1 0.013964 -0.009703 -0.005785 -0.007170 -0.000375 0.004849
# 2 -0.009703 0.023813 -0.000593 0.007212 0.000292 -0.007235
# 3 -0.005785 -0.000593 0.019217 -0.002447 0.008207 -0.008432
# 4 -0.007170 0.007212 -0.002447 0.047359 -0.006037 0.008072
# 5 -0.000375 0.000292 0.008207 -0.006037 0.027571 -0.005465
# 6 0.004849 -0.007235 -0.008432 0.008072 -0.005465 0.038827
#
#
# Mechanical properties :
#
#
# Convention : Reuss Voigt Hill
#
# Bulk Modulus (GPa) = 40.27010 59.19971 49.73490
# Shear Modulus (GPa) = 23.67518 31.02132 27.34825
#
# Velocity S-wave (km/s) = 3.39362 3.88460 3.64738
# Velocity P-wave (km/s) = 5.91141 6.99411 6.47543
#
# Compressibility (1/GPa) = 0.02483232
#
# Stress axis : x y z
#
# Youngs Moduli (GPa) = 71.61185 41.99368 52.03606
#
# Poissons Ratio (x) = 0.40747 0.30102
# Poissons Ratio (y) = 0.69486 0.03088
# Poissons Ratio (z) = 0.41426 0.02492
#
# Static dielectric constant tensor:
#      x y z
#    x 1.684080 0.064140 -0.044450 
#    y 0.064140 1.743200 -0.020790 
#    z -0.044450 -0.020790 1.828450 
# 
# From -- ./inp_files/308522.got.cif
#   From: 2010.05.17/outbox.cif.g08.bks.cpg/sg2_155_cif.got.tgz:308522.got - 2010.06.03 11:33:40.
