data_PCOD9025755
_publ_section_title
;
Structure prediction by ZEFSAII (Michael W. Deem and Ramdas Pophale) SiO2 
 PCOD9025755
Probable space group: P -1
;
_chemical_formula_sum "Si O2"
_cell_formula_units_Z 12
_cell_length_a 11.560736
_cell_length_b 13.684828
_cell_length_c 9.472243
_cell_angle_alpha 47.572398
_cell_angle_beta 67.928001
_cell_angle_gamma 30.665573
_cell_volume 473.627540
_symmetry_space_group_name_H-M "P -1"
_symmetry_group_IT_number 2
_symmetry_cell_setting 'triclinic'
loop_
_space_group_symop_operation_xyz
x,y,z
-x,-y,-z
loop_
_atom_site_type_symbol
_atom_site_label
_atom_site_fract_x
_atom_site_fract_y
_atom_site_fract_z
Si Si1 0.604523 0.585005 0.655501
Si Si2 0.114757 0.140398 0.053329
Si Si3 0.903845 0.374405 0.455167
Si Si4 0.206674 0.175462 0.272250
Si Si5 0.732222 0.850537 0.284722
Si Si6 0.239244 0.754694 0.518527
O O1 0.681285 0.592902 0.468530
O O2 0.513290 0.525722 0.704294
O O3 0.840931 0.374115 0.863805
O O4 0.350315 0.903649 0.519776
O O5 0.297039 0.055574 0.946318
O O6 0.078693 0.254142 0.104844
O O7 0.218000 0.897171 0.281273
O O8 0.809268 0.335285 0.451005
O O9 0.980474 0.411001 0.265810
O O10 0.171302 0.126604 0.673142
O O11 0.455651 0.042923 0.275232
O O12 0.000000 0.500000 0.500000
O O13 0.000000 0.000000 0.500000
#
# Coordination Sequence:
#
# PCOD9025755 Si02
#       6
#     2   2   2   2   2   2
#     4  10  22  41  66  94 132 162 211 266 315 376
#     4  10  22  40  71  93 125 176 205 265 326 364
#     4  11  22  41  69  95 126 174 207 263 324 369
#     4  11  21  44  66  94 130 168 214 262 313 380
#     4  11  22  42  69  90 134 171 208 262 319 373
#     4  11  22  43  68  95 129 164 215 266 320 376
#
# _framework density 25.336365000000001
#
# number of rings (size 3 to 8) (size 9 to 14) (size 15 to 20)
#    0.000    1.333    6.667    1.500    0.000    3.333 
#    0.000    7.500    0.000    0.000    0.000    0.000 
#    0.000    0.000    0.000    0.000    0.000    0.000 
#
# Total GULP energy -67025.486324 kJ/mol
# GULP energy per Si atom -5585.457194 kJ/mol
# Density = 2.527870 g / cm^3
# Si number density = 25.336365 Si / 1000 Ang^3
#
#
#
# Elastic Constant Matrix: (Units=GPa)
#
#
# Indices 1 2 3 4 5 6 
#
# 1 83.7365 19.3466 26.8749 -12.0273 23.7765 -33.7449
# 2 19.3466 124.6358 25.4982 20.4686 16.6479 -18.0808
# 3 26.8749 25.4982 89.2321 5.2744 22.5534 -12.5817
# 4 -12.0273 20.4686 5.2744 37.5408 0.3875 4.8401
# 5 23.7765 16.6479 22.5534 0.3875 48.1345 2.9798
# 6 -33.7449 -18.0808 -12.5817 4.8401 2.9798 46.7386
#
#
#
# Elastic Compliance Matrix: (Units=1/GPa)
#
#
# Indices 1 2 3 4 5 6 
#
# 1 0.023394 -0.000266 -0.002101 0.005948 -0.011539 0.016342
# 2 -0.000266 0.010343 -0.001107 -0.006096 -0.003146 0.004343
# 3 -0.002101 -0.001107 0.013952 -0.002282 -0.005246 0.002382
# 4 0.005948 -0.006096 -0.002282 0.032451 0.000106 -0.002046
# 5 -0.011539 -0.003146 -0.005246 0.000106 0.030821 -0.012936
# 6 0.016342 0.004343 0.002382 -0.002046 -0.012936 0.036552
#
#
# Mechanical properties :
#
#
# Convention : Reuss Voigt Hill
#
# Bulk Modulus (GPa) = 24.54559 49.00486 36.77522
# Shear Modulus (GPa) = 29.75459 41.54176 35.64818
#
# Velocity S-wave (km/s) = 3.43064 4.05360 3.75506
# Velocity P-wave (km/s) = 5.03998 6.42593 5.77469
#
# Compressibility (1/GPa) = 0.04074052
#
# Stress axis : x y z
#
# Youngs Moduli (GPa) = 42.74590 96.68640 71.67211
#
# Poissons Ratio (x) = 0.02576 0.15056
# Poissons Ratio (y) = 0.01139 0.07936
# Poissons Ratio (z) = 0.08979 0.10706
#
# Static dielectric constant tensor:
#      x y z
#    x 2.010210 -0.010270 -0.007320 
#    y -0.010270 2.050450 0.000280 
#    z -0.007320 0.000280 2.004160 
# 
# From -- ./inp_files/213668.got.cif
#   From: 2010.05.17/outbox.cif.g08.bks.cpg/sg2_107_cif.got.tgz:213668.got - 2010.06.03 11:33:40.
