data_PCOD9025004
_publ_section_title
;
Structure prediction by ZEFSAII (Michael W. Deem and Ramdas Pophale) SiO2 
 PCOD9025004
Probable space group: P -1
;
_chemical_formula_sum "Si O2"
_cell_formula_units_Z 12
_cell_length_a 7.966947
_cell_length_b 5.313634
_cell_length_c 14.274787
_cell_angle_alpha 91.675449
_cell_angle_beta 73.756429
_cell_angle_gamma 122.419726
_cell_volume 484.289151
_symmetry_space_group_name_H-M "P -1"
_symmetry_group_IT_number 2
_symmetry_cell_setting 'triclinic'
loop_
_space_group_symop_operation_xyz
x,y,z
-x,-y,-z
loop_
_atom_site_type_symbol
_atom_site_label
_atom_site_fract_x
_atom_site_fract_y
_atom_site_fract_z
Si Si1 0.106237 0.171921 0.627140
Si Si2 0.290554 0.223855 0.981787
Si Si3 0.683871 0.147302 0.737288
Si Si4 0.134943 0.592454 0.095289
Si Si5 0.295444 0.468926 0.791072
Si Si6 0.157502 0.428752 0.429014
O O1 0.255480 0.325829 0.693021
O O2 0.209598 0.299959 0.509892
O O3 0.905131 0.189506 0.678960
O O4 0.987177 0.815946 0.629427
O O5 0.304089 0.267064 0.868793
O O6 0.500000 0.500000 0.000000
O O7 0.130470 0.316247 0.044061
O O8 0.240915 0.904714 0.022598
O O9 0.726843 0.314232 0.830931
O O10 0.652212 0.302424 0.654606
O O11 0.503713 0.799513 0.767990
O O12 0.904345 0.510555 0.155166
O O13 0.000000 0.500000 0.500000
#
# Coordination Sequence:
#
# PCOD9025004 Si02
#       6
#     2   2   2   2   2   2
#     4   9  21  43  65  98 132 177 223 286 346 411
#     4  12  25  48  70 100 142 191 230 287 344 409
#     4  10  22  40  67 100 132 181 228 281 343 410
#     4  11  26  47  69 101 144 186 233 284 346 408
#     4  11  24  43  69 102 136 181 234 284 342 412
#     4   9  19  42  68  90 136 175 219 283 351 410
#
# _framework density 24.778583999999999
#
# number of rings (size 3 to 8) (size 9 to 14) (size 15 to 20)
#    0.000    1.667    1.667    1.500    4.667    0.667 
#    9.000    7.500    0.000    0.000    0.000    0.000 
#    0.000    0.000    0.000    0.000    0.000    0.000 
#
# Total GULP energy -67160.737522 kJ/mol
# GULP energy per Si atom -5596.728127 kJ/mol
# Density = 2.472219 g / cm^3
# Si number density = 24.778584 Si / 1000 Ang^3
#
#
#
# Elastic Constant Matrix: (Units=GPa)
#
#
# Indices 1 2 3 4 5 6 
#
# 1 88.6036 12.3582 29.5185 -7.4471 5.2969 10.3572
# 2 12.3582 92.2437 80.4455 -15.0714 19.8625 -12.8153
# 3 29.5185 80.4455 144.1910 -12.4260 34.4407 10.6159
# 4 -7.4471 -15.0714 -12.4260 58.5606 -2.2208 3.5985
# 5 5.2969 19.8625 34.4407 -2.2208 24.4274 11.7816
# 6 10.3572 -12.8153 10.6159 3.5985 11.7816 39.9378
#
#
#
# Elastic Compliance Matrix: (Units=1/GPa)
#
#
# Indices 1 2 3 4 5 6 
#
# 1 0.012617 -0.000186 -0.002912 0.001294 0.003415 -0.003682
# 2 -0.000186 0.027814 -0.013968 0.002844 -0.010049 0.015394
# 3 -0.002912 -0.013968 0.018444 -0.000168 -0.011515 -0.005218
# 4 0.001294 0.002844 -0.000168 0.017983 -0.000280 -0.000916
# 5 0.003415 -0.010049 -0.011515 -0.000280 0.075866 -0.023404
# 6 -0.003682 0.015394 -0.005218 -0.000916 -0.023404 0.039307
#
#
# Mechanical properties :
#
#
# Convention : Reuss Voigt Hill
#
# Bulk Modulus (GPa) = 40.41405 63.29808 51.85606
# Shear Modulus (GPa) = 21.33000 38.09956 29.71478
#
# Velocity S-wave (km/s) = 2.93716 3.92548 3.46672
# Velocity P-wave (km/s) = 5.27713 6.79314 6.08255
#
# Compressibility (1/GPa) = 0.02474387
#
# Stress axis : x y z
#
# Youngs Moduli (GPa) = 79.25559 35.95284 54.21730
#
# Poissons Ratio (x) = 0.00668 0.15790
# Poissons Ratio (y) = 0.01472 0.75730
# Poissons Ratio (z) = 0.23082 0.50219
#
# Static dielectric constant tensor:
#      x y z
#    x 2.069620 -0.030200 -0.020520 
#    y -0.030200 1.922700 -0.023050 
#    z -0.020520 -0.023050 2.011760 
# 
# From -- ./inp_files/34895.got.cif
#   From: 2010.05.17/outbox.cif.g08.bks.cpg/sg2_18_cif.got.tgz:34895.got - 2010.06.03 11:33:40.
