data_PCOD9025949
_publ_section_title
;
Structure prediction by ZEFSAII (Michael W. Deem and Ramdas Pophale) SiO2 
 PCOD9025949
Probable space group: P -1
;
_chemical_formula_sum "Si O2"
_cell_formula_units_Z 16
_cell_length_a 20.223524
_cell_length_b 5.706287
_cell_length_c 17.876281
_cell_angle_alpha 68.129058
_cell_angle_beta 157.771356
_cell_angle_gamma 121.675140
_cell_volume 621.479220
_symmetry_space_group_name_H-M "P -1"
_symmetry_group_IT_number 2
_symmetry_cell_setting 'triclinic'
loop_
_space_group_symop_operation_xyz
x,y,z
-x,-y,-z
loop_
_atom_site_type_symbol
_atom_site_label
_atom_site_fract_x
_atom_site_fract_y
_atom_site_fract_z
Si Si1 0.331936 0.600422 0.975573
Si Si2 0.014883 0.748145 0.589497
Si Si3 0.674659 0.338619 0.658767
Si Si4 0.395708 0.906240 0.149026
Si Si5 0.023189 0.924020 0.743774
Si Si6 0.413128 0.550096 0.827304
Si Si7 0.247713 0.095057 0.409437
Si Si8 0.969339 0.703177 0.041397
O O1 0.229447 0.767049 0.808295
O O2 0.149729 0.265246 0.812793
O O3 0.544971 0.661557 0.158112
O O4 0.350592 0.635048 0.080786
O O5 0.799906 0.472358 0.373205
O O6 0.975812 0.753764 0.636652
O O7 0.000000 0.000000 0.500000
O O8 0.866180 0.365606 0.811838
O O9 0.753466 0.444527 0.813918
O O10 0.500000 0.000000 0.500000
O O11 0.949913 0.173616 0.805802
O O12 0.467249 0.153796 0.130073
O O13 0.583091 0.990945 0.388503
O O14 0.186475 0.868059 0.964934
O O15 0.833812 0.851961 0.604727
O O16 0.500000 0.500000 0.000000
O O17 0.348176 0.398093 0.431231
O O18 0.000000 0.000000 0.000000
#
# Coordination Sequence:
#
# PCOD9025949 Si02
#       8
#     2   2   2   2   2   2   2   2
#     4  10  22  41  59  89 133 170 225 287 348 412
#     4  11  23  39  64  92 130 180 231 289 352 412
#     4  10  23  48  74 105 144 182 237 285 349 443
#     4  10  23  42  64  99 134 179 232 282 354 418
#     4  10  23  42  64  97 136 177 234 287 347 425
#     4  11  23  39  64  92 129 175 235 291 346 420
#     4  11  23  44  72 102 143 189 227 300 359 414
#     4   9  22  46  70 104 140 180 234 279 360 427
#
# _framework density 25.745024999999998
#
# number of rings (size 3 to 8) (size 9 to 14) (size 15 to 20)
#    0.000    1.750    0.000    3.750    0.000   12.000 
#   18.000    0.000    0.000    0.000    0.000    0.000 
#    0.000    0.000    0.000    0.000    0.000    0.000 
#
# Total GULP energy -89349.010474 kJ/mol
# GULP energy per Si atom -5584.313155 kJ/mol
# Density = 2.568643 g / cm^3
# Si number density = 25.745025 Si / 1000 Ang^3
#
#
#
# Elastic Constant Matrix: (Units=GPa)
#
#
# Indices 1 2 3 4 5 6 
#
# 1 64.3701 9.3837 28.4395 -3.6636 -0.2725 4.3754
# 2 9.3837 82.0233 48.9658 -2.4092 -12.5340 13.2785
# 3 28.4395 48.9658 139.7082 -15.1847 -7.7889 7.8887
# 4 -3.6636 -2.4092 -15.1847 52.1614 -4.7177 0.9952
# 5 -0.2725 -12.5340 -7.7889 -4.7177 47.8806 -1.0326
# 6 4.3754 13.2785 7.8887 0.9952 -1.0326 40.0298
#
#
#
# Elastic Compliance Matrix: (Units=1/GPa)
#
#
# Indices 1 2 3 4 5 6 
#
# 1 0.017145 0.000294 -0.003523 0.000180 -0.000409 -0.001292
# 2 0.000294 0.016651 -0.005510 -0.000430 0.003328 -0.004373
# 3 -0.003523 -0.005510 0.010089 0.002470 0.000426 0.000174
# 4 0.000180 -0.000430 0.002470 0.020102 0.002254 -0.000805
# 5 -0.000409 0.003328 0.000426 0.002254 0.022032 -0.000631
# 6 -0.001292 -0.004373 0.000174 -0.000805 -0.000631 0.026543
#
#
# Mechanical properties :
#
#
# Convention : Reuss Voigt Hill
#
# Bulk Modulus (GPa) = 37.87031 51.07550 44.47291
# Shear Modulus (GPa) = 36.01179 41.30186 38.65683
#
# Velocity S-wave (km/s) = 3.74409 4.00967 3.87916
# Velocity P-wave (km/s) = 5.78210 6.42796 6.11357
#
# Compressibility (1/GPa) = 0.02640591
#
# Stress axis : x y z
#
# Youngs Moduli (GPa) = 58.32475 60.05542 99.12142
#
# Poissons Ratio (x) = -0.01765 0.34925
# Poissons Ratio (y) = -0.01715 0.54618
# Poissons Ratio (z) = 0.20551 0.33092
#
# Static dielectric constant tensor:
#      x y z
#    x 2.073680 -0.008970 0.005150 
#    y -0.008970 2.186930 0.033460 
#    z 0.005150 0.033460 2.070250 
# 
# From -- ./inp_files/601756.got.cif
#   From: 2010.05.17/outbox.cif.g08.bks.cpg/sg2_301_cif.got.tgz:601756.got - 2010.06.03 11:33:40.
