data_PCOD9025849
_publ_section_title
;
Structure prediction by ZEFSAII (Michael W. Deem and Ramdas Pophale) SiO2 
 PCOD9025849
Probable space group: P -1
;
_chemical_formula_sum "Si O2"
_cell_formula_units_Z 14
_cell_length_a 9.135381
_cell_length_b 18.571351
_cell_length_c 8.928692
_cell_angle_alpha 127.976999
_cell_angle_beta 60.068218
_cell_angle_gamma 149.462575
_cell_volume 604.880182
_symmetry_space_group_name_H-M "P -1"
_symmetry_group_IT_number 2
_symmetry_cell_setting 'triclinic'
loop_
_space_group_symop_operation_xyz
x,y,z
-x,-y,-z
loop_
_atom_site_type_symbol
_atom_site_label
_atom_site_fract_x
_atom_site_fract_y
_atom_site_fract_z
Si Si1 0.872722 0.888873 0.060428
Si Si2 0.101222 0.671297 0.624486
Si Si3 0.213476 0.017344 0.343570
Si Si4 0.232315 0.320541 0.352729
Si Si5 0.179542 0.857048 0.410355
Si Si6 0.311635 0.711004 0.141268
Si Si7 0.941085 0.437247 0.205224
O O1 0.639793 0.854562 0.211600
O O2 0.103255 0.958058 0.153507
O O3 0.709084 0.730353 0.866714
O O4 0.000000 0.000000 0.000000
O O5 0.925348 0.516814 0.424809
O O6 0.009837 0.723686 0.660514
O O7 0.009342 0.623130 0.782970
O O8 0.445581 0.806587 0.607056
O O9 0.182175 0.911217 0.321561
O O10 0.000000 0.000000 0.500000
O O11 0.500000 0.500000 0.500000
O O12 0.070588 0.212476 0.444714
O O13 0.134367 0.727097 0.263272
O O14 0.500000 0.000000 0.500000
O O15 0.171578 0.570334 0.133779
O O16 0.324342 0.699443 0.941875
#
# Coordination Sequence:
#
# PCOD9025849 Si02
#       7
#     2   2   2   2   2   2   2
#     4  12  27  45  72 108 148 189 250 298 363 438
#     4  11  23  44  70 101 143 186 238 296 365 425
#     4  12  26  45  75 107 140 193 247 297 358 435
#     4  12  27  46  71 110 149 191 241 307 367 430
#     4  12  24  47  74 101 148 192 239 296 367 434
#     4  11  23  44  70 101 138 188 233 291 362 430
#     4  10  22  40  72  95 135 187 232 288 367 431
#
# _framework density 23.145078000000002
#
# number of rings (size 3 to 8) (size 9 to 14) (size 15 to 20)
#    0.000    0.571    2.857    5.143    4.000    5.143 
#    0.000    1.429    0.000    0.000    0.000    0.000 
#    0.000    0.000    0.000    0.000    0.000    0.000 
#
# Total GULP energy -78180.821633 kJ/mol
# GULP energy per Si atom -5584.344402 kJ/mol
# Density = 2.309240 g / cm^3
# Si number density = 23.145078 Si / 1000 Ang^3
#
#
#
# Elastic Constant Matrix: (Units=GPa)
#
#
# Indices 1 2 3 4 5 6 
#
# 1 116.1235 30.8512 38.3079 -11.6827 27.1621 -11.3509
# 2 30.8512 89.4915 18.2714 -8.6739 17.4899 -18.8984
# 3 38.3079 18.2714 104.2076 2.0911 23.1385 -3.7581
# 4 -11.6827 -8.6739 2.0911 31.5427 -9.4181 8.1475
# 5 27.1621 17.4899 23.1385 -9.4181 44.8258 -14.0172
# 6 -11.3509 -18.8984 -3.7581 8.1475 -14.0172 41.3073
#
#
#
# Elastic Compliance Matrix: (Units=1/GPa)
#
#
# Indices 1 2 3 4 5 6 
#
# 1 0.011379 -0.002307 -0.002959 0.002614 -0.003933 -0.000048
# 2 -0.002307 0.013615 -0.001028 0.001252 -0.001653 0.004694
# 3 -0.002959 -0.001028 0.012023 -0.003378 -0.005115 -0.001259
# 4 0.002614 0.001252 -0.003378 0.036082 0.005967 -0.004108
# 5 -0.003933 -0.001653 -0.005115 0.005967 0.031484 0.007204
# 6 -0.000048 0.004694 -0.001259 -0.004108 0.007204 0.029483
#
#
# Mechanical properties :
#
#
# Convention : Reuss Voigt Hill
#
# Bulk Modulus (GPa) = 40.93639 53.85376 47.39508
# Shear Modulus (GPa) = 32.30039 38.36130 35.33084
#
# Velocity S-wave (km/s) = 3.73977 4.07557 3.91128
# Velocity P-wave (km/s) = 6.03102 6.74281 6.39682
#
# Compressibility (1/GPa) = 0.02442814
#
# Stress axis : x y z
#
# Youngs Moduli (GPa) = 87.88153 73.44890 83.17718
#
# Poissons Ratio (x) = 0.16942 0.24616
# Poissons Ratio (y) = 0.20271 0.08551
# Poissons Ratio (z) = 0.26008 0.07551
#
# Static dielectric constant tensor:
#      x y z
#    x 1.893130 0.007800 -0.029790 
#    y 0.007800 1.872200 0.037100 
#    z -0.029790 0.037100 2.006040 
# 
# From -- ./inp_files/186294.got.cif
#   From: 2010.05.17/outbox.cif.g08.bks.cpg/sg2_94_cif.got.tgz:186294.got - 2010.06.03 11:33:40.
