data_PCOD9025257
_publ_section_title
;
Structure prediction by ZEFSAII (Michael W. Deem and Ramdas Pophale) SiO2 
 PCOD9025257
Probable space group: P -1
;
_chemical_formula_sum "Si O2"
_cell_formula_units_Z 14
_cell_length_a 8.192330
_cell_length_b 7.756051
_cell_length_c 21.887010
_cell_angle_alpha 44.879157
_cell_angle_beta 42.012878
_cell_angle_gamma 72.130683
_cell_volume 581.431722
_symmetry_space_group_name_H-M "P -1"
_symmetry_group_IT_number 2
_symmetry_cell_setting 'triclinic'
loop_
_space_group_symop_operation_xyz
x,y,z
-x,-y,-z
loop_
_atom_site_type_symbol
_atom_site_label
_atom_site_fract_x
_atom_site_fract_y
_atom_site_fract_z
Si Si1 0.719798 0.277565 0.662128
Si Si2 0.577170 0.721779 0.819242
Si Si3 0.442731 0.664132 0.666987
Si Si4 0.034761 0.586171 0.040870
Si Si5 0.773721 0.159438 0.807479
Si Si6 0.882011 0.260718 0.371445
Si Si7 0.759442 0.852979 0.001492
O O1 0.547723 0.433079 0.692548
O O2 0.795242 0.147709 0.732675
O O3 0.000000 0.500000 0.500000
O O4 0.586533 0.009333 0.723132
O O5 0.884177 0.761717 0.729195
O O6 0.336637 0.622538 0.962551
O O7 0.450846 0.469891 0.869340
O O8 0.314000 0.674234 0.634620
O O9 0.201880 0.595960 0.800489
O O10 0.700588 0.967272 0.528069
O O11 0.000000 0.500000 0.000000
O O12 0.999678 0.863623 0.974405
O O13 0.959357 0.479612 0.693501
O O14 0.862527 0.992343 0.872142
O O15 0.444193 0.038809 0.942186
#
# Coordination Sequence:
#
# PCOD9025257 Si02
#       7
#     2   2   2   2   2   2   2
#     4  12  25  43  67 102 134 176 227 277 330 403
#     4  10  23  41  68  96 136 172 222 274 334 395
#     4  11  24  45  69  98 140 175 227 275 338 400
#     4  10  22  40  68 103 132 170 226 280 331 395
#     4  10  22  40  69  94 134 175 226 270 336 395
#     4  10  24  46  71  95 133 186 221 277 339 398
#     4   9  20  41  62 100 132 173 218 275 335 396
#
# _framework density 24.078493999999999
#
# number of rings (size 3 to 8) (size 9 to 14) (size 15 to 20)
#    0.000    1.714    2.857    0.000    2.000   10.286 
#    0.000    0.714    0.000    0.000    0.000    0.000 
#    0.000    0.000    0.000    0.000    0.000    0.000 
#
# Total GULP energy -78061.106940 kJ/mol
# GULP energy per Si atom -5575.793353 kJ/mol
# Density = 2.402369 g / cm^3
# Si number density = 24.078494 Si / 1000 Ang^3
#
#
#
# Elastic Constant Matrix: (Units=GPa)
#
#
# Indices 1 2 3 4 5 6 
#
# 1 40.9971 9.9536 15.8249 0.4228 2.4924 -5.7022
# 2 9.9536 83.1400 33.8387 -9.8745 -10.5954 10.2056
# 3 15.8249 33.8387 143.2573 3.5222 -7.0165 3.8544
# 4 0.4228 -9.8745 3.5222 42.6504 -2.3114 -3.2053
# 5 2.4924 -10.5954 -7.0165 -2.3114 37.0557 4.0995
# 6 -5.7022 10.2056 3.8544 -3.2053 4.0995 26.1609
#
#
#
# Elastic Compliance Matrix: (Units=1/GPa)
#
#
# Indices 1 2 3 4 5 6 
#
# 1 0.027832 -0.003987 -0.002571 -0.000581 -0.004490 0.008633
# 2 -0.003987 0.015628 -0.002902 0.003659 0.005179 -0.006901
# 3 -0.002571 -0.002902 0.008051 -0.001332 0.000886 -0.000917
# 4 -0.000581 0.003659 -0.001332 0.024629 0.002224 0.001311
# 5 -0.004490 0.005179 0.000886 0.002224 0.029910 -0.007544
# 6 0.008633 -0.006901 -0.000917 0.001311 -0.007544 0.044277
#
#
# Mechanical properties :
#
#
# Convention : Reuss Voigt Hill
#
# Bulk Modulus (GPa) = 30.68204 42.95875 36.82039
# Shear Modulus (GPa) = 27.76108 35.02522 31.39315
#
# Velocity S-wave (km/s) = 3.39918 3.81809 3.61471
# Velocity P-wave (km/s) = 5.30812 6.10876 5.72246
#
# Compressibility (1/GPa) = 0.03259236
#
# Stress axis : x y z
#
# Youngs Moduli (GPa) = 35.93006 63.98774 124.21400
#
# Poissons Ratio (x) = 0.25510 0.31931
# Poissons Ratio (y) = 0.14324 0.36043
# Poissons Ratio (z) = 0.09236 0.18567
#
# Static dielectric constant tensor:
#      x y z
#    x 2.014420 -0.013830 -0.064000 
#    y -0.013830 2.084710 -0.041000 
#    z -0.064000 -0.041000 1.945900 
# 
# From -- ./inp_files/606607.got.cif
#   From: 2010.05.17/outbox.cif.g08.bks.cpg/sg2_304_cif.got.tgz:606607.got - 2010.06.03 11:33:40.
