data_PCOD9025161
_publ_section_title
;
Structure prediction by ZEFSAII (Michael W. Deem and Ramdas Pophale) SiO2 
 PCOD9025161
Probable space group: P -1
;
_chemical_formula_sum "Si O2"
_cell_formula_units_Z 16
_cell_length_a 11.688172
_cell_length_b 10.315454
_cell_length_c 11.619595
_cell_angle_alpha 63.324154
_cell_angle_beta 110.624631
_cell_angle_gamma 145.605159
_cell_volume 706.697021
_symmetry_space_group_name_H-M "P -1"
_symmetry_group_IT_number 2
_symmetry_cell_setting 'triclinic'
loop_
_space_group_symop_operation_xyz
x,y,z
-x,-y,-z
loop_
_atom_site_type_symbol
_atom_site_label
_atom_site_fract_x
_atom_site_fract_y
_atom_site_fract_z
Si Si1 0.519674 0.294965 0.055260
Si Si2 0.267215 0.287950 0.477457
Si Si3 0.579909 0.970309 0.664596
Si Si4 0.827675 0.286545 0.435529
Si Si5 0.843457 0.481810 0.926233
Si Si6 0.802330 0.442920 0.668029
Si Si7 0.804236 0.787836 0.094730
Si Si8 0.003501 0.944303 0.723174
O O1 0.385574 0.093449 0.186887
O O2 0.675176 0.542310 0.083663
O O3 0.663146 0.328955 0.015571
O O4 0.360632 0.237706 0.947646
O O5 0.500000 0.500000 0.500000
O O6 0.213399 0.405442 0.433238
O O7 0.200588 0.197556 0.357798
O O8 0.151931 0.078465 0.612027
O O9 0.341629 0.757012 0.640620
O O10 0.700756 0.049407 0.559442
O O11 0.659025 0.204291 0.637444
O O12 0.000000 0.500000 0.500000
O O13 0.960617 0.371036 0.339649
O O14 0.749027 0.370275 0.810918
O O15 0.956874 0.746203 0.846913
O O16 0.000000 0.500000 0.000000
O O17 0.896414 0.855689 0.227453
O O18 0.000000 0.000000 0.000000
#
# Coordination Sequence:
#
# PCOD9025161 Si02
#       8
#     2   2   2   2   2   2   2   2
#     4  11  26  43  67 106 132 188 230 278 351 413
#     4  10  24  43  67  96 134 178 229 281 339 406
#     4  10  22  40  67  96 134 169 225 280 340 404
#     4   9  20  41  62  91 130 170 222 277 330 396
#     4  11  24  44  68 100 144 176 225 279 343 427
#     4  10  23  40  64 100 132 176 218 276 344 404
#     4  11  25  46  69  93 139 180 237 286 332 408
#     4  10  24  44  69  98 132 182 229 285 341 402
#
# _framework density 22.640536999999998
#
# number of rings (size 3 to 8) (size 9 to 14) (size 15 to 20)
#    0.000    1.750    1.250    0.750    5.250   10.500 
#    0.000    0.000    0.000    0.000    0.000    0.000 
#    0.000    0.000    0.000    0.000    0.000    0.000 
#
# Total GULP energy -89298.743516 kJ/mol
# GULP energy per Si atom -5581.171470 kJ/mol
# Density = 2.258901 g / cm^3
# Si number density = 22.640537 Si / 1000 Ang^3
#
#
#
# Elastic Constant Matrix: (Units=GPa)
#
#
# Indices 1 2 3 4 5 6 
#
# 1 49.1340 15.4540 11.3040 12.1229 0.1629 16.1769
# 2 15.4540 99.1854 18.3963 27.3889 6.2207 10.0953
# 3 11.3040 18.3963 90.2272 7.2162 -15.0222 7.6382
# 4 12.1229 27.3889 7.2162 41.0425 -7.0800 -2.1367
# 5 0.1629 6.2207 -15.0222 -7.0800 20.3934 5.1467
# 6 16.1769 10.0953 7.6382 -2.1367 5.1467 33.0930
#
#
#
# Elastic Compliance Matrix: (Units=1/GPa)
#
#
# Indices 1 2 3 4 5 6 
#
# 1 0.027279 -0.000152 -0.001762 -0.008523 -0.001081 -0.013264
# 2 -0.000152 0.014757 -0.003590 -0.011092 -0.010311 -0.002711
# 3 -0.001762 -0.003590 0.014337 0.002532 0.013374 -0.003269
# 4 -0.008523 -0.011092 0.002532 0.037032 0.016458 0.006797
# 5 -0.001081 -0.010311 0.013374 0.016458 0.070089 -0.009251
# 6 -0.013264 -0.002711 -0.003269 0.006797 -0.009251 0.040161
#
#
# Mechanical properties :
#
#
# Convention : Reuss Voigt Hill
#
# Bulk Modulus (GPa) = 22.04331 36.53944 29.29137
# Shear Modulus (GPa) = 21.75945 31.79858 26.77902
#
# Velocity S-wave (km/s) = 3.10350 3.75173 3.44290
# Velocity P-wave (km/s) = 4.75391 5.91111 5.36381
#
# Compressibility (1/GPa) = 0.04536524
#
# Stress axis : x y z
#
# Youngs Moduli (GPa) = 36.65774 67.76383 69.75108
#
# Poissons Ratio (x) = 0.01030 0.12291
# Poissons Ratio (y) = 0.00557 0.25039
# Poissons Ratio (z) = 0.06459 0.24326
#
# Static dielectric constant tensor:
#      x y z
#    x 1.922640 0.002320 0.069560 
#    y 0.002320 1.874380 0.038810 
#    z 0.069560 0.038810 2.012520 
# 
# From -- ./inp_files/427858.got.cif
#   From: 2010.05.17/outbox.cif.g08.bks.cpg/sg2_214_cif.got.tgz:427858.got - 2010.06.03 11:33:40.
