data_PCOD9025301
_publ_section_title
;
Structure prediction by ZEFSAII (Michael W. Deem and Ramdas Pophale) SiO2 
 PCOD9025301
Probable space group: P -1
;
_chemical_formula_sum "Si O2"
_cell_formula_units_Z 16
_cell_length_a 9.643084
_cell_length_b 7.264855
_cell_length_c 11.280590
_cell_angle_alpha 98.367466
_cell_angle_beta 118.689809
_cell_angle_gamma 93.033306
_cell_volume 678.971400
_symmetry_space_group_name_H-M "P -1"
_symmetry_group_IT_number 2
_symmetry_cell_setting 'triclinic'
loop_
_space_group_symop_operation_xyz
x,y,z
-x,-y,-z
loop_
_atom_site_type_symbol
_atom_site_label
_atom_site_fract_x
_atom_site_fract_y
_atom_site_fract_z
Si Si1 0.149546 0.950750 0.133168
Si Si2 0.000390 0.631414 0.396577
Si Si3 0.397379 0.165753 0.435224
Si Si4 0.437883 0.043001 0.108108
Si Si5 0.603764 0.535997 0.929147
Si Si6 0.333356 0.756878 0.613012
Si Si7 0.971900 0.578460 0.125573
Si Si8 0.670517 0.645813 0.333960
O O1 0.255818 0.097892 0.277637
O O2 0.282068 0.916250 0.084904
O O3 0.070028 0.785683 0.170542
O O4 0.000000 0.000000 0.000000
O O5 0.162609 0.777106 0.490696
O O6 0.000000 0.500000 0.500000
O O7 0.018594 0.518886 0.270887
O O8 0.833756 0.719037 0.336489
O O9 0.538170 0.294222 0.434769
O O10 0.329486 0.257482 0.529948
O O11 0.500000 0.000000 0.500000
O O12 0.393840 0.254875 0.102665
O O13 0.583413 0.063130 0.263641
O O14 0.500000 0.000000 0.000000
O O15 0.510751 0.375448 0.791441
O O16 0.500000 0.500000 0.000000
O O17 0.782373 0.539606 0.043969
O O18 0.311833 0.576278 0.672101
O O19 0.000000 0.500000 0.000000
#
# Coordination Sequence:
#
# PCOD9025301 Si02
#       8
#     2   2   2   2   2   2   2   2
#     4  11  25  46  64 101 146 179 239 288 357 425
#     4  10  22  44  65 102 134 175 236 289 347 414
#     4  11  24  41  64  96 133 179 227 285 349 417
#     4  10  23  42  68  97 137 187 221 287 353 420
#     4  11  23  42  66 100 139 173 237 281 344 416
#     4   9  21  40  63  92 129 170 231 274 340 417
#     4  12  27  43  72 104 138 184 233 298 347 422
#     4  10  22  40  68  90 131 179 223 283 336 414
#
# _framework density 23.565056999999999
#
# number of rings (size 3 to 8) (size 9 to 14) (size 15 to 20)
#    0.000    1.500    2.500    1.125    5.250    4.000 
#    0.000    1.250    0.000    0.000    0.000    0.000 
#    0.000    0.000    0.000    0.000    0.000    0.000 
#
# Total GULP energy -89183.751537 kJ/mol
# GULP energy per Si atom -5573.984471 kJ/mol
# Density = 2.351142 g / cm^3
# Si number density = 23.565057 Si / 1000 Ang^3
#
#
#
# Elastic Constant Matrix: (Units=GPa)
#
#
# Indices 1 2 3 4 5 6 
#
# 1 168.6454 8.4823 75.9484 12.6694 20.0530 25.2372
# 2 8.4823 42.4614 17.6823 -4.9844 9.3742 9.8676
# 3 75.9484 17.6823 175.5026 -0.8420 1.1093 4.0595
# 4 12.6694 -4.9844 -0.8420 29.8206 6.2529 -1.6494
# 5 20.0530 9.3742 1.1093 6.2529 56.2902 1.9761
# 6 25.2372 9.8676 4.0595 -1.6494 1.9761 25.1986
#
#
#
# Elastic Compliance Matrix: (Units=1/GPa)
#
#
# Indices 1 2 3 4 5 6 
#
# 1 0.009927 0.002403 -0.004301 -0.003859 -0.003065 -0.010202
# 2 0.002403 0.029261 -0.003641 0.004266 -0.005690 -0.012553
# 3 -0.004301 -0.003641 0.007819 0.001332 0.001681 0.004429
# 4 -0.003859 0.004266 0.001332 0.036944 -0.003630 0.004683
# 5 -0.003065 -0.005690 0.001681 -0.003630 0.020062 0.003216
# 6 -0.010202 -0.012553 0.004429 0.004683 0.003216 0.054159
#
#
# Mechanical properties :
#
#
# Convention : Reuss Voigt Hill
#
# Bulk Modulus (GPa) = 27.83315 65.64836 46.74076
# Shear Modulus (GPa) = 27.58968 41.22831 34.40900
#
# Velocity S-wave (km/s) = 3.42539 4.18730 3.82536
# Velocity P-wave (km/s) = 5.24225 7.16218 6.27607
#
# Compressibility (1/GPa) = 0.03592838
#
# Stress axis : x y z
#
# Youngs Moduli (GPa) = 100.73813 34.17483 127.88807
#
# Poissons Ratio (x) = -0.08211 0.55005
# Poissons Ratio (y) = -0.24203 0.46565
# Poissons Ratio (z) = 0.43327 0.12443
#
# Static dielectric constant tensor:
#      x y z
#    x 1.948820 0.008010 0.026120 
#    y 0.008010 2.054290 -0.074530 
#    z 0.026120 -0.074530 2.054600 
# 
# From -- ./inp_files/380086.got.cif
#   From: 2010.05.17/outbox.cif.g08.bks.cpg/sg2_191_cif.got.tgz:380086.got - 2010.06.03 11:33:40.
