data_PCOD9025426
_publ_section_title
;
Structure prediction by ZEFSAII (Michael W. Deem and Ramdas Pophale) SiO2 
 PCOD9025426
Probable space group: P -1
;
_chemical_formula_sum "Si O2"
_cell_formula_units_Z 14
_cell_length_a 11.572953
_cell_length_b 12.307921
_cell_length_c 11.500088
_cell_angle_alpha 79.632656
_cell_angle_beta 32.275274
_cell_angle_gamma 102.980838
_cell_volume 599.508151
_symmetry_space_group_name_H-M "P -1"
_symmetry_group_IT_number 2
_symmetry_cell_setting 'triclinic'
loop_
_space_group_symop_operation_xyz
x,y,z
-x,-y,-z
loop_
_atom_site_type_symbol
_atom_site_label
_atom_site_fract_x
_atom_site_fract_y
_atom_site_fract_z
Si Si1 0.113482 0.057677 0.554694
Si Si2 0.536918 0.610216 0.764550
Si Si3 0.149897 0.878627 0.869671
Si Si4 0.687988 0.889033 0.146125
Si Si5 0.126941 0.429216 0.369246
Si Si6 0.789407 0.097056 0.650248
Si Si7 0.979687 0.378569 0.108177
O O1 0.338203 0.221364 0.404986
O O2 0.040959 0.112258 0.498546
O O3 0.260478 0.994527 0.404891
O O4 0.783661 0.915285 0.925236
O O5 0.791522 0.608296 0.574122
O O6 0.391915 0.558545 0.027287
O O7 0.276533 0.477908 0.920751
O O8 0.013634 0.712151 0.980118
O O9 0.500000 0.000000 0.500000
O O10 0.199490 0.947551 0.941472
O O11 0.923263 0.885410 0.001710
O O12 0.342122 0.745683 0.518571
O O13 0.000000 0.500000 0.500000
O O14 0.919693 0.267828 0.501522
O O15 0.500000 0.000000 0.000000
O O16 0.000000 0.500000 0.000000
#
# Coordination Sequence:
#
# PCOD9025426 Si02
#       7
#     2   2   2   2   2   2   2
#     4  10  23  42  67  98 133 175 231 278 342 411
#     4  10  24  43  66  99 137 178 222 291 342 408
#     4   9  22  43  67  95 129 177 232 284 334 407
#     4  10  23  44  71  96 130 188 229 283 342 408
#     4  10  22  44  67  98 135 178 228 280 353 405
#     4  10  22  40  68  99 134 175 225 281 337 419
#     4  11  26  46  67 103 140 181 233 288 346 409
#
# _framework density 23.352477
#
# number of rings (size 3 to 8) (size 9 to 14) (size 15 to 20)
#    0.000    2.000    0.000    0.857   10.000    4.000 
#    5.143    0.000    0.000    0.000    0.000    0.000 
#    0.000    0.000    0.000    0.000    0.000    0.000 
#
# Total GULP energy -78062.580482 kJ/mol
# GULP energy per Si atom -5575.898606 kJ/mol
# Density = 2.329933 g / cm^3
# Si number density = 23.352477 Si / 1000 Ang^3
#
#
#
# Elastic Constant Matrix: (Units=GPa)
#
#
# Indices 1 2 3 4 5 6 
#
# 1 69.6827 40.8561 8.6323 -3.4298 -11.1897 -11.0144
# 2 40.8561 226.8644 74.1995 4.3446 -6.8941 -12.3665
# 3 8.6323 74.1995 102.0989 -9.7063 7.4946 4.6959
# 4 -3.4298 4.3446 -9.7063 36.9514 0.7160 -1.9639
# 5 -11.1897 -6.8941 7.4946 0.7160 36.0633 1.2826
# 6 -11.0144 -12.3665 4.6959 -1.9639 1.2826 19.7824
#
#
#
# Elastic Compliance Matrix: (Units=1/GPa)
#
#
# Indices 1 2 3 4 5 6 
#
# 1 0.018140 -0.002674 -0.000107 0.002322 0.004795 0.008373
# 2 -0.002674 0.006919 -0.005303 -0.002284 0.001506 0.003771
# 3 -0.000107 -0.005303 0.014631 0.004205 -0.003951 -0.006174
# 4 0.002322 -0.002284 0.004205 0.028771 -0.001225 0.001803
# 5 0.004795 0.001506 -0.003951 -0.001225 0.030263 0.002466
# 6 0.008373 0.003771 -0.006174 0.001803 0.002466 0.059054
#
#
# Mechanical properties :
#
#
# Convention : Reuss Voigt Hill
#
# Bulk Modulus (GPa) = 42.51353 71.78021 57.14687
# Shear Modulus (GPa) = 27.50472 36.88995 32.19733
#
# Velocity S-wave (km/s) = 3.43564 3.97886 3.71719
# Velocity P-wave (km/s) = 5.82948 7.20506 6.55346
#
# Compressibility (1/GPa) = 0.02352193
#
# Stress axis : x y z
#
# Youngs Moduli (GPa) = 55.12752 144.52599 68.34571
#
# Poissons Ratio (x) = 0.38651 0.00728
# Poissons Ratio (y) = 0.14743 0.36247
# Poissons Ratio (z) = 0.00587 0.76649
#
# Static dielectric constant tensor:
#      x y z
#    x 2.144780 0.003520 -0.056870 
#    y 0.003520 1.947840 -0.010510 
#    z -0.056870 -0.010510 1.912800 
# 
# From -- ./inp_files/428069.got.cif
#   From: 2010.05.17/outbox.cif.g08.bks.cpg/sg2_215_cif.got.tgz:428069.got - 2010.06.03 11:33:40.
