data_PCOD9025684
_publ_section_title
;
Structure prediction by ZEFSAII (Michael W. Deem and Ramdas Pophale) SiO2 
 PCOD9025684
Probable space group: P -1
;
_chemical_formula_sum "Si O2"
_cell_formula_units_Z 12
_cell_length_a 18.078082
_cell_length_b 15.414345
_cell_length_c 10.599041
_cell_angle_alpha 36.074004
_cell_angle_beta 156.305004
_cell_angle_gamma 156.390959
_cell_volume 466.576820
_symmetry_space_group_name_H-M "P -1"
_symmetry_group_IT_number 2
_symmetry_cell_setting 'triclinic'
loop_
_space_group_symop_operation_xyz
x,y,z
-x,-y,-z
loop_
_atom_site_type_symbol
_atom_site_label
_atom_site_fract_x
_atom_site_fract_y
_atom_site_fract_z
Si Si1 0.400514 0.788535 0.295801
Si Si2 0.925463 0.646622 0.572083
Si Si3 0.589018 0.713369 0.435800
Si Si4 0.008194 0.827133 0.211633
Si Si5 0.166053 0.105577 0.766041
Si Si6 0.300847 0.611690 0.857340
O O1 0.238069 0.601242 0.368905
O O2 0.482978 0.723406 0.387981
O O3 0.677051 0.018103 0.516354
O O4 0.203000 0.787488 0.920581
O O5 0.762676 0.684164 0.336062
O O6 0.977196 0.730474 0.413392
O O7 0.500000 0.500000 0.500000
O O8 0.433451 0.714791 0.080449
O O9 0.922977 0.918421 0.703002
O O10 0.777751 0.608702 0.026698
O O11 0.000000 0.000000 0.000000
O O12 0.458819 0.203429 0.084682
O O13 0.000000 0.000000 0.500000
O O14 0.000000 0.500000 0.500000
#
# Coordination Sequence:
#
# PCOD9025684 Si02
#       6
#     2   2   2   2   2   2
#     4  11  24  43  74 103 134 190 238 295 335 428
#     4  11  24  44  72 102 138 183 248 278 352 425
#     4  11  22  45  70  99 138 186 239 279 350 432
#     4  12  25  44  71 104 146 183 226 298 363 412
#     4  10  22  40  70  96 136 184 229 286 348 422
#     4  11  26  44  69 104 144 181 232 299 361 412
#
# _framework density 25.719238000000001
#
# number of rings (size 3 to 8) (size 9 to 14) (size 15 to 20)
#    0.000    1.000    1.667    5.500    4.667    2.667 
#    0.000    0.833    0.000    0.000    0.000    0.000 
#    0.000    0.000    0.000    0.000    0.000    0.000 
#
# Total GULP energy -67116.138185 kJ/mol
# GULP energy per Si atom -5593.011515 kJ/mol
# Density = 2.566070 g / cm^3
# Si number density = 25.719238 Si / 1000 Ang^3
#
#
#
# Elastic Constant Matrix: (Units=GPa)
#
#
# Indices 1 2 3 4 5 6 
#
# 1 28.0288 35.9487 27.8575 -3.1833 5.0092 10.1973
# 2 35.9487 137.6742 43.6313 20.1142 -13.8257 17.3741
# 3 27.8575 43.6313 121.5233 20.3958 18.5489 28.4167
# 4 -3.1833 20.1142 20.3958 54.0863 5.9594 4.2961
# 5 5.0092 -13.8257 18.5489 5.9594 51.5092 1.5238
# 6 10.1973 17.3741 28.4167 4.2961 1.5238 36.8052
#
#
#
# Elastic Compliance Matrix: (Units=1/GPa)
#
#
# Indices 1 2 3 4 5 6 
#
# 1 0.077809 -0.019912 -0.010693 0.017660 -0.010941 -0.005511
# 2 -0.019912 0.014331 -0.000311 -0.007089 0.006728 -0.000459
# 3 -0.010693 -0.000311 0.013661 -0.004776 -0.003211 -0.006748
# 4 0.017660 -0.007089 -0.004776 0.024528 -0.004723 -0.000527
# 5 -0.010941 0.006728 -0.003211 -0.004723 0.023931 0.001895
# 6 -0.005511 -0.000459 -0.006748 -0.000527 0.001895 0.034107
#
#
# Mechanical properties :
#
#
# Convention : Reuss Voigt Hill
#
# Bulk Modulus (GPa) = 22.74251 55.78905 39.26578
# Shear Modulus (GPa) = 18.87840 40.46606 29.67223
#
# Velocity S-wave (km/s) = 2.71222 3.97088 3.40030
# Velocity P-wave (km/s) = 4.32088 6.53931 5.54223
#
# Compressibility (1/GPa) = 0.04397052
#
# Stress axis : x y z
#
# Youngs Moduli (GPa) = 12.85198 69.78095 73.20074
#
# Poissons Ratio (x) = 1.38946 0.78273
# Poissons Ratio (y) = 0.25590 0.02273
# Poissons Ratio (z) = 0.13742 0.02167
#
# Static dielectric constant tensor:
#      x y z
#    x 2.046260 -0.005760 -0.009340 
#    y -0.005760 2.069250 -0.071570 
#    z -0.009340 -0.071570 2.119100 
# 
# From -- ./inp_files/472376.got.cif
#   From: 2010.05.17/outbox.cif.g08.bks.cpg/sg2_237_cif.got.tgz:472376.got - 2010.06.03 11:33:40.
