data_PCOD9025047
_publ_section_title
;
Structure prediction by ZEFSAII (Michael W. Deem and Ramdas Pophale) SiO2 
 PCOD9025047
Probable space group: P -1
;
_chemical_formula_sum "Si O2"
_cell_formula_units_Z 16
_cell_length_a 5.583685
_cell_length_b 5.243696
_cell_length_c 24.911798
_cell_angle_alpha 96.176209
_cell_angle_beta 115.499822
_cell_angle_gamma 101.310944
_cell_volume 630.179240
_symmetry_space_group_name_H-M "P -1"
_symmetry_group_IT_number 2
_symmetry_cell_setting 'triclinic'
loop_
_space_group_symop_operation_xyz
x,y,z
-x,-y,-z
loop_
_atom_site_type_symbol
_atom_site_label
_atom_site_fract_x
_atom_site_fract_y
_atom_site_fract_z
Si Si1 0.904938 0.197857 0.534929
Si Si2 0.972401 0.455649 0.351922
Si Si3 0.529451 0.052020 0.694379
Si Si4 0.362173 0.008019 0.186988
Si Si5 0.864925 0.842228 0.929973
Si Si6 0.438605 0.214965 0.420471
Si Si7 0.606787 0.296475 0.042134
Si Si8 0.654729 0.608129 0.243779
O O1 0.717302 0.333653 0.483178
O O2 0.102321 0.410491 0.597716
O O3 0.735888 0.995520 0.558696
O O4 0.000000 0.000000 0.500000
O O5 0.761750 0.161729 0.320049
O O6 0.948848 0.610114 0.297760
O O7 0.272616 0.421989 0.391809
O O8 0.741279 0.018566 0.761249
O O9 0.543703 0.959458 0.633887
O O10 0.492181 0.338434 0.713109
O O11 0.148633 0.965099 0.116943
O O12 0.521439 0.316210 0.203509
O O13 0.568542 0.818571 0.201799
O O14 0.554277 0.706957 0.917598
O O15 0.063274 0.661724 0.926146
O O16 0.000000 0.000000 0.000000
O O17 0.500000 0.500000 0.000000
O O18 0.500000 0.000000 0.000000
#
# Coordination Sequence:
#
# PCOD9025047 Si02
#       8
#     2   2   2   2   2   2   2   2
#     4  11  25  39  59  94 134 170 218 280 345 413
#     4  11  21  40  66  88 128 174 216 281 339 399
#     4   9  22  43  64  88 129 172 225 276 331 409
#     4   9  21  40  67  98 130 179 226 281 340 415
#     4  10  22  44  73 105 151 188 240 296 364 427
#     4  11  23  39  62  95 126 170 226 276 342 409
#     4  10  22  40  67 104 141 190 230 284 350 427
#     4   9  20  41  66  90 135 173 226 275 341 404
#
# _framework density 25.389603999999999
#
# number of rings (size 3 to 8) (size 9 to 14) (size 15 to 20)
#    0.750    1.250    0.000    3.000    0.000   10.000 
#    4.500    0.000    0.000    0.000    0.000    0.000 
#    0.000    0.000    0.000    0.000    0.000    0.000 
#
# Total GULP energy -89253.910721 kJ/mol
# GULP energy per Si atom -5578.369420 kJ/mol
# Density = 2.533182 g / cm^3
# Si number density = 25.389604 Si / 1000 Ang^3
#
#
#
# Elastic Constant Matrix: (Units=GPa)
#
#
# Indices 1 2 3 4 5 6 
#
# 1 102.3577 13.4642 27.3153 -17.5738 -10.5973 -24.2316
# 2 13.4642 144.1670 50.7405 -23.0638 16.0191 -18.9685
# 3 27.3153 50.7405 195.9631 -37.5949 -7.3152 -16.9761
# 4 -17.5738 -23.0638 -37.5949 45.2844 -2.5360 14.8429
# 5 -10.5973 16.0191 -7.3152 -2.5360 32.3343 -10.0511
# 6 -24.2316 -18.9685 -16.9761 14.8429 -10.0511 28.9547
#
#
#
# Elastic Compliance Matrix: (Units=1/GPa)
#
#
# Indices 1 2 3 4 5 6 
#
# 1 0.014455 -0.000263 -0.000114 0.001139 0.009457 0.014557
# 2 -0.000263 0.008606 -0.001801 0.001907 -0.003986 0.002001
# 3 -0.000114 -0.001801 0.006650 0.004225 0.003175 0.001559
# 4 0.001139 0.001907 0.004225 0.030664 -0.000719 -0.011289
# 5 0.009457 -0.003986 0.003175 -0.000719 0.043723 0.022711
# 6 0.014557 0.002001 0.001559 -0.011289 0.022711 0.062614
#
#
# Mechanical properties :
#
#
# Convention : Reuss Voigt Hill
#
# Bulk Modulus (GPa) = 39.44173 69.50311 54.47242
# Shear Modulus (GPa) = 27.85197 44.71254 36.28226
#
# Velocity S-wave (km/s) = 3.31567 4.20105 3.78434
# Velocity P-wave (km/s) = 5.49786 7.13903 6.37151
#
# Compressibility (1/GPa) = 0.02535386
#
# Stress axis : x y z
#
# Youngs Moduli (GPa) = 69.17784 116.19613 150.38480
#
# Poissons Ratio (x) = 0.03057 0.01718
# Poissons Ratio (y) = 0.01820 0.27091
# Poissons Ratio (z) = 0.00790 0.20932
#
# Static dielectric constant tensor:
#      x y z
#    x 2.133630 0.024730 0.032980 
#    y 0.024730 2.041330 -0.014230 
#    z 0.032980 -0.014230 2.049350 
# 
# From -- ./inp_files/614730.got.cif
#   From: 2010.05.17/outbox.cif.g08.bks.cpg/sg2_308_cif.got.tgz:614730.got - 2010.06.03 11:33:40.
