data_PCOD9025745
_publ_section_title
;
Structure prediction by ZEFSAII (Michael W. Deem and Ramdas Pophale) SiO2 
 PCOD9025745
Probable space group: P -1
;
_chemical_formula_sum "Si O2"
_cell_formula_units_Z 13
_cell_length_a 11.012384
_cell_length_b 7.420793
_cell_length_c 9.019767
_cell_angle_alpha 104.962594
_cell_angle_beta 96.784421
_cell_angle_gamma 46.669532
_cell_volume 516.162874
_symmetry_space_group_name_H-M "P -1"
_symmetry_group_IT_number 2
_symmetry_cell_setting 'triclinic'
loop_
_space_group_symop_operation_xyz
x,y,z
-x,-y,-z
loop_
_atom_site_type_symbol
_atom_site_label
_atom_site_fract_x
_atom_site_fract_y
_atom_site_fract_z
Si Si1 0.762850 0.530063 0.734310
Si Si2 0.689492 0.930964 0.362330
Si Si3 0.000000 0.500000 0.500000
Si Si4 0.176014 0.108214 0.199335
Si Si5 0.080956 0.220837 0.897674
Si Si6 0.536936 0.469200 0.825524
Si Si7 0.627848 0.606190 0.423370
O O1 0.738535 0.777769 0.793416
O O2 0.613799 0.581884 0.805531
O O3 0.769097 0.486558 0.546810
O O4 0.935321 0.289722 0.787116
O O5 0.849555 0.774851 0.459087
O O6 0.757494 0.901439 0.203394
O O7 0.626060 0.786654 0.353871
O O8 0.539721 0.213568 0.462228
O O9 0.982980 0.655378 0.680418
O O10 0.309450 0.836521 0.237507
O O11 0.125158 0.074982 0.026439
O O12 0.000000 0.500000 0.000000
O O13 0.384339 0.557181 0.719653
O O14 0.500000 0.500000 0.000000
#
# Coordination Sequence:
#
# PCOD9025745 Si02
#       7
#     2   2   1   2   2   2   2
#     4  11  24  47  70 101 138 186 234 286 352 409
#     4  11  20  39  74 104 132 187 235 287 346 408
#     4  12  18  42  74 102 138 180 234 288 340 414
#     4  11  24  46  72 105 137 184 236 285 352 414
#     4  10  22  40  71 105 135 178 232 288 352 409
#     4  12  29  44  67 107 146 184 232 289 351 420
#     4  11  23  43  68 102 143 184 237 281 347 424
#
# _framework density 25.185848
#
# number of rings (size 3 to 8) (size 9 to 14) (size 15 to 20)
#    0.000    0.923    6.154    1.385    6.462    1.231 
#    0.000    3.077    0.000    0.000    0.000    0.000 
#    0.000    0.000    0.000    0.000    0.000    0.000 
#
# Total GULP energy -72500.912280 kJ/mol
# GULP energy per Si atom -5576.993252 kJ/mol
# Density = 2.512852 g / cm^3
# Si number density = 25.185848 Si / 1000 Ang^3
#
#
#
# Elastic Constant Matrix: (Units=GPa)
#
#
# Indices 1 2 3 4 5 6 
#
# 1 69.2966 -4.0128 44.7421 -5.8298 5.0070 3.8799
# 2 -4.0128 82.4058 21.6725 -3.8921 7.1854 -17.6506
# 3 44.7421 21.6725 160.5950 -0.3221 -13.9924 -20.2463
# 4 -5.8298 -3.8921 -0.3221 47.0980 -12.1484 3.1636
# 5 5.0070 7.1854 -13.9924 -12.1484 36.5403 -5.3285
# 6 3.8799 -17.6506 -20.2463 3.1636 -5.3285 24.9847
#
#
#
# Elastic Compliance Matrix: (Units=1/GPa)
#
#
# Indices 1 2 3 4 5 6 
#
# 1 0.020888 0.001608 -0.007961 0.001490 -0.007232 -0.010290
# 2 0.001608 0.014620 -0.001593 0.000215 -0.002432 0.008242
# 3 -0.007961 -0.001593 0.010541 0.000065 0.006938 0.010124
# 4 0.001490 0.000215 0.000065 0.023429 0.007360 -0.001424
# 5 -0.007232 -0.002432 0.006938 0.007360 0.035646 0.011698
# 6 -0.010290 0.008242 0.010124 -0.001424 0.011698 0.058324
#
#
# Mechanical properties :
#
#
# Convention : Reuss Voigt Hill
#
# Bulk Modulus (GPa) = 33.16116 48.56677 40.86397
# Shear Modulus (GPa) = 26.40036 38.38431 32.39233
#
# Velocity S-wave (km/s) = 3.24114 3.90813 3.59016
# Velocity P-wave (km/s) = 5.21553 6.29999 5.78324
#
# Compressibility (1/GPa) = 0.03015576
#
# Stress axis : x y z
#
# Youngs Moduli (GPa) = 47.87501 68.39996 94.87041
#
# Poissons Ratio (x) = -0.10997 0.75523
# Poissons Ratio (y) = -0.07697 0.15116
# Poissons Ratio (z) = 0.38112 0.10898
#
# Static dielectric constant tensor:
#      x y z
#    x 2.177270 -0.101510 0.047790 
#    y -0.101510 2.028610 -0.060950 
#    z 0.047790 -0.060950 2.020170 
# 
# From -- ./inp_files/240469.got.cif
#   From: 2010.05.17/outbox.cif.g08.bks.cpg/sg2_121_cif.got.tgz:240469.got - 2010.06.03 11:33:40.
