data_PCOD9025219
_publ_section_title
;
Structure prediction by ZEFSAII (Michael W. Deem and Ramdas Pophale) SiO2 
 PCOD9025219
Probable space group: P -1
;
_chemical_formula_sum "Si O2"
_cell_formula_units_Z 15
_cell_length_a 8.880336
_cell_length_b 12.727327
_cell_length_c 18.373891
_cell_angle_alpha 34.439134
_cell_angle_beta 47.231753
_cell_angle_gamma 74.713009
_cell_volume 603.756281
_symmetry_space_group_name_H-M "P -1"
_symmetry_group_IT_number 2
_symmetry_cell_setting 'triclinic'
loop_
_space_group_symop_operation_xyz
x,y,z
-x,-y,-z
loop_
_atom_site_type_symbol
_atom_site_label
_atom_site_fract_x
_atom_site_fract_y
_atom_site_fract_z
Si Si1 0.271773 0.591488 0.408008
Si Si2 0.262926 0.151860 0.638734
Si Si3 0.895679 0.739225 0.876500
Si Si4 0.500000 0.000000 0.000000
Si Si5 0.253562 0.662034 0.740284
Si Si6 0.271131 0.812598 0.912991
Si Si7 0.140372 0.545433 0.262414
Si Si8 0.875286 0.010958 0.606682
O O1 0.284915 0.382127 0.515479
O O2 0.000000 0.500000 0.500000
O O3 0.163456 0.582991 0.527110
O O4 0.542221 0.871571 0.124196
O O5 0.530911 0.247624 0.447674
O O6 0.989702 0.934658 0.799645
O O7 0.240941 0.012988 0.797091
O O8 0.188908 0.826540 0.697806
O O9 0.776318 0.787798 0.823187
O O10 0.708379 0.455416 0.137638
O O11 0.604527 0.229843 0.893876
O O12 0.937072 0.407199 0.954818
O O13 0.598281 0.956624 0.708671
O O14 0.181424 0.672884 0.099685
O O15 0.104941 0.301799 0.402112
O O16 0.000000 0.000000 0.500000
#
# Coordination Sequence:
#
# PCOD9025219 Si02
#       8
#     2   2   2   1   2   2   2   2
#     4  10  23  42  66  98 131 172 225 280 335 399
#     4  11  23  43  70  97 135 184 231 283 344 407
#     4  10  22  40  67  99 135 178 230 285 341 405
#     4  10  22  42  68  96 132 172 222 278 332 398
#     4  10  23  42  66 100 138 181 231 281 343 412
#     4  11  25  45  67  99 140 179 227 283 345 413
#     4  11  24  43  66  98 137 176 226 281 339 402
#     4  12  26  45  71 104 140 180 227 283 346 411
#
# _framework density 24.844462
#
# number of rings (size 3 to 8) (size 9 to 14) (size 15 to 20)
#    0.000    1.333    0.000    5.200    0.000   14.400 
#    0.000    4.667    0.000    0.000    0.000    0.000 
#    0.000    0.000    0.000    0.000    0.000    0.000 
#
# Total GULP energy -83717.039646 kJ/mol
# GULP energy per Si atom -5581.135976 kJ/mol
# Density = 2.478791 g / cm^3
# Si number density = 24.844462 Si / 1000 Ang^3
#
#
#
# Elastic Constant Matrix: (Units=GPa)
#
#
# Indices 1 2 3 4 5 6 
#
# 1 95.7374 34.0091 26.2034 2.2724 20.1130 -6.3156
# 2 34.0091 154.9845 53.8678 -19.1083 17.9148 -0.3233
# 3 26.2034 53.8678 71.6613 -1.9990 40.2845 -1.1339
# 4 2.2724 -19.1083 -1.9990 41.8285 11.6291 6.7119
# 5 20.1130 17.9148 40.2845 11.6291 47.2142 -5.1818
# 6 -6.3156 -0.3233 -1.1339 6.7119 -5.1818 36.1411
#
#
#
# Elastic Compliance Matrix: (Units=1/GPa)
#
#
# Indices 1 2 3 4 5 6 
#
# 1 0.012287 -0.002026 -0.001440 -0.001211 -0.002729 0.001918
# 2 -0.002026 0.009888 -0.008621 0.003323 0.003578 -0.000640
# 3 -0.001440 -0.008621 0.038987 0.007669 -0.031828 -0.005093
# 4 -0.001211 0.003323 0.007669 0.031594 -0.015959 -0.008097
# 5 -0.002729 0.003578 -0.031828 -0.015959 0.053075 0.009130
# 6 0.001918 -0.000640 -0.005093 -0.008097 0.009130 0.030652
#
#
# Mechanical properties :
#
#
# Convention : Reuss Voigt Hill
#
# Bulk Modulus (GPa) = 27.03451 61.17153 44.10302
# Shear Modulus (GPa) = 23.47587 38.92361 31.19974
#
# Velocity S-wave (km/s) = 3.07728 3.96244 3.54758
# Velocity P-wave (km/s) = 4.85091 6.75350 5.87967
#
# Compressibility (1/GPa) = 0.03698976
#
# Stress axis : x y z
#
# Youngs Moduli (GPa) = 81.38421 101.13381 25.64962
#
# Poissons Ratio (x) = 0.20487 0.03693
# Poissons Ratio (y) = 0.16487 0.22112
# Poissons Ratio (z) = 0.11717 0.87184
#
# Static dielectric constant tensor:
#      x y z
#    x 1.950150 0.005610 -0.096720 
#    y 0.005610 1.927990 0.017420 
#    z -0.096720 0.017420 2.058600 
# 
# From -- ./inp_files/559527.got.cif
#   From: 2010.05.17/outbox.cif.g08.bks.cpg/sg2_280_cif.got.tgz:559527.got - 2010.06.03 11:33:40.
