data_PCOD9025093
_publ_section_title
;
Structure prediction by ZEFSAII (Michael W. Deem and Ramdas Pophale) SiO2 
 PCOD9025093
Probable space group: P -1
;
_chemical_formula_sum "Si O2"
_cell_formula_units_Z 16
_cell_length_a 22.738891
_cell_length_b 13.895122
_cell_length_c 16.321373
_cell_angle_alpha 34.332934
_cell_angle_beta 158.174019
_cell_angle_gamma 158.157253
_cell_volume 688.903358
_symmetry_space_group_name_H-M "P -1"
_symmetry_group_IT_number 2
_symmetry_cell_setting 'triclinic'
loop_
_space_group_symop_operation_xyz
x,y,z
-x,-y,-z
loop_
_atom_site_type_symbol
_atom_site_label
_atom_site_fract_x
_atom_site_fract_y
_atom_site_fract_z
Si Si1 0.259282 0.060315 0.330347
Si Si2 0.273319 0.390378 0.965887
Si Si3 0.720349 0.092469 0.268712
Si Si4 0.610230 0.159098 0.254433
Si Si5 0.321204 0.081391 0.204617
Si Si6 0.370132 0.355275 0.599689
Si Si7 0.865665 0.422417 0.651722
Si Si8 0.966898 0.301996 0.152290
O O1 0.329140 0.927700 0.538137
O O2 0.344301 0.136336 0.292961
O O3 0.417163 0.344601 0.375365
O O4 0.970462 0.836665 0.133736
O O5 0.508989 0.598864 0.187236
O O6 0.276157 0.238324 0.010551
O O7 0.244548 0.544275 0.773826
O O8 0.668527 0.101896 0.287676
O O9 0.965414 0.380336 0.343650
O O10 0.697967 0.872603 0.376413
O O11 0.500000 0.000000 0.000000
O O12 0.324642 0.973609 0.027099
O O13 0.120346 0.763567 0.169273
O O14 0.577436 0.223396 0.401068
O O15 0.132072 0.280769 0.350997
O O16 0.945573 0.591765 0.716373
O O17 0.000000 0.500000 0.000000
#
# Coordination Sequence:
#
# PCOD9025093 Si02
#       8
#     2   2   2   2   2   2   2   2
#     4  11  23  42  65  93 130 170 215 265 328 381
#     4  11  22  38  67  93 125 167 221 264 313 390
#     4  12  25  39  64 101 132 167 215 275 317 385
#     4  12  25  42  66  96 135 171 211 270 333 375
#     4  10  22  40  67  93 119 173 220 263 308 391
#     4  11  23  42  67  97 124 175 220 261 325 386
#     4  11  22  40  65  91 131 164 215 262 323 376
#     4  12  23  44  69  95 133 171 215 270 324 390
#
# _framework density 23.225318999999999
#
# number of rings (size 3 to 8) (size 9 to 14) (size 15 to 20)
#    0.000    0.750    6.250    2.625    3.500    1.500 
#    2.250    0.000    0.000    3.000    0.000    0.000 
#    0.000    0.000    0.000    0.000    0.000    0.000 
#
# Total GULP energy -89436.960306 kJ/mol
# GULP energy per Si atom -5589.810019 kJ/mol
# Density = 2.317246 g / cm^3
# Si number density = 23.225319 Si / 1000 Ang^3
#
#
#
# Elastic Constant Matrix: (Units=GPa)
#
#
# Indices 1 2 3 4 5 6 
#
# 1 41.2256 15.4687 24.4169 3.7943 20.2515 1.8195
# 2 15.4687 133.9276 45.0758 -10.4237 23.0649 2.3275
# 3 24.4169 45.0758 113.8917 -7.5842 31.5614 -3.1166
# 4 3.7943 -10.4237 -7.5842 45.9639 3.4833 18.9161
# 5 20.2515 23.0649 31.5614 3.4833 28.9736 -6.8567
# 6 1.8195 2.3275 -3.1166 18.9161 -6.8567 39.0121
#
#
#
# Elastic Compliance Matrix: (Units=1/GPa)
#
#
# Indices 1 2 3 4 5 6 
#
# 1 0.038964 0.001209 -0.000602 0.002726 -0.029883 -0.008511
# 2 0.001209 0.009712 -0.001634 0.004223 -0.008315 -0.004275
# 3 -0.000602 -0.001634 0.013851 0.004552 -0.014758 -0.003569
# 4 0.002726 0.004223 0.004552 0.032490 -0.018638 -0.019045
# 5 -0.029883 -0.008315 -0.014758 -0.018638 0.086231 0.024904
# 6 -0.008511 -0.004275 -0.003569 -0.019045 0.024904 0.039612
#
#
# Mechanical properties :
#
#
# Convention : Reuss Voigt Hill
#
# Bulk Modulus (GPa) = 16.53659 50.99642 33.76651
# Shear Modulus (GPa) = 20.56986 36.39550 28.48268
#
# Velocity S-wave (km/s) = 2.97924 3.96291 3.50575
# Velocity P-wave (km/s) = 4.35546 6.55320 5.56392
#
# Compressibility (1/GPa) = 0.06047194
#
# Stress axis : x y z
#
# Youngs Moduli (GPa) = 25.66468 102.96251 72.19436
#
# Poissons Ratio (x) = -0.12445 0.04347
# Poissons Ratio (y) = -0.03102 0.11800
# Poissons Ratio (z) = 0.01545 0.16829
#
# Static dielectric constant tensor:
#      x y z
#    x 2.084910 0.329740 0.003990 
#    y 0.329740 2.581450 0.012200 
#    z 0.003990 0.012200 1.939860 
# 
# From -- ./inp_files/464349.got.cif
#   From: 2010.05.17/outbox.cif.g08.bks.cpg/sg2_233_cif.got.tgz:464349.got - 2010.06.03 11:33:40.
