data_PCOD9025950
_publ_section_title
;
Structure prediction by ZEFSAII (Michael W. Deem and Ramdas Pophale) SiO2 
 PCOD9025950
Probable space group: P -1
;
_chemical_formula_sum "Si O2"
_cell_formula_units_Z 14
_cell_length_a 13.671962
_cell_length_b 7.457063
_cell_length_c 7.362355
_cell_angle_alpha 67.755701
_cell_angle_beta 76.633188
_cell_angle_gamma 79.181075
_cell_volume 671.732566
_symmetry_space_group_name_H-M "P -1"
_symmetry_group_IT_number 2
_symmetry_cell_setting 'triclinic'
loop_
_space_group_symop_operation_xyz
x,y,z
-x,-y,-z
loop_
_atom_site_type_symbol
_atom_site_label
_atom_site_fract_x
_atom_site_fract_y
_atom_site_fract_z
Si Si1 0.106924 0.019686 0.351814
Si Si2 0.504845 0.288294 0.292661
Si Si3 0.821832 0.781044 0.442817
Si Si4 0.965197 0.201597 0.837933
Si Si5 0.620611 0.898418 0.277726
Si Si6 0.839198 0.567318 0.871191
Si Si7 0.617342 0.650815 0.042094
O O1 0.181335 0.034099 0.485832
O O2 0.111276 0.234227 0.179287
O O3 0.000000 0.000000 0.500000
O O4 0.114986 0.855587 0.258415
O O5 0.455021 0.213777 0.523256
O O6 0.549857 0.492243 0.211811
O O7 0.592092 0.124334 0.248385
O O8 0.421442 0.305014 0.161874
O O9 0.932852 0.742104 0.322471
O O10 0.733592 0.822640 0.321797
O O11 0.812311 0.605298 0.654089
O O12 0.914158 0.371735 0.921609
O O13 0.000000 0.000000 0.000000
O O14 0.607579 0.842257 0.096691
O O15 0.734708 0.565560 0.020716
#
# Coordination Sequence:
#
# PCOD9025950 Si02
#       7
#     2   2   2   2   2   2   2
#     4   8  19  39  57  80 119 163 203 242 301 356
#     4  10  23  43  65  92 126 159 210 255 313 374
#     4   9  21  41  58  88 126 160 210 245 307 373
#     4  11  23  38  63  90 125 166 208 255 307 367
#     4  11  22  43  65  93 124 165 204 258 310 371
#     4  10  22  41  59  90 125 165 205 256 305 371
#     4  11  23  41  65  94 126 161 207 257 313 368
#
# _framework density 20.841628
#
# number of rings (size 3 to 8) (size 9 to 14) (size 15 to 20)
#    0.857    1.143    1.429    1.286    4.000    0.571 
#    2.571    1.429    0.000    0.000    0.000    0.000 
#    0.000    0.000    0.000    0.000    0.000    0.000 
#
# Total GULP energy -78059.017423 kJ/mol
# GULP energy per Si atom -5575.644102 kJ/mol
# Density = 2.079419 g / cm^3
# Si number density = 20.841628 Si / 1000 Ang^3
#
#
#
# Elastic Constant Matrix: (Units=GPa)
#
#
# Indices 1 2 3 4 5 6 
#
# 1 68.2916 27.1803 4.4841 7.0563 -2.0690 -1.6183
# 2 27.1803 61.1847 -4.5711 12.7981 -2.0633 -1.8846
# 3 4.4841 -4.5711 22.5744 7.6213 -5.5159 4.9399
# 4 7.0563 12.7981 7.6213 24.5044 -4.2433 0.2432
# 5 -2.0690 -2.0633 -5.5159 -4.2433 10.4162 2.6953
# 6 -1.6183 -1.8846 4.9399 0.2432 2.6953 27.4606
#
#
#
# Elastic Compliance Matrix: (Units=1/GPa)
#
#
# Indices 1 2 3 4 5 6 
#
# 1 0.018526 -0.008962 -0.006675 0.001118 -0.001648 0.001829
# 2 -0.008962 0.024114 0.012552 -0.013090 0.004693 -0.001476
# 3 -0.006675 0.012552 0.065577 -0.019402 0.031674 -0.014266
# 4 0.001118 -0.013090 -0.019402 0.054979 0.009429 0.001245
# 5 -0.001648 0.004693 0.031674 0.009429 0.121751 -0.017507
# 6 0.001829 -0.001476 -0.014266 0.001245 -0.017507 0.040696
#
#
# Mechanical properties :
#
#
# Convention : Reuss Voigt Hill
#
# Bulk Modulus (GPa) = 9.79946 22.91524 16.35735
# Shear Modulus (GPa) = 13.66763 20.80673 17.23718
#
# Velocity S-wave (km/s) = 2.56361 3.16306 2.87898
# Velocity P-wave (km/s) = 3.67081 4.93545 4.34934
#
# Compressibility (1/GPa) = 0.10204639
#
# Stress axis : x y z
#
# Youngs Moduli (GPa) = 53.97798 41.47029 15.24927
#
# Poissons Ratio (x) = 0.37165 0.10179
# Poissons Ratio (y) = 0.48374 -0.19140
# Poissons Ratio (z) = 0.36031 -0.52052
#
# Static dielectric constant tensor:
#      x y z
#    x 1.770840 0.020210 0.022180 
#    y 0.020210 1.741480 0.006040 
#    z 0.022180 0.006040 1.766400 
# 
# From -- ./inp_files/288584.got.cif
#   From: 2010.05.17/outbox.cif.g08.bks.cpg/sg2_145_cif.got.tgz:288584.got - 2010.06.03 11:33:40.
