data_PCOD9025091
_publ_section_title
;
Structure prediction by ZEFSAII (Michael W. Deem and Ramdas Pophale) SiO2 
 PCOD9025091
Probable space group: P -1
;
_chemical_formula_sum "Si O2"
_cell_formula_units_Z 16
_cell_length_a 14.087854
_cell_length_b 8.818793
_cell_length_c 7.060168
_cell_angle_alpha 104.120661
_cell_angle_beta 79.656221
_cell_angle_gamma 74.802682
_cell_volume 792.614387
_symmetry_space_group_name_H-M "P -1"
_symmetry_group_IT_number 2
_symmetry_cell_setting 'triclinic'
loop_
_space_group_symop_operation_xyz
x,y,z
-x,-y,-z
loop_
_atom_site_type_symbol
_atom_site_label
_atom_site_fract_x
_atom_site_fract_y
_atom_site_fract_z
Si Si1 0.277188 0.021431 0.716489
Si Si2 0.888212 0.127131 0.109917
Si Si3 0.539847 0.271152 0.607589
Si Si4 0.608108 0.583469 0.638681
Si Si5 0.110798 0.620864 0.113359
Si Si6 0.427220 0.151064 0.950807
Si Si7 0.837576 0.426780 0.488232
Si Si8 0.119993 0.336765 0.729422
O O1 0.194662 0.959568 0.836824
O O2 0.356664 0.870626 0.531699
O O3 0.341593 0.093747 0.859817
O O4 0.212148 0.167810 0.647858
O O5 0.890790 0.251646 0.317476
O O6 0.856584 0.243758 0.972994
O O7 0.000000 0.000000 0.000000
O O8 0.561919 0.443117 0.683945
O O9 0.463643 0.308439 0.466110
O O10 0.489844 0.210364 0.784394
O O11 0.719547 0.489957 0.488159
O O12 0.617185 0.700060 0.841665
O O13 0.156861 0.586885 0.293616
O O14 0.988095 0.687311 0.199520
O O15 0.136110 0.455965 0.927123
O O16 0.500000 0.000000 0.000000
O O17 0.885513 0.560145 0.428762
#
# Coordination Sequence:
#
# PCOD9025091 Si02
#       8
#     2   2   2   2   2   2   2   2
#     4  12  23  46  69  98 136 182 216 284 342 386
#     4  11  24  46  66  96 141 174 226 276 334 397
#     4  11  25  46  70  94 140 177 220 278 339 401
#     4  11  24  46  69  97 134 181 223 272 335 408
#     4  10  22  43  65  94 131 179 220 277 328 396
#     4  12  26  42  67 102 135 170 227 278 331 396
#     4  11  23  41  68  98 128 180 227 265 337 402
#     4  10  22  40  67  92 135 171 223 277 333 391
#
# _framework density 20.186361999999999
#
# number of rings (size 3 to 8) (size 9 to 14) (size 15 to 20)
#    0.000    1.000    3.750    2.625    1.750    2.500 
#    2.250    0.000    0.000    0.000    0.000    0.000 
#    0.000    0.000    0.000    0.000    0.000    0.000 
#
# Total GULP energy -89505.273816 kJ/mol
# GULP energy per Si atom -5594.079613 kJ/mol
# Density = 2.014042 g / cm^3
# Si number density = 20.186362 Si / 1000 Ang^3
#
#
#
# Elastic Constant Matrix: (Units=GPa)
#
#
# Indices 1 2 3 4 5 6 
#
# 1 41.3030 27.6616 3.7374 1.6978 -16.4814 -4.0100
# 2 27.6616 96.9911 35.9657 -1.7044 -6.9912 -8.0007
# 3 3.7374 35.9657 66.8812 -8.4828 -9.2513 -0.9087
# 4 1.6978 -1.7044 -8.4828 36.2413 -2.7594 -12.4633
# 5 -16.4814 -6.9912 -9.2513 -2.7594 26.3909 1.1146
# 6 -4.0100 -8.0007 -0.9087 -12.4633 1.1146 40.8307
#
#
#
# Elastic Compliance Matrix: (Units=1/GPa)
#
#
# Indices 1 2 3 4 5 6 
#
# 1 0.043123 -0.013467 0.008786 0.002004 0.026582 0.001678
# 2 -0.013467 0.017341 -0.009660 -0.000744 -0.007358 0.001834
# 3 0.008786 -0.009660 0.021888 0.005378 0.011130 0.000795
# 4 0.002004 -0.000744 0.005378 0.032599 0.005928 0.009959
# 5 0.026582 -0.007358 0.011130 0.005928 0.056994 0.001670
# 6 0.001678 0.001834 0.000795 0.009959 0.001670 0.028028
#
#
# Mechanical properties :
#
#
# Convention : Reuss Voigt Hill
#
# Bulk Modulus (GPa) = 18.63224 37.76718 28.19971
# Shear Modulus (GPa) = 20.28034 29.87996 25.08015
#
# Velocity S-wave (km/s) = 3.17307 3.85152 3.52864
# Velocity P-wave (km/s) = 4.76179 6.20716 5.53188
#
# Compressibility (1/GPa) = 0.05367042
#
# Stress axis : x y z
#
# Youngs Moduli (GPa) = 23.18949 57.66749 45.68719
#
# Poissons Ratio (x) = 0.77660 -0.40141
# Poissons Ratio (y) = 0.31229 0.44133
# Poissons Ratio (z) = -0.20374 0.55706
#
# Static dielectric constant tensor:
#      x y z
#    x 1.701510 0.004530 -0.007740 
#    y 0.004530 1.711170 0.003330 
#    z -0.007740 0.003330 1.681790 
# 
# From -- ./inp_files/81066.got.cif
#   From: 2010.05.17/outbox.cif.g08.bks.cpg/sg2_41_cif.got.tgz:81066.got - 2010.06.03 11:33:40.
