data_PCOD9025353
_publ_section_title
;
Structure prediction by ZEFSAII (Michael W. Deem and Ramdas Pophale) SiO2 
 PCOD9025353
Probable space group: P -1
;
_chemical_formula_sum "Si O2"
_cell_formula_units_Z 16
_cell_length_a 7.652567
_cell_length_b 5.687110
_cell_length_c 17.449188
_cell_angle_alpha 100.103413
_cell_angle_beta 108.754273
_cell_angle_gamma 114.899324
_cell_volume 608.047837
_symmetry_space_group_name_H-M "P -1"
_symmetry_group_IT_number 2
_symmetry_cell_setting 'triclinic'
loop_
_space_group_symop_operation_xyz
x,y,z
-x,-y,-z
loop_
_atom_site_type_symbol
_atom_site_label
_atom_site_fract_x
_atom_site_fract_y
_atom_site_fract_z
Si Si1 0.685445 0.000760 0.251265
Si Si2 0.253627 0.944695 0.559823
Si Si3 0.375505 0.662997 0.969610
Si Si4 0.240317 0.406609 0.501918
Si Si5 0.630718 0.811617 0.793768
Si Si6 0.976446 0.402838 0.812520
Si Si7 0.842512 0.635891 0.692087
Si Si8 0.258826 0.464276 0.098742
O O1 0.713170 0.962810 0.342072
O O2 0.599796 0.217117 0.247529
O O3 0.912565 0.102166 0.249050
O O4 0.485807 0.731638 0.171761
O O5 0.344789 0.735949 0.551000
O O6 0.996146 0.744722 0.499901
O O7 0.333625 0.216518 0.534382
O O8 0.219092 0.546427 0.015428
O O9 0.500000 0.500000 0.000000
O O10 0.224584 0.522597 0.867017
O O11 0.500000 0.000000 0.000000
O O12 0.207398 0.372062 0.404078
O O13 0.687047 0.773654 0.886789
O O14 0.667733 0.634499 0.723812
O O15 0.818906 0.113089 0.812421
O O16 0.884921 0.394967 0.714782
O O17 0.925608 0.602113 0.869246
#
# Coordination Sequence:
#
# PCOD9025353 Si02
#       8
#     2   2   2   2   2   2   2   2
#     4  10  22  40  68  95 133 179 229 282 340 404
#     4   9  19  36  60  96 132 173 224 280 340 400
#     4  12  29  45  72 106 136 171 230 278 334 413
#     4   9  19  36  60  96 132 173 224 280 340 400
#     4  10  24  41  66  98 134 180 232 272 336 409
#     4  10  24  44  67  94 138 178 225 276 340 400
#     4  10  22  40  68  95 133 179 229 282 340 404
#     4  10  24  44  67  94 138 178 225 276 340 400
#
# _framework density 26.313717
#
# number of rings (size 3 to 8) (size 9 to 14) (size 15 to 20)
#    0.000    2.000    0.000    1.125   14.000    0.500 
#    0.000    1.250    0.000    0.000    0.000    0.000 
#    0.000    0.000    0.000    0.000    0.000    0.000 
#
# Total GULP energy -89351.125164 kJ/mol
# GULP energy per Si atom -5584.445323 kJ/mol
# Density = 2.625383 g / cm^3
# Si number density = 26.313717 Si / 1000 Ang^3
#
#
#
# Elastic Constant Matrix: (Units=GPa)
#
#
# Indices 1 2 3 4 5 6 
#
# 1 115.2227 35.0161 12.7229 -5.2602 3.9862 5.2537
# 2 35.0161 145.7895 50.7776 -38.5354 8.6569 -7.6173
# 3 12.7229 50.7776 102.4901 -44.7230 -3.0880 -2.0261
# 4 -5.2602 -38.5354 -44.7230 55.2411 3.1317 5.1254
# 5 3.9862 8.6569 -3.0880 3.1317 27.1958 -1.3029
# 6 5.2537 -7.6173 -2.0261 5.1254 -1.3029 33.0153
#
#
#
# Elastic Compliance Matrix: (Units=1/GPa)
#
#
# Indices 1 2 3 4 5 6 
#
# 1 0.009543 -0.002452 -0.000436 -0.000933 -0.000656 -0.001992
# 2 -0.002452 0.009877 -0.002687 0.004527 -0.003532 0.001662
# 3 -0.000436 -0.002687 0.015988 0.011062 0.001402 -0.001232
# 4 -0.000933 0.004527 0.011062 0.030619 -0.003719 -0.003028
# 5 -0.000656 -0.003532 0.001402 -0.003719 0.038649 0.001478
# 6 -0.001992 0.001662 -0.001232 -0.003028 0.001478 0.031442
#
#
# Mechanical properties :
#
#
# Convention : Reuss Voigt Hill
#
# Bulk Modulus (GPa) = 41.22432 62.28173 51.75303
# Shear Modulus (GPa) = 32.18440 40.75614 36.47027
#
# Velocity S-wave (km/s) = 3.50108 3.93982 3.72691
# Velocity P-wave (km/s) = 5.66074 6.66457 6.18306
#
# Compressibility (1/GPa) = 0.02425752
#
# Stress axis : x y z
#
# Youngs Moduli (GPa) = 104.78819 101.24316 62.54866
#
# Poissons Ratio (x) = 0.24824 0.02727
# Poissons Ratio (y) = 0.25693 0.16808
# Poissons Ratio (z) = 0.04569 0.27207
#
# Static dielectric constant tensor:
#      x y z
#    x 2.238560 -0.143050 -0.018580 
#    y -0.143050 2.174580 -0.038810 
#    z -0.018580 -0.038810 2.072890 
# 
# From -- ./inp_files/110882.got.cif
#   From: 2010.05.17/outbox.cif.g08.bks.cpg/sg2_56_cif.got.tgz:110882.got - 2010.06.03 11:33:40.
