data_PCOD9025362
_publ_section_title
;
Structure prediction by ZEFSAII (Michael W. Deem and Ramdas Pophale) SiO2 
 PCOD9025362
Probable space group: P -1
;
_chemical_formula_sum "Si O2"
_cell_formula_units_Z 16
_cell_length_a 11.666425
_cell_length_b 8.071663
_cell_length_c 16.613516
_cell_angle_alpha 46.962228
_cell_angle_beta 60.909038
_cell_angle_gamma 97.251497
_cell_volume 696.369123
_symmetry_space_group_name_H-M "P -1"
_symmetry_group_IT_number 2
_symmetry_cell_setting 'triclinic'
loop_
_space_group_symop_operation_xyz
x,y,z
-x,-y,-z
loop_
_atom_site_type_symbol
_atom_site_label
_atom_site_fract_x
_atom_site_fract_y
_atom_site_fract_z
Si Si1 0.637688 0.328606 0.291913
Si Si2 0.095068 0.773733 0.572293
Si Si3 0.296597 0.708453 0.904061
Si Si4 0.764051 0.559952 0.657966
Si Si5 0.268807 0.738723 0.382473
Si Si6 0.019981 0.644006 0.111300
Si Si7 0.299101 0.226079 0.116563
Si Si8 0.630687 0.800762 0.082881
O O1 0.669236 0.281835 0.205443
O O2 0.559008 0.483777 0.257277
O O3 0.849083 0.598775 0.166006
O O4 0.500000 0.000000 0.500000
O O5 0.192556 0.697155 0.511669
O O6 0.893811 0.566052 0.667776
O O7 0.080970 0.686404 0.698255
O O8 0.199266 0.145302 0.414882
O O9 0.505487 0.010702 0.768261
O O10 0.143861 0.712584 0.971621
O O11 0.222617 0.387817 0.080966
O O12 0.808056 0.558404 0.549527
O O13 0.541878 0.240260 0.843615
O O14 0.216091 0.908556 0.297568
O O15 0.177665 0.908506 0.033820
O O16 0.500000 0.500000 0.000000
O O17 0.326381 0.193856 0.025800
#
# Coordination Sequence:
#
# PCOD9025362 Si02
#       8
#     2   2   2   2   2   2   2   2
#     4  11  24  47  71  91 131 170 215 282 342 388
#     4  11  26  39  65 100 139 179 217 267 332 394
#     4  10  22  40  68  96 128 170 224 268 330 397
#     4  11  23  40  65  96 140 175 224 262 330 395
#     4  11  21  42  63  97 141 177 218 267 327 395
#     4  12  24  43  68  98 129 171 224 274 328 390
#     4   9  20  35  63  95 135 173 210 266 324 383
#     4  11  23  42  67  99 127 172 224 274 325 395
#
# _framework density 22.976322
#
# number of rings (size 3 to 8) (size 9 to 14) (size 15 to 20)
#    0.000    1.250    1.250    5.625    7.000    1.000 
#    2.250    0.625    0.000    0.000    0.000    0.000 
#    0.000    0.000    0.000    0.000    0.000    0.000 
#
# Total GULP energy -89332.991194 kJ/mol
# GULP energy per Si atom -5583.311950 kJ/mol
# Density = 2.292403 g / cm^3
# Si number density = 22.976322 Si / 1000 Ang^3
#
#
#
# Elastic Constant Matrix: (Units=GPa)
#
#
# Indices 1 2 3 4 5 6 
#
# 1 83.0351 13.8170 39.2118 -6.9102 -32.8619 16.6671
# 2 13.8170 100.5534 2.4712 -0.4190 -11.9707 17.8282
# 3 39.2118 2.4712 60.6594 1.0237 -4.1054 6.0874
# 4 -6.9102 -0.4190 1.0237 26.7114 3.8465 -7.8556
# 5 -32.8619 -11.9707 -4.1054 3.8465 45.9175 -0.6852
# 6 16.6671 17.8282 6.0874 -7.8556 -0.6852 32.2437
#
#
#
# Elastic Compliance Matrix: (Units=1/GPa)
#
#
# Indices 1 2 3 4 5 6 
#
# 1 0.030749 0.000769 -0.017358 0.002155 0.020294 -0.012086
# 2 0.000769 0.011553 0.000048 -0.002286 0.003650 -0.007274
# 3 -0.017358 0.000048 0.026814 -0.003274 -0.009696 0.002880
# 4 0.002155 -0.002286 -0.003274 0.041664 -0.002674 0.010862
# 5 0.020294 0.003650 -0.009696 -0.002674 0.036453 -0.010554
# 6 -0.012086 -0.007274 0.002880 0.010862 -0.010554 0.043161
#
#
# Mechanical properties :
#
#
# Convention : Reuss Voigt Hill
#
# Bulk Modulus (GPa) = 27.75212 39.47202 33.61207
# Shear Modulus (GPa) = 21.23243 33.55770 27.39507
#
# Velocity S-wave (km/s) = 3.04320 3.82584 3.45674
# Velocity P-wave (km/s) = 4.94499 6.06076 5.53108
#
# Compressibility (1/GPa) = 0.03603328
#
# Stress axis : x y z
#
# Youngs Moduli (GPa) = 32.52125 86.55993 37.29332
#
# Poissons Ratio (x) = -0.06658 0.64735
# Poissons Ratio (y) = -0.02502 -0.00178
# Poissons Ratio (z) = 0.56452 -0.00412
#
# Static dielectric constant tensor:
#      x y z
#    x 1.831490 -0.022300 0.011360 
#    y -0.022300 1.858450 -0.072800 
#    z 0.011360 -0.072800 1.807430 
# 
# From -- ./inp_files/515057.got.cif
#   From: 2010.05.17/outbox.cif.g08.bks.cpg/sg2_258_cif.got.tgz:515057.got - 2010.06.03 11:33:40.
