data_PCOD9025094
_publ_section_title
;
Structure prediction by ZEFSAII (Michael W. Deem and Ramdas Pophale) SiO2 
 PCOD9025094
Probable space group: P -1
;
_chemical_formula_sum "Si O2"
_cell_formula_units_Z 16
_cell_length_a 8.933543
_cell_length_b 9.831369
_cell_length_c 21.870813
_cell_angle_alpha 132.342854
_cell_angle_beta 146.163129
_cell_angle_gamma 46.363144
_cell_volume 749.716732
_symmetry_space_group_name_H-M "P -1"
_symmetry_group_IT_number 2
_symmetry_cell_setting 'triclinic'
loop_
_space_group_symop_operation_xyz
x,y,z
-x,-y,-z
loop_
_atom_site_type_symbol
_atom_site_label
_atom_site_fract_x
_atom_site_fract_y
_atom_site_fract_z
Si Si1 0.724044 0.885136 0.887312
Si Si2 0.371377 0.709725 0.051439
Si Si3 0.778392 0.906530 0.641722
Si Si4 0.730987 0.325383 0.338745
Si Si5 0.751362 0.807085 0.732499
Si Si6 0.339159 0.742118 0.379007
Si Si7 0.134813 0.793994 0.516781
Si Si8 0.095283 0.385691 0.720285
O O1 0.498695 0.776268 0.790671
O O2 0.724803 0.896290 0.816954
O O3 0.634858 0.111743 0.942477
O O4 0.043363 0.760853 0.975585
O O5 0.584585 0.707472 0.178571
O O6 0.500000 0.500000 0.000000
O O7 0.775411 0.931996 0.720704
O O8 0.503265 0.848890 0.511093
O O9 0.036086 0.724155 0.649879
O O10 0.785025 0.099377 0.667641
O O11 0.561973 0.546271 0.367160
O O12 0.892122 0.221067 0.423906
O O13 0.473567 0.738850 0.607116
O O14 0.015401 0.614756 0.766928
O O15 0.102186 0.684614 0.319822
O O16 0.992381 0.661740 0.390942
O O17 0.000000 0.000000 0.500000
#
# Coordination Sequence:
#
# PCOD9025094 Si02
#       8
#     2   2   2   2   2   2   2   2
#     4  10  22  40  67  93 120 156 214 261 300 366
#     4  11  21  39  64  97 119 153 210 268 310 351
#     4  11  24  36  58  90 134 167 196 245 308 367
#     4  11  22  41  60  91 125 171 200 245 308 373
#     4  11  21  40  59  94 127 156 206 260 297 368
#     4  11  21  38  56  86 129 170 202 238 301 371
#     4  11  21  34  60  90 126 161 206 246 301 364
#     4  12  20  38  65  89 121 168 204 255 308 359
#
# _framework density 21.341396
#
# number of rings (size 3 to 8) (size 9 to 14) (size 15 to 20)
#    0.000    1.000    5.000    4.500    1.750    0.000 
#    2.250    0.000    0.000    7.500    0.000    0.000 
#    0.000    0.000    0.000    0.000    0.000    0.000 
#
# Total GULP energy -89414.856004 kJ/mol
# GULP energy per Si atom -5588.428500 kJ/mol
# Density = 2.129282 g / cm^3
# Si number density = 21.341396 Si / 1000 Ang^3
#
#
#
# Elastic Constant Matrix: (Units=GPa)
#
#
# Indices 1 2 3 4 5 6 
#
# 1 61.9297 -1.2642 15.2623 -10.2499 -0.0226 12.2473
# 2 -1.2642 112.5767 22.2975 -3.8849 2.1958 -11.0748
# 3 15.2623 22.2975 99.7213 -25.6314 12.9134 -5.8488
# 4 -10.2499 -3.8849 -25.6314 38.2175 -3.1935 1.9410
# 5 -0.0226 2.1958 12.9134 -3.1935 10.2763 2.7347
# 6 12.2473 -11.0748 -5.8488 1.9410 2.7347 31.0659
#
#
#
# Elastic Compliance Matrix: (Units=1/GPa)
#
#
# Indices 1 2 3 4 5 6 
#
# 1 0.019548 -0.000016 -0.003580 0.004008 0.008283 -0.009366
# 2 -0.000016 0.009584 -0.002049 -0.000604 -0.000490 0.003118
# 3 -0.003580 -0.002049 0.015590 0.007536 -0.018079 0.004737
# 4 0.004008 -0.000604 0.007536 0.032482 0.001436 -0.002533
# 5 0.008283 -0.000490 -0.018079 0.001436 0.125382 -0.017971
# 6 -0.009366 0.003118 0.004737 -0.002533 -0.017971 0.039625
#
#
# Mechanical properties :
#
#
# Convention : Reuss Voigt Hill
#
# Bulk Modulus (GPa) = 29.91220 38.53544 34.22382
# Shear Modulus (GPa) = 18.89313 31.77406 25.33360
#
# Velocity S-wave (km/s) = 2.97859 3.86274 3.44912
# Velocity P-wave (km/s) = 5.08683 6.16362 5.65093
#
# Compressibility (1/GPa) = 0.03343117
#
# Stress axis : x y z
#
# Youngs Moduli (GPa) = 51.15657 104.34035 64.14329
#
# Poissons Ratio (x) = 0.00167 0.22963
# Poissons Ratio (y) = 0.00082 0.13145
# Poissons Ratio (z) = 0.18314 0.21383
#
# Static dielectric constant tensor:
#      x y z
#    x 1.781750 -0.036530 -0.034430 
#    y -0.036530 1.833990 0.044530 
#    z -0.034430 0.044530 1.843940 
# 
# From -- ./inp_files/477671.got.cif
#   From: 2010.05.17/outbox.cif.g08.bks.cpg/sg2_239_cif.got.tgz:477671.got - 2010.06.03 11:33:40.
