data_PCOD9025098
_publ_section_title
;
Structure prediction by ZEFSAII (Michael W. Deem and Ramdas Pophale) SiO2 
 PCOD9025098
Probable space group: P -1
;
_chemical_formula_sum "Si O2"
_cell_formula_units_Z 16
_cell_length_a 11.061340
_cell_length_b 9.496129
_cell_length_c 9.699700
_cell_angle_alpha 80.845558
_cell_angle_beta 85.826497
_cell_angle_gamma 39.539524
_cell_volume 638.329969
_symmetry_space_group_name_H-M "P -1"
_symmetry_group_IT_number 2
_symmetry_cell_setting 'triclinic'
loop_
_space_group_symop_operation_xyz
x,y,z
-x,-y,-z
loop_
_atom_site_type_symbol
_atom_site_label
_atom_site_fract_x
_atom_site_fract_y
_atom_site_fract_z
Si Si1 0.964539 0.629723 0.850588
Si Si2 0.644416 0.980854 0.327321
Si Si3 0.776758 0.667805 0.604489
Si Si4 0.369506 0.977658 0.000522
Si Si5 0.720836 0.233266 0.873001
Si Si6 0.201847 0.685093 0.410332
Si Si7 0.757133 0.179978 0.353258
Si Si8 0.843209 0.281988 0.089849
O O1 0.928103 0.586895 0.716581
O O2 0.133497 0.591473 0.850883
O O3 0.000000 0.500000 0.000000
O O4 0.769469 0.877659 0.879268
O O5 0.427873 0.124520 0.335942
O O6 0.701513 0.946298 0.166220
O O7 0.645854 0.134198 0.376558
O O8 0.769465 0.766507 0.449517
O O9 0.794004 0.485706 0.595404
O O10 0.414529 0.768067 0.054396
O O11 0.500000 0.000000 0.000000
O O12 0.688312 0.316664 0.709225
O O13 0.748699 0.354944 0.937848
O O14 0.937010 0.971544 0.903120
O O15 0.273703 0.671701 0.554003
O O16 0.979589 0.932076 0.382231
O O17 0.732177 0.269919 0.192331
#
# Coordination Sequence:
#
# PCOD9025098 Si02
#       8
#     2   2   2   2   2   2   2   2
#     4  11  24  39  65  97 133 166 214 274 332 380
#     4  11  25  44  66  93 134 179 216 262 325 395
#     4  11  26  44  63  96 138 175 214 266 331 390
#     4  11  22  42  66  93 126 175 219 258 321 397
#     4   9  18  35  63  88 123 164 210 263 319 372
#     4  10  23  40  64  98 126 170 220 271 323 379
#     4  10  22  40  67  93 124 170 220 267 322 385
#     4   9  18  35  58  90 123 161 208 261 320 376
#
# _framework density 25.065408000000001
#
# number of rings (size 3 to 8) (size 9 to 14) (size 15 to 20)
#    0.000    1.750    2.500    0.750   10.500    2.000 
#    0.000    1.875    0.000    0.000    0.000    0.000 
#    0.000    0.000    0.000    0.000    0.000    0.000 
#
# Total GULP energy -89365.793104 kJ/mol
# GULP energy per Si atom -5585.362069 kJ/mol
# Density = 2.500836 g / cm^3
# Si number density = 25.065408 Si / 1000 Ang^3
#
#
#
# Elastic Constant Matrix: (Units=GPa)
#
#
# Indices 1 2 3 4 5 6 
#
# 1 148.9752 31.5846 55.2857 2.6469 6.7355 43.5809
# 2 31.5846 77.9807 38.4050 5.4168 10.0099 24.0796
# 3 55.2857 38.4050 125.0931 5.9393 13.7080 26.3684
# 4 2.6469 5.4168 5.9393 36.2208 7.9308 -7.0467
# 5 6.7355 10.0099 13.7080 7.9308 48.0739 7.3890
# 6 43.5809 24.0796 26.3684 -7.0467 7.3890 45.1075
#
#
#
# Elastic Compliance Matrix: (Units=1/GPa)
#
#
# Indices 1 2 3 4 5 6 
#
# 1 0.010313 -0.000103 -0.002664 -0.002264 0.001075 -0.008881
# 2 -0.000103 0.017184 -0.003407 -0.003251 -0.000912 -0.007440
# 3 -0.002664 -0.003407 0.010830 -0.001096 -0.001539 -0.001857
# 4 -0.002264 -0.003251 -0.001096 0.031675 -0.005520 0.010417
# 5 0.001075 -0.000912 -0.001539 -0.005520 0.022844 -0.004256
# 6 -0.008881 -0.007440 -0.001857 0.010417 -0.004256 0.038131
#
#
# Mechanical properties :
#
#
# Convention : Reuss Voigt Hill
#
# Bulk Modulus (GPa) = 38.49608 66.95550 52.72579
# Shear Modulus (GPa) = 32.89775 40.99868 36.94821
#
# Velocity S-wave (km/s) = 3.62674 4.04873 3.84353
# Velocity P-wave (km/s) = 5.73840 6.97327 6.38576
#
# Compressibility (1/GPa) = 0.02597667
#
# Stress axis : x y z
#
# Youngs Moduli (GPa) = 96.96638 58.19364 92.33820
#
# Poissons Ratio (x) = 0.00600 0.24603
# Poissons Ratio (y) = 0.01000 0.31464
# Poissons Ratio (z) = 0.25836 0.19829
#
# Static dielectric constant tensor:
#      x y z
#    x 1.982820 0.027610 -0.010180 
#    y 0.027610 1.958550 -0.041380 
#    z -0.010180 -0.041380 1.870250 
# 
# From -- ./inp_files/243501.got.cif
#   From: 2010.05.17/outbox.cif.g08.bks.cpg/sg2_122_cif.got.tgz:243501.got - 2010.06.03 11:33:40.
