data_PCOD9025296
_publ_section_title
;
Structure prediction by ZEFSAII (Michael W. Deem and Ramdas Pophale) SiO2 
 PCOD9025296
Probable space group: P -1
;
_chemical_formula_sum "Si O2"
_cell_formula_units_Z 14
_cell_length_a 17.111871
_cell_length_b 9.815306
_cell_length_c 9.242501
_cell_angle_alpha 29.924739
_cell_angle_beta 38.720333
_cell_angle_gamma 51.673056
_cell_volume 476.532238
_symmetry_space_group_name_H-M "P -1"
_symmetry_group_IT_number 2
_symmetry_cell_setting 'triclinic'
loop_
_space_group_symop_operation_xyz
x,y,z
-x,-y,-z
loop_
_atom_site_type_symbol
_atom_site_label
_atom_site_fract_x
_atom_site_fract_y
_atom_site_fract_z
Si Si1 0.187229 0.562514 0.273946
Si Si2 0.476646 0.870779 0.311233
Si Si3 0.195437 0.100325 0.219841
Si Si4 0.113410 0.412671 0.829967
Si Si5 0.635260 0.859076 0.539991
Si Si6 0.822190 0.329890 0.118987
Si Si7 0.393626 0.445357 0.440380
O O1 0.104707 0.472391 0.619197
O O2 0.261889 0.559573 0.520499
O O3 0.120599 0.628368 0.161830
O O4 0.290034 0.842908 0.896096
O O5 0.320077 0.819422 0.574423
O O6 0.480799 0.549625 0.654396
O O7 0.484785 0.107661 0.214858
O O8 0.500000 0.000000 0.000000
O O9 0.264098 0.309005 0.379208
O O10 0.141954 0.867532 0.625440
O O11 0.125623 0.109950 0.155743
O O12 0.179760 0.375334 0.076731
O O13 0.342642 0.161176 0.893927
O O14 0.000000 0.500000 0.000000
O O15 0.593105 0.684240 0.615759
#
# Coordination Sequence:
#
# PCOD9025296 Si02
#       7
#     2   2   2   2   2   2   2
#     4  10  22  40  68  89 129 167 210 259 315 375
#     4  11  20  37  63  92 130 172 203 253 313 381
#     4  10  23  40  65  89 129 162 213 255 310 371
#     4   9  21  44  68  94 122 166 217 266 314 366
#     4  10  22  41  58  94 127 169 210 257 307 375
#     4  11  22  42  59  96 130 167 201 255 317 379
#     4   9  21  39  61  91 126 164 212 256 308 368
#
# _framework density 29.378913000000001
#
# number of rings (size 3 to 8) (size 9 to 14) (size 15 to 20)
#    0.857    1.143    1.429    2.143    2.000    0.571 
#    2.571   20.000    0.000    0.000    0.000    0.000 
#    0.000    0.000    0.000    0.000    0.000    0.000 
#
# Total GULP energy -78092.364086 kJ/mol
# GULP energy per Si atom -5578.026006 kJ/mol
# Density = 2.931204 g / cm^3
# Si number density = 29.378913 Si / 1000 Ang^3
#
#
#
# Elastic Constant Matrix: (Units=GPa)
#
#
# Indices 1 2 3 4 5 6 
#
# 1 215.3870 80.0810 153.8707 3.1305 26.3290 1.5492
# 2 80.0810 193.8948 145.4790 20.4709 -1.5764 1.8631
# 3 153.8707 145.4790 378.7027 31.3837 23.8404 -2.3666
# 4 3.1305 20.4709 31.3837 77.3130 7.7746 -2.8132
# 5 26.3290 -1.5764 23.8404 7.7746 76.1065 -0.3438
# 6 1.5492 1.8631 -2.3666 -2.8132 -0.3438 49.2132
#
#
#
# Elastic Compliance Matrix: (Units=1/GPa)
#
#
# Indices 1 2 3 4 5 6 
#
# 1 0.006994 -0.001273 -0.002336 0.001178 -0.001835 -0.000230
# 2 -0.001273 0.007632 -0.002415 -0.001152 0.001471 -0.000421
# 3 -0.002336 -0.002415 0.004646 -0.001081 -0.000585 0.000322
# 4 0.001178 -0.001152 -0.001081 0.013808 -0.001500 0.000733
# 5 -0.001835 0.001471 -0.000585 -0.001500 0.014141 -0.000013
# 6 -0.000230 -0.000421 0.000322 0.000733 -0.000013 0.020400
#
#
# Mechanical properties :
#
#
# Convention : Reuss Voigt Hill
#
# Bulk Modulus (GPa) = 138.40934 171.87177 155.14055
# Shear Modulus (GPa) = 60.91769 67.76346 64.34058
#
# Velocity S-wave (km/s) = 4.55853 4.80785 4.68485
# Velocity P-wave (km/s) = 8.65569 9.45776 9.06560
#
# Compressibility (1/GPa) = 0.00722495
#
# Stress axis : x y z
#
# Youngs Moduli (GPa) = 142.98020 131.02001 215.24387
#
# Poissons Ratio (x) = 0.16676 0.50288
# Poissons Ratio (y) = 0.18198 0.51972
# Poissons Ratio (z) = 0.33405 0.31636
#
# Static dielectric constant tensor:
#      x y z
#    x 2.475960 -0.396330 0.602130 
#    y -0.396330 0.936870 2.239920 
#    z 0.602130 2.239920 -0.498190 
# 
# From -- ./inp_files/331480.got.cif
#   From: 2010.05.17/outbox.cif.g08.bks.cpg/sg2_166_cif.got.tgz:331480.got - 2010.06.03 11:33:40.
