data_PCOD9025023
_publ_section_title
;
Structure prediction by ZEFSAII (Michael W. Deem and Ramdas Pophale) SiO2 
 PCOD9025023
Probable space group: P -1
;
_chemical_formula_sum "Si O2"
_cell_formula_units_Z 14
_cell_length_a 5.105921
_cell_length_b 17.184730
_cell_length_c 11.481444
_cell_angle_alpha 136.600137
_cell_angle_beta 112.823769
_cell_angle_gamma 75.980087
_cell_volume 636.744422
_symmetry_space_group_name_H-M "P -1"
_symmetry_group_IT_number 2
_symmetry_cell_setting 'triclinic'
loop_
_space_group_symop_operation_xyz
x,y,z
-x,-y,-z
loop_
_atom_site_type_symbol
_atom_site_label
_atom_site_fract_x
_atom_site_fract_y
_atom_site_fract_z
Si Si1 0.428228 0.944697 0.802979
Si Si2 0.779125 0.316096 0.485542
Si Si3 0.558210 0.182691 0.711735
Si Si4 0.556707 0.566219 0.948538
Si Si5 0.839500 0.354006 0.804510
Si Si6 0.233015 0.441285 0.552314
Si Si7 0.806377 0.985142 0.686563
O O1 0.339945 0.812781 0.666727
O O2 0.673564 0.961718 0.766374
O O3 0.144679 0.997790 0.763352
O O4 0.500000 0.000000 0.000000
O O5 0.882310 0.353157 0.673091
O O6 0.511905 0.390836 0.488376
O O7 0.048625 0.339609 0.474754
O O8 0.774107 0.225421 0.693181
O O9 0.297655 0.118754 0.529221
O O10 0.679846 0.095825 0.728397
O O11 0.514329 0.304962 0.892413
O O12 0.581316 0.437449 0.869793
O O13 0.359802 0.531030 0.766821
O O14 0.897614 0.592063 0.018250
O O15 0.000000 0.500000 0.500000
#
# Coordination Sequence:
#
# PCOD9025023 Si02
#       7
#     2   2   2   2   2   2   2
#     4  12  26  48  72  97 133 182 240 271 329 408
#     4  11  24  44  71  94 134 180 221 282 334 400
#     4  11  24  41  70  98 146 168 223 291 341 404
#     4  10  24  37  69  99 132 177 226 266 339 408
#     4  10  22  40  67 101 135 175 222 277 341 406
#     4  11  26  45  66  99 139 178 222 273 341 397
#     4  11  27  45  69 104 134 182 222 286 351 381
#
# _framework density 21.986844000000001
#
# number of rings (size 3 to 8) (size 9 to 14) (size 15 to 20)
#    0.000    1.143    1.429    3.000   14.000    3.429 
#    0.000    0.000    0.000    0.000    0.000    0.000 
#    0.000    0.000    0.000    0.000    0.000    0.000 
#
# Total GULP energy -78119.115137 kJ/mol
# GULP energy per Si atom -5579.936796 kJ/mol
# Density = 2.193680 g / cm^3
# Si number density = 21.986844 Si / 1000 Ang^3
#
#
#
# Elastic Constant Matrix: (Units=GPa)
#
#
# Indices 1 2 3 4 5 6 
#
# 1 55.8398 5.4106 0.8561 0.5181 6.2348 -20.3463
# 2 5.4106 95.9501 45.2981 9.7219 10.9306 -11.3199
# 3 0.8561 45.2981 118.7935 -6.9835 6.6667 -27.1950
# 4 0.5181 9.7219 -6.9835 53.7437 -4.6544 10.6383
# 5 6.2348 10.9306 6.6667 -4.6544 32.1049 2.1939
# 6 -20.3463 -11.3199 -27.1950 10.6383 2.1939 25.2267
#
#
#
# Elastic Compliance Matrix: (Units=1/GPa)
#
#
# Indices 1 2 3 4 5 6 
#
# 1 0.035713 0.001193 0.009839 -0.009410 -0.013832 0.045118
# 2 0.001193 0.013955 -0.004136 -0.004532 -0.005131 0.005124
# 3 0.009839 -0.004136 0.015750 -0.002697 -0.005852 0.024705
# 4 -0.009410 -0.004532 -0.002697 0.024653 0.009126 -0.023721
# 5 -0.013832 -0.005131 -0.005852 0.009126 0.039971 -0.027092
# 6 0.045118 0.005124 0.024705 -0.023721 -0.027092 0.117321
#
#
# Mechanical properties :
#
#
# Convention : Reuss Voigt Hill
#
# Bulk Modulus (GPa) = 12.62434 41.52368 27.07401
# Shear Modulus (GPa) = 19.23279 36.81630 28.02455
#
# Velocity S-wave (km/s) = 2.96081 4.09647 3.57403
# Velocity P-wave (km/s) = 4.17645 6.42662 5.41960
#
# Compressibility (1/GPa) = 0.07921204
#
# Stress axis : x y z
#
# Youngs Moduli (GPa) = 28.00087 71.65657 63.49402
#
# Poissons Ratio (x) = -0.08549 -0.62474
# Poissons Ratio (y) = -0.03341 0.26258
# Poissons Ratio (z) = -0.27551 0.29634
#
# Static dielectric constant tensor:
#      x y z
#    x 2.032280 0.141180 -0.224630 
#    y 0.141180 1.906010 -0.138000 
#    z -0.224630 -0.138000 2.019880 
# 
# From -- ./inp_files/369227.got.cif
#   From: 2010.05.17/outbox.cif.g08.bks.cpg/sg2_185_cif.got.tgz:369227.got - 2010.06.03 11:33:40.
