data_PCOD9025048
_publ_section_title
;
Structure prediction by ZEFSAII (Michael W. Deem and Ramdas Pophale) SiO2 
 PCOD9025048
Probable space group: P -1
;
_chemical_formula_sum "Si O2"
_cell_formula_units_Z 15
_cell_length_a 23.848276
_cell_length_b 5.219272
_cell_length_c 10.309078
_cell_angle_alpha 87.486842
_cell_angle_beta 151.646524
_cell_angle_gamma 92.762233
_cell_volume 608.682716
_symmetry_space_group_name_H-M "P -1"
_symmetry_group_IT_number 2
_symmetry_cell_setting 'triclinic'
loop_
_space_group_symop_operation_xyz
x,y,z
-x,-y,-z
loop_
_atom_site_type_symbol
_atom_site_label
_atom_site_fract_x
_atom_site_fract_y
_atom_site_fract_z
Si Si1 0.439493 0.255698 0.320255
Si Si2 0.604485 0.544424 0.053218
Si Si3 0.194559 0.049334 0.821917
Si Si4 0.280483 0.089153 0.527388
Si Si5 0.934450 0.579287 0.000061
Si Si6 0.500000 0.000000 0.000000
Si Si7 0.817581 0.250055 0.438701
Si Si8 0.961936 0.302191 0.309552
O O1 0.500000 0.500000 0.500000
O O2 0.500000 0.000000 0.500000
O O3 0.442916 0.321261 0.173403
O O4 0.301796 0.227225 0.079422
O O5 0.608693 0.771449 0.166201
O O6 0.745066 0.501703 0.319150
O O7 0.551460 0.270177 0.994051
O O8 0.239041 0.857883 0.805848
O O9 0.127816 0.898770 0.802865
O O10 0.090053 0.199159 0.537597
O O11 0.379015 0.932171 0.657874
O O12 0.205519 0.926906 0.480421
O O13 0.185816 0.270871 0.269035
O O14 0.905755 0.369994 0.055337
O O15 0.042259 0.725566 0.289896
O O16 0.000000 0.500000 0.000000
O O17 0.000000 0.500000 0.500000
#
# Coordination Sequence:
#
# PCOD9025048 Si02
#       8
#     2   2   2   2   2   1   2   2
#     4  12  27  47  78 116 150 208 274 331 385 477
#     4  10  22  45  70 103 146 198 250 316 402 452
#     4  11  24  47  73 109 153 206 261 320 406 487
#     4  10  22  40  67 104 143 196 250 314 385 459
#     4  12  22  42  71 114 148 195 261 319 384 482
#     4   8  20  46  64  94 142 194 244 300 386 456
#     4  12  21  41  77 103 152 198 253 326 397 473
#     4  11  25  45  75 108 158 211 244 327 413 460
#
# _framework density 24.643383
#
# number of rings (size 3 to 8) (size 9 to 14) (size 15 to 20)
#    0.800    0.267    4.000    2.800    1.867    0.533 
#    2.400    1.333    0.000    0.000    0.000    0.000 
#    0.000    0.000    0.000    0.000    0.000    0.000 
#
# Total GULP energy -83595.646429 kJ/mol
# GULP energy per Si atom -5573.043095 kJ/mol
# Density = 2.458729 g / cm^3
# Si number density = 24.643383 Si / 1000 Ang^3
#
#
#
# Elastic Constant Matrix: (Units=GPa)
#
#
# Indices 1 2 3 4 5 6 
#
# 1 89.7132 46.4187 51.4860 -15.4657 12.0397 14.5901
# 2 46.4187 123.2460 74.7121 -16.8494 7.7539 17.1143
# 3 51.4860 74.7121 157.8477 -30.9810 14.2122 12.7723
# 4 -15.4657 -16.8494 -30.9810 68.2970 6.2190 -5.6411
# 5 12.0397 7.7539 14.2122 6.2190 43.6286 0.6481
# 6 14.5901 17.1143 12.7723 -5.6411 0.6481 41.7490
#
#
#
# Elastic Compliance Matrix: (Units=1/GPa)
#
#
# Indices 1 2 3 4 5 6 
#
# 1 0.015603 -0.003468 -0.002641 0.001507 -0.003000 -0.002973
# 2 -0.003468 0.012563 -0.004641 -0.000025 0.000277 -0.002526
# 3 -0.002641 -0.004641 0.010186 0.003092 -0.002208 0.000161
# 4 0.001507 -0.000025 0.003092 0.016800 -0.003826 0.000867
# 5 -0.003000 0.000277 -0.002208 -0.003826 0.024953 0.000706
# 6 -0.002973 -0.002526 0.000161 0.000867 0.000706 0.026084
#
#
# Mechanical properties :
#
#
# Convention : Reuss Voigt Hill
#
# Bulk Modulus (GPa) = 59.34031 79.56006 69.45019
# Shear Modulus (GPa) = 37.50791 43.94759 40.72775
#
# Velocity S-wave (km/s) = 3.90555 4.22755 4.06973
# Velocity P-wave (km/s) = 6.66856 7.49561 7.09415
#
# Compressibility (1/GPa) = 0.01685195
#
# Stress axis : x y z
#
# Youngs Moduli (GPa) = 64.09189 79.59860 98.17539
#
# Poissons Ratio (x) = 0.27602 0.25933
# Poissons Ratio (y) = 0.22225 0.45560
# Poissons Ratio (z) = 0.16930 0.36939
#
# Static dielectric constant tensor:
#      x y z
#    x 2.023100 -0.066790 -0.010160 
#    y -0.066790 2.185210 0.028410 
#    z -0.010160 0.028410 1.957330 
# 
# From -- ./inp_files/459305.got.cif
#   From: 2010.05.17/outbox.cif.g08.bks.cpg/sg2_230_cif.got.tgz:459305.got - 2010.06.03 11:33:40.
