data_PCOD9025241
_publ_section_title
;
Structure prediction by ZEFSAII (Michael W. Deem and Ramdas Pophale) SiO2 
 PCOD9025241
Probable space group: P -1
;
_chemical_formula_sum "Si O2"
_cell_formula_units_Z 16
_cell_length_a 15.799932
_cell_length_b 9.219145
_cell_length_c 9.024211
_cell_angle_alpha 113.832569
_cell_angle_beta 144.592658
_cell_angle_gamma 61.312182
_cell_volume 667.893719
_symmetry_space_group_name_H-M "P -1"
_symmetry_group_IT_number 2
_symmetry_cell_setting 'triclinic'
loop_
_space_group_symop_operation_xyz
x,y,z
-x,-y,-z
loop_
_atom_site_type_symbol
_atom_site_label
_atom_site_fract_x
_atom_site_fract_y
_atom_site_fract_z
Si Si1 0.329933 0.874551 0.535038
Si Si2 0.739998 0.871549 0.882058
Si Si3 0.930033 0.514756 0.069184
Si Si4 0.553365 0.847401 0.318986
Si Si5 0.995587 0.992856 0.813187
Si Si6 0.592931 0.648459 0.018942
Si Si7 0.346464 0.600739 0.240676
Si Si8 0.088384 0.332847 0.478706
O O1 0.174979 0.891506 0.410436
O O2 0.463144 0.765031 0.780596
O O3 0.331982 0.787893 0.341445
O O4 0.353375 0.049515 0.599846
O O5 0.641570 0.812072 0.587628
O O6 0.612381 0.018869 0.841661
O O7 0.841056 0.709178 0.046076
O O8 0.869767 0.946544 0.034604
O O9 0.074194 0.402246 0.320028
O O10 0.796212 0.435061 0.893534
O O11 0.000000 0.500000 0.000000
O O12 0.551240 0.690555 0.149206
O O13 0.991226 0.811809 0.681362
O O14 0.000000 0.000000 0.000000
O O15 0.635569 0.465674 0.929344
O O16 0.744266 0.705248 0.235084
O O17 0.500000 0.500000 0.500000
O O18 0.000000 0.500000 0.500000
#
# Coordination Sequence:
#
# PCOD9025241 Si02
#       8
#     2   2   2   2   2   2   2   2
#     4  11  22  40  76 100 131 184 240 289 340 420
#     4  11  25  43  70 106 145 180 238 288 359 415
#     4  12  24  44  70 101 145 187 228 286 362 416
#     4  11  23  42  72 101 141 185 229 297 351 413
#     4  12  23  44  71 104 133 183 244 286 337 428
#     4  11  22  42  67 104 134 183 239 286 351 417
#     4  10  22  40  68 101 134 177 235 282 342 422
#     4  12  26  43  72 104 142 187 236 295 347 417
#
# _framework density 23.955907
#
# number of rings (size 3 to 8) (size 9 to 14) (size 15 to 20)
#    0.000    0.750    3.750    4.875    0.000    0.000 
#    0.000    5.000    0.000   19.500    0.000    0.000 
#    0.000    0.000    0.000    0.000    0.000    0.000 
#
# Total GULP energy -89387.959035 kJ/mol
# GULP energy per Si atom -5586.747440 kJ/mol
# Density = 2.390138 g / cm^3
# Si number density = 23.955907 Si / 1000 Ang^3
#
#
#
# Elastic Constant Matrix: (Units=GPa)
#
#
# Indices 1 2 3 4 5 6 
#
# 1 110.6604 23.6960 45.9642 13.6465 1.4848 -25.7953
# 2 23.6960 107.1334 49.2485 11.8902 -1.5225 -29.7339
# 3 45.9642 49.2485 116.9695 3.3966 12.6156 -12.3458
# 4 13.6465 11.8902 3.3966 43.1755 -17.8215 -12.4783
# 5 1.4848 -1.5225 12.6156 -17.8215 38.8008 4.2165
# 6 -25.7953 -29.7339 -12.3458 -12.4783 4.2165 42.3046
#
#
#
# Elastic Compliance Matrix: (Units=1/GPa)
#
#
# Indices 1 2 3 4 5 6 
#
# 1 0.012531 0.001502 -0.004706 -0.002358 -0.000702 0.006698
# 2 0.001502 0.014206 -0.005710 -0.000993 0.000939 0.008848
# 3 -0.004706 -0.005710 0.012970 -0.000506 -0.004186 -0.002830
# 4 -0.002358 -0.000993 -0.000506 0.031700 0.014161 0.005655
# 5 -0.000702 0.000939 -0.004186 0.014161 0.033721 -0.000173
# 6 0.006698 0.008848 -0.002830 0.005655 -0.000173 0.034800
#
#
# Mechanical properties :
#
#
# Convention : Reuss Voigt Hill
#
# Bulk Modulus (GPa) = 45.70400 63.62007 54.66203
# Shear Modulus (GPa) = 30.29428 39.24649 34.77039
#
# Velocity S-wave (km/s) = 3.55996 4.05196 3.81390
# Velocity P-wave (km/s) = 6.00146 6.96462 6.50090
#
# Compressibility (1/GPa) = 0.02187992
#
# Stress axis : x y z
#
# Youngs Moduli (GPa) = 79.80231 70.39286 77.10101
#
# Poissons Ratio (x) = -0.10574 0.36280
# Poissons Ratio (y) = -0.11987 0.44025
# Poissons Ratio (z) = 0.37551 0.40195
#
# Static dielectric constant tensor:
#      x y z
#    x 1.977500 -0.119550 -0.030370 
#    y -0.119550 1.943110 0.037780 
#    z -0.030370 0.037780 1.952030 
# 
# From -- ./inp_files/299393.got.cif
#   From: 2010.05.17/outbox.cif.g08.bks.cpg/sg2_150_cif.got.tgz:299393.got - 2010.06.03 11:33:40.
