data_PCOD9025914
_publ_section_title
;
Structure prediction by ZEFSAII (Michael W. Deem and Ramdas Pophale) SiO2 
 PCOD9025914
Probable space group: P -1
;
_chemical_formula_sum "Si O2"
_cell_formula_units_Z 15
_cell_length_a 11.009602
_cell_length_b 8.120760
_cell_length_c 12.722647
_cell_angle_alpha 90.788453
_cell_angle_beta 146.281354
_cell_angle_gamma 95.073678
_cell_volume 621.068994
_symmetry_space_group_name_H-M "P -1"
_symmetry_group_IT_number 2
_symmetry_cell_setting 'triclinic'
loop_
_space_group_symop_operation_xyz
x,y,z
-x,-y,-z
loop_
_atom_site_type_symbol
_atom_site_label
_atom_site_fract_x
_atom_site_fract_y
_atom_site_fract_z
Si Si1 0.170870 0.302881 0.007718
Si Si2 0.509453 0.544156 0.384220
Si Si3 0.000000 0.500000 0.500000
Si Si4 0.242332 0.840894 0.149041
Si Si5 0.875155 0.020236 0.152041
Si Si6 0.666192 0.070324 0.457230
Si Si7 0.192553 0.895593 0.666847
Si Si8 0.936020 0.441905 0.676530
O O1 0.211574 0.172674 0.946828
O O2 0.979356 0.202837 0.942553
O O3 0.071862 0.451529 0.880760
O O4 0.380632 0.387558 0.224531
O O5 0.500000 0.500000 0.500000
O O6 0.385891 0.695373 0.268675
O O7 0.767941 0.570219 0.538908
O O8 0.887014 0.302536 0.401712
O O9 0.080657 0.454656 0.676964
O O10 0.417383 0.002898 0.316687
O O11 0.169064 0.868496 0.977727
O O12 0.140333 0.028531 0.365346
O O13 0.759748 0.062306 0.176617
O O14 0.644564 0.054682 0.314502
O O15 0.773763 0.260450 0.564690
O O16 0.000000 0.000000 0.500000
#
# Coordination Sequence:
#
# PCOD9025914 Si02
#       8
#     2   2   1   2   2   2   2   2
#     4  11  25  45  65  98 137 178 230 286 345 402
#     4  12  27  43  66  95 140 181 227 287 341 418
#     4  10  22  40  76 100 138 184 222 286 338 408
#     4  12  25  39  67 100 131 180 228 280 345 406
#     4  10  23  41  69  95 133 174 227 286 328 413
#     4   9  22  43  67  98 130 177 224 279 341 404
#     4   9  20  41  68 101 135 178 227 278 345 402
#     4  10  23  45  69  98 136 178 224 279 342 411
#
# _framework density 24.151906
#
# number of rings (size 3 to 8) (size 9 to 14) (size 15 to 20)
#    0.000    1.600    1.333    2.400    7.467    2.667 
#    0.000    0.667    0.000    0.000    0.000    0.000 
#    0.000    0.000    0.000    0.000    0.000    0.000 
#
# Total GULP energy -83638.763825 kJ/mol
# GULP energy per Si atom -5575.917588 kJ/mol
# Density = 2.409694 g / cm^3
# Si number density = 24.151906 Si / 1000 Ang^3
#
#
#
# Elastic Constant Matrix: (Units=GPa)
#
#
# Indices 1 2 3 4 5 6 
#
# 1 37.2426 -4.6180 49.0146 -1.8922 -15.5218 0.7559
# 2 -4.6180 110.6367 35.2413 -11.6634 -2.5725 -1.2664
# 3 49.0146 35.2413 169.2828 -23.1732 -23.0553 9.8995
# 4 -1.8922 -11.6634 -23.1732 38.6087 -4.1191 -8.6469
# 5 -15.5218 -2.5725 -23.0553 -4.1191 46.0599 -4.1190
# 6 0.7559 -1.2664 9.8995 -8.6469 -4.1190 29.3249
#
#
#
# Elastic Compliance Matrix: (Units=1/GPa)
#
#
# Indices 1 2 3 4 5 6 
#
# 1 0.053164 0.007395 -0.016162 -0.002601 0.010463 0.005108
# 2 0.007395 0.010914 -0.004100 0.001895 0.001436 0.002425
# 3 -0.016162 -0.004100 0.012355 0.004932 0.000737 -0.002373
# 4 -0.002601 0.001895 0.004932 0.031800 0.005312 0.008607
# 5 0.010463 0.001436 0.000737 0.005312 0.026594 0.004845
# 6 0.005108 0.002425 -0.002373 0.008607 0.004845 0.038093
#
#
# Mechanical properties :
#
#
# Convention : Reuss Voigt Hill
#
# Bulk Modulus (GPa) = 19.72484 52.93753 36.33119
# Shear Modulus (GPa) = 23.19588 38.63367 30.91477
#
# Velocity S-wave (km/s) = 3.10242 4.00385 3.58161
# Velocity P-wave (km/s) = 4.58455 6.58336 5.67268
#
# Compressibility (1/GPa) = 0.05069749
#
# Stress axis : x y z
#
# Youngs Moduli (GPa) = 18.80976 91.62393 80.93939
#
# Poissons Ratio (x) = -0.67755 1.30818
# Poissons Ratio (y) = -0.13910 0.33186
# Poissons Ratio (z) = 0.30401 0.37567
#
# Static dielectric constant tensor:
#      x y z
#    x 2.055610 -0.072940 0.008040 
#    y -0.072940 1.989740 -0.016730 
#    z 0.008040 -0.016730 1.921270 
# 
# From -- ./inp_files/417251.got.cif
#   From: 2010.05.17/outbox.cif.g08.bks.cpg/sg2_209_cif.got.tgz:417251.got - 2010.06.03 11:33:40.
