data_PCOD9025628
_publ_section_title
;
Structure prediction by ZEFSAII (Michael W. Deem and Ramdas Pophale) SiO2 
 PCOD9025628
Probable space group: P -1
;
_chemical_formula_sum "Si O2"
_cell_formula_units_Z 15
_cell_length_a 15.621320
_cell_length_b 11.458049
_cell_length_c 7.980097
_cell_angle_alpha 78.807847
_cell_angle_beta 68.630383
_cell_angle_gamma 136.462762
_cell_volume 641.152026
_symmetry_space_group_name_H-M "P -1"
_symmetry_group_IT_number 2
_symmetry_cell_setting 'triclinic'
loop_
_space_group_symop_operation_xyz
x,y,z
-x,-y,-z
loop_
_atom_site_type_symbol
_atom_site_label
_atom_site_fract_x
_atom_site_fract_y
_atom_site_fract_z
Si Si1 0.874861 0.310401 0.286420
Si Si2 0.445790 0.098445 0.980121
Si Si3 0.788477 0.977393 0.338127
Si Si4 0.588133 0.331070 0.188377
Si Si5 0.190379 0.601151 0.398595
Si Si6 0.142330 0.931593 0.123344
Si Si7 0.056682 0.096466 0.245136
Si Si8 0.500000 0.000000 0.500000
O O1 0.886857 0.183734 0.333327
O O2 0.905941 0.413426 0.405675
O O3 0.668271 0.111081 0.427683
O O4 0.000000 0.500000 0.000000
O O5 0.519243 0.208886 0.085341
O O6 0.307107 0.826763 0.136122
O O7 0.332017 0.084349 0.009161
O O8 0.629320 0.269311 0.696212
O O9 0.873680 0.946116 0.328281
O O10 0.569875 0.759469 0.589777
O O11 0.852220 0.085426 0.075588
O O12 0.637271 0.268876 0.278413
O O13 0.774894 0.619420 0.955639
O O14 0.028085 0.320829 0.580223
O O15 0.126909 0.054457 0.122469
O O16 0.000000 0.000000 0.500000
#
# Coordination Sequence:
#
# PCOD9025628 Si02
#       8
#     2   2   2   2   2   2   2   1
#     4  11  21  39  69 100 137 175 223 288 346 408
#     4  11  25  44  65 106 142 181 232 284 353 406
#     4  11  25  45  69 103 132 178 239 284 345 403
#     4  11  25  46  73 101 141 184 232 286 343 415
#     4  11  24  41  68 104 141 180 226 288 346 414
#     4  12  27  45  70 101 141 184 229 290 344 412
#     4  12  28  48  72  99 140 191 233 280 344 418
#     4  10  22  40  70 104 130 174 232 282 340 390
#
# _framework density 23.395386999999999
#
# number of rings (size 3 to 8) (size 9 to 14) (size 15 to 20)
#    0.000    0.800    4.000    3.200    3.733    3.733 
#    7.200    0.000    0.000    0.000    0.000    0.000 
#    0.000    0.000    0.000    0.000    0.000    0.000 
#
# Total GULP energy -83525.872351 kJ/mol
# GULP energy per Si atom -5568.391490 kJ/mol
# Density = 2.334214 g / cm^3
# Si number density = 23.395387 Si / 1000 Ang^3
#
#
#
# Elastic Constant Matrix: (Units=GPa)
#
#
# Indices 1 2 3 4 5 6 
#
# 1 151.1555 37.4520 17.1665 3.2285 -12.6862 -21.3873
# 2 37.4520 66.5182 36.4134 2.2607 -0.5769 -18.4479
# 3 17.1665 36.4134 104.1492 -3.2384 -2.5167 -6.4207
# 4 3.2285 2.2607 -3.2384 33.3638 -1.7702 3.6581
# 5 -12.6862 -0.5769 -2.5167 -1.7702 36.3573 -1.5841
# 6 -21.3873 -18.4479 -6.4207 3.6581 -1.5841 36.9564
#
#
#
# Elastic Compliance Matrix: (Units=1/GPa)
#
#
# Indices 1 2 3 4 5 6 
#
# 1 0.008243 -0.003866 0.000232 -0.000695 0.002931 0.003075
# 2 -0.003866 0.023615 -0.007214 -0.002928 -0.001244 0.008534
# 3 0.000232 -0.007214 0.012070 0.001848 0.000826 -0.001518
# 4 -0.000695 -0.002928 0.001848 0.030978 0.001149 -0.004560
# 5 0.002931 -0.001244 0.000826 0.001149 0.028723 0.002336
# 6 0.003075 0.008534 -0.001518 -0.004560 0.002336 0.033386
#
#
# Mechanical properties :
#
#
# Convention : Reuss Voigt Hill
#
# Bulk Modulus (GPa) = 44.98305 55.98740 50.48523
# Shear Modulus (GPa) = 30.09826 36.72158 33.40992
#
# Velocity S-wave (km/s) = 3.59068 3.96613 3.78306
# Velocity P-wave (km/s) = 6.03819 6.70496 6.38029
#
# Compressibility (1/GPa) = 0.02223060
#
# Stress axis : x y z
#
# Youngs Moduli (GPa) = 121.31073 42.34614 82.85333
#
# Poissons Ratio (x) = 0.16372 -0.01921
# Poissons Ratio (y) = 0.46902 0.59772
# Poissons Ratio (z) = -0.02813 0.30549
#
# Static dielectric constant tensor:
#      x y z
#    x 1.843460 0.002520 0.050710 
#    y 0.002520 1.991990 -0.164340 
#    z 0.050710 -0.164340 3.519120 
# 
# From -- ./inp_files/306998.got.cif
#   From: 2010.05.17/outbox.cif.g08.bks.cpg/sg2_154_cif.got.tgz:306998.got - 2010.06.03 11:33:40.
