data_PCOD9025150
_publ_section_title
;
Structure prediction by ZEFSAII (Michael W. Deem and Ramdas Pophale) SiO2 
 PCOD9025150
Probable space group: P -1
;
_chemical_formula_sum "Si O2"
_cell_formula_units_Z 14
_cell_length_a 9.224435
_cell_length_b 22.046750
_cell_length_c 9.112871
_cell_angle_alpha 153.522049
_cell_angle_beta 132.804903
_cell_angle_gamma 48.644339
_cell_volume 598.364669
_symmetry_space_group_name_H-M "P -1"
_symmetry_group_IT_number 2
_symmetry_cell_setting 'triclinic'
loop_
_space_group_symop_operation_xyz
x,y,z
-x,-y,-z
loop_
_atom_site_type_symbol
_atom_site_label
_atom_site_fract_x
_atom_site_fract_y
_atom_site_fract_z
Si Si1 0.204897 0.676563 0.247192
Si Si2 0.094312 0.285921 0.625799
Si Si3 0.060170 0.382868 0.480048
Si Si4 0.189003 0.924284 0.560533
Si Si5 0.586319 0.945645 0.742900
Si Si6 0.604093 0.745992 0.773552
Si Si7 0.310605 0.455830 0.347188
O O1 0.135994 0.796401 0.341315
O O2 0.440860 0.671082 0.415721
O O3 0.102278 0.724574 0.437651
O O4 0.143412 0.529071 0.850550
O O5 0.075249 0.314078 0.501475
O O6 0.261548 0.150780 0.464589
O O7 0.177397 0.414510 0.033344
O O8 0.192592 0.284938 0.245895
O O9 0.822442 0.428248 0.394132
O O10 0.392014 0.876963 0.502892
O O11 0.000000 0.000000 0.500000
O O12 0.280227 0.021754 0.953716
O O13 0.489416 0.094510 0.938110
O O14 0.638400 0.677107 0.804941
O O15 0.500000 0.500000 0.500000
#
# Coordination Sequence:
#
# PCOD9025150 Si02
#       7
#     2   2   2   2   2   2   2
#     4  10  22  40  67  96 129 172 218 270 339 388
#     4  11  23  44  65  94 137 174 212 276 337 392
#     4  11  22  41  69  91 131 172 218 275 328 394
#     4  10  22  42  66  95 135 177 224 270 322 399
#     4  10  24  45  64  95 140 175 221 273 330 396
#     4  11  23  42  67  94 132 172 219 275 324 396
#     4  11  24  42  64 100 131 169 223 273 334 393
#
# _framework density 23.397103999999999
#
# number of rings (size 3 to 8) (size 9 to 14) (size 15 to 20)
#    0.000    1.429    0.000    6.857    4.000    4.000 
#   10.286    0.000    0.000    0.000    0.000    0.000 
#    0.000    0.000    0.000    0.000    0.000    0.000 
#
# Total GULP energy -78324.350998 kJ/mol
# GULP energy per Si atom -5594.596500 kJ/mol
# Density = 2.334385 g / cm^3
# Si number density = 23.397104 Si / 1000 Ang^3
#
#
#
# Elastic Constant Matrix: (Units=GPa)
#
#
# Indices 1 2 3 4 5 6 
#
# 1 142.3355 65.2913 37.6572 13.0369 7.9390 -7.2615
# 2 65.2913 145.3536 32.6178 13.4802 2.8529 13.7921
# 3 37.6572 32.6178 53.6541 14.0925 4.3183 -9.1450
# 4 13.0369 13.4802 14.0925 43.8552 -7.0373 2.7263
# 5 7.9390 2.8529 4.3183 -7.0373 34.5658 8.8610
# 6 -7.2615 13.7921 -9.1450 2.7263 8.8610 50.2738
#
#
#
# Elastic Compliance Matrix: (Units=1/GPa)
#
#
# Indices 1 2 3 4 5 6 
#
# 1 0.010131 -0.003718 -0.003998 -0.001094 -0.002313 0.002223
# 2 -0.003718 0.009886 -0.004264 -0.000027 0.001672 -0.004318
# 3 -0.003998 -0.004264 0.027717 -0.007739 -0.005572 0.007036
# 4 -0.001094 -0.000027 -0.007739 0.027162 0.007883 -0.004421
# 5 -0.002313 0.001672 -0.005572 0.007883 0.033721 -0.008177
# 6 0.002223 -0.004318 0.007036 -0.004421 -0.008177 0.024358
#
#
# Mechanical properties :
#
#
# Convention : Reuss Voigt Hill
#
# Bulk Modulus (GPa) = 42.06381 68.05288 55.05835
# Shear Modulus (GPa) = 30.32869 39.45742 34.89305
#
# Velocity S-wave (km/s) = 3.60426 4.11106 3.86598
# Velocity P-wave (km/s) = 5.94459 7.18913 6.59628
#
# Compressibility (1/GPa) = 0.02377340
#
# Stress axis : x y z
#
# Youngs Moduli (GPa) = 98.70213 101.15237 36.07929
#
# Poissons Ratio (x) = 0.37607 0.14426
# Poissons Ratio (y) = 0.36696 0.15385
# Poissons Ratio (z) = 0.39464 0.43134
#
# Static dielectric constant tensor:
#      x y z
#    x 1.897660 -0.003500 -0.027410 
#    y -0.003500 1.943290 -0.022830 
#    z -0.027410 -0.022830 1.918710 
# 
# From -- ./inp_files/224410.got.cif
#   From: 2010.05.17/outbox.cif.g08.bks.cpg/sg2_113_cif.got.tgz:224410.got - 2010.06.03 11:33:40.
