data_PCOD9025879
_publ_section_title
;
Structure prediction by ZEFSAII (Michael W. Deem and Ramdas Pophale) SiO2 
 PCOD9025879
Probable space group: P -1
;
_chemical_formula_sum "Si O2"
_cell_formula_units_Z 14
_cell_length_a 32.803954
_cell_length_b 16.444894
_cell_length_c 16.001988
_cell_angle_alpha 17.736674
_cell_angle_beta 16.435429
_cell_angle_gamma 16.181862
_cell_volume 624.641520
_symmetry_space_group_name_H-M "P -1"
_symmetry_group_IT_number 2
_symmetry_cell_setting 'triclinic'
loop_
_space_group_symop_operation_xyz
x,y,z
-x,-y,-z
loop_
_atom_site_type_symbol
_atom_site_label
_atom_site_fract_x
_atom_site_fract_y
_atom_site_fract_z
Si Si1 0.800742 0.159501 0.537211
Si Si2 0.322536 0.163523 0.572271
Si Si3 0.192609 0.765804 0.132116
Si Si4 0.626552 0.253176 0.369342
Si Si5 0.358625 0.942179 0.297341
Si Si6 0.632200 0.561086 0.630144
Si Si7 0.667914 0.788690 0.076882
O O1 0.759490 0.273456 0.602165
O O2 0.762215 0.453370 0.266558
O O3 0.996144 0.879037 0.414779
O O4 0.681949 0.037720 0.860581
O O5 0.305831 0.427442 0.284971
O O6 0.275898 0.337166 0.584181
O O7 0.512421 0.857264 0.514685
O O8 0.215956 0.021516 0.885717
O O9 0.253593 0.742411 0.940436
O O10 0.468998 0.600743 0.368779
O O11 0.724457 0.082959 0.429509
O O12 0.525526 0.112108 0.660917
O O13 0.500000 0.000000 0.000000
O O14 0.256857 0.199801 0.173299
O O15 0.500000 0.500000 0.000000
#
# Coordination Sequence:
#
# PCOD9025879 Si02
#       7
#     2   2   2   2   2   2   2
#     4  12  28  43  67 100 144 175 221 275 342 397
#     4  11  26  45  70  97 133 177 228 275 330 398
#     4  12  27  45  66 105 138 178 215 280 344 392
#     4  10  22  40  73  97 133 172 233 274 323 396
#     4   9  20  39  69 103 127 170 233 276 319 384
#     4  11  26  45  71 100 129 176 235 276 325 398
#     4  11  23  43  69  97 132 182 225 271 321 403
#
# _framework density 22.412855
#
# number of rings (size 3 to 8) (size 9 to 14) (size 15 to 20)
#    0.000    1.143    2.857    1.714   12.000    1.143 
#    0.000    1.429    0.000    0.000    0.000    0.000 
#    0.000    0.000    0.000    0.000    0.000    0.000 
#
# Total GULP energy -78277.231601 kJ/mol
# GULP energy per Si atom -5591.230829 kJ/mol
# Density = 2.236184 g / cm^3
# Si number density = 22.412855 Si / 1000 Ang^3
#
#
#
# Elastic Constant Matrix: (Units=GPa)
#
#
# Indices 1 2 3 4 5 6 
#
# 1 91.9052 48.2688 42.5454 5.4967 15.7674 11.3164
# 2 48.2688 69.0049 42.8299 3.8256 17.4978 12.9032
# 3 42.5454 42.8299 96.3979 -17.5182 13.1765 6.7807
# 4 5.4967 3.8256 -17.5182 37.6138 8.4036 2.8486
# 5 15.7674 17.4978 13.1765 8.4036 49.9242 -15.3850
# 6 11.3164 12.9032 6.7807 2.8486 -15.3850 19.4249
#
#
#
# Elastic Compliance Matrix: (Units=1/GPa)
#
#
# Indices 1 2 3 4 5 6 
#
# 1 0.018655 -0.008370 -0.004092 -0.002569 -0.003340 -0.006148
# 2 -0.008370 0.034194 -0.007333 0.000032 -0.016035 -0.027983
# 3 -0.004092 -0.007333 0.018277 0.011057 -0.004038 -0.003944
# 4 -0.002569 0.000032 0.011057 0.036704 -0.014141 -0.018967
# 5 -0.003340 -0.016035 -0.004038 -0.014141 0.046442 0.052864
# 6 -0.006148 -0.027983 -0.003944 -0.018967 0.052864 0.119678
#
#
# Mechanical properties :
#
#
# Convention : Reuss Voigt Hill
#
# Bulk Modulus (GPa) = 31.70989 58.28845 44.99917
# Shear Modulus (GPa) = 15.42964 29.63687 22.53326
#
# Velocity S-wave (km/s) = 2.62664 3.64031 3.17420
# Velocity P-wave (km/s) = 4.83506 6.61304 5.79267
#
# Compressibility (1/GPa) = 0.03153590
#
# Stress axis : x y z
#
# Youngs Moduli (GPa) = 53.60523 29.24454 54.71501
#
# Poissons Ratio (x) = 0.24477 0.22391
# Poissons Ratio (y) = 0.44867 0.40121
# Poissons Ratio (z) = 0.21937 0.21444
#
# Static dielectric constant tensor:
#      x y z
#    x 1.902900 0.031860 0.045300 
#    y 0.031860 1.813380 -0.043110 
#    z 0.045300 -0.043110 1.873970 
# 
# From -- ./inp_files/545033.got.cif
#   From: 2010.05.17/outbox.cif.g08.bks.cpg/sg2_273_cif.got.tgz:545033.got - 2010.06.03 11:33:40.
