data_PCOD9025450
_publ_section_title
;
Structure prediction by ZEFSAII (Michael W. Deem and Ramdas Pophale) SiO2 
 PCOD9025450
Probable space group: P -1
;
_chemical_formula_sum "Si O2"
_cell_formula_units_Z 16
_cell_length_a 11.383919
_cell_length_b 12.306485
_cell_length_c 11.215693
_cell_angle_alpha 132.995076
_cell_angle_beta 113.183982
_cell_angle_gamma 104.298447
_cell_volume 678.332260
_symmetry_space_group_name_H-M "P -1"
_symmetry_group_IT_number 2
_symmetry_cell_setting 'triclinic'
loop_
_space_group_symop_operation_xyz
x,y,z
-x,-y,-z
loop_
_atom_site_type_symbol
_atom_site_label
_atom_site_fract_x
_atom_site_fract_y
_atom_site_fract_z
Si Si1 0.131337 0.766694 0.262612
Si Si2 0.526415 0.652369 0.856596
Si Si3 0.293918 0.772972 0.115588
Si Si4 0.681065 0.545857 0.128939
Si Si5 0.139049 0.213820 0.302179
Si Si6 0.028870 0.051196 0.710412
Si Si7 0.631395 0.054451 0.270176
Si Si8 0.929941 0.514615 0.603772
O O1 0.298931 0.882768 0.315732
O O2 0.215729 0.860923 0.500296
O O3 0.025363 0.824496 0.228385
O O4 0.000000 0.500000 0.000000
O O5 0.372531 0.540597 0.820782
O O6 0.381465 0.422318 0.545856
O O7 0.589866 0.879893 0.033585
O O8 0.733528 0.759129 0.053250
O O9 0.450745 0.941809 0.198670
O O10 0.309154 0.611284 0.038955
O O11 0.087038 0.623292 0.853274
O O12 0.885139 0.818247 0.396826
O O13 0.500000 0.500000 0.000000
O O14 0.053326 0.082398 0.295765
O O15 0.096445 0.342574 0.341532
O O16 0.000000 0.000000 0.000000
O O17 0.727053 0.268060 0.390830
O O18 0.000000 0.500000 0.500000
#
# Coordination Sequence:
#
# PCOD9025450 Si02
#       8
#     2   2   2   2   2   2   2   2
#     4  12  26  45  69 106 150 186 234 298 366 427
#     4  10  23  43  70 100 132 185 243 289 354 428
#     4  11  24  45  68 106 146 190 238 296 361 428
#     4  10  22  40  69 101 141 185 231 284 351 427
#     4  11  26  47  67  99 142 183 243 301 362 420
#     4  11  24  45  70  99 141 189 240 293 358 433
#     4  11  24  44  73 108 144 189 241 290 364 433
#     4  12  24  44  74 104 146 189 244 303 352 429
#
# _framework density 23.587260000000001
#
# number of rings (size 3 to 8) (size 9 to 14) (size 15 to 20)
#    0.000    1.000    1.250    6.375    1.750    4.500 
#    4.500    0.000    0.000    0.000    0.000    0.000 
#    0.000    0.000    0.000    0.000    0.000    0.000 
#
# Total GULP energy -89327.731148 kJ/mol
# GULP energy per Si atom -5582.983197 kJ/mol
# Density = 2.353357 g / cm^3
# Si number density = 23.587260 Si / 1000 Ang^3
#
#
#
# Elastic Constant Matrix: (Units=GPa)
#
#
# Indices 1 2 3 4 5 6 
#
# 1 132.0530 60.0321 60.2275 18.3870 12.7072 -18.5821
# 2 60.0321 134.0213 48.2741 26.5061 -3.4648 -16.3547
# 3 60.2275 48.2741 165.3255 15.7244 15.2853 -13.3529
# 4 18.3870 26.5061 15.7244 45.6794 0.1321 1.2589
# 5 12.7072 -3.4648 15.2853 0.1321 32.3590 2.5781
# 6 -18.5821 -16.3547 -13.3529 1.2589 2.5781 37.1736
#
#
#
# Elastic Compliance Matrix: (Units=1/GPa)
#
#
# Indices 1 2 3 4 5 6 
#
# 1 0.011393 -0.003592 -0.002258 -0.001813 -0.004075 0.003648
# 2 -0.003592 0.010867 -0.001545 -0.004402 0.003133 0.002362
# 3 -0.002258 -0.001545 0.007790 -0.000901 -0.003053 0.001232
# 4 -0.001813 -0.004402 -0.000901 0.025597 0.000888 -0.004096
# 5 -0.004075 0.003133 -0.003053 0.000888 0.034611 -0.004186
# 6 0.003648 0.002362 0.001232 -0.004096 -0.004186 0.030635
#
#
# Mechanical properties :
#
#
# Convention : Reuss Voigt Hill
#
# Bulk Modulus (GPa) = 65.52589 85.38524 75.45557
# Shear Modulus (GPa) = 35.51933 40.56682 38.04307
#
# Velocity S-wave (km/s) = 3.88476 4.15162 4.02041
# Velocity P-wave (km/s) = 6.92549 7.69802 7.32195
#
# Compressibility (1/GPa) = 0.01526114
#
# Stress axis : x y z
#
# Youngs Moduli (GPa) = 87.77092 92.02459 128.37326
#
# Poissons Ratio (x) = 0.33052 0.28985
# Poissons Ratio (y) = 0.31524 0.19831
# Poissons Ratio (z) = 0.19818 0.14216
#
# Static dielectric constant tensor:
#      x y z
#    x 1.937480 0.068000 -0.040280 
#    y 0.068000 1.926070 -0.072130 
#    z -0.040280 -0.072130 2.105050 
# 
# From -- ./inp_files/428970.got.cif
#   From: 2010.05.17/outbox.cif.g08.bks.cpg/sg2_215_cif.got.tgz:428970.got - 2010.06.03 11:33:40.
