data_PCOD9025165
_publ_section_title
;
Structure prediction by ZEFSAII (Michael W. Deem and Ramdas Pophale) SiO2 
 PCOD9025165
Probable space group: P -1
;
_chemical_formula_sum "Si O2"
_cell_formula_units_Z 12
_cell_length_a 7.840202
_cell_length_b 14.396121
_cell_length_c 17.060805
_cell_angle_alpha 23.113896
_cell_angle_beta 138.284342
_cell_angle_gamma 131.156679
_cell_volume 500.033408
_symmetry_space_group_name_H-M "P -1"
_symmetry_group_IT_number 2
_symmetry_cell_setting 'triclinic'
loop_
_space_group_symop_operation_xyz
x,y,z
-x,-y,-z
loop_
_atom_site_type_symbol
_atom_site_label
_atom_site_fract_x
_atom_site_fract_y
_atom_site_fract_z
Si Si1 0.972902 0.118781 0.069193
Si Si2 0.313231 0.883147 0.860615
Si Si3 0.868909 0.343858 0.179749
Si Si4 0.742423 0.672914 0.268608
Si Si5 0.703710 0.590336 0.613677
Si Si6 0.460437 0.151634 0.291181
O O1 0.850463 0.119660 0.113763
O O2 0.276638 0.051810 0.239331
O O3 0.823809 0.929587 0.120261
O O4 0.912595 0.385942 0.807033
O O5 0.168281 0.765787 0.832131
O O6 0.346450 0.158115 0.640931
O O7 0.584730 0.724795 0.093683
O O8 0.731483 0.189110 0.316444
O O9 0.159632 0.357610 0.296902
O O10 0.698640 0.598231 0.932348
O O11 0.543516 0.550259 0.350941
O O12 0.000000 0.500000 0.500000
O O13 0.500000 0.000000 0.500000
#
# Coordination Sequence:
#
# PCOD9025165 Si02
#       6
#     2   2   2   2   2   2
#     4  10  24  43  64  95 131 170 221 262 322 386
#     4  11  23  42  70  96 129 175 213 269 322 385
#     4  10  23  40  65 106 125 165 224 258 327 383
#     4  11  27  44  62  98 132 171 222 267 322 386
#     4  10  22  43  67  92 131 168 215 268 316 392
#     4  10  22  40  67  96 138 167 203 275 323 381
#
# _framework density 23.998394999999999
#
# number of rings (size 3 to 8) (size 9 to 14) (size 15 to 20)
#    0.000    1.667    0.000    3.500    4.667   10.667 
#    0.000    0.000    0.000    0.000    0.000    0.000 
#    0.000    0.000    0.000    0.000    0.000    0.000 
#
# Total GULP energy -67149.826328 kJ/mol
# GULP energy per Si atom -5595.818861 kJ/mol
# Density = 2.394377 g / cm^3
# Si number density = 23.998395 Si / 1000 Ang^3
#
#
#
# Elastic Constant Matrix: (Units=GPa)
#
#
# Indices 1 2 3 4 5 6 
#
# 1 21.5200 13.2630 11.6863 8.4063 4.7421 3.8767
# 2 13.2630 117.9183 24.5038 -7.1417 8.3630 18.5179
# 3 11.6863 24.5038 128.5489 11.9212 -2.5897 8.8631
# 4 8.4063 -7.1417 11.9212 35.7687 8.5720 3.7983
# 5 4.7421 8.3630 -2.5897 8.5720 26.8852 2.1664
# 6 3.8767 18.5179 8.8631 3.7983 2.1664 32.6114
#
#
#
# Elastic Compliance Matrix: (Units=1/GPa)
#
#
# Indices 1 2 3 4 5 6 
#
# 1 0.058017 -0.006253 -0.002936 -0.012759 -0.004441 -0.000767
# 2 -0.006253 0.011036 -0.001774 0.005779 -0.003904 -0.005455
# 3 -0.002936 -0.001774 0.008804 -0.003230 0.003017 -0.000861
# 4 -0.012759 0.005779 -0.003230 0.036307 -0.011081 -0.004379
# 5 -0.004441 -0.003904 0.003017 -0.011081 0.042988 0.000360
# 6 -0.000767 -0.005455 -0.000861 -0.004379 0.000360 0.034573
#
#
# Mechanical properties :
#
#
# Convention : Reuss Voigt Hill
#
# Bulk Modulus (GPa) = 17.87872 40.76594 29.32233
# Shear Modulus (GPa) = 21.52454 33.62200 27.57327
#
# Velocity S-wave (km/s) = 2.99810 3.74707 3.39331
# Velocity P-wave (km/s) = 4.41033 5.97867 5.25336
#
# Compressibility (1/GPa) = 0.05593241
#
# Stress axis : x y z
#
# Youngs Moduli (GPa) = 17.23627 90.61404 113.58766
#
# Poissons Ratio (x) = 0.56659 0.33346
# Poissons Ratio (y) = 0.10778 0.20147
# Poissons Ratio (z) = 0.05060 0.16072
#
# Static dielectric constant tensor:
#      x y z
#    x 1.930870 0.026810 0.036160 
#    y 0.026810 1.956940 -0.011580 
#    z 0.036160 -0.011580 1.962150 
# 
# From -- ./inp_files/170098.got.cif
#   From: 2010.05.17/outbox.cif.g08.bks.cpg/sg2_86_cif.got.tgz:170098.got - 2010.06.03 11:33:40.
