data_PCOD9025016
_publ_section_title
;
Structure prediction by ZEFSAII (Michael W. Deem and Ramdas Pophale) SiO2 
 PCOD9025016
Probable space group: P -1
;
_chemical_formula_sum "Si O2"
_cell_formula_units_Z 14
_cell_length_a 11.881607
_cell_length_b 13.374669
_cell_length_c 8.972118
_cell_angle_alpha 42.849093
_cell_angle_beta 78.248532
_cell_angle_gamma 48.001049
_cell_volume 593.233863
_symmetry_space_group_name_H-M "P -1"
_symmetry_group_IT_number 2
_symmetry_cell_setting 'triclinic'
loop_
_space_group_symop_operation_xyz
x,y,z
-x,-y,-z
loop_
_atom_site_type_symbol
_atom_site_label
_atom_site_fract_x
_atom_site_fract_y
_atom_site_fract_z
Si Si1 0.341858 0.549607 0.430692
Si Si2 0.778869 0.069792 0.135450
Si Si3 0.896835 0.635612 0.132577
Si Si4 0.540784 0.125731 0.616738
Si Si5 0.237662 0.230135 0.648823
Si Si6 0.562590 0.593254 0.946765
Si Si7 0.879872 0.339293 0.342281
O O1 0.500000 0.500000 0.500000
O O2 0.443859 0.327343 0.544371
O O3 0.229634 0.599681 0.545336
O O4 0.212601 0.783515 0.109439
O O5 0.572249 0.251124 0.048017
O O6 0.816064 0.887463 0.225920
O O7 0.916430 0.925313 0.395758
O O8 0.809049 0.680031 0.268445
O O9 0.890132 0.505820 0.163537
O O10 0.107656 0.449205 0.328661
O O11 0.760273 0.897267 0.825401
O O12 0.447086 0.060662 0.741203
O O13 0.516582 0.758904 0.654309
O O14 0.500000 0.500000 0.000000
O O15 0.768706 0.395070 0.169034
#
# Coordination Sequence:
#
# PCOD9025016 Si02
#       7
#     2   2   2   2   2   2   2
#     4  12  22  42  68  99 127 170 221 268 319 379
#     4  11  24  43  68  96 132 170 217 268 319 383
#     4  10  22  40  67 101 129 164 212 271 325 377
#     4  12  24  41  68  92 132 173 211 265 326 380
#     4  10  22  41  67 100 130 162 217 268 320 383
#     4  12  26  46  60  96 135 174 215 262 326 388
#     4  11  24  43  69  95 130 171 219 267 322 379
#
# _framework density 23.599460000000001
#
# number of rings (size 3 to 8) (size 9 to 14) (size 15 to 20)
#    0.000    0.857    4.286    2.571    0.000    4.000 
#    5.143    2.857    0.000    0.000    0.000    0.000 
#    0.000    0.000    0.000    0.000    0.000    0.000 
#
# Total GULP energy -78325.837603 kJ/mol
# GULP energy per Si atom -5594.702686 kJ/mol
# Density = 2.354575 g / cm^3
# Si number density = 23.599460 Si / 1000 Ang^3
#
#
#
# Elastic Constant Matrix: (Units=GPa)
#
#
# Indices 1 2 3 4 5 6 
#
# 1 45.1123 6.0702 18.6560 7.2406 9.6342 14.3151
# 2 6.0702 33.5836 16.1902 4.4855 -8.0150 21.3628
# 3 18.6560 16.1902 144.0347 5.6188 16.7655 23.2319
# 4 7.2406 4.4855 5.6188 32.4853 3.5887 3.8080
# 5 9.6342 -8.0150 16.7655 3.5887 37.2759 7.2863
# 6 14.3151 21.3628 23.2319 3.8080 7.2863 38.8267
#
#
#
# Elastic Compliance Matrix: (Units=1/GPa)
#
#
# Indices 1 2 3 4 5 6 
#
# 1 0.026897 0.000727 -0.001605 -0.004413 -0.004053 -0.008163
# 2 0.000727 0.058757 -0.003462 -0.006044 0.021214 -0.033913
# 3 -0.001605 -0.003462 0.008252 0.000022 -0.003701 -0.001748
# 4 -0.004413 -0.006044 0.000022 0.032731 -0.003798 0.002442
# 5 -0.004053 0.021214 -0.003701 -0.003798 0.037319 -0.014594
# 6 -0.008163 -0.033913 -0.001748 0.002442 -0.014594 0.050970
#
#
# Mechanical properties :
#
#
# Convention : Reuss Voigt Hill
#
# Bulk Modulus (GPa) = 11.73368 33.84038 22.78703
# Shear Modulus (GPa) = 19.84010 33.83853 26.83931
#
# Velocity S-wave (km/s) = 2.90263 3.79075 3.37602
# Velocity P-wave (km/s) = 4.02697 5.79054 4.98733
#
# Compressibility (1/GPa) = 0.08522478
#
# Stress axis : x y z
#
# Youngs Moduli (GPa) = 37.17889 17.01923 121.18591
#
# Poissons Ratio (x) = -0.01237 0.19450
# Poissons Ratio (y) = -0.02702 0.41957
# Poissons Ratio (z) = 0.05967 0.05892
#
# Static dielectric constant tensor:
#      x y z
#    x 1.881090 0.014980 -0.023740 
#    y 0.014980 1.906770 -0.019610 
#    z -0.023740 -0.019610 1.939680 
# 
# From -- ./inp_files/252075.got.cif
#   From: 2010.05.17/outbox.cif.g08.bks.cpg/sg2_127_cif.got.tgz:252075.got - 2010.06.03 11:33:40.
