data_PCOD9025669
_publ_section_title
;
Structure prediction by ZEFSAII (Michael W. Deem and Ramdas Pophale) SiO2 
 PCOD9025669
Probable space group: P -1
;
_chemical_formula_sum "Si O2"
_cell_formula_units_Z 14
_cell_length_a 7.943534
_cell_length_b 8.289514
_cell_length_c 14.383211
_cell_angle_alpha 104.753490
_cell_angle_beta 48.316965
_cell_angle_gamma 80.451814
_cell_volume 605.860966
_symmetry_space_group_name_H-M "P -1"
_symmetry_group_IT_number 2
_symmetry_cell_setting 'triclinic'
loop_
_space_group_symop_operation_xyz
x,y,z
-x,-y,-z
loop_
_atom_site_type_symbol
_atom_site_label
_atom_site_fract_x
_atom_site_fract_y
_atom_site_fract_z
Si Si1 0.339506 0.092358 0.477354
Si Si2 0.945016 0.513078 0.913690
Si Si3 0.384102 0.721398 0.016727
Si Si4 0.745252 0.351103 0.758069
Si Si5 0.472568 0.712171 0.349903
Si Si6 0.101041 0.087926 0.060078
Si Si7 0.660151 0.279681 0.399698
O O1 0.464624 0.217357 0.416530
O O2 0.042710 0.219163 0.619123
O O3 0.500000 0.000000 0.500000
O O4 0.411365 0.914317 0.359712
O O5 0.230686 0.400707 0.747427
O O6 0.800597 0.380224 0.943174
O O7 0.845547 0.737616 0.962748
O O8 0.000000 0.500000 0.000000
O O9 0.355385 0.746116 0.142163
O O10 0.311283 0.902577 0.007912
O O11 0.662144 0.559192 0.860714
O O12 0.605331 0.387492 0.715974
O O13 0.291266 0.770216 0.515711
O O14 0.897043 0.186163 0.232162
O O15 0.000000 0.000000 0.000000
O O16 0.500000 0.500000 0.500000
#
# Coordination Sequence:
#
# PCOD9025669 Si02
#       7
#     2   2   2   2   2   2   2
#     4  10  22  40  70  95 128 179 235 280 356 418
#     4  12  22  42  75 103 139 188 238 288 348 420
#     4  11  24  43  69 102 144 191 229 290 356 414
#     4  11  23  42  69 100 147 183 230 297 354 419
#     4  11  21  42  69 103 137 184 235 285 357 414
#     4  12  24  42  73 106 138 178 243 288 346 425
#     4  11  23  41  69 102 138 177 236 297 337 414
#
# _framework density 23.107613000000001
#
# number of rings (size 3 to 8) (size 9 to 14) (size 15 to 20)
#    0.000    0.857    4.286    4.714    0.000    0.000 
#    0.000    3.571    9.429    0.000    0.000    0.000 
#    0.000    0.000    0.000    0.000    0.000    0.000 
#
# Total GULP energy -77990.746130 kJ/mol
# GULP energy per Si atom -5570.767581 kJ/mol
# Density = 2.305502 g / cm^3
# Si number density = 23.107613 Si / 1000 Ang^3
#
#
#
# Elastic Constant Matrix: (Units=GPa)
#
#
# Indices 1 2 3 4 5 6 
#
# 1 47.6431 15.9672 7.7425 -3.3556 -1.7867 5.7400
# 2 15.9672 145.3580 23.1690 26.3833 -10.0246 -4.6265
# 3 7.7425 23.1690 71.0908 12.5876 -3.0543 -5.2455
# 4 -3.3556 26.3833 12.5876 39.1331 -13.0808 -4.3799
# 5 -1.7867 -10.0246 -3.0543 -13.0808 51.6782 7.5386
# 6 5.7400 -4.6265 -5.2455 -4.3799 7.5386 33.5929
#
#
#
# Elastic Compliance Matrix: (Units=1/GPa)
#
#
# Indices 1 2 3 4 5 6 
#
# 1 0.023459 -0.003082 -0.002713 0.005119 0.002026 -0.004644
# 2 -0.003082 0.008450 -0.001400 -0.005438 -0.000039 0.000772
# 3 -0.002713 -0.001400 0.015730 -0.004382 -0.000888 0.002355
# 4 0.005119 -0.005438 -0.004382 0.033554 0.007294 0.000430
# 5 0.002026 -0.000039 -0.000888 0.007294 0.021855 -0.004444
# 6 -0.004644 0.000772 0.002355 0.000430 -0.004444 0.032089
#
#
# Mechanical properties :
#
#
# Convention : Reuss Voigt Hill
#
# Bulk Modulus (GPa) = 30.07559 39.76104 34.91831
# Shear Modulus (GPa) = 31.13138 39.36171 35.24655
#
# Velocity S-wave (km/s) = 3.67445 4.13172 3.90977
# Velocity P-wave (km/s) = 5.57188 6.32500 5.96035
#
# Compressibility (1/GPa) = 0.03324956
#
# Stress axis : x y z
#
# Youngs Moduli (GPa) = 42.62741 118.34183 63.57397
#
# Poissons Ratio (x) = 0.36471 0.17245
# Poissons Ratio (y) = 0.13137 0.08902
# Poissons Ratio (z) = 0.11563 0.16571
#
# Static dielectric constant tensor:
#      x y z
#    x 2.354360 0.227670 0.263500 
#    y 0.227670 2.253150 0.161800 
#    z 0.263500 0.161800 2.169330 
# 
# From -- ./inp_files/495386.got.cif
#   From: 2010.05.17/outbox.cif.g08.bks.cpg/sg2_248_cif.got.tgz:495386.got - 2010.06.03 11:33:40.
