data_PCOD9025456
_publ_section_title
;
Structure prediction by ZEFSAII (Michael W. Deem and Ramdas Pophale) SiO2 
 PCOD9025456
Probable space group: P -1
;
_chemical_formula_sum "Si O2"
_cell_formula_units_Z 16
_cell_length_a 8.760027
_cell_length_b 20.918847
_cell_length_c 13.513974
_cell_angle_alpha 21.803631
_cell_angle_beta 120.553094
_cell_angle_gamma 110.901303
_cell_volume 738.934941
_symmetry_space_group_name_H-M "P -1"
_symmetry_group_IT_number 2
_symmetry_cell_setting 'triclinic'
loop_
_space_group_symop_operation_xyz
x,y,z
-x,-y,-z
loop_
_atom_site_type_symbol
_atom_site_label
_atom_site_fract_x
_atom_site_fract_y
_atom_site_fract_z
Si Si1 0.781400 0.920132 0.421354
Si Si2 0.953205 0.922058 0.196281
Si Si3 0.346299 0.673773 0.753098
Si Si4 0.719701 0.229913 0.811153
Si Si5 0.460430 0.385462 0.745276
Si Si6 0.203442 0.649591 0.952401
Si Si7 0.495888 0.998926 0.378702
Si Si8 0.684404 0.753324 0.430796
O O1 0.698874 0.823194 0.446620
O O2 0.006246 0.816244 0.642277
O O3 0.699941 0.916577 0.508465
O O4 0.723811 0.128689 0.062849
O O5 0.766478 0.868339 0.218534
O O6 0.135510 0.743737 0.538168
O O7 0.901659 0.088569 0.019089
O O8 0.000000 0.000000 0.000000
O O9 0.322020 0.619567 0.934248
O O10 0.398036 0.857293 0.513870
O O11 0.500000 0.500000 0.000000
O O12 0.702627 0.440143 0.507435
O O13 0.524794 0.235060 0.685568
O O14 0.500000 0.500000 0.500000
O O15 0.657564 0.327065 0.953366
O O16 0.407390 0.202544 0.005413
O O17 0.175785 0.456724 0.234464
O O18 0.500000 0.000000 0.500000
#
# Coordination Sequence:
#
# PCOD9025456 Si02
#       8
#     2   2   2   2   2   2   2   2
#     4  11  21  41  71  96 137 180 235 286 338 416
#     4  11  25  39  64 103 143 175 229 284 353 411
#     4  12  27  44  70 104 143 181 226 297 355 403
#     4  10  22  43  70  97 136 183 232 281 341 420
#     4  11  24  47  70  95 134 188 235 282 348 418
#     4  11  23  43  70  99 133 180 245 282 342 419
#     4  12  27  45  70 102 142 181 233 290 359 402
#     4  10  22  40  69 102 133 179 231 283 347 416
#
# _framework density 21.652785999999999
#
# number of rings (size 3 to 8) (size 9 to 14) (size 15 to 20)
#    0.000    1.000    5.000    2.625    8.750    0.500 
#    2.250    0.625    0.000    0.000    0.000    0.000 
#    0.000    0.000    0.000    0.000    0.000    0.000 
#
# Total GULP energy -89243.054449 kJ/mol
# GULP energy per Si atom -5577.690903 kJ/mol
# Density = 2.160350 g / cm^3
# Si number density = 21.652786 Si / 1000 Ang^3
#
#
#
# Elastic Constant Matrix: (Units=GPa)
#
#
# Indices 1 2 3 4 5 6 
#
# 1 98.8458 30.2131 24.1940 -1.4247 -5.6570 -27.3797
# 2 30.2131 44.3768 21.9741 2.1202 -2.8314 -14.1129
# 3 24.1940 21.9741 111.1663 -10.7600 7.0623 12.5466
# 4 -1.4247 2.1202 -10.7600 48.1550 3.3252 -15.5814
# 5 -5.6570 -2.8314 7.0623 3.3252 47.4994 1.2691
# 6 -27.3797 -14.1129 12.5466 -15.5814 1.2691 27.3877
#
#
#
# Elastic Compliance Matrix: (Units=1/GPa)
#
#
# Indices 1 2 3 4 5 6 
#
# 1 0.019491 -0.002629 -0.005948 0.007298 0.001872 0.024921
# 2 -0.002629 0.035363 -0.008657 0.003146 0.002294 0.021244
# 3 -0.005948 -0.008657 0.013978 -0.002313 -0.002660 -0.018003
# 4 0.007298 0.003146 -0.002313 0.029007 -0.001339 0.026541
# 5 0.001872 0.002294 -0.002660 -0.001339 0.021835 0.002499
# 6 0.024921 0.021244 -0.018003 0.026541 0.002499 0.095605
#
#
# Mechanical properties :
#
#
# Convention : Reuss Voigt Hill
#
# Bulk Modulus (GPa) = 29.09897 45.23903 37.16900
# Shear Modulus (GPa) = 19.14231 36.47559 27.80895
#
# Velocity S-wave (km/s) = 2.97654 4.10880 3.58762
# Velocity P-wave (km/s) = 5.02803 6.59151 5.86213
#
# Compressibility (1/GPa) = 0.03436547
#
# Stress axis : x y z
#
# Youngs Moduli (GPa) = 51.30488 28.27816 71.54066
#
# Poissons Ratio (x) = 0.07435 0.42549
# Poissons Ratio (y) = 0.13489 0.61931
# Poissons Ratio (z) = 0.30514 0.24480
#
# Static dielectric constant tensor:
#      x y z
#    x 1.809170 -0.021350 -0.032260 
#    y -0.021350 1.876570 -0.056680 
#    z -0.032260 -0.056680 1.839810 
# 
# From -- ./inp_files/508569.got.cif
#   From: 2010.05.17/outbox.cif.g08.bks.cpg/sg2_255_cif.got.tgz:508569.got - 2010.06.03 11:33:40.
