data_PCOD9025700
_publ_section_title
;
Structure prediction by ZEFSAII (Michael W. Deem and Ramdas Pophale) SiO2 
 PCOD9025700
Probable space group: P -1
;
_chemical_formula_sum "Si O2"
_cell_formula_units_Z 16
_cell_length_a 7.353693
_cell_length_b 8.403107
_cell_length_c 16.678209
_cell_angle_alpha 107.543561
_cell_angle_beta 110.615795
_cell_angle_gamma 124.307090
_cell_volume 607.840879
_symmetry_space_group_name_H-M "P -1"
_symmetry_group_IT_number 2
_symmetry_cell_setting 'triclinic'
loop_
_space_group_symop_operation_xyz
x,y,z
-x,-y,-z
loop_
_atom_site_type_symbol
_atom_site_label
_atom_site_fract_x
_atom_site_fract_y
_atom_site_fract_z
Si Si1 0.180975 0.916817 0.185306
Si Si2 0.571849 0.385022 0.823575
Si Si3 0.251474 0.056258 0.501893
Si Si4 0.288064 0.088663 0.885683
Si Si5 0.086037 0.340121 0.739276
Si Si6 0.281902 0.866104 0.622772
Si Si7 0.915945 0.565095 0.660161
Si Si8 0.157321 0.921515 0.001900
O O1 0.006315 0.690147 0.187911
O O2 0.496034 0.130433 0.309592
O O3 0.964486 0.933542 0.151031
O O4 0.246908 0.916051 0.102849
O O5 0.902617 0.633331 0.888836
O O6 0.392907 0.441835 0.793024
O O7 0.541666 0.324630 0.904295
O O8 0.419808 0.131929 0.717106
O O9 0.570126 0.346704 0.593112
O O10 0.137422 0.937997 0.378122
O O11 0.274760 0.898995 0.532854
O O12 0.000000 0.000000 0.500000
O O13 0.113063 0.831659 0.773925
O O14 0.380091 0.094405 0.989885
O O15 0.048030 0.480174 0.703417
O O16 0.978590 0.634845 0.585945
O O17 0.000000 0.000000 0.000000
#
# Coordination Sequence:
#
# PCOD9025700 Si02
#       8
#     2   2   2   2   2   2   2   2
#     4  10  23  43  67  95 138 170 222 272 328 387
#     4  10  22  44  65  95 140 170 220 278 324 384
#     4  12  25  46  70  97 132 174 220 276 335 390
#     4   9  22  43  64  97 132 177 218 271 323 390
#     4  11  24  43  68  97 134 177 215 279 329 389
#     4  11  24  45  66 102 132 176 218 272 336 389
#     4  11  25  43  68 100 134 171 224 269 328 401
#     4  10  22  40  70  98 128 179 227 262 332 388
#
# _framework density 26.322676000000001
#
# number of rings (size 3 to 8) (size 9 to 14) (size 15 to 20)
#    0.000    1.500    2.500    1.125    3.500    6.000 
#    0.000    1.250    0.000    0.000    0.000    0.000 
#    0.000    0.000    0.000    0.000    0.000    0.000 
#
# Total GULP energy -89592.989895 kJ/mol
# GULP energy per Si atom -5599.561868 kJ/mol
# Density = 2.626276 g / cm^3
# Si number density = 26.322676 Si / 1000 Ang^3
#
#
#
# Elastic Constant Matrix: (Units=GPa)
#
#
# Indices 1 2 3 4 5 6 
#
# 1 69.2575 25.7748 7.3920 -1.1917 23.6967 -4.1809
# 2 25.7748 114.7832 47.4593 5.4649 4.5748 25.4190
# 3 7.3920 47.4593 93.1803 -22.3083 -1.3502 10.1145
# 4 -1.1917 5.4649 -22.3083 42.5356 4.2000 -6.6569
# 5 23.6967 4.5748 -1.3502 4.2000 33.6011 -1.3954
# 6 -4.1809 25.4190 10.1145 -6.6569 -1.3954 46.3689
#
#
#
# Elastic Compliance Matrix: (Units=1/GPa)
#
#
# Indices 1 2 3 4 5 6 
#
# 1 0.022296 -0.006667 0.001979 0.004869 -0.015118 0.005478
# 2 -0.006667 0.015970 -0.008642 -0.008399 0.002873 -0.008590
# 3 0.001979 -0.008642 0.017237 0.010698 -0.000753 0.002669
# 4 0.004869 -0.008399 0.010698 0.032002 -0.005564 0.007137
# 5 -0.015118 0.002873 -0.000753 -0.005564 0.040599 -0.002351
# 6 0.005478 -0.008590 0.002669 0.007137 -0.002351 0.027141
#
#
# Mechanical properties :
#
#
# Convention : Reuss Voigt Hill
#
# Bulk Modulus (GPa) = 34.67027 48.71924 41.69476
# Shear Modulus (GPa) = 26.10715 37.60745 31.85730
#
# Velocity S-wave (km/s) = 3.15272 3.78393 3.48265
# Velocity P-wave (km/s) = 5.14322 6.13510 5.66093
#
# Compressibility (1/GPa) = 0.02884316
#
# Stress axis : x y z
#
# Youngs Moduli (GPa) = 44.85120 62.61769 58.01507
#
# Poissons Ratio (x) = 0.41749 -0.11482
# Poissons Ratio (y) = 0.29903 0.50135
# Poissons Ratio (z) = -0.08877 0.54113
#
# Static dielectric constant tensor:
#      x y z
#    x 2.096690 0.003900 -0.025660 
#    y 0.003900 2.032090 -0.043670 
#    z -0.025660 -0.043670 2.082670 
# 
# From -- ./inp_files/557272.got.cif
#   From: 2010.05.17/outbox.cif.g08.bks.cpg/sg2_279_cif.got.tgz:557272.got - 2010.06.03 11:33:40.
