data_PCOD9025289
_publ_section_title
;
Structure prediction by ZEFSAII (Michael W. Deem and Ramdas Pophale) SiO2 
 PCOD9025289
Probable space group: P -1
;
_chemical_formula_sum "Si O2"
_cell_formula_units_Z 15
_cell_length_a 18.534493
_cell_length_b 9.523415
_cell_length_c 6.571445
_cell_angle_alpha 89.589968
_cell_angle_beta 133.738381
_cell_angle_gamma 117.367110
_cell_volume 651.214236
_symmetry_space_group_name_H-M "P -1"
_symmetry_group_IT_number 2
_symmetry_cell_setting 'triclinic'
loop_
_space_group_symop_operation_xyz
x,y,z
-x,-y,-z
loop_
_atom_site_type_symbol
_atom_site_label
_atom_site_fract_x
_atom_site_fract_y
_atom_site_fract_z
Si Si1 0.796445 0.345592 0.149104
Si Si2 0.436065 0.163052 0.722185
Si Si3 0.359341 0.045055 0.019546
Si Si4 0.500000 0.000000 0.500000
Si Si5 0.300074 0.465856 0.823708
Si Si6 0.279571 0.217297 0.114657
Si Si7 0.027361 0.433676 0.856504
Si Si8 0.894237 0.807903 0.893549
O O1 0.780113 0.479633 0.225617
O O2 0.844042 0.405077 0.012757
O O3 0.907015 0.355313 0.476071
O O4 0.668176 0.138053 0.936499
O O5 0.361637 0.062972 0.786011
O O6 0.447862 0.032315 0.616813
O O7 0.365697 0.223739 0.458197
O O8 0.576676 0.350713 0.035074
O O9 0.501368 0.168225 0.390223
O O10 0.263783 0.069482 0.935918
O O11 0.217815 0.317993 0.489598
O O12 0.333924 0.384820 0.068643
O O13 0.159786 0.174676 0.002774
O O14 0.043150 0.286557 0.940049
O O15 0.000000 0.500000 0.000000
O O16 0.000000 0.000000 0.000000
#
# Coordination Sequence:
#
# PCOD9025289 Si02
#       8
#     2   2   2   1   2   2   2   2
#     4  11  25  44  71 105 139 184 237 296 360 419
#     4  11  25  46  73 110 146 193 240 289 368 426
#     4  11  25  44  72 106 146 191 236 294 358 433
#     4  10  22  40  68 108 140 180 236 298 340 432
#     4  12  25  48  72 105 146 190 236 301 360 433
#     4  11  27  47  69 107 145 195 235 298 358 441
#     4  11  25  46  70 104 136 184 243 300 353 422
#     4  12  29  47  74 106 142 191 245 299 365 428
#
# _framework density 23.033892999999999
#
# number of rings (size 3 to 8) (size 9 to 14) (size 15 to 20)
#    0.000    0.800    4.000    1.600    5.600    6.933 
#    0.000    0.000    0.000    0.000    0.000    0.000 
#    0.000    0.000    0.000    0.000    0.000    0.000 
#
# Total GULP energy -83737.517300 kJ/mol
# GULP energy per Si atom -5582.501153 kJ/mol
# Density = 2.298147 g / cm^3
# Si number density = 23.033893 Si / 1000 Ang^3
#
#
#
# Elastic Constant Matrix: (Units=GPa)
#
#
# Indices 1 2 3 4 5 6 
#
# 1 186.2718 75.8320 32.0794 -8.9388 -25.0671 -18.7096
# 2 75.8320 136.8048 46.1206 -18.5674 -9.2435 -2.6639
# 3 32.0794 46.1206 74.9176 -10.6560 -10.7533 0.7543
# 4 -8.9388 -18.5674 -10.6560 42.4925 -2.7876 8.2494
# 5 -25.0671 -9.2435 -10.7533 -2.7876 40.7934 -11.3793
# 6 -18.7096 -2.6639 0.7543 8.2494 -11.3793 40.3932
#
#
#
# Elastic Compliance Matrix: (Units=1/GPa)
#
#
# Indices 1 2 3 4 5 6 
#
# 1 0.008360 -0.004128 -0.000416 -0.000822 0.005523 0.005332
# 2 -0.004128 0.011615 -0.005137 0.003233 -0.001645 -0.002174
# 3 -0.000416 -0.005137 0.017491 0.002349 0.003232 -0.000427
# 4 -0.000822 0.003233 0.002349 0.026465 0.001181 -0.005284
# 5 0.005523 -0.001645 0.003232 0.001181 0.031546 0.011035
# 6 0.005332 -0.002174 -0.000427 -0.005284 0.011035 0.031279
#
#
# Mechanical properties :
#
#
# Convention : Reuss Voigt Hill
#
# Bulk Modulus (GPa) = 55.23915 78.45090 66.84502
# Shear Modulus (GPa) = 32.86129 40.99996 36.93063
#
# Velocity S-wave (km/s) = 3.78120 4.22356 4.00849
# Velocity P-wave (km/s) = 6.56483 7.61035 7.10685
#
# Compressibility (1/GPa) = 0.01810310
#
# Stress axis : x y z
#
# Youngs Moduli (GPa) = 119.61417 86.09328 57.17196
#
# Poissons Ratio (x) = 0.35543 0.02379
# Poissons Ratio (y) = 0.49382 0.29370
# Poissons Ratio (z) = 0.04978 0.44228
#
# Static dielectric constant tensor:
#      x y z
#    x 1.870230 0.018060 0.061280 
#    y 0.018060 1.880720 0.034360 
#    z 0.061280 0.034360 1.990370 
# 
# From -- ./inp_files/54802.got.cif
#   From: 2010.05.17/outbox.cif.g08.bks.cpg/sg2_28_cif.got.tgz:54802.got - 2010.06.03 11:33:40.
