data_PCOD9025198
_publ_section_title
;
Structure prediction by ZEFSAII (Michael W. Deem and Ramdas Pophale) SiO2 
 PCOD9025198
Probable space group: P -1
;
_chemical_formula_sum "Si O2"
_cell_formula_units_Z 13
_cell_length_a 18.289790
_cell_length_b 13.433493
_cell_length_c 7.773653
_cell_angle_alpha 54.042952
_cell_angle_beta 40.466717
_cell_angle_gamma 27.605983
_cell_volume 549.847611
_symmetry_space_group_name_H-M "P -1"
_symmetry_group_IT_number 2
_symmetry_cell_setting 'triclinic'
loop_
_space_group_symop_operation_xyz
x,y,z
-x,-y,-z
loop_
_atom_site_type_symbol
_atom_site_label
_atom_site_fract_x
_atom_site_fract_y
_atom_site_fract_z
Si Si1 0.500000 0.500000 0.500000
Si Si2 0.123954 0.510938 0.291018
Si Si3 0.438540 0.268489 0.695533
Si Si4 0.506895 0.043029 0.250340
Si Si5 0.949012 0.073099 0.217744
Si Si6 0.602904 0.320925 0.136578
Si Si7 0.795818 0.960593 0.630723
O O1 0.598444 0.409701 0.223985
O O2 0.273469 0.662082 0.655443
O O3 0.313848 0.305845 0.284619
O O4 0.000000 0.500000 0.500000
O O5 0.964989 0.749820 0.415351
O O6 0.222582 0.455622 0.987877
O O7 0.475925 0.313006 0.413283
O O8 0.502248 0.069617 0.741422
O O9 0.599748 0.180904 0.636985
O O10 0.500000 0.000000 0.500000
O O11 0.705479 0.942693 0.941314
O O12 0.896782 0.991469 0.488492
O O13 0.158951 0.934574 0.058994
O O14 0.000000 0.000000 0.000000
O O15 0.500000 0.500000 0.000000
#
# Coordination Sequence:
#
# PCOD9025198 Si02
#       7
#     1   2   2   2   2   2   2
#     4  10  22  44  68  92 132 186 228 272 342 394
#     4  11  21  40  69  91 121 179 221 266 333 403
#     4  11  22  42  66  97 133 174 227 277 333 412
#     4  11  25  41  62 100 137 165 217 285 339 401
#     4  10  22  40  67  98 130 178 228 278 334 411
#     4  11  26  44  67 102 141 179 231 285 340 415
#     4  11  21  42  68  96 128 175 229 269 335 412
#
# _framework density 23.642916
#
# number of rings (size 3 to 8) (size 9 to 14) (size 15 to 20)
#    0.000    1.231    6.154    0.923    4.308    3.692 
#    2.769    0.000    0.000    0.000    0.000    0.000 
#    0.000    0.000    0.000    0.000    0.000    0.000 
#
# Total GULP energy -72427.719964 kJ/mol
# GULP energy per Si atom -5571.363074 kJ/mol
# Density = 2.358910 g / cm^3
# Si number density = 23.642916 Si / 1000 Ang^3
#
#
#
# Elastic Constant Matrix: (Units=GPa)
#
#
# Indices 1 2 3 4 5 6 
#
# 1 34.9257 -0.0108 30.9494 -4.3842 2.2722 -3.8657
# 2 -0.0108 111.6934 78.3757 18.2538 -0.0529 -15.3751
# 3 30.9494 78.3757 203.5069 -2.1322 -18.1687 -14.5229
# 4 -4.3842 18.2538 -2.1322 62.0084 1.0913 -1.5692
# 5 2.2722 -0.0529 -18.1687 1.0913 31.0551 -7.2757
# 6 -3.8657 -15.3751 -14.5229 -1.5692 -7.2757 20.7853
#
#
#
# Elastic Compliance Matrix: (Units=1/GPa)
#
#
# Indices 1 2 3 4 5 6 
#
# 1 0.036965 0.006224 -0.008391 0.000696 -0.006862 0.003267
# 2 0.006224 0.015129 -0.006582 -0.004029 -0.002608 0.006532
# 3 -0.008391 -0.006582 0.009541 0.001622 0.006766 0.002728
# 4 0.000696 -0.004029 0.001622 0.017406 0.000202 -0.000332
# 5 -0.006862 -0.002608 0.006766 0.000202 0.040317 0.015650
# 6 0.003267 0.006532 0.002728 -0.000332 0.015650 0.060909
#
#
# Mechanical properties :
#
#
# Convention : Reuss Voigt Hill
#
# Bulk Modulus (GPa) = 22.65675 63.19496 42.92585
# Shear Modulus (GPa) = 23.53209 38.82387 31.17798
#
# Velocity S-wave (km/s) = 3.15828 4.05667 3.63533
# Velocity P-wave (km/s) = 4.78574 6.98062 5.98466
#
# Compressibility (1/GPa) = 0.04413696
#
# Stress axis : x y z
#
# Youngs Moduli (GPa) = 27.05245 66.10018 104.81566
#
# Poissons Ratio (x) = -0.41142 0.87951
# Poissons Ratio (y) = -0.16838 0.68988
# Poissons Ratio (z) = 0.22700 0.43506
#
# Static dielectric constant tensor:
#      x y z
#    x 1.958900 0.072800 -0.019180 
#    y 0.072800 2.009600 -0.009300 
#    z -0.019180 -0.009300 1.918750 
# 
# From -- ./inp_files/99007.got.cif
#   From: 2010.05.17/outbox.cif.g08.bks.cpg/sg2_50_cif.got.tgz:99007.got - 2010.06.03 11:33:40.
