data_PCOD9025281
_publ_section_title
;
Structure prediction by ZEFSAII (Michael W. Deem and Ramdas Pophale) SiO2 
 PCOD9025281
Probable space group: P -1
;
_chemical_formula_sum "Si O2"
_cell_formula_units_Z 13
_cell_length_a 13.895541
_cell_length_b 10.129405
_cell_length_c 11.002348
_cell_angle_alpha 36.802503
_cell_angle_beta 44.476001
_cell_angle_gamma 69.535970
_cell_volume 551.870253
_symmetry_space_group_name_H-M "P -1"
_symmetry_group_IT_number 2
_symmetry_cell_setting 'triclinic'
loop_
_space_group_symop_operation_xyz
x,y,z
-x,-y,-z
loop_
_atom_site_type_symbol
_atom_site_label
_atom_site_fract_x
_atom_site_fract_y
_atom_site_fract_z
Si Si1 0.155358 0.902816 0.266210
Si Si2 0.602464 0.598220 0.210145
Si Si3 0.000000 0.000000 0.500000
Si Si4 0.575856 0.088846 0.499997
Si Si5 0.609885 0.296690 0.834538
Si Si6 0.127799 0.154988 0.872977
Si Si7 0.077937 0.751693 0.827379
O O1 0.996933 0.754466 0.597918
O O2 0.278979 0.809235 0.235480
O O3 0.212575 0.181857 0.081462
O O4 0.151958 0.969484 0.079355
O O5 0.500000 0.500000 0.500000
O O6 0.580742 0.349259 0.346550
O O7 0.534783 0.750036 0.087329
O O8 0.901459 0.036677 0.445803
O O9 0.755918 0.154806 0.319626
O O10 0.500000 0.000000 0.500000
O O11 0.460059 0.849135 0.869468
O O12 0.716695 0.609171 0.505418
O O13 0.054170 0.277292 0.936302
O O14 0.000000 0.000000 0.000000
O O15 0.000000 0.500000 0.000000
#
# Coordination Sequence:
#
# PCOD9025281 Si02
#       7
#     2   2   1   2   2   2   2
#     4  11  23  43  71 108 139 187 242 301 354 438
#     4  12  24  43  74 106 140 181 247 297 354 439
#     4  10  22  40  68 106 136 180 236 292 362 414
#     4  12  29  49  73 110 153 196 247 302 375 443
#     4  12  25  45  77 102 147 196 242 300 372 430
#     4  11  26  46  71 102 146 189 246 297 364 441
#     4  11  25  47  73 104 147 186 241 309 358 431
#
# _framework density 23.556263999999999
#
# number of rings (size 3 to 8) (size 9 to 14) (size 15 to 20)
#    0.000    0.615    3.077    4.154    6.462    1.231 
#   11.077    0.000    0.000    0.000    0.000    0.000 
#    0.000    0.000    0.000    0.000    0.000    0.000 
#
# Total GULP energy -72476.531616 kJ/mol
# GULP energy per Si atom -5575.117817 kJ/mol
# Density = 2.350265 g / cm^3
# Si number density = 23.556264 Si / 1000 Ang^3
#
#
#
# Elastic Constant Matrix: (Units=GPa)
#
#
# Indices 1 2 3 4 5 6 
#
# 1 212.3971 55.3431 51.2352 -3.8716 26.8526 0.6875
# 2 55.3431 46.6755 11.7245 0.4706 19.5744 6.2246
# 3 51.2352 11.7245 106.0373 20.6704 18.5243 16.1942
# 4 -3.8716 0.4706 20.6704 24.4013 5.6547 -3.5669
# 5 26.8526 19.5744 18.5243 5.6547 48.1759 1.2900
# 6 0.6875 6.2246 16.1942 -3.5669 1.2900 53.8413
#
#
#
# Elastic Compliance Matrix: (Units=1/GPa)
#
#
# Indices 1 2 3 4 5 6 
#
# 1 0.008252 -0.009106 -0.004513 0.005677 0.000098 0.002679
# 2 -0.009106 0.036467 0.003717 -0.003599 -0.010609 -0.005202
# 3 -0.004513 0.003717 0.015348 -0.013923 -0.003106 -0.005836
# 4 0.005677 -0.003599 -0.013923 0.055678 -0.003106 0.008294
# 5 0.000098 -0.010609 -0.003106 -0.003106 0.026537 0.001318
# 6 0.002679 -0.005202 -0.005836 0.008294 0.001318 0.021414
#
#
# Mechanical properties :
#
#
# Convention : Reuss Voigt Hill
#
# Bulk Modulus (GPa) = 24.83674 66.85728 45.84701
# Shear Modulus (GPa) = 25.39088 41.73750 33.56419
#
# Velocity S-wave (km/s) = 3.28667 4.21387 3.77882
# Velocity P-wave (km/s) = 4.99694 7.21936 6.20840
#
# Compressibility (1/GPa) = 0.04026294
#
# Stress axis : x y z
#
# Youngs Moduli (GPa) = 121.18200 27.42198 65.15386
#
# Poissons Ratio (x) = 0.24971 0.29405
# Poissons Ratio (y) = 1.10351 -0.24218
# Poissons Ratio (z) = 0.54691 -0.10193
#
# Static dielectric constant tensor:
#      x y z
#    x 1.339500 0.891150 2.032580 
#    y 0.891150 0.516490 -3.173800 
#    z 2.032580 -3.173800 -5.185690 
# 
# From -- ./inp_files/241776.got.cif
#   From: 2010.05.17/outbox.cif.g08.bks.cpg/sg2_121_cif.got.tgz:241776.got - 2010.06.03 11:33:40.
