data_PCOD9025188
_publ_section_title
;
Structure prediction by ZEFSAII (Michael W. Deem and Ramdas Pophale) SiO2 
 PCOD9025188
Probable space group: P -1
;
_chemical_formula_sum "Si O2"
_cell_formula_units_Z 16
_cell_length_a 14.476928
_cell_length_b 13.498384
_cell_length_c 13.857189
_cell_angle_alpha 32.191238
_cell_angle_beta 150.678820
_cell_angle_gamma 146.909665
_cell_volume 652.555167
_symmetry_space_group_name_H-M "P -1"
_symmetry_group_IT_number 2
_symmetry_cell_setting 'triclinic'
loop_
_space_group_symop_operation_xyz
x,y,z
-x,-y,-z
loop_
_atom_site_type_symbol
_atom_site_label
_atom_site_fract_x
_atom_site_fract_y
_atom_site_fract_z
Si Si1 0.744595 0.293169 0.535783
Si Si2 0.147761 0.038476 0.380109
Si Si3 0.771200 0.808182 0.353237
Si Si4 0.461615 0.275848 0.613693
Si Si5 0.908820 0.459611 0.842821
Si Si6 0.112327 0.310758 0.977325
Si Si7 0.568700 0.611860 0.144390
Si Si8 0.561578 0.107263 0.319991
O O1 0.729510 0.507533 0.362727
O O2 0.676599 0.223760 0.423003
O O3 0.962304 0.299134 0.762786
O O4 0.575110 0.122413 0.587293
O O5 0.321138 0.228681 0.431231
O O6 0.262261 0.884779 0.601620
O O7 0.101370 0.096623 0.183642
O O8 0.950129 0.972152 0.321274
O O9 0.669113 0.870251 0.300295
O O10 0.870764 0.655281 0.610222
O O11 0.597105 0.692209 0.213059
O O12 0.500000 0.500000 0.500000
O O13 0.684067 0.279939 0.792264
O O14 0.037634 0.403085 0.925611
O O15 0.000000 0.500000 0.000000
O O16 0.345670 0.445380 0.057363
O O17 0.585365 0.792665 0.940005
#
# Coordination Sequence:
#
# PCOD9025188 Si02
#       8
#     2   2   2   2   2   2   2   2
#     4  11  25  49  70 105 143 186 241 290 358 413
#     4  12  24  44  68 105 144 182 239 291 352 418
#     4  11  23  42  66 102 140 178 238 288 345 428
#     4  10  22  40  67  97 140 182 232 284 347 425
#     4  11  21  39  65  99 134 184 233 280 354 415
#     4  12  23  42  73  98 142 190 227 294 351 413
#     4  12  24  48  72 105 143 188 236 289 356 416
#     4  11  26  46  72 104 143 187 236 298 349 421
#
# _framework density 24.518999999999998
#
# number of rings (size 3 to 8) (size 9 to 14) (size 15 to 20)
#    0.000    0.750    2.500    6.750    0.000    1.000 
#    2.250    1.875    0.000    0.000    0.000    0.000 
#    0.000    0.000    0.000    0.000    0.000    0.000 
#
# Total GULP energy -89656.502703 kJ/mol
# GULP energy per Si atom -5603.531419 kJ/mol
# Density = 2.446319 g / cm^3
# Si number density = 24.519000 Si / 1000 Ang^3
#
#
#
# Elastic Constant Matrix: (Units=GPa)
#
#
# Indices 1 2 3 4 5 6 
#
# 1 35.7760 11.0479 2.8593 -3.2901 -10.5969 0.8858
# 2 11.0479 48.3340 31.5227 19.2640 -6.2703 10.2333
# 3 2.8593 31.5227 140.7720 13.0611 -27.0471 -7.6419
# 4 -3.2901 19.2640 13.0611 41.2588 -5.3518 -3.4636
# 5 -10.5969 -6.2703 -27.0471 -5.3518 33.8325 13.5791
# 6 0.8858 10.2333 -7.6419 -3.4636 13.5791 37.1709
#
#
#
# Elastic Compliance Matrix: (Units=1/GPa)
#
#
# Indices 1 2 3 4 5 6 
#
# 1 0.036562 -0.012582 0.003858 0.009315 0.014027 -0.000871
# 2 -0.012582 0.038238 -0.007440 -0.017652 -0.000252 -0.013309
# 3 0.003858 -0.007440 0.010067 0.001697 0.007577 0.001416
# 4 0.009315 -0.017652 0.001697 0.033724 0.003603 0.006813
# 5 0.014027 -0.000252 0.007577 0.003603 0.046730 -0.015442
# 6 -0.000871 -0.013309 0.001416 0.006813 -0.015442 0.037155
#
#
# Mechanical properties :
#
#
# Convention : Reuss Voigt Hill
#
# Bulk Modulus (GPa) = 19.03352 35.08246 27.05799
# Shear Modulus (GPa) = 19.81637 34.41590 27.11614
#
# Velocity S-wave (km/s) = 2.84598 3.75059 3.32915
# Velocity P-wave (km/s) = 4.31035 5.75284 5.08302
#
# Compressibility (1/GPa) = 0.05253889
#
# Stress axis : x y z
#
# Youngs Moduli (GPa) = 27.35085 26.15188 99.33714
#
# Poissons Ratio (x) = 0.32905 -0.38329
# Poissons Ratio (y) = 0.34413 0.73910
# Poissons Ratio (z) = -0.10553 0.19458
#
# Static dielectric constant tensor:
#      x y z
#    x 1.945760 0.039230 -0.000390 
#    y 0.039230 1.959710 -0.049190 
#    z -0.000390 -0.049190 1.964380 
# 
# From -- ./inp_files/534202.got.cif
#   From: 2010.05.17/outbox.cif.g08.bks.cpg/sg2_268_cif.got.tgz:534202.got - 2010.06.03 11:33:40.
