data_PCOD9025969
_publ_section_title
;
Structure prediction by ZEFSAII (Michael W. Deem and Ramdas Pophale) SiO2 
 PCOD9025969
Probable space group: P -1
;
_chemical_formula_sum "Si O2"
_cell_formula_units_Z 16
_cell_length_a 9.141012
_cell_length_b 20.332914
_cell_length_c 5.132633
_cell_angle_alpha 73.216580
_cell_angle_beta 59.667891
_cell_angle_gamma 97.086862
_cell_volume 745.306111
_symmetry_space_group_name_H-M "P -1"
_symmetry_group_IT_number 2
_symmetry_cell_setting 'triclinic'
loop_
_space_group_symop_operation_xyz
x,y,z
-x,-y,-z
loop_
_atom_site_type_symbol
_atom_site_label
_atom_site_fract_x
_atom_site_fract_y
_atom_site_fract_z
Si Si1 0.774320 0.209033 0.621631
Si Si2 0.622668 0.708788 0.481306
Si Si3 0.082117 0.171951 0.653640
Si Si4 0.512425 0.453671 0.292619
Si Si5 0.911798 0.454014 0.881663
Si Si6 0.928837 0.949778 0.871129
Si Si7 0.771668 0.296653 0.017547
Si Si8 0.632559 0.844950 0.970654
O O1 0.780600 0.236113 0.288273
O O2 0.921549 0.172941 0.611049
O O3 0.810960 0.276369 0.714800
O O4 0.568086 0.160461 0.915629
O O5 0.797241 0.748611 0.449052
O O6 0.619469 0.629257 0.490007
O O7 0.433478 0.701269 0.803047
O O8 0.623971 0.766385 0.186796
O O9 0.226217 0.143372 0.404391
O O10 0.011618 0.119940 0.025334
O O11 0.500000 0.500000 0.500000
O O12 0.500000 0.500000 0.000000
O O13 0.706179 0.445915 0.111818
O O14 0.000000 0.500000 0.500000
O O15 0.905214 0.372025 0.922786
O O16 0.000000 0.500000 0.000000
O O17 0.720426 0.907375 0.033440
O O18 0.000000 0.000000 0.500000
O O19 0.000000 0.000000 0.000000
#
# Coordination Sequence:
#
# PCOD9025969 Si02
#       8
#     2   2   2   2   2   2   2   2
#     4  11  24  39  66  99 125 161 220 264 319 373
#     4   9  22  40  64  88 128 171 217 264 331 381
#     4  11  23  41  71  98 127 169 216 266 313 383
#     4  11  25  41  61  90 128 171 218 275 329 390
#     4  11  23  41  60  84 125 170 215 266 335 399
#     4  11  23  43  70  97 134 176 207 249 321 386
#     4  10  22  41  60  87 126 168 207 274 327 379
#     4  10  22  44  68  95 133 169 209 270 318 374
#
# _framework density 21.467692
#
# number of rings (size 3 to 8) (size 9 to 14) (size 15 to 20)
#    0.000    1.500    2.500    1.500    5.250    5.000 
#    0.000    1.250    0.000    0.000    0.000    0.000 
#    0.000    0.000    0.000    0.000    0.000    0.000 
#
# Total GULP energy -89289.499669 kJ/mol
# GULP energy per Si atom -5580.593729 kJ/mol
# Density = 2.141883 g / cm^3
# Si number density = 21.467692 Si / 1000 Ang^3
#
#
#
# Elastic Constant Matrix: (Units=GPa)
#
#
# Indices 1 2 3 4 5 6 
#
# 1 131.8579 35.7977 26.8199 -11.2826 -11.9214 25.2520
# 2 35.7977 110.8477 44.4308 -15.0534 -4.8308 41.2559
# 3 26.8199 44.4308 86.1537 -7.5993 9.1720 9.9196
# 4 -11.2826 -15.0534 -7.5993 37.3834 8.5425 1.3114
# 5 -11.9214 -4.8308 9.1720 8.5425 27.6281 5.6573
# 6 25.2520 41.2559 9.9196 1.3114 5.6573 34.0171
#
#
#
# Elastic Compliance Matrix: (Units=1/GPa)
#
#
# Indices 1 2 3 4 5 6 
#
# 1 0.010997 0.003924 -0.004678 0.002365 0.008942 -0.013136
# 2 0.003924 0.027821 -0.012442 0.007527 0.015718 -0.035930
# 3 -0.004678 -0.012442 0.019191 0.000078 -0.013710 0.015242
# 4 0.002365 0.007527 0.000078 0.032120 -0.005315 -0.011261
# 5 0.008942 0.015718 -0.013710 -0.005315 0.055281 -0.030692
# 6 -0.013136 -0.035930 0.015242 -0.011261 -0.030692 0.083817
#
#
# Mechanical properties :
#
#
# Convention : Reuss Voigt Hill
#
# Bulk Modulus (GPa) = 31.62829 60.32846 45.97838
# Shear Modulus (GPa) = 18.78585 34.59312 26.68948
#
# Velocity S-wave (km/s) = 2.96138 4.01858 3.52979
# Velocity P-wave (km/s) = 5.14373 7.04947 6.17061
#
# Compressibility (1/GPa) = 0.03161726
#
# Stress axis : x y z
#
# Youngs Moduli (GPa) = 90.93618 35.94418 52.10736
#
# Poissons Ratio (x) = -0.14103 0.24374
# Poissons Ratio (y) = -0.35680 0.64830
# Poissons Ratio (z) = 0.42537 0.44721
#
# Static dielectric constant tensor:
#      x y z
#    x 1.782530 0.006860 -0.005340 
#    y 0.006860 1.863440 -0.014640 
#    z -0.005340 -0.014640 1.805230 
# 
# From -- ./inp_files/51123.got.cif
#   From: 2010.05.17/outbox.cif.g08.bks.cpg/sg2_26_cif.got.tgz:51123.got - 2010.06.03 11:33:40.
