data_PCOD9025153
_publ_section_title
;
Structure prediction by ZEFSAII (Michael W. Deem and Ramdas Pophale) SiO2 
 PCOD9025153
Probable space group: P -1
;
_chemical_formula_sum "Si O2"
_cell_formula_units_Z 16
_cell_length_a 8.861201
_cell_length_b 25.535935
_cell_length_c 10.289316
_cell_angle_alpha 157.632207
_cell_angle_beta 66.904880
_cell_angle_gamma 120.277080
_cell_volume 745.520508
_symmetry_space_group_name_H-M "P -1"
_symmetry_group_IT_number 2
_symmetry_cell_setting 'triclinic'
loop_
_space_group_symop_operation_xyz
x,y,z
-x,-y,-z
loop_
_atom_site_type_symbol
_atom_site_label
_atom_site_fract_x
_atom_site_fract_y
_atom_site_fract_z
Si Si1 0.108058 0.250580 0.329897
Si Si2 0.371090 0.857899 0.132933
Si Si3 0.439144 0.548880 0.996176
Si Si4 0.316662 0.099800 0.038424
Si Si5 0.785889 0.800640 0.421188
Si Si6 0.162336 0.766569 0.246030
Si Si7 0.841473 0.350160 0.760786
Si Si8 0.889043 0.059011 0.766219
O O1 0.284787 0.399790 0.643264
O O2 0.165181 0.116154 0.036660
O O3 0.935008 0.235871 0.438443
O O4 0.027606 0.219218 0.142592
O O5 0.239133 0.753722 0.049046
O O6 0.261935 0.915219 0.203019
O O7 0.500000 0.000000 0.500000
O O8 0.495021 0.804155 0.876570
O O9 0.500000 0.500000 0.000000
O O10 0.623032 0.643474 0.076939
O O11 0.333005 0.660525 0.283452
O O12 0.278643 0.153965 0.315238
O O13 0.287411 0.927259 0.639258
O O14 0.965135 0.769028 0.305696
O O15 0.811680 0.933169 0.615464
O O16 0.173146 0.647974 0.074921
O O17 0.000000 0.500000 0.000000
O O18 0.000000 0.000000 0.500000
#
# Coordination Sequence:
#
# PCOD9025153 Si02
#       8
#     2   2   2   2   2   2   2   2
#     4  11  22  43  68  96 139 176 221 280 336 397
#     4  10  24  40  62  97 139 174 216 284 338 396
#     4  11  24  42  65 102 138 174 220 284 333 396
#     4  11  21  39  66 104 130 174 223 285 336 393
#     4  12  22  37  70  99 130 173 229 277 336 392
#     4  11  20  42  66  97 138 178 218 280 345 393
#     4  10  22  40  67  96 130 178 224 270 332 402
#     4  12  24  42  66  98 137 179 227 275 342 399
#
# _framework density 21.461514999999999
#
# number of rings (size 3 to 8) (size 9 to 14) (size 15 to 20)
#    0.000    1.000    5.000    2.625    5.250    0.500 
#    0.000    0.625    2.750    3.750    0.000    0.000 
#    0.000    0.000    0.000    0.000    0.000    0.000 
#
# Total GULP energy -89190.757557 kJ/mol
# GULP energy per Si atom -5574.422347 kJ/mol
# Density = 2.141267 g / cm^3
# Si number density = 21.461515 Si / 1000 Ang^3
#
#
#
# Elastic Constant Matrix: (Units=GPa)
#
#
# Indices 1 2 3 4 5 6 
#
# 1 171.1081 66.8508 22.2610 -12.1478 9.3674 -7.8470
# 2 66.8508 157.2658 30.8302 -15.7724 -3.8744 3.7944
# 3 22.2610 30.8302 44.4924 -2.6470 23.7507 6.4037
# 4 -12.1478 -15.7724 -2.6470 36.5038 7.1333 -7.7730
# 5 9.3674 -3.8744 23.7507 7.1333 41.0163 -3.0581
# 6 -7.8470 3.7944 6.4037 -7.7730 -3.0581 39.2241
#
#
#
# Elastic Compliance Matrix: (Units=1/GPa)
#
#
# Indices 1 2 3 4 5 6 
#
# 1 0.007416 -0.002813 -0.001203 0.001918 -0.001431 0.002221
# 2 -0.002813 0.009519 -0.008561 0.001474 0.006295 0.000697
# 3 -0.001203 -0.008561 0.045264 0.002837 -0.027865 -0.008413
# 4 0.001918 0.001474 0.002837 0.031404 -0.006996 0.005456
# 5 -0.001431 0.006295 -0.027865 -0.006996 0.043073 0.005626
# 6 0.002221 0.000697 -0.008413 0.005456 0.005626 0.028765
#
#
# Mechanical properties :
#
#
# Convention : Reuss Voigt Hill
#
# Bulk Modulus (GPa) = 26.99442 68.08334 47.53888
# Shear Modulus (GPa) = 24.63730 40.21046 32.42388
#
# Velocity S-wave (km/s) = 3.39185 4.33321 3.89111
# Velocity P-wave (km/s) = 5.28630 7.53843 6.51049
#
# Compressibility (1/GPa) = 0.03704469
#
# Stress axis : x y z
#
# Youngs Moduli (GPa) = 134.84075 105.05387 22.09251
#
# Poissons Ratio (x) = 0.29553 0.02658
# Poissons Ratio (y) = 0.37933 0.18914
# Poissons Ratio (z) = 0.16221 0.89939
#
# Static dielectric constant tensor:
#      x y z
#    x 1.496190 0.233550 -0.121750 
#    y 0.233550 1.677700 0.084800 
#    z -0.121750 0.084800 1.914120 
# 
# From -- ./inp_files/225734.got.cif
#   From: 2010.05.17/outbox.cif.g08.bks.cpg/sg2_113_cif.got.tgz:225734.got - 2010.06.03 11:33:40.
