data_PCOD9025554
_publ_section_title
;
Structure prediction by ZEFSAII (Michael W. Deem and Ramdas Pophale) SiO2 
 PCOD9025554
Probable space group: P -1
;
_chemical_formula_sum "Si O2"
_cell_formula_units_Z 10
_cell_length_a 14.651844
_cell_length_b 5.375151
_cell_length_c 9.193727
_cell_angle_alpha 100.208252
_cell_angle_beta 140.468914
_cell_angle_gamma 99.096205
_cell_volume 400.206700
_symmetry_space_group_name_H-M "P -1"
_symmetry_group_IT_number 2
_symmetry_cell_setting 'triclinic'
loop_
_space_group_symop_operation_xyz
x,y,z
-x,-y,-z
loop_
_atom_site_type_symbol
_atom_site_label
_atom_site_fract_x
_atom_site_fract_y
_atom_site_fract_z
Si Si1 0.710817 0.813127 0.332194
Si Si2 0.390391 0.710690 0.028747
Si Si3 0.812547 0.755095 0.754052
Si Si4 0.220629 0.736973 0.117703
Si Si5 0.089737 0.631592 0.474384
O O1 0.642113 0.610598 0.086504
O O2 0.744467 0.665091 0.498230
O O3 0.885210 0.068656 0.528666
O O4 0.578636 0.897434 0.243335
O O5 0.273120 0.742655 0.769890
O O6 0.331021 0.737320 0.117784
O O7 0.781699 0.480418 0.783415
O O8 0.730542 0.941106 0.740050
O O9 0.000000 0.000000 0.000000
O O10 0.033672 0.593541 0.815269
O O11 0.000000 0.500000 0.500000
#
# Coordination Sequence:
#
# PCOD9025554 Si02
#       5
#     2   2   2   2   2
#     4  11  24  43  70  95 141 177 232 277 342 405
#     4  10  25  44  66 101 132 187 224 282 336 410
#     4  12  25  45  71 103 137 179 227 286 342 407
#     4  11  26  44  72 101 138 178 230 282 344 401
#     4  10  22  40  69  97 131 175 228 285 330 403
#
# _framework density 24.987088
#
# number of rings (size 3 to 8) (size 9 to 14) (size 15 to 20)
#    0.000    1.200    2.000    2.400    8.400    3.200 
#    0.000    0.000    0.000    0.000    0.000    0.000 
#    0.000    0.000    0.000    0.000    0.000    0.000 
#
# Total GULP energy -55793.510104 kJ/mol
# GULP energy per Si atom -5579.351010 kJ/mol
# Density = 2.493022 g / cm^3
# Si number density = 24.987088 Si / 1000 Ang^3
#
#
#
# Elastic Constant Matrix: (Units=GPa)
#
#
# Indices 1 2 3 4 5 6 
#
# 1 140.1610 51.0063 17.4007 -1.6846 -11.4603 11.1280
# 2 51.0063 123.1599 25.8328 -17.0184 -12.2363 16.5261
# 3 17.4007 25.8328 58.8661 -16.2234 -12.7179 9.3541
# 4 -1.6846 -17.0184 -16.2234 42.1216 -7.3677 -5.3974
# 5 -11.4603 -12.2363 -12.7179 -7.3677 47.3568 1.1205
# 6 11.1280 16.5261 9.3541 -5.3974 1.1205 34.0512
#
#
#
# Elastic Compliance Matrix: (Units=1/GPa)
#
#
# Indices 1 2 3 4 5 6 
#
# 1 0.008612 -0.003299 -0.001161 -0.001457 0.000720 -0.001149
# 2 -0.003299 0.011028 -0.001897 0.003555 0.002172 -0.003261
# 3 -0.001161 -0.001897 0.022575 0.008574 0.006714 -0.003763
# 4 -0.001457 0.003555 0.008574 0.029844 0.007491 0.000879
# 5 0.000720 0.002172 0.006714 0.007491 0.024886 -0.002766
# 6 -0.001149 -0.003261 -0.003763 0.000879 -0.002766 0.032590
#
#
# Mechanical properties :
#
#
# Convention : Reuss Voigt Hill
#
# Bulk Modulus (GPa) = 33.89735 56.74074 45.31904
# Shear Modulus (GPa) = 32.87667 39.90238 36.38952
#
# Velocity S-wave (km/s) = 3.63126 4.00048 3.82033
# Velocity P-wave (km/s) = 5.58362 6.64047 6.13484
#
# Compressibility (1/GPa) = 0.02950083
#
# Stress axis : x y z
#
# Youngs Moduli (GPa) = 116.11933 90.67672 44.29623
#
# Poissons Ratio (x) = 0.29910 0.05144
# Poissons Ratio (y) = 0.38302 0.08405
# Poissons Ratio (z) = 0.13486 0.17205
#
# Static dielectric constant tensor:
#      x y z
#    x 1.979780 0.134700 0.063050 
#    y 0.134700 0.936840 -0.009510 
#    z 0.063050 -0.009510 1.977320 
# 
# From -- ./inp_files/35555.got.cif
#   From: 2010.05.17/outbox.cif.g08.bks.cpg/sg2_18_cif.got.tgz:35555.got - 2010.06.03 11:33:40.
