data_PCOD9025407
_publ_section_title
;
Structure prediction by ZEFSAII (Michael W. Deem and Ramdas Pophale) SiO2 
 PCOD9025407
Probable space group: P -1
;
_chemical_formula_sum "Si O2"
_cell_formula_units_Z 15
_cell_length_a 15.605835
_cell_length_b 7.267435
_cell_length_c 6.626165
_cell_angle_alpha 108.547528
_cell_angle_beta 100.544873
_cell_angle_gamma 50.536912
_cell_volume 549.862209
_symmetry_space_group_name_H-M "P -1"
_symmetry_group_IT_number 2
_symmetry_cell_setting 'triclinic'
loop_
_space_group_symop_operation_xyz
x,y,z
-x,-y,-z
loop_
_atom_site_type_symbol
_atom_site_label
_atom_site_fract_x
_atom_site_fract_y
_atom_site_fract_z
Si Si1 0.933428 0.775685 0.191651
Si Si2 0.500000 0.000000 0.000000
Si Si3 0.989110 0.313228 0.222474
Si Si4 0.175899 0.839256 0.386744
Si Si5 0.778880 0.566515 0.503620
Si Si6 0.394609 0.613952 0.187799
Si Si7 0.438460 0.282095 0.749030
Si Si8 0.281506 0.076025 0.064049
O O1 0.996926 0.537475 0.280920
O O2 0.874346 0.021603 0.375962
O O3 0.004721 0.757757 0.032687
O O4 0.832244 0.793116 0.057568
O O5 0.500779 0.999941 0.262529
O O6 0.370119 0.079843 0.982899
O O7 0.876065 0.437822 0.336509
O O8 0.093361 0.059136 0.274927
O O9 0.180031 0.605463 0.340274
O O10 0.302627 0.718627 0.352946
O O11 0.676307 0.599592 0.364351
O O12 0.739090 0.819503 0.679055
O O13 0.490118 0.639047 0.281038
O O14 0.332889 0.791437 0.027927
O O15 0.434288 0.349158 0.021840
#
# Coordination Sequence:
#
# PCOD9025407 Si02
#       8
#     2   1   2   2   2   2   2   2
#     4  11  25  45  73  95 136 187 234 275 341 400
#     4  10  22  40  68  98 140 166 228 282 348 390
#     4  11  26  45  68 101 139 181 232 284 334 412
#     4  12  25  45  69 104 134 183 227 288 334 414
#     4  12  27  42  68 103 144 175 229 280 357 392
#     4  10  22  44  73  93 141 172 237 268 337 415
#     4  10  23  45  68 104 132 186 217 292 337 408
#     4  11  23  43  66 102 135 184 223 286 334 412
#
# _framework density 27.279561000000001
#
# number of rings (size 3 to 8) (size 9 to 14) (size 15 to 20)
#    0.000    1.067    1.333    4.000    3.733    4.267 
#    0.000    0.000    0.000    0.000    0.000    0.000 
#    0.000    0.000    0.000    0.000    0.000    0.000 
#
# Total GULP energy -83829.334553 kJ/mol
# GULP energy per Si atom -5588.622304 kJ/mol
# Density = 2.721747 g / cm^3
# Si number density = 27.279561 Si / 1000 Ang^3
#
#
#
# Elastic Constant Matrix: (Units=GPa)
#
#
# Indices 1 2 3 4 5 6 
#
# 1 150.5334 50.8678 58.5076 -13.7484 -17.8382 -9.8609
# 2 50.8678 112.9839 38.2077 -7.8882 -3.5935 -14.0401
# 3 58.5076 38.2077 85.3358 -7.9711 -12.3675 -14.7265
# 4 -13.7484 -7.8882 -7.9711 51.9384 -6.4579 -1.8732
# 5 -17.8382 -3.5935 -12.3675 -6.4579 61.0902 -5.1949
# 6 -9.8609 -14.0401 -14.7265 -1.8732 -5.1949 46.0531
#
#
#
# Elastic Compliance Matrix: (Units=1/GPa)
#
#
# Indices 1 2 3 4 5 6 
#
# 1 0.009900 -0.002514 -0.005246 0.001662 0.001852 -0.000048
# 2 -0.002514 0.011261 -0.002999 0.000597 -0.000453 0.001909
# 3 -0.005246 -0.002999 0.017814 0.001329 0.002377 0.003981
# 4 0.001662 0.000597 0.001329 0.020455 0.003135 0.002148
# 5 0.001852 -0.000453 0.002377 0.003135 0.017966 0.003173
# 6 -0.000048 0.001909 0.003981 0.002148 0.003173 0.024004
#
#
# Mechanical properties :
#
#
# Convention : Reuss Voigt Hill
#
# Bulk Modulus (GPa) = 57.28589 71.55771 64.42180
# Shear Modulus (GPa) = 38.83867 45.23434 42.03651
#
# Velocity S-wave (km/s) = 3.77733 4.07649 3.92976
# Velocity P-wave (km/s) = 6.33004 6.96026 6.65262
#
# Compressibility (1/GPa) = 0.01745630
#
# Stress axis : x y z
#
# Youngs Moduli (GPa) = 101.01151 88.79974 56.13629
#
# Poissons Ratio (x) = 0.22323 0.29452
# Poissons Ratio (y) = 0.25393 0.16835
# Poissons Ratio (z) = 0.52995 0.26631
#
# Static dielectric constant tensor:
#      x y z
#    x 2.180400 0.223880 0.000450 
#    y 0.223880 2.703970 -0.042660 
#    z 0.000450 -0.042660 2.275980 
# 
# From -- ./inp_files/105370.got.cif
#   From: 2010.05.17/outbox.cif.g08.bks.cpg/sg2_53_cif.got.tgz:105370.got - 2010.06.03 11:33:40.
