data_PCOD9025670
_publ_section_title
;
Structure prediction by ZEFSAII (Michael W. Deem and Ramdas Pophale) SiO2 
 PCOD9025670
Probable space group: P -1
;
_chemical_formula_sum "Si O2"
_cell_formula_units_Z 16
_cell_length_a 9.185141
_cell_length_b 8.966832
_cell_length_c 15.721383
_cell_angle_alpha 73.329616
_cell_angle_beta 35.821359
_cell_angle_gamma 70.387218
_cell_volume 713.596931
_symmetry_space_group_name_H-M "P -1"
_symmetry_group_IT_number 2
_symmetry_cell_setting 'triclinic'
loop_
_space_group_symop_operation_xyz
x,y,z
-x,-y,-z
loop_
_atom_site_type_symbol
_atom_site_label
_atom_site_fract_x
_atom_site_fract_y
_atom_site_fract_z
Si Si1 0.250079 0.432900 0.160505
Si Si2 0.687071 0.632327 0.379252
Si Si3 0.772371 0.125171 0.053263
Si Si4 0.482589 0.607584 0.783193
Si Si5 0.560788 0.165273 0.967473
Si Si6 0.295550 0.202232 0.478714
Si Si7 0.252053 0.720799 0.317935
Si Si8 0.423911 0.918612 0.346199
O O1 0.306026 0.401003 0.239706
O O2 0.975907 0.535126 0.256637
O O3 0.500000 0.500000 0.000000
O O4 0.303251 0.272700 0.107043
O O5 0.500000 0.500000 0.500000
O O6 0.677515 0.751530 0.444845
O O7 0.606469 0.759575 0.320850
O O8 0.762125 0.301954 0.065790
O O9 0.542531 0.042784 0.210849
O O10 0.753565 0.143438 0.958481
O O11 0.000000 0.000000 0.000000
O O12 0.492616 0.727425 0.682650
O O13 0.536486 0.435752 0.744911
O O14 0.676991 0.225393 0.818226
O O15 0.500000 0.000000 0.000000
O O16 0.032681 0.304677 0.552655
O O17 0.310236 0.024161 0.464723
O O18 0.249877 0.844986 0.374516
#
# Coordination Sequence:
#
# PCOD9025670 Si02
#       8
#     2   2   2   2   2   2   2   2
#     4  11  23  44  71 100 130 185 229 279 333 410
#     4  12  27  46  70 104 142 178 226 291 347 402
#     4  10  24  42  66  94 136 176 224 288 347 402
#     4  10  22  40  70  95 130 173 233 269 339 401
#     4  11  23  43  63 100 131 172 234 274 339 406
#     4  11  24  45  69  96 134 185 227 277 343 415
#     4  12  22  42  72  97 133 183 229 283 331 417
#     4  11  26  43  65 100 138 176 229 285 347 399
#
# _framework density 22.421623
#
# number of rings (size 3 to 8) (size 9 to 14) (size 15 to 20)
#    0.000    1.000    3.750    1.875    7.000    1.000 
#    6.750    1.250    0.000    0.000    0.000    0.000 
#    0.000    0.000    0.000    0.000    0.000    0.000 
#
# Total GULP energy -89161.376207 kJ/mol
# GULP energy per Si atom -5572.586013 kJ/mol
# Density = 2.237059 g / cm^3
# Si number density = 22.421623 Si / 1000 Ang^3
#
#
#
# Elastic Constant Matrix: (Units=GPa)
#
#
# Indices 1 2 3 4 5 6 
#
# 1 91.3780 30.3260 32.4571 22.2478 15.8810 -1.3969
# 2 30.3260 124.2490 20.0172 38.4440 3.6579 3.8317
# 3 32.4571 20.0172 46.2974 23.6223 6.1815 4.1730
# 4 22.2478 38.4440 23.6223 41.5537 1.4253 6.6825
# 5 15.8810 3.6579 6.1815 1.4253 33.7413 9.8780
# 6 -1.3969 3.8317 4.1730 6.6825 9.8780 48.1994
#
#
#
# Elastic Compliance Matrix: (Units=1/GPa)
#
#
# Indices 1 2 3 4 5 6 
#
# 1 0.016515 -0.001740 -0.008984 -0.002394 -0.006748 0.003110
# 2 -0.001740 0.011528 0.001759 -0.010793 -0.000433 0.000466
# 3 -0.008984 0.001759 0.036213 -0.017216 -0.001631 -0.000814
# 4 -0.002394 -0.010793 -0.017216 0.045767 0.005009 -0.005093
# 5 -0.006748 -0.000433 -0.001631 0.005009 0.035273 -0.007943
# 6 0.003110 0.000466 -0.000814 -0.005093 -0.007943 0.023205
#
#
# Mechanical properties :
#
#
# Convention : Reuss Voigt Hill
#
# Bulk Modulus (GPa) = 21.58642 47.50277 34.54460
# Shear Modulus (GPa) = 24.76823 36.64048 30.70436
#
# Velocity S-wave (km/s) = 3.32725 4.04686 3.70457
# Velocity P-wave (km/s) = 4.94056 6.56264 5.80850
#
# Compressibility (1/GPa) = 0.04632543
#
# Stress axis : x y z
#
# Youngs Moduli (GPa) = 60.55060 86.74788 27.61470
#
# Poissons Ratio (x) = 0.15096 0.24808
# Poissons Ratio (y) = 0.10537 -0.04857
# Poissons Ratio (z) = 0.54396 -0.15256
#
# Static dielectric constant tensor:
#      x y z
#    x 1.612340 0.130280 -0.079430 
#    y 0.130280 2.243420 0.127950 
#    z -0.079430 0.127950 1.921490 
# 
# From -- ./inp_files/209524.got.cif
#   From: 2010.05.17/outbox.cif.g08.bks.cpg/sg2_105_cif.got.tgz:209524.got - 2010.06.03 11:33:40.
