data_PCOD9025760
_publ_section_title
;
Structure prediction by ZEFSAII (Michael W. Deem and Ramdas Pophale) SiO2 
 PCOD9025760
Probable space group: P -1
;
_chemical_formula_sum "Si O2"
_cell_formula_units_Z 16
_cell_length_a 16.031312
_cell_length_b 11.318531
_cell_length_c 8.512759
_cell_angle_alpha 50.868908
_cell_angle_beta 98.305503
_cell_angle_gamma 137.535206
_cell_volume 639.045144
_symmetry_space_group_name_H-M "P -1"
_symmetry_group_IT_number 2
_symmetry_cell_setting 'triclinic'
loop_
_space_group_symop_operation_xyz
x,y,z
-x,-y,-z
loop_
_atom_site_type_symbol
_atom_site_label
_atom_site_fract_x
_atom_site_fract_y
_atom_site_fract_z
Si Si1 0.505242 0.711132 0.488443
Si Si2 0.615700 0.317205 0.217742
Si Si3 0.201678 0.660363 0.066380
Si Si4 0.776959 0.620981 0.515757
Si Si5 0.481247 0.555341 0.115681
Si Si6 0.974440 0.771386 0.864690
Si Si7 0.194843 0.827706 0.238905
Si Si8 0.939273 0.655120 0.293970
O O1 0.402021 0.604245 0.699501
O O2 0.382310 0.543876 0.451561
O O3 0.584636 0.670780 0.591589
O O4 0.648430 0.044919 0.227915
O O5 0.500000 0.000000 0.500000
O O6 0.578431 0.368289 0.014575
O O7 0.795934 0.549655 0.042166
O O8 0.252376 0.579148 0.230030
O O9 0.055375 0.398843 0.134022
O O10 0.166570 0.722801 0.144416
O O11 0.879672 0.712085 0.319196
O O12 0.893799 0.904092 0.411442
O O13 0.500000 0.500000 0.000000
O O14 0.647123 0.841829 0.995956
O O15 0.022519 0.799650 0.029806
O O16 0.200150 0.682101 0.468754
O O17 0.068176 0.750927 0.340177
#
# Coordination Sequence:
#
# PCOD9025760 Si02
#       8
#     2   2   2   2   2   2   2   2
#     4  11  23  44  69 101 140 181 228 288 350 408
#     4  11  22  40  71 108 132 177 234 284 341 408
#     4  11  26  43  66 100 145 185 227 278 358 417
#     4  11  24  42  71 103 136 181 237 287 345 406
#     4  10  24  39  67 103 137 172 232 286 335 403
#     4  12  23  41  71 103 135 178 233 294 340 413
#     4  10  23  44  64  98 137 181 228 281 348 410
#     4  10  22  40  71  94 132 182 234 284 336 415
#
# _framework density 25.037355000000002
#
# number of rings (size 3 to 8) (size 9 to 14) (size 15 to 20)
#    0.000    1.250    2.500    2.625    7.000    2.000 
#    0.000    2.500    0.000    0.000    0.000    0.000 
#    0.000    0.000    0.000    0.000    0.000    0.000 
#
# Total GULP energy -89326.285499 kJ/mol
# GULP energy per Si atom -5582.892844 kJ/mol
# Density = 2.498037 g / cm^3
# Si number density = 25.037355 Si / 1000 Ang^3
#
#
#
# Elastic Constant Matrix: (Units=GPa)
#
#
# Indices 1 2 3 4 5 6 
#
# 1 101.0802 36.9815 23.9585 -4.6753 13.3754 -3.2420
# 2 36.9815 115.9259 34.4879 -19.3070 19.3498 -11.8485
# 3 23.9585 34.4879 132.8353 -16.6260 35.0494 8.6539
# 4 -4.6753 -19.3070 -16.6260 37.6795 -4.8640 -1.7347
# 5 13.3754 19.3498 35.0494 -4.8640 37.2244 5.2253
# 6 -3.2420 -11.8485 8.6539 -1.7347 5.2253 29.1622
#
#
#
# Elastic Compliance Matrix: (Units=1/GPa)
#
#
# Indices 1 2 3 4 5 6 
#
# 1 0.011488 -0.003174 -0.000908 -0.000810 -0.001803 0.000532
# 2 -0.003174 0.012159 -0.001238 0.005024 -0.004200 0.006006
# 3 -0.000908 -0.001238 0.010738 0.002799 -0.008480 -0.002105
# 4 -0.000810 0.005024 0.002799 0.030207 -0.001456 0.003178
# 5 -0.001803 -0.004200 -0.008480 -0.001456 0.038382 -0.006355
# 6 0.000532 0.006006 -0.002105 0.003178 -0.006355 0.038743
#
#
# Mechanical properties :
#
#
# Convention : Reuss Voigt Hill
#
# Bulk Modulus (GPa) = 42.11617 60.07744 51.09680
# Shear Modulus (GPa) = 31.19682 37.77413 34.48548
#
# Velocity S-wave (km/s) = 3.53372 3.88843 3.71531
# Velocity P-wave (km/s) = 5.78856 6.64884 6.23356
#
# Compressibility (1/GPa) = 0.02374385
#
# Stress axis : x y z
#
# Youngs Moduli (GPa) = 87.04822 82.24367 93.12410
#
# Poissons Ratio (x) = 0.26105 0.08457
# Poissons Ratio (y) = 0.27630 0.11533
# Poissons Ratio (z) = 0.07905 0.10186
#
# Static dielectric constant tensor:
#      x y z
#    x 2.032900 0.011790 0.062880 
#    y 0.011790 2.020760 0.049150 
#    z 0.062880 0.049150 2.079330 
# 
# From -- ./inp_files/207372.got.cif
#   From: 2010.05.17/outbox.cif.g08.bks.cpg/sg2_104_cif.got.tgz:207372.got - 2010.06.03 11:33:40.
