data_PCOD9025901
_publ_section_title
;
Structure prediction by ZEFSAII (Michael W. Deem and Ramdas Pophale) SiO2 
 PCOD9025901
Probable space group: P -1
;
_chemical_formula_sum "Si O2"
_cell_formula_units_Z 13
_cell_length_a 13.376236
_cell_length_b 8.336213
_cell_length_c 5.483203
_cell_angle_alpha 74.971094
_cell_angle_beta 93.793750
_cell_angle_gamma 125.503578
_cell_volume 477.936561
_symmetry_space_group_name_H-M "P -1"
_symmetry_group_IT_number 2
_symmetry_cell_setting 'triclinic'
loop_
_space_group_symop_operation_xyz
x,y,z
-x,-y,-z
loop_
_atom_site_type_symbol
_atom_site_label
_atom_site_fract_x
_atom_site_fract_y
_atom_site_fract_z
Si Si1 0.121742 0.337156 0.720199
Si Si2 0.758878 0.288574 0.690617
Si Si3 0.676758 0.517502 0.930412
Si Si4 0.550459 0.715649 0.292364
Si Si5 0.500000 0.000000 0.500000
Si Si6 0.924986 0.257648 0.070810
Si Si7 0.803940 0.890625 0.469834
O O1 0.131553 0.525852 0.524544
O O2 0.114817 0.180853 0.593132
O O3 0.259085 0.456018 0.815560
O O4 0.017289 0.226809 0.950439
O O5 0.721684 0.409778 0.807775
O O6 0.641883 0.119441 0.582406
O O7 0.809725 0.195149 0.908235
O O8 0.528517 0.357933 0.943774
O O9 0.734217 0.744798 0.747628
O O10 0.500000 0.500000 0.500000
O O11 0.694883 0.823538 0.285384
O O12 0.521791 0.856496 0.378325
O O13 0.883605 0.134433 0.366611
O O14 0.000000 0.500000 0.000000
#
# Coordination Sequence:
#
# PCOD9025901 Si02
#       7
#     2   2   2   2   1   2   2
#     4  11  23  44  66  92 134 181 214 274 332 387
#     4  10  23  43  66 100 131 170 224 273 330 398
#     4   9  20  43  68  95 133 170 219 275 332 399
#     4   9  20  41  66 102 133 169 222 276 338 398
#     4  10  22  40  74  98 130 176 216 280 344 388
#     4  12  25  43  64  95 135 179 220 271 324 389
#     4  10  24  42  65  96 132 172 228 268 327 399
#
# _framework density 27.200264000000001
#
# number of rings (size 3 to 8) (size 9 to 14) (size 15 to 20)
#    0.000    1.846    1.538    1.846    2.154    4.923 
#    2.769    3.077    0.000    0.000    0.000    0.000 
#    0.000    0.000    0.000    0.000    0.000    0.000 
#
# Total GULP energy -72545.239406 kJ/mol
# GULP energy per Si atom -5580.403031 kJ/mol
# Density = 2.713835 g / cm^3
# Si number density = 27.200264 Si / 1000 Ang^3
#
#
#
# Elastic Constant Matrix: (Units=GPa)
#
#
# Indices 1 2 3 4 5 6 
#
# 1 115.6298 37.7503 12.2797 8.5072 12.7575 -0.5668
# 2 37.7503 156.7823 44.3561 0.4030 14.3842 -8.3876
# 3 12.2797 44.3561 74.2921 -14.8294 19.1904 3.0553
# 4 8.5072 0.4030 -14.8294 41.4678 1.3265 0.8545
# 5 12.7575 14.3842 19.1904 1.3265 38.4877 20.9595
# 6 -0.5668 -8.3876 3.0553 0.8545 20.9595 44.3690
#
#
#
# Elastic Compliance Matrix: (Units=1/GPa)
#
#
# Indices 1 2 3 4 5 6 
#
# 1 0.009792 -0.001981 -0.000081 -0.001946 -0.003078 0.001248
# 2 -0.001981 0.008479 -0.004712 -0.001366 -0.001570 0.002670
# 3 -0.000081 -0.004712 0.020222 0.007561 -0.009738 0.002170
# 4 -0.001946 -0.001366 0.007561 0.027344 -0.003814 0.000471
# 5 -0.003078 -0.001570 -0.009738 -0.003814 0.043560 -0.020169
# 6 0.001248 0.002670 0.002170 0.000471 -0.020169 0.032428
#
#
# Mechanical properties :
#
#
# Convention : Reuss Voigt Hill
#
# Bulk Modulus (GPa) = 40.08534 59.49739 49.79136
# Shear Modulus (GPa) = 30.54619 41.68611 36.11615
#
# Velocity S-wave (km/s) = 3.35477 3.91904 3.64783
# Velocity P-wave (km/s) = 5.45666 6.51152 6.00728
#
# Compressibility (1/GPa) = 0.02494678
#
# Stress axis : x y z
#
# Youngs Moduli (GPa) = 102.12004 117.94405 49.45081
#
# Poissons Ratio (x) = 0.23364 0.00398
# Poissons Ratio (y) = 0.20229 0.23300
# Poissons Ratio (z) = 0.00823 0.55571
#
# Static dielectric constant tensor:
#      x y z
#    x 2.141520 0.031010 0.008620 
#    y 0.031010 2.132250 0.001740 
#    z 0.008620 0.001740 2.103880 
# 
# From -- ./inp_files/25462.got.cif
#   From: 2010.05.17/outbox.cif.g08.bks.cpg/sg2_13_cif.got.tgz:25462.got - 2010.06.03 11:33:40.
