data_PCOD9025500
_publ_section_title
;
Structure prediction by ZEFSAII (Michael W. Deem and Ramdas Pophale) SiO2 
 PCOD9025500
Probable space group: P -1
;
_chemical_formula_sum "Si O2"
_cell_formula_units_Z 14
_cell_length_a 11.066140
_cell_length_b 5.359971
_cell_length_c 16.058117
_cell_angle_alpha 107.192257
_cell_angle_beta 139.900897
_cell_angle_gamma 62.557545
_cell_volume 541.756787
_symmetry_space_group_name_H-M "P -1"
_symmetry_group_IT_number 2
_symmetry_cell_setting 'triclinic'
loop_
_space_group_symop_operation_xyz
x,y,z
-x,-y,-z
loop_
_atom_site_type_symbol
_atom_site_label
_atom_site_fract_x
_atom_site_fract_y
_atom_site_fract_z
Si Si1 0.361873 0.027759 0.249296
Si Si2 0.985369 0.303616 0.552188
Si Si3 0.871647 0.779889 0.007366
Si Si4 0.801502 0.425051 0.215713
Si Si5 0.566577 0.699896 0.959861
Si Si6 0.546357 0.498336 0.400176
Si Si7 0.162198 0.966578 0.291848
O O1 0.232869 0.003055 0.099856
O O2 0.483558 0.232587 0.324789
O O3 0.216850 0.144359 0.265353
O O4 0.494391 0.712136 0.315298
O O5 0.787031 0.409525 0.519201
O O6 0.000000 0.500000 0.500000
O O7 0.169112 0.302684 0.706979
O O8 0.000000 0.000000 0.500000
O O9 0.691895 0.725037 0.951148
O O10 0.000000 0.500000 0.000000
O O11 0.015628 0.841126 0.155541
O O12 0.714111 0.472542 0.080452
O O13 0.021776 0.169651 0.307373
O O14 0.630717 0.363372 0.169341
O O15 0.500000 0.000000 0.000000
O O16 0.381517 0.716006 0.400478
#
# Coordination Sequence:
#
# PCOD9025500 Si02
#       7
#     2   2   2   2   2   2   2
#     4  10  22  40  69 110 153 188 246 308 367 447
#     4  12  30  53  78 108 148 204 261 314 384 454
#     4  12  21  40  72 110 155 202 248 312 377 449
#     4  11  27  49  74 107 151 205 253 320 381 467
#     4  11  26  46  73 110 153 203 251 309 390 454
#     4  10  24  45  70 108 142 191 253 305 370 440
#     4  10  23  42  71 109 152 190 258 299 395 440
#
# _framework density 25.841856
#
# number of rings (size 3 to 8) (size 9 to 14) (size 15 to 20)
#    0.857    0.286    2.857    2.143    4.000    2.857 
#    0.000    0.714    0.000    0.000    0.000    0.000 
#    0.000    0.000    0.000    0.000    0.000    0.000 
#
# Total GULP energy -78342.643310 kJ/mol
# GULP energy per Si atom -5595.903094 kJ/mol
# Density = 2.578304 g / cm^3
# Si number density = 25.841856 Si / 1000 Ang^3
#
#
#
# Elastic Constant Matrix: (Units=GPa)
#
#
# Indices 1 2 3 4 5 6 
#
# 1 128.2452 48.7007 37.3839 4.3777 44.1980 -11.9529
# 2 48.7007 112.7892 41.6661 17.7149 21.9634 15.0608
# 3 37.3839 41.6661 96.6819 20.7885 37.7453 3.2780
# 4 4.3777 17.7149 20.7885 46.5771 10.8470 1.9616
# 5 44.1980 21.9634 37.7453 10.8470 43.0180 4.7264
# 6 -11.9529 15.0608 3.2780 1.9616 4.7264 43.2458
#
#
#
# Elastic Compliance Matrix: (Units=1/GPa)
#
#
# Indices 1 2 3 4 5 6 
#
# 1 0.015871 -0.005916 0.001929 0.003457 -0.016727 0.007972
# 2 -0.005916 0.013536 -0.004377 -0.003436 0.004573 -0.006361
# 3 0.001929 -0.004377 0.017906 -0.003133 -0.014941 0.002475
# 4 0.003457 -0.003436 -0.003133 0.025070 -0.005574 0.001862
# 5 -0.016727 0.004573 -0.014941 -0.005574 0.053788 -0.010709
# 6 0.007972 -0.006361 0.002475 0.001862 -0.010709 0.028441
#
#
# Mechanical properties :
#
#
# Convention : Reuss Voigt Hill
#
# Bulk Modulus (GPa) = 32.69429 65.91308 49.30369
# Shear Modulus (GPa) = 27.54284 40.56590 34.05437
#
# Velocity S-wave (km/s) = 3.26824 3.96634 3.63409
# Velocity P-wave (km/s) = 5.18854 6.82184 6.06046
#
# Compressibility (1/GPa) = 0.03058638
#
# Stress axis : x y z
#
# Youngs Moduli (GPa) = 63.00643 73.87724 55.84614
#
# Poissons Ratio (x) = 0.43706 -0.10774
# Poissons Ratio (y) = 0.37275 0.24443
# Poissons Ratio (z) = -0.12155 0.32335
#
# Static dielectric constant tensor:
#      x y z
#    x 3.032720 -0.582500 0.657110 
#    y -0.582500 2.395070 -0.514020 
#    z 0.657110 -0.514020 2.612930 
# 
# From -- ./inp_files/564254.got.cif
#   From: 2010.05.17/outbox.cif.g08.bks.cpg/sg2_283_cif.got.tgz:564254.got - 2010.06.03 11:33:40.
