data_PCOD9025059
_publ_section_title
;
Structure prediction by ZEFSAII (Michael W. Deem and Ramdas Pophale) SiO2 
 PCOD9025059
Probable space group: P -1
;
_chemical_formula_sum "Si O2"
_cell_formula_units_Z 14
_cell_length_a 4.991477
_cell_length_b 11.783101
_cell_length_c 14.468588
_cell_angle_alpha 125.350917
_cell_angle_beta 114.504385
_cell_angle_gamma 76.062279
_cell_volume 631.556385
_symmetry_space_group_name_H-M "P -1"
_symmetry_group_IT_number 2
_symmetry_cell_setting 'triclinic'
loop_
_space_group_symop_operation_xyz
x,y,z
-x,-y,-z
loop_
_atom_site_type_symbol
_atom_site_label
_atom_site_fract_x
_atom_site_fract_y
_atom_site_fract_z
Si Si1 0.387219 0.420136 0.088521
Si Si2 0.512593 0.236462 0.499807
Si Si3 0.903006 0.142937 0.342432
Si Si4 0.797111 0.293206 0.222753
Si Si5 0.860175 0.610422 0.165812
Si Si6 0.885062 0.090147 0.613152
Si Si7 0.375999 0.467347 0.366015
O O1 0.566962 0.296572 0.106558
O O2 0.618673 0.545441 0.168078
O O3 0.112425 0.491017 0.134787
O O4 0.278458 0.378451 0.951871
O O5 0.642727 0.170896 0.392222
O O6 0.571059 0.143065 0.554569
O O7 0.691294 0.378415 0.606295
O O8 0.164605 0.255432 0.448084
O O9 0.815609 0.160343 0.231087
O O10 0.061507 0.000718 0.330389
O O11 0.647806 0.408617 0.320578
O O12 0.116251 0.354726 0.272316
O O13 0.944871 0.765491 0.279419
O O14 0.000000 0.000000 0.500000
O O15 0.500000 0.500000 0.500000
#
# Coordination Sequence:
#
# PCOD9025059 Si02
#       7
#     2   2   2   2   2   2   2
#     4  10  22  40  67  88 114 154 198 256 295 339
#     4  11  21  35  52  77 111 155 190 231 287 341
#     4  11  22  35  50  78 118 148 187 231 278 360
#     4  12  21  35  55  84 116 150 192 239 300 344
#     4  10  22  43  62  90 117 149 206 249 291 345
#     4  10  23  39  59  85 119 161 196 236 295 354
#     4  12  21  34  54  82 118 151 189 245 293 342
#
# _framework density 22.167459000000001
#
# number of rings (size 3 to 8) (size 9 to 14) (size 15 to 20)
#    0.000    1.143    2.857    4.286    0.000    5.714 
#    0.000    0.714    0.000    0.000    0.000   13.000 
#    0.000    0.000    0.000    0.000    0.000    0.000 
#
# Total GULP energy -78142.459618 kJ/mol
# GULP energy per Si atom -5581.604258 kJ/mol
# Density = 2.211700 g / cm^3
# Si number density = 22.167459 Si / 1000 Ang^3
#
#
#
# Elastic Constant Matrix: (Units=GPa)
#
#
# Indices 1 2 3 4 5 6 
#
# 1 77.5044 5.9203 3.3250 -5.1476 9.1752 3.6961
# 2 5.9203 175.7275 27.8809 -36.2115 10.9930 1.5976
# 3 3.3250 27.8809 52.4004 -14.5290 8.4035 -0.6811
# 4 -5.1476 -36.2115 -14.5290 39.9652 -2.2930 5.6671
# 5 9.1752 10.9930 8.4035 -2.2930 20.5284 -6.2664
# 6 3.6961 1.5976 -0.6811 5.6671 -6.2664 26.7817
#
#
#
# Elastic Compliance Matrix: (Units=1/GPa)
#
#
# Indices 1 2 3 4 5 6 
#
# 1 0.014165 0.000496 0.000818 0.002739 -0.007971 -0.004408
# 2 0.000496 0.007529 -0.001692 0.006454 -0.003692 -0.002790
# 3 0.000818 -0.001692 0.023283 0.006942 -0.009139 -0.003027
# 4 0.002739 0.006454 0.006942 0.034713 -0.006532 -0.009460
# 5 -0.007971 -0.003692 -0.009139 -0.006532 0.062481 0.017089
# 6 -0.004408 -0.002790 -0.003027 -0.009460 0.017089 0.044037
#
#
# Mechanical properties :
#
#
# Convention : Reuss Voigt Hill
#
# Bulk Modulus (GPa) = 22.61369 42.20942 32.41155
# Shear Modulus (GPa) = 24.78880 35.35549 30.07214
#
# Velocity S-wave (km/s) = 3.34765 3.99799 3.68719
# Velocity P-wave (km/s) = 5.01656 6.35566 5.72539
#
# Compressibility (1/GPa) = 0.04422100
#
# Stress axis : x y z
#
# Youngs Moduli (GPa) = 70.59475 132.82615 42.94949
#
# Poissons Ratio (x) = -0.06591 -0.03512
# Poissons Ratio (y) = -0.03503 0.07267
# Poissons Ratio (z) = -0.05772 0.22474
#
# Static dielectric constant tensor:
#      x y z
#    x 1.799640 0.000540 0.028170 
#    y 0.000540 2.023680 -0.067270 
#    z 0.028170 -0.067270 1.825530 
# 
# From -- ./inp_files/119207.got.cif
#   From: 2010.05.17/outbox.cif.g08.bks.cpg/sg2_60_cif.got.tgz:119207.got - 2010.06.03 11:33:40.
