data_PCOD9025015
_publ_section_title
;
Structure prediction by ZEFSAII (Michael W. Deem and Ramdas Pophale) SiO2 
 PCOD9025015
Probable space group: P -1
;
_chemical_formula_sum "Si O2"
_cell_formula_units_Z 14
_cell_length_a 15.760702
_cell_length_b 9.625607
_cell_length_c 13.871719
_cell_angle_alpha 45.603281
_cell_angle_beta 153.029902
_cell_angle_gamma 145.712712
_cell_volume 532.071456
_symmetry_space_group_name_H-M "P -1"
_symmetry_group_IT_number 2
_symmetry_cell_setting 'triclinic'
loop_
_space_group_symop_operation_xyz
x,y,z
-x,-y,-z
loop_
_atom_site_type_symbol
_atom_site_label
_atom_site_fract_x
_atom_site_fract_y
_atom_site_fract_z
Si Si1 0.759467 0.371255 0.119374
Si Si2 0.992975 0.813142 0.899546
Si Si3 0.395264 0.822612 0.386987
Si Si4 0.505206 0.446490 0.659041
Si Si5 0.127749 0.832492 0.384725
Si Si6 0.631370 0.753877 0.074138
Si Si7 0.074851 0.877978 0.522532
O O1 0.812950 0.179755 0.252090
O O2 0.008373 0.613472 0.294429
O O3 0.656727 0.438929 0.900266
O O4 0.574008 0.264088 0.071757
O O5 0.711419 0.570667 0.722610
O O6 0.180074 0.990521 0.918033
O O7 0.136990 0.741242 0.138038
O O8 0.955483 0.005089 0.813134
O O9 0.425352 0.610944 0.528616
O O10 0.500000 0.000000 0.500000
O O11 0.588002 0.000537 0.412782
O O12 0.267070 0.164014 0.547595
O O13 0.040847 0.749738 0.446091
O O14 0.807320 0.773251 0.323245
O O15 0.500000 0.500000 0.000000
#
# Coordination Sequence:
#
# PCOD9025015 Si02
#       7
#     2   2   2   2   2   2   2
#     4  12  23  42  70 100 138 178 229 279 338 396
#     4  10  22  43  66  95 136 171 223 279 335 393
#     4  11  23  39  69  98 135 181 226 277 341 396
#     4  11  27  45  65 104 142 179 223 278 341 414
#     4  10  22  40  67 101 127 175 233 279 326 406
#     4  11  24  42  69 103 133 171 235 282 324 405
#     4  11  25  44  69  98 141 181 223 280 345 396
#
# _framework density 26.312252999999998
#
# number of rings (size 3 to 8) (size 9 to 14) (size 15 to 20)
#    0.000    1.143    2.857    3.429    2.000   10.286 
#    0.000    4.286    0.000    0.000    0.000    0.000 
#    0.000    0.000    0.000    0.000    0.000    0.000 
#
# Total GULP energy -78323.545428 kJ/mol
# GULP energy per Si atom -5594.538959 kJ/mol
# Density = 2.625236 g / cm^3
# Si number density = 26.312253 Si / 1000 Ang^3
#
#
#
# Elastic Constant Matrix: (Units=GPa)
#
#
# Indices 1 2 3 4 5 6 
#
# 1 58.9364 24.1288 21.3313 -2.6659 13.7159 5.4769
# 2 24.1288 104.1937 63.4923 2.1510 -0.6719 3.5101
# 3 21.3313 63.4923 205.6888 -10.0887 35.8451 3.7071
# 4 -2.6659 2.1510 -10.0887 55.1673 9.3377 6.8352
# 5 13.7159 -0.6719 35.8451 9.3377 42.9131 7.2099
# 6 5.4769 3.5101 3.7071 6.8352 7.2099 34.5569
#
#
#
# Elastic Compliance Matrix: (Units=1/GPa)
#
#
# Indices 1 2 3 4 5 6 
#
# 1 0.021057 -0.005637 0.001158 0.003051 -0.008149 -0.001792
# 2 -0.005637 0.014179 -0.005154 -0.002857 0.007104 -0.000911
# 3 0.001158 -0.005154 0.007808 0.002922 -0.007698 0.000530
# 4 0.003051 -0.002857 0.002922 0.020551 -0.007424 -0.003023
# 5 -0.008149 0.007104 -0.007698 -0.007424 0.034803 -0.004397
# 6 -0.001792 -0.000911 0.000530 -0.003023 -0.004397 0.030773
#
#
# Mechanical properties :
#
#
# Convention : Reuss Voigt Hill
#
# Bulk Modulus (GPa) = 42.05529 65.19152 53.62341
# Shear Modulus (GPa) = 31.97710 43.85189 37.91450
#
# Velocity S-wave (km/s) = 3.48989 4.08683 3.80010
# Velocity P-wave (km/s) = 5.67952 6.86290 6.29906
#
# Compressibility (1/GPa) = 0.02377822
#
# Stress axis : x y z
#
# Youngs Moduli (GPa) = 47.48991 70.52657 128.07902
#
# Poissons Ratio (x) = 0.39758 -0.14837
# Poissons Ratio (y) = 0.26772 0.66010
# Poissons Ratio (z) = -0.05501 0.36348
#
# Static dielectric constant tensor:
#      x y z
#    x 2.068680 0.033720 -0.056970 
#    y 0.033720 2.115590 -0.064400 
#    z -0.056970 -0.064400 2.060590 
# 
# From -- ./inp_files/577963.got.cif
#   From: 2010.05.17/outbox.cif.g08.bks.cpg/sg2_289_cif.got.tgz:577963.got - 2010.06.03 11:33:40.
