data_PCOD9025629
_publ_section_title
;
Structure prediction by ZEFSAII (Michael W. Deem and Ramdas Pophale) SiO2 
 PCOD9025629
Probable space group: P -1
;
_chemical_formula_sum "Si O2"
_cell_formula_units_Z 14
_cell_length_a 9.126158
_cell_length_b 18.742226
_cell_length_c 8.315584
_cell_angle_alpha 112.974766
_cell_angle_beta 66.089154
_cell_angle_gamma 151.457800
_cell_volume 619.359758
_symmetry_space_group_name_H-M "P -1"
_symmetry_group_IT_number 2
_symmetry_cell_setting 'triclinic'
loop_
_space_group_symop_operation_xyz
x,y,z
-x,-y,-z
loop_
_atom_site_type_symbol
_atom_site_label
_atom_site_fract_x
_atom_site_fract_y
_atom_site_fract_z
Si Si1 0.403937 0.913300 0.123521
Si Si2 0.386801 0.608911 0.542199
Si Si3 0.875447 0.202205 0.345179
Si Si4 0.550269 0.652783 0.851041
Si Si5 0.194003 0.353714 0.687781
Si Si6 0.676766 0.280102 0.558076
Si Si7 0.642012 0.855768 0.092034
O O1 0.481980 0.854067 0.048031
O O2 0.042007 0.774831 0.190235
O O3 0.588248 0.026615 0.292104
O O4 0.500000 0.000000 0.000000
O O5 0.575812 0.697970 0.699671
O O6 0.502638 0.573899 0.394378
O O7 0.461353 0.707621 0.473115
O O8 0.020365 0.453818 0.606681
O O9 0.758122 0.238325 0.378822
O O10 0.143178 0.270233 0.184098
O O11 0.020722 0.275404 0.523149
O O12 0.283411 0.478230 0.802000
O O13 0.512349 0.713934 0.023359
O O14 0.453167 0.161318 0.697910
O O15 0.000000 0.000000 0.000000
#
# Coordination Sequence:
#
# PCOD9025629 Si02
#       7
#     2   2   2   2   2   2   2
#     4  12  28  44  67 100 143 183 227 277 349 410
#     4  10  22  40  70 104 131 168 238 290 320 405
#     4  11  21  46  68  95 134 183 222 277 338 410
#     4  11  22  45  73 100 137 178 230 281 346 400
#     4  11  22  45  72 101 134 182 235 275 342 406
#     4  11  23  42  68 102 136 177 230 277 346 390
#     4  12  27  46  65  99 145 183 220 280 352 407
#
# _framework density 22.603987
#
# number of rings (size 3 to 8) (size 9 to 14) (size 15 to 20)
#    0.000    0.857    5.714    1.286    4.000    2.286 
#    2.571    2.857    0.000    0.000    0.000    0.000 
#    0.000    0.000    0.000    0.000    0.000    0.000 
#
# Total GULP energy -78140.693721 kJ/mol
# GULP energy per Si atom -5581.478123 kJ/mol
# Density = 2.255254 g / cm^3
# Si number density = 22.603987 Si / 1000 Ang^3
#
#
#
# Elastic Constant Matrix: (Units=GPa)
#
#
# Indices 1 2 3 4 5 6 
#
# 1 96.9129 30.4299 31.4852 -6.1196 -3.3101 -20.0950
# 2 30.4299 101.3552 34.8833 -14.6162 4.1376 -5.7556
# 3 31.4852 34.8833 52.1114 -0.7247 -11.8895 -7.4401
# 4 -6.1196 -14.6162 -0.7247 49.3830 -16.9392 -4.9431
# 5 -3.3101 4.1376 -11.8895 -16.9392 24.7517 -2.1523
# 6 -20.0950 -5.7556 -7.4401 -4.9431 -2.1523 33.6384
#
#
#
# Elastic Compliance Matrix: (Units=1/GPa)
#
#
# Indices 1 2 3 4 5 6 
#
# 1 0.014638 -0.001453 -0.006404 0.002576 0.001544 0.007556
# 2 -0.001453 0.014281 -0.010273 0.001572 -0.006517 -0.000882
# 3 -0.006404 -0.010273 0.035464 0.004417 0.021290 0.004272
# 4 0.002576 0.001572 0.004417 0.030037 0.023516 0.008703
# 5 0.001544 -0.006517 0.021290 0.023516 0.069096 0.012393
# 6 0.007556 -0.000882 0.004272 0.008703 0.012393 0.037108
#
#
# Mechanical properties :
#
#
# Convention : Reuss Voigt Hill
#
# Bulk Modulus (GPa) = 35.55817 49.33068 42.44443
# Shear Modulus (GPa) = 20.30400 31.79334 26.04867
#
# Velocity S-wave (km/s) = 3.00033 3.75445 3.39837
# Velocity P-wave (km/s) = 5.26951 6.37697 5.84951
#
# Compressibility (1/GPa) = 0.02812293
#
# Stress axis : x y z
#
# Youngs Moduli (GPa) = 68.31689 70.02488 28.19736
#
# Poissons Ratio (x) = 0.10174 0.18059
# Poissons Ratio (y) = 0.09926 0.28966
# Poissons Ratio (z) = 0.43753 0.71933
#
# Static dielectric constant tensor:
#      x y z
#    x 1.841570 0.008180 -0.019400 
#    y 0.008180 1.850150 0.028240 
#    z -0.019400 0.028240 1.857200 
# 
# From -- ./inp_files/159286.got.cif
#   From: 2010.05.17/outbox.cif.g08.bks.cpg/sg2_80_cif.got.tgz:159286.got - 2010.06.03 11:33:40.
