data_PCOD9025170
_publ_section_title
;
Structure prediction by ZEFSAII (Michael W. Deem and Ramdas Pophale) SiO2 
 PCOD9025170
Probable space group: P -1
;
_chemical_formula_sum "Si O2"
_cell_formula_units_Z 16
_cell_length_a 10.985184
_cell_length_b 8.696304
_cell_length_c 9.291277
_cell_angle_alpha 47.872719
_cell_angle_beta 89.563435
_cell_angle_gamma 87.165363
_cell_volume 657.097798
_symmetry_space_group_name_H-M "P -1"
_symmetry_group_IT_number 2
_symmetry_cell_setting 'triclinic'
loop_
_space_group_symop_operation_xyz
x,y,z
-x,-y,-z
loop_
_atom_site_type_symbol
_atom_site_label
_atom_site_fract_x
_atom_site_fract_y
_atom_site_fract_z
Si Si1 0.364688 0.912883 0.564981
Si Si2 0.164566 0.178304 0.901368
Si Si3 0.621571 0.048404 0.126425
Si Si4 0.082892 0.736118 0.289835
Si Si5 0.288227 0.525431 0.237668
Si Si6 0.500112 0.297484 0.530275
Si Si7 0.143937 0.487990 0.966428
Si Si8 0.879298 0.122196 0.479601
O O1 0.390261 0.720371 0.573900
O O2 0.239155 0.014512 0.436866
O O3 0.500000 0.000000 0.500000
O O4 0.346742 0.890852 0.748539
O O5 0.283815 0.120735 0.842031
O O6 0.178664 0.303078 0.970523
O O7 0.054900 0.294522 0.739170
O O8 0.119437 0.952670 0.082819
O O9 0.503612 0.912937 0.240970
O O10 0.632684 0.267997 0.907754
O O11 0.180610 0.571277 0.324519
O O12 0.095185 0.776900 0.431749
O O13 0.376518 0.338234 0.412151
O O14 0.224629 0.489109 0.108422
O O15 0.500000 0.500000 0.500000
O O16 0.155865 0.696926 0.745432
O O17 0.000000 0.500000 0.000000
O O18 0.000000 0.000000 0.500000
#
# Coordination Sequence:
#
# PCOD9025170 Si02
#       8
#     2   2   2   2   2   2   2   2
#     4  10  23  46  69 101 146 186 245 301 365 444
#     4  10  22  40  67  96 144 182 235 302 354 440
#     4  10  23  44  69 100 141 192 236 296 372 433
#     4  10  22  41  66  98 140 185 235 293 367 424
#     4  11  24  46  70 103 148 186 242 305 365 437
#     4  11  26  45  74 102 142 188 251 304 361 436
#     4  12  25  43  67 108 146 185 246 303 368 441
#     4  12  25  42  75 105 142 189 242 302 373 440
#
# _framework density 24.349497
#
# number of rings (size 3 to 8) (size 9 to 14) (size 15 to 20)
#    0.000    1.250    2.500    2.250    5.250    6.500 
#    0.000    2.500    0.000    0.000    0.000    0.000 
#    0.000    0.000    0.000    0.000    0.000    0.000 
#
# Total GULP energy -89426.818723 kJ/mol
# GULP energy per Si atom -5589.176170 kJ/mol
# Density = 2.429408 g / cm^3
# Si number density = 24.349497 Si / 1000 Ang^3
#
#
#
# Elastic Constant Matrix: (Units=GPa)
#
#
# Indices 1 2 3 4 5 6 
#
# 1 104.8496 56.2136 36.4704 17.2695 12.1194 -7.4212
# 2 56.2136 119.9405 8.7428 42.0063 -4.7425 -31.0643
# 3 36.4704 8.7428 77.3266 13.7726 -5.1347 -7.1204
# 4 17.2695 42.0063 13.7726 51.8341 4.4300 4.0127
# 5 12.1194 -4.7425 -5.1347 4.4300 32.8360 6.0409
# 6 -7.4212 -31.0643 -7.1204 4.0127 6.0409 49.1967
#
#
#
# Elastic Compliance Matrix: (Units=1/GPa)
#
#
# Indices 1 2 3 4 5 6 
#
# 1 0.020145 -0.013973 -0.010878 0.008974 -0.011128 -0.006724
# 2 -0.013973 0.026328 0.009618 -0.021388 0.010335 0.016384
# 3 -0.010878 0.009618 0.020139 -0.010819 0.008695 0.007162
# 4 0.008974 -0.021388 -0.010819 0.038608 -0.010435 -0.015585
# 5 -0.011128 0.010335 0.008695 -0.010435 0.038410 0.002241
# 6 -0.006724 0.016384 0.007162 -0.015585 0.002241 0.031690
#
#
# Mechanical properties :
#
#
# Convention : Reuss Voigt Hill
#
# Bulk Modulus (GPa) = 27.66566 56.10780 41.88673
# Shear Modulus (GPa) = 22.95328 40.15270 31.55299
#
# Velocity S-wave (km/s) = 3.07361 4.06521 3.60368
# Velocity P-wave (km/s) = 4.89721 6.71769 5.87835
#
# Compressibility (1/GPa) = 0.03614589
#
# Stress axis : x y z
#
# Youngs Moduli (GPa) = 49.64062 37.98254 49.65516
#
# Poissons Ratio (x) = 0.53073 0.54014
# Poissons Ratio (y) = 0.69363 -0.47758
# Poissons Ratio (z) = 0.53998 -0.36531
#
# Static dielectric constant tensor:
#      x y z
#    x 2.765920 0.306940 -0.594840 
#    y 0.306940 2.043340 -0.189390 
#    z -0.594840 -0.189390 2.323460 
# 
# From -- ./inp_files/242060.got.cif
#   From: 2010.05.17/outbox.cif.g08.bks.cpg/sg2_122_cif.got.tgz:242060.got - 2010.06.03 11:33:40.
