data_PCOD9025961
_publ_section_title
;
Structure prediction by ZEFSAII (Michael W. Deem and Ramdas Pophale) SiO2 
 PCOD9025961
Probable space group: P -1
;
_chemical_formula_sum "Si O2"
_cell_formula_units_Z 12
_cell_length_a 5.304826
_cell_length_b 6.610138
_cell_length_c 14.048655
_cell_angle_alpha 80.634959
_cell_angle_beta 101.764443
_cell_angle_gamma 81.268399
_cell_volume 467.041777
_symmetry_space_group_name_H-M "P -1"
_symmetry_group_IT_number 2
_symmetry_cell_setting 'triclinic'
loop_
_space_group_symop_operation_xyz
x,y,z
-x,-y,-z
loop_
_atom_site_type_symbol
_atom_site_label
_atom_site_fract_x
_atom_site_fract_y
_atom_site_fract_z
Si Si1 0.708660 0.105706 0.562430
Si Si2 0.072277 0.385671 0.150302
Si Si3 0.998295 0.841901 0.097535
Si Si4 0.616990 0.122657 0.175356
Si Si5 0.819046 0.234677 0.357987
Si Si6 0.391510 0.620249 0.282719
O O1 0.825024 0.216804 0.473996
O O2 0.628791 0.277709 0.623735
O O3 0.500000 0.000000 0.500000
O O4 0.904341 0.908376 0.636429
O O5 0.322464 0.244238 0.129658
O O6 0.193509 0.462956 0.252990
O O7 0.826767 0.274152 0.154362
O O8 0.012484 0.388644 0.921118
O O9 0.267644 0.802924 0.184495
O O10 0.749465 0.924156 0.139647
O O11 0.000000 0.000000 0.000000
O O12 0.643975 0.097754 0.293624
O O13 0.676634 0.472697 0.305496
#
# Coordination Sequence:
#
# PCOD9025961 Si02
#       6
#     2   2   2   2   2   2
#     4  11  23  39  65  94 130 177 229 277 344 411
#     4   9  24  43  70 100 136 184 228 284 349 400
#     4  10  23  44  72 104 137 182 233 284 348 413
#     4  11  22  46  71  96 143 181 227 289 343 413
#     4  10  22  41  59  97 127 176 223 275 342 400
#     4   9  21  43  60  96 135 171 226 283 333 408
#
# _framework density 25.693636000000001
#
# number of rings (size 3 to 8) (size 9 to 14) (size 15 to 20)
#    1.000    1.000    1.667    0.500    4.667    3.333 
#   18.000    1.667    0.000    0.000    0.000    0.000 
#    0.000    0.000    0.000    0.000    0.000    0.000 
#
# Total GULP energy -66933.404130 kJ/mol
# GULP energy per Si atom -5577.783678 kJ/mol
# Density = 2.563516 g / cm^3
# Si number density = 25.693636 Si / 1000 Ang^3
#
#
#
# Elastic Constant Matrix: (Units=GPa)
#
#
# Indices 1 2 3 4 5 6 
#
# 1 120.2918 70.2071 21.5574 -4.9704 3.2673 -31.5393
# 2 70.2071 202.3393 60.7356 2.6898 -4.6866 -57.2995
# 3 21.5574 60.7356 122.8517 -0.0041 5.3502 -28.3850
# 4 -4.9704 2.6898 -0.0041 57.6566 1.6207 -6.8281
# 5 3.2673 -4.6866 5.3502 1.6207 26.5545 5.1992
# 6 -31.5393 -57.2995 -28.3850 -6.8281 5.1992 51.5774
#
#
#
# Elastic Compliance Matrix: (Units=1/GPa)
#
#
# Indices 1 2 3 4 5 6 
#
# 1 0.011232 -0.002899 0.000641 0.001725 -0.003015 0.004533
# 2 -0.002899 0.008415 -0.002258 0.000066 0.001072 0.006234
# 3 0.000641 -0.002258 0.010197 0.000720 -0.003345 0.003928
# 4 0.001725 0.000066 0.000720 0.018044 -0.002258 0.004141
# 5 -0.003015 0.001072 -0.003345 -0.002258 0.040374 -0.006862
# 6 0.004533 0.006234 0.003928 0.004141 -0.006862 0.032488
#
#
# Mechanical properties :
#
#
# Convention : Reuss Voigt Hill
#
# Bulk Modulus (GPa) = 48.04832 83.38701 65.71767
# Shear Modulus (GPa) = 36.57173 46.68988 41.63080
#
# Velocity S-wave (km/s) = 3.77686 4.26746 4.02963
# Velocity P-wave (km/s) = 6.14497 7.53700 6.87630
#
# Compressibility (1/GPa) = 0.02081238
#
# Stress axis : x y z
#
# Youngs Moduli (GPa) = 89.03371 118.83424 98.06893
#
# Poissons Ratio (x) = 0.34445 -0.06285
# Poissons Ratio (y) = 0.25807 0.22143
# Poissons Ratio (z) = -0.05706 0.26832
#
# Static dielectric constant tensor:
#      x y z
#    x 2.144610 0.105010 -0.035380 
#    y 0.105010 2.043120 0.002300 
#    z -0.035380 0.002300 2.149150 
# 
# From -- ./inp_files/479860.got.cif
#   From: 2010.05.17/outbox.cif.g08.bks.cpg/sg2_240_cif.got.tgz:479860.got - 2010.06.03 11:33:40.
