data_PCOD9025706
_publ_section_title
;
Structure prediction by ZEFSAII (Michael W. Deem and Ramdas Pophale) SiO2 
 PCOD9025706
Probable space group: P -1
;
_chemical_formula_sum "Si O2"
_cell_formula_units_Z 14
_cell_length_a 7.743707
_cell_length_b 11.051881
_cell_length_c 8.617065
_cell_angle_alpha 102.170199
_cell_angle_beta 54.630697
_cell_angle_gamma 115.988898
_cell_volume 539.627314
_symmetry_space_group_name_H-M "P -1"
_symmetry_group_IT_number 2
_symmetry_cell_setting 'triclinic'
loop_
_space_group_symop_operation_xyz
x,y,z
-x,-y,-z
loop_
_atom_site_type_symbol
_atom_site_label
_atom_site_fract_x
_atom_site_fract_y
_atom_site_fract_z
Si Si1 0.610840 0.149421 0.265684
Si Si2 0.837352 0.007662 0.340636
Si Si3 0.455070 0.350130 0.520684
Si Si4 0.780150 0.542274 0.854287
Si Si5 0.407199 0.735301 0.999698
Si Si6 0.257199 0.226424 0.890978
Si Si7 0.171518 0.281788 0.387323
O O1 0.739598 0.078163 0.280070
O O2 0.646886 0.297451 0.349803
O O3 0.643266 0.164796 0.066925
O O4 0.349377 0.066597 0.447973
O O5 0.029156 0.133033 0.358353
O O6 0.886096 0.900609 0.176901
O O7 0.500000 0.500000 0.500000
O O8 0.440758 0.322889 0.701326
O O9 0.198574 0.280587 0.556159
O O10 0.793065 0.403488 0.869731
O O11 0.864798 0.679322 0.952020
O O12 0.500000 0.500000 0.000000
O O13 0.876459 0.603679 0.651159
O O14 0.566991 0.687766 0.792346
O O15 0.584683 0.804366 0.068275
#
# Coordination Sequence:
#
# PCOD9025706 Si02
#       7
#     2   2   2   2   2   2   2
#     4   9  20  34  50  67 102 133 158 200 240 290
#     4  10  20  34  46  71 101 135 163 188 246 291
#     4  10  17  31  55  75  88 124 169 202 240 284
#     4   8  15  30  49  74  95 118 159 207 243 269
#     4   9  17  32  52  74  94 125 164 207 244 273
#     4   9  17  27  49  73  97 123 160 201 233 291
#     4   9  18  31  51  72 100 126 158 204 239 286
#
# _framework density 25.943829000000001
#
# number of rings (size 3 to 8) (size 9 to 14) (size 15 to 20)
#    0.000    3.143    0.000    3.429    0.000    8.000 
#    0.000    1.429    0.000    0.000    0.000    0.000 
#    0.000    0.000    0.000    0.000    0.000    0.000 
#
# Total GULP energy -77934.731315 kJ/mol
# GULP energy per Si atom -5566.766523 kJ/mol
# Density = 2.588478 g / cm^3
# Si number density = 25.943829 Si / 1000 Ang^3
#
#
#
# Elastic Constant Matrix: (Units=GPa)
#
#
# Indices 1 2 3 4 5 6 
#
# 1 80.8774 42.9408 50.9537 -1.0649 31.6242 -18.5227
# 2 42.9408 139.0478 30.0610 -3.9756 13.7129 -0.8323
# 3 50.9537 30.0610 101.9670 -5.8001 45.1891 -4.8909
# 4 -1.0649 -3.9756 -5.8001 32.2988 -6.8191 12.3832
# 5 31.6242 13.7129 45.1891 -6.8191 47.8279 -3.1291
# 6 -18.5227 -0.8323 -4.8909 12.3832 -3.1291 26.2359
#
#
#
# Elastic Compliance Matrix: (Units=1/GPa)
#
#
# Indices 1 2 3 4 5 6 
#
# 1 0.031156 -0.006998 -0.008091 -0.013320 -0.011199 0.025217
# 2 -0.006998 0.009269 -0.000429 0.003735 0.002503 -0.006191
# 3 -0.008091 -0.000429 0.019695 0.002240 -0.013123 -0.004676
# 4 -0.013320 0.003735 0.002240 0.044506 0.010090 -0.028671
# 5 -0.011199 0.002503 -0.013123 0.010090 0.040767 -0.010174
# 6 0.025217 -0.006191 -0.004676 -0.028671 -0.010174 0.067170
#
#
# Mechanical properties :
#
#
# Convention : Reuss Voigt Hill
#
# Bulk Modulus (GPa) = 34.38294 63.31147 48.84721
# Shear Modulus (GPa) = 19.73990 34.46828 27.10409
#
# Velocity S-wave (km/s) = 2.76138 3.64891 3.23572
# Velocity P-wave (km/s) = 4.84237 6.49685 5.72964
#
# Compressibility (1/GPa) = 0.02908419
#
# Stress axis : x y z
#
# Youngs Moduli (GPa) = 32.09659 107.89162 50.77340
#
# Poissons Ratio (x) = 0.75501 0.41080
# Poissons Ratio (y) = 0.22461 0.02179
# Poissons Ratio (z) = 0.25969 0.04630
#
# Static dielectric constant tensor:
#      x y z
#    x 2.162560 0.030150 0.071890 
#    y 0.030150 2.249300 -0.016170 
#    z 0.071890 -0.016170 2.133120 
# 
# From -- ./inp_files/187510.got.cif
#   From: 2010.05.17/outbox.cif.g08.bks.cpg/sg2_94_cif.got.tgz:187510.got - 2010.06.03 11:33:40.
