data_PCOD9025610
_publ_section_title
;
Structure prediction by ZEFSAII (Michael W. Deem and Ramdas Pophale) SiO2 
 PCOD9025610
Probable space group: P -1
;
_chemical_formula_sum "Si O2"
_cell_formula_units_Z 14
_cell_length_a 5.361081
_cell_length_b 13.002725
_cell_length_c 14.178852
_cell_angle_alpha 138.046574
_cell_angle_beta 102.287790
_cell_angle_gamma 59.011069
_cell_volume 540.931129
_symmetry_space_group_name_H-M "P -1"
_symmetry_group_IT_number 2
_symmetry_cell_setting 'triclinic'
loop_
_space_group_symop_operation_xyz
x,y,z
-x,-y,-z
loop_
_atom_site_type_symbol
_atom_site_label
_atom_site_fract_x
_atom_site_fract_y
_atom_site_fract_z
Si Si1 0.952738 0.188622 0.159621
Si Si2 0.213772 0.312337 0.515448
Si Si3 0.349621 0.879634 0.413995
Si Si4 0.088247 0.650805 0.115265
Si Si5 0.619374 0.679295 0.672242
Si Si6 0.427462 0.907356 0.235331
Si Si7 0.606378 0.373165 0.074731
O O1 0.710289 0.251982 0.267875
O O2 0.781367 0.330036 0.156055
O O3 0.254354 0.189196 0.205850
O O4 0.000000 0.000000 0.000000
O O5 0.422645 0.271736 0.595757
O O6 0.355661 0.342689 0.453521
O O7 0.871686 0.487664 0.610936
O O8 0.222371 0.125275 0.370779
O O9 0.357106 0.827938 0.268707
O O10 0.500000 0.000000 0.500000
O O11 0.000000 0.000000 0.500000
O O12 0.293017 0.570720 0.171927
O O13 0.776100 0.846363 0.231561
O O14 0.219058 0.630972 0.007789
O O15 0.000000 0.500000 0.000000
O O16 0.420498 0.801378 0.070823
#
# Coordination Sequence:
#
# PCOD9025610 Si02
#       7
#     2   2   2   2   2   2   2
#     4  12  28  47  76 105 142 189 247 292 359 422
#     4  10  25  48  72 101 148 188 242 295 356 422
#     4  10  24  41  66 104 136 182 233 285 350 422
#     4   9  21  39  61 100 136 181 228 282 361 414
#     4  11  28  48  72 106 142 195 241 299 348 423
#     4  10  22  40  70 101 140 183 233 288 366 430
#     4  10  23  40  71  99 144 182 231 299 356 422
#
# _framework density 25.881295999999999
#
# number of rings (size 3 to 8) (size 9 to 14) (size 15 to 20)
#    0.000    1.714    0.000    1.286   12.000    9.143 
#    0.000    0.000    0.000    0.000    0.000    0.000 
#    0.000    0.000    0.000    0.000    0.000    0.000 
#
# Total GULP energy -78342.723115 kJ/mol
# GULP energy per Si atom -5595.908794 kJ/mol
# Density = 2.582239 g / cm^3
# Si number density = 25.881296 Si / 1000 Ang^3
#
#
#
# Elastic Constant Matrix: (Units=GPa)
#
#
# Indices 1 2 3 4 5 6 
#
# 1 87.7155 27.3601 14.8926 -10.4037 3.2618 -4.2381
# 2 27.3601 143.3119 6.3433 -6.2342 0.4915 -12.5331
# 3 14.8926 6.3433 58.8273 16.7893 1.8286 -3.1736
# 4 -10.4037 -6.2342 16.7893 60.7492 5.3144 11.8101
# 5 3.2618 0.4915 1.8286 5.3144 47.0044 0.4381
# 6 -4.2381 -12.5331 -3.1736 11.8101 0.4381 24.9207
#
#
#
# Elastic Compliance Matrix: (Units=1/GPa)
#
#
# Indices 1 2 3 4 5 6 
#
# 1 0.013210 -0.002277 -0.004109 0.003465 -0.001115 -0.001044
# 2 -0.002277 0.007716 0.000031 -0.000323 0.000079 0.003649
# 3 -0.004109 0.000031 0.020441 -0.007431 0.000279 0.005437
# 4 0.003465 -0.000323 -0.007431 0.021332 -0.002261 -0.010589
# 5 -0.001115 0.000079 0.000279 -0.002261 0.021591 0.000577
# 6 -0.001044 0.003649 0.005437 -0.010589 0.000577 0.047485
#
#
# Mechanical properties :
#
#
# Convention : Reuss Voigt Hill
#
# Bulk Modulus (GPa) = 34.89538 43.00519 38.95028
# Shear Modulus (GPa) = 32.45955 42.61878 37.53916
#
# Velocity S-wave (km/s) = 3.54527 4.06236 3.81259
# Velocity P-wave (km/s) = 5.50188 6.21740 5.87055
#
# Compressibility (1/GPa) = 0.02865709
#
# Stress axis : x y z
#
# Youngs Moduli (GPa) = 75.69803 129.60265 48.92026
#
# Poissons Ratio (x) = 0.29509 0.20103
# Poissons Ratio (y) = 0.17236 -0.00152
# Poissons Ratio (z) = 0.31107 -0.00402
#
# Static dielectric constant tensor:
#      x y z
#    x 2.193650 -0.047460 0.080630 
#    y -0.047460 2.040230 0.016920 
#    z 0.080630 0.016920 2.100190 
# 
# From -- ./inp_files/483027.got.cif
#   From: 2010.05.17/outbox.cif.g08.bks.cpg/sg2_242_cif.got.tgz:483027.got - 2010.06.03 11:33:40.
