data_PCOD9025858
_publ_section_title
;
Structure prediction by ZEFSAII (Michael W. Deem and Ramdas Pophale) SiO2 
 PCOD9025858
Probable space group: P -1
;
_chemical_formula_sum "Si O2"
_cell_formula_units_Z 15
_cell_length_a 8.543048
_cell_length_b 17.968828
_cell_length_c 9.487677
_cell_angle_alpha 61.985246
_cell_angle_beta 30.554285
_cell_angle_gamma 56.967422
_cell_volume 620.711799
_symmetry_space_group_name_H-M "P -1"
_symmetry_group_IT_number 2
_symmetry_cell_setting 'triclinic'
loop_
_space_group_symop_operation_xyz
x,y,z
-x,-y,-z
loop_
_atom_site_type_symbol
_atom_site_label
_atom_site_fract_x
_atom_site_fract_y
_atom_site_fract_z
Si Si1 0.849730 0.101204 0.345931
Si Si2 0.342591 0.135798 0.292541
Si Si3 0.912447 0.472610 0.440549
Si Si4 0.500000 0.000000 0.500000
Si Si5 0.233319 0.293625 0.447331
Si Si6 0.700526 0.091938 0.786832
Si Si7 0.183180 0.546041 0.923720
Si Si8 0.079682 0.720320 0.998748
O O1 0.681317 0.118609 0.615003
O O2 0.925974 0.186375 0.148610
O O3 0.626855 0.067801 0.441194
O O4 0.167239 0.015110 0.203859
O O5 0.349695 0.216208 0.311802
O O6 0.996451 0.121406 0.597033
O O7 0.590849 0.047313 0.244423
O O8 0.407249 0.138797 0.075442
O O9 0.558013 0.527610 0.610318
O O10 0.000000 0.500000 0.500000
O O11 0.952152 0.369634 0.520299
O O12 0.176926 0.491466 0.118493
O O13 0.544382 0.324686 0.208968
O O14 0.120210 0.269157 0.709585
O O15 0.013147 0.649690 0.003766
O O16 0.000000 0.500000 0.000000
#
# Coordination Sequence:
#
# PCOD9025858 Si02
#       8
#     2   2   2   1   2   2   2   2
#     4  10  24  44  72 103 141 193 236 305 359 438
#     4  11  24  43  66 104 135 185 241 294 349 432
#     4  12  23  47  76 101 148 192 245 295 375 443
#     4  10  22  40  72  98 134 182 240 290 350 412
#     4  12  25  42  73 110 137 190 251 305 351 441
#     4  10  25  44  67  97 148 185 232 285 380 426
#     4  12  26  46  74 113 147 192 239 307 379 445
#     4  12  24  43  71 107 145 182 250 308 365 432
#
# _framework density 24.165801999999999
#
# number of rings (size 3 to 8) (size 9 to 14) (size 15 to 20)
#    0.000    0.800    4.000    2.400    1.867    8.000 
#    0.000    1.333    0.000    0.000    0.000    0.000 
#    0.000    0.000    0.000    0.000    0.000    0.000 
#
# Total GULP energy -83655.741350 kJ/mol
# GULP energy per Si atom -5577.049423 kJ/mol
# Density = 2.411080 g / cm^3
# Si number density = 24.165802 Si / 1000 Ang^3
#
#
#
# Elastic Constant Matrix: (Units=GPa)
#
#
# Indices 1 2 3 4 5 6 
#
# 1 73.2825 35.7667 5.5552 -1.2757 10.9948 38.8025
# 2 35.7667 120.6456 38.5725 -17.7765 8.2920 30.3284
# 3 5.5552 38.5725 99.4112 2.8186 22.0386 13.3099
# 4 -1.2757 -17.7765 2.8186 31.9341 -6.2204 0.5291
# 5 10.9948 8.2920 22.0386 -6.2204 46.9035 -1.0243
# 6 38.8025 30.3284 13.3099 0.5291 -1.0243 44.4356
#
#
#
# Elastic Compliance Matrix: (Units=1/GPa)
#
#
# Indices 1 2 3 4 5 6 
#
# 1 0.030065 -0.004111 0.005589 -0.003092 -0.009910 -0.025313
# 2 -0.004111 0.013149 -0.005011 0.008047 0.001975 -0.003934
# 3 0.005589 -0.005011 0.014411 -0.005304 -0.008028 -0.005898
# 4 -0.003092 0.008047 -0.005304 0.037475 0.006732 -0.001495
# 5 -0.009910 0.001975 -0.008028 0.006732 0.028183 0.010279
# 6 -0.025313 -0.003934 -0.005898 -0.001495 0.010279 0.049315
#
#
# Mechanical properties :
#
#
# Convention : Reuss Voigt Hill
#
# Bulk Modulus (GPa) = 19.77966 50.34757 35.06361
# Shear Modulus (GPa) = 25.44309 38.88429 32.16369
#
# Velocity S-wave (km/s) = 3.24829 4.01566 3.65219
# Velocity P-wave (km/s) = 4.71925 6.51001 5.68557
#
# Compressibility (1/GPa) = 0.05055699
#
# Stress axis : x y z
#
# Youngs Moduli (GPa) = 33.26173 76.05418 69.39059
#
# Poissons Ratio (x) = 0.31265 -0.38780
# Poissons Ratio (y) = 0.13673 0.34774
# Poissons Ratio (z) = -0.18589 0.38114
#
# Static dielectric constant tensor:
#      x y z
#    x 1.962640 -0.071530 -0.059300 
#    y -0.071530 2.020000 0.053060 
#    z -0.059300 0.053060 1.893400 
# 
# From -- ./inp_files/216910.got.cif
#   From: 2010.05.17/outbox.cif.g08.bks.cpg/sg2_109_cif.got.tgz:216910.got - 2010.06.03 11:33:40.
