data_PCOD9025104
_publ_section_title
;
Structure prediction by ZEFSAII (Michael W. Deem and Ramdas Pophale) SiO2 
 PCOD9025104
Probable space group: P -1
;
_chemical_formula_sum "Si O2"
_cell_formula_units_Z 16
_cell_length_a 7.745084
_cell_length_b 19.095125
_cell_length_c 12.597281
_cell_angle_alpha 153.542996
_cell_angle_beta 51.380696
_cell_angle_gamma 118.878647
_cell_volume 632.947461
_symmetry_space_group_name_H-M "P -1"
_symmetry_group_IT_number 2
_symmetry_cell_setting 'triclinic'
loop_
_space_group_symop_operation_xyz
x,y,z
-x,-y,-z
loop_
_atom_site_type_symbol
_atom_site_label
_atom_site_fract_x
_atom_site_fract_y
_atom_site_fract_z
Si Si1 0.340991 0.189103 0.834017
Si Si2 0.015260 0.505188 0.627685
Si Si3 0.568986 0.034823 0.336947
Si Si4 0.813047 0.941141 0.654799
Si Si5 0.353098 0.638310 0.322072
Si Si6 0.240359 0.715071 0.096321
Si Si7 0.344984 0.709255 0.807005
Si Si8 0.312322 0.353895 0.595085
O O1 0.398452 0.069229 0.549985
O O2 0.556829 0.268651 0.880797
O O3 0.274703 0.122078 0.882423
O O4 0.145326 0.326123 0.049236
O O5 0.892466 0.386103 0.577542
O O6 0.000000 0.500000 0.500000
O O7 0.258452 0.543897 0.602444
O O8 0.421643 0.027613 0.279700
O O9 0.676317 0.188594 0.488266
O O10 0.808016 0.792417 0.533354
O O11 0.027106 0.860537 0.392401
O O12 0.814344 0.118808 0.937672
O O13 0.505592 0.643510 0.376373
O O14 0.500000 0.500000 0.000000
O O15 0.342561 0.728819 0.960265
O O16 0.176800 0.540209 0.894054
O O17 0.560408 0.690242 0.624120
#
# Coordination Sequence:
#
# PCOD9025104 Si02
#       8
#     2   2   2   2   2   2   2   2
#     4  11  22  40  67  96 132 165 221 265 326 379
#     4  12  24  44  66  96 129 177 215 266 327 398
#     4  10  22  40  67  93 129 169 212 272 321 375
#     4  11  25  42  68  99 131 170 225 268 329 384
#     4  11  21  41  68  91 126 171 222 265 322 380
#     4  12  23  41  68 102 128 173 223 268 320 392
#     4  12  25  43  68  94 137 174 215 265 340 389
#     4  11  24  45  66  95 135 174 213 274 331 389
#
# _framework density 25.278558
#
# number of rings (size 3 to 8) (size 9 to 14) (size 15 to 20)
#    0.000    0.750    5.000    2.250    5.250    0.000 
#    2.250    0.625    0.000    0.000    0.000    0.000 
#    0.000    0.000    0.000    0.000    0.000    0.000 
#
# Total GULP energy -89393.529690 kJ/mol
# GULP energy per Si atom -5587.095606 kJ/mol
# Density = 2.522102 g / cm^3
# Si number density = 25.278558 Si / 1000 Ang^3
#
#
#
# Elastic Constant Matrix: (Units=GPa)
#
#
# Indices 1 2 3 4 5 6 
#
# 1 40.9120 24.6134 -7.4735 -2.8080 7.0599 12.4374
# 2 24.6134 190.0858 42.2759 25.8199 6.6097 9.4193
# 3 -7.4735 42.2759 77.8357 5.6194 -4.6070 7.5610
# 4 -2.8080 25.8199 5.6194 59.5311 -8.8053 1.2170
# 5 7.0599 6.6097 -4.6070 -8.8053 29.0046 4.9224
# 6 12.4374 9.4193 7.5610 1.2170 4.9224 30.2748
#
#
#
# Elastic Compliance Matrix: (Units=1/GPa)
#
#
# Indices 1 2 3 4 5 6 
#
# 1 0.034068 -0.005723 0.007332 0.003312 -0.002480 -0.013776
# 2 -0.005723 0.007516 -0.004690 -0.003479 -0.002412 0.001716
# 3 0.007332 -0.004690 0.016820 0.001437 0.003474 -0.006376
# 4 0.003312 -0.003479 0.001437 0.019340 0.006506 -0.002472
# 5 -0.002480 -0.002412 0.003474 0.006506 0.039129 -0.005722
# 6 -0.013776 0.001716 -0.006376 -0.002472 -0.005722 0.040778
#
#
# Mechanical properties :
#
#
# Convention : Reuss Voigt Hill
#
# Bulk Modulus (GPa) = 19.14154 47.51833 33.32994
# Shear Modulus (GPa) = 27.58934 40.38998 33.98966
#
# Velocity S-wave (km/s) = 3.30724 4.00158 3.67086
# Velocity P-wave (km/s) = 4.70876 6.33947 5.58396
#
# Compressibility (1/GPa) = 0.05224239
#
# Stress axis : x y z
#
# Youngs Moduli (GPa) = 29.35270 133.04278 59.45189
#
# Poissons Ratio (x) = 0.76140 -0.43589
# Poissons Ratio (y) = 0.16798 0.27884
# Poissons Ratio (z) = -0.21521 0.62400
#
# Static dielectric constant tensor:
#      x y z
#    x 1.959660 0.226160 0.315260 
#    y 0.226160 1.678350 -0.401550 
#    z 0.315260 -0.401550 1.372650 
# 
# From -- ./inp_files/262980.got.cif
#   From: 2010.05.17/outbox.cif.g08.bks.cpg/sg2_132_cif.got.tgz:262980.got - 2010.06.03 11:33:40.
