data_PCOD9025278
_publ_section_title
;
Structure prediction by ZEFSAII (Michael W. Deem and Ramdas Pophale) SiO2 
 PCOD9025278
Probable space group: P -1
;
_chemical_formula_sum "Si O2"
_cell_formula_units_Z 14
_cell_length_a 16.913494
_cell_length_b 14.318810
_cell_length_c 5.837955
_cell_angle_alpha 124.349236
_cell_angle_beta 61.367094
_cell_angle_gamma 149.589024
_cell_volume 590.786960
_symmetry_space_group_name_H-M "P -1"
_symmetry_group_IT_number 2
_symmetry_cell_setting 'triclinic'
loop_
_space_group_symop_operation_xyz
x,y,z
-x,-y,-z
loop_
_atom_site_type_symbol
_atom_site_label
_atom_site_fract_x
_atom_site_fract_y
_atom_site_fract_z
Si Si1 0.873550 0.767479 0.687009
Si Si2 0.891415 0.316558 0.726784
Si Si3 0.567489 0.106835 0.804260
Si Si4 0.687051 0.468193 0.159535
Si Si5 0.655898 0.656411 0.145947
Si Si6 0.169372 0.984314 0.350113
Si Si7 0.006427 0.277774 0.158060
O O1 0.725056 0.558601 0.479100
O O2 0.019123 0.913688 0.512248
O O3 0.935429 0.750134 0.773924
O O4 0.801799 0.800650 0.963287
O O5 0.739217 0.228992 0.748519
O O6 0.843836 0.147625 0.677967
O O7 0.981650 0.368266 0.447663
O O8 0.000000 0.500000 0.000000
O O9 0.500000 0.000000 0.500000
O O10 0.566295 0.242505 0.999401
O O11 0.500000 0.000000 0.000000
O O12 0.657117 0.542880 0.137168
O O13 0.852116 0.577642 0.016514
O O14 0.685039 0.792289 0.461335
O O15 0.500000 0.500000 0.000000
O O16 0.147638 0.924128 0.035853
#
# Coordination Sequence:
#
# PCOD9025278 Si02
#       7
#     2   2   2   2   2   2   2
#     4   9  20  41  66  96 139 178 236 294 366 429
#     4  11  25  45  75 106 146 193 252 309 365 448
#     4  12  31  49  75 109 155 202 248 311 384 453
#     4  10  24  45  71 100 140 192 244 305 372 441
#     4  11  25  41  68  98 144 189 241 298 367 444
#     4  10  22  40  68 105 135 182 240 300 365 433
#     4   9  20  41  75 102 137 176 247 305 361 429
#
# _framework density 23.697206000000001
#
# number of rings (size 3 to 8) (size 9 to 14) (size 15 to 20)
#    0.000    1.714    0.000    3.000   10.000    9.143 
#    0.000    0.000    0.000    0.000    0.000    0.000 
#    0.000    0.000    0.000    0.000    0.000    0.000 
#
# Total GULP energy -78218.124273 kJ/mol
# GULP energy per Si atom -5587.008877 kJ/mol
# Density = 2.364327 g / cm^3
# Si number density = 23.697206 Si / 1000 Ang^3
#
#
#
# Elastic Constant Matrix: (Units=GPa)
#
#
# Indices 1 2 3 4 5 6 
#
# 1 153.5415 47.5603 64.7177 35.2409 11.7493 -9.7559
# 2 47.5603 56.8733 47.8243 28.8544 0.5433 -14.1627
# 3 64.7177 47.8243 209.7820 39.8388 21.5272 -3.3152
# 4 35.2409 28.8544 39.8388 47.7412 7.5746 -7.8290
# 5 11.7493 0.5433 21.5272 7.5746 42.0431 7.2691
# 6 -9.7559 -14.1627 -3.3152 -7.8290 7.2691 47.4714
#
#
#
# Elastic Compliance Matrix: (Units=1/GPa)
#
#
# Indices 1 2 3 4 5 6 
#
# 1 0.009388 -0.005852 -0.000949 -0.002344 -0.001636 -0.000019
# 2 -0.005852 0.033374 -0.003802 -0.012430 0.004393 0.005766
# 3 -0.000949 -0.003802 0.006598 -0.002249 -0.002511 -0.000855
# 4 -0.002344 -0.012430 -0.002249 0.033034 -0.004288 0.001758
# 5 -0.001636 0.004393 -0.002511 -0.004288 0.026941 -0.004033
# 6 -0.000019 0.005766 -0.000855 0.001758 -0.004033 0.023629
#
#
# Mechanical properties :
#
#
# Convention : Reuss Voigt Hill
#
# Bulk Modulus (GPa) = 35.52083 82.26683 58.89383
# Shear Modulus (GPa) = 30.57064 44.79076 37.68070
#
# Velocity S-wave (km/s) = 3.59563 4.35228 3.99192
# Velocity P-wave (km/s) = 5.67979 7.74904 6.79366
#
# Compressibility (1/GPa) = 0.02815249
#
# Stress axis : x y z
#
# Youngs Moduli (GPa) = 106.52184 29.96334 151.56864
#
# Poissons Ratio (x) = 0.17535 0.14387
# Poissons Ratio (y) = 0.62338 0.57629
# Poissons Ratio (z) = 0.10111 0.11393
#
# Static dielectric constant tensor:
#      x y z
#    x 1.851630 0.010230 -0.018070 
#    y 0.010230 2.065400 -0.058390 
#    z -0.018070 -0.058390 1.956870 
# 
# From -- ./inp_files/95359.got.cif
#   From: 2010.05.17/outbox.cif.g08.bks.cpg/sg2_48_cif.got.tgz:95359.got - 2010.06.03 11:33:40.
