data_PCOD9025590
_publ_section_title
;
Structure prediction by ZEFSAII (Michael W. Deem and Ramdas Pophale) SiO2 
 PCOD9025590
Probable space group: P -1
;
_chemical_formula_sum "Si O2"
_cell_formula_units_Z 15
_cell_length_a 9.121789
_cell_length_b 19.974594
_cell_length_c 7.628282
_cell_angle_alpha 52.322956
_cell_angle_beta 55.214125
_cell_angle_gamma 33.497388
_cell_volume 601.211534
_symmetry_space_group_name_H-M "P -1"
_symmetry_group_IT_number 2
_symmetry_cell_setting 'triclinic'
loop_
_space_group_symop_operation_xyz
x,y,z
-x,-y,-z
loop_
_atom_site_type_symbol
_atom_site_label
_atom_site_fract_x
_atom_site_fract_y
_atom_site_fract_z
Si Si1 0.074618 0.881889 0.983314
Si Si2 0.389645 0.721411 0.368648
Si Si3 0.809743 0.705884 0.097485
Si Si4 0.000000 0.500000 0.000000
Si Si5 0.908950 0.963258 0.483084
Si Si6 0.508827 0.975123 0.741148
Si Si7 0.489105 0.637720 0.926919
Si Si8 0.305822 0.522663 0.302953
O O1 0.268638 0.781438 0.165376
O O2 0.211539 0.785446 0.882086
O O3 0.779492 0.950759 0.109043
O O4 0.110538 0.969157 0.785469
O O5 0.554441 0.744662 0.279435
O O6 0.616025 0.566743 0.447822
O O7 0.119366 0.816433 0.516198
O O8 0.926989 0.606820 0.016653
O O9 0.016452 0.639540 0.226171
O O10 0.708630 0.829024 0.890339
O O11 0.723104 0.610361 0.897352
O O12 0.639596 0.015722 0.654752
O O13 0.000000 0.000000 0.500000
O O14 0.500000 0.000000 0.500000
O O15 0.443809 0.563470 0.172710
O O16 0.556519 0.582197 0.775288
#
# Coordination Sequence:
#
# PCOD9025590 Si02
#       8
#     2   2   2   1   2   2   2   2
#     4  12  25  48  76 109 150 189 248 302 359 442
#     4  12  23  46  72 104 146 188 241 304 362 435
#     4  11  24  47  72 102 151 187 243 300 365 431
#     4  10  22  40  70 100 134 194 230 290 360 424
#     4  12  28  46  76 110 147 193 246 301 372 431
#     4  12  27  47  76 109 146 198 240 302 372 430
#     4  10  23  44  69 103 146 188 244 301 355 435
#     4  10  25  43  72 103 145 191 241 299 371 425
#
# _framework density 24.949618999999998
#
# number of rings (size 3 to 8) (size 9 to 14) (size 15 to 20)
#    0.000    0.800    4.000    2.400    7.467    2.133 
#    2.400    0.000    0.000    0.000    0.000    0.000 
#    0.000    0.000    0.000    0.000    0.000    0.000 
#
# Total GULP energy -83574.258973 kJ/mol
# GULP energy per Si atom -5571.617265 kJ/mol
# Density = 2.489283 g / cm^3
# Si number density = 24.949619 Si / 1000 Ang^3
#
#
#
# Elastic Constant Matrix: (Units=GPa)
#
#
# Indices 1 2 3 4 5 6 
#
# 1 95.1092 16.2695 21.9479 -11.8217 -1.0393 -19.5871
# 2 16.2695 117.8190 24.7655 -11.6205 -1.9278 -25.4026
# 3 21.9479 24.7655 117.8340 -41.5692 -4.5427 -26.8508
# 4 -11.8217 -11.6205 -41.5692 32.8672 -10.3215 4.1125
# 5 -1.0393 -1.9278 -4.5427 -10.3215 43.2487 7.8671
# 6 -19.5871 -25.4026 -26.8508 4.1125 7.8671 33.4721
#
#
#
# Elastic Compliance Matrix: (Units=1/GPa)
#
#
# Indices 1 2 3 4 5 6 
#
# 1 0.012439 0.000210 0.001285 0.005298 0.000298 0.007748
# 2 0.000210 0.010455 0.001196 0.004244 0.000067 0.008479
# 3 0.001285 0.001196 0.021336 0.028205 0.006552 0.013770
# 4 0.005298 0.004244 0.028205 0.073143 0.017868 0.015760
# 5 0.000298 0.000067 0.006552 0.017868 0.028715 -0.003463
# 6 0.007748 0.008479 0.013770 0.015760 -0.003463 0.050768
#
#
# Mechanical properties :
#
#
# Convention : Reuss Voigt Hill
#
# Bulk Modulus (GPa) = 20.15643 50.74754 35.45198
# Shear Modulus (GPa) = 24.03702 39.76955 31.90329
#
# Velocity S-wave (km/s) = 3.10727 3.99682 3.57978
# Velocity P-wave (km/s) = 4.57929 6.45628 5.59703
#
# Compressibility (1/GPa) = 0.04961196
#
# Stress axis : x y z
#
# Youngs Moduli (GPa) = 80.39070 95.64600 46.86894
#
# Poissons Ratio (x) = -0.02011 -0.06022
# Poissons Ratio (y) = -0.01690 -0.05604
# Poissons Ratio (z) = -0.10330 -0.11435
#
# Static dielectric constant tensor:
#      x y z
#    x 2.247250 -0.329310 0.547000 
#    y -0.329310 2.606320 -0.725000 
#    z 0.547000 -0.725000 3.297120 
# 
# From -- ./inp_files/223155.got.cif
#   From: 2010.05.17/outbox.cif.g08.bks.cpg/sg2_112_cif.got.tgz:223155.got - 2010.06.03 11:33:40.
