data_PCOD9025404
_publ_section_title
;
Structure prediction by ZEFSAII (Michael W. Deem and Ramdas Pophale) SiO2 
 PCOD9025404
Probable space group: P -1
;
_chemical_formula_sum "Si O2"
_cell_formula_units_Z 12
_cell_length_a 5.267447
_cell_length_b 6.360633
_cell_length_c 16.246567
_cell_angle_alpha 65.504670
_cell_angle_beta 72.484361
_cell_angle_gamma 103.402343
_cell_volume 430.652970
_symmetry_space_group_name_H-M "P -1"
_symmetry_group_IT_number 2
_symmetry_cell_setting 'triclinic'
loop_
_space_group_symop_operation_xyz
x,y,z
-x,-y,-z
loop_
_atom_site_type_symbol
_atom_site_label
_atom_site_fract_x
_atom_site_fract_y
_atom_site_fract_z
Si Si1 0.119014 0.466691 0.615302
Si Si2 0.209834 0.584875 0.886026
Si Si3 0.146175 0.030402 0.760863
Si Si4 0.788041 0.080871 0.562466
Si Si5 0.165492 0.904630 0.068029
Si Si6 0.740921 0.650213 0.736563
O O1 0.315194 0.744421 0.514177
O O2 0.282607 0.321033 0.672563
O O3 0.955760 0.278277 0.586820
O O4 0.868499 0.495096 0.691967
O O5 0.494029 0.529060 0.850568
O O6 0.991415 0.399586 0.869738
O O7 0.307027 0.885285 0.817770
O O8 0.000000 0.500000 0.000000
O O9 0.888783 0.003248 0.853457
O O10 0.014354 0.864411 0.720577
O O11 0.605558 0.811530 0.667142
O O12 0.000000 0.000000 0.500000
O O13 0.500000 0.000000 0.000000
O O14 0.000000 0.000000 0.000000
#
# Coordination Sequence:
#
# PCOD9025404 Si02
#       6
#     2   2   2   2   2   2
#     4   9  18  36  67 100 138 182 232 288 358 434
#     4  12  26  43  64  96 138 184 240 297 355 424
#     4  11  24  40  66  95 137 183 238 291 363 422
#     4   8  16  35  65 102 137 180 226 291 358 431
#     4  12  28  46  71 100 141 192 249 306 371 433
#     4  10  22  40  68  98 137 185 234 292 358 429
#
# _framework density 27.864664999999999
#
# number of rings (size 3 to 8) (size 9 to 14) (size 15 to 20)
#    0.000    1.667    1.667    2.000    4.667    2.667 
#    0.000    0.833    0.000   41.000    0.000    0.000 
#    0.000    0.000    0.000    0.000    0.000    0.000 
#
# Total GULP energy -67112.963865 kJ/mol
# GULP energy per Si atom -5592.746989 kJ/mol
# Density = 2.780124 g / cm^3
# Si number density = 27.864665 Si / 1000 Ang^3
#
#
#
# Elastic Constant Matrix: (Units=GPa)
#
#
# Indices 1 2 3 4 5 6 
#
# 1 102.6651 43.2128 33.7276 -3.9327 3.5805 -16.7913
# 2 43.2128 190.6554 64.4318 13.7289 7.0316 -11.9951
# 3 33.7276 64.4318 120.4773 23.7660 9.5296 -30.0940
# 4 -3.9327 13.7289 23.7660 86.1509 -29.1238 10.0339
# 5 3.5805 7.0316 9.5296 -29.1238 47.3597 -3.6035
# 6 -16.7913 -11.9951 -30.0940 10.0339 -3.6035 42.6231
#
#
#
# Elastic Compliance Matrix: (Units=1/GPa)
#
#
# Indices 1 2 3 4 5 6 
#
# 1 0.011619 -0.001955 -0.001947 0.001383 0.000836 0.002397
# 2 -0.001955 0.006755 -0.003255 -0.000293 -0.000467 -0.001138
# 3 -0.001947 -0.003255 0.014854 -0.006773 -0.005769 0.009911
# 4 0.001383 -0.000293 -0.006773 0.018585 0.012147 -0.007668
# 5 0.000836 -0.000467 -0.005769 0.012147 0.029429 -0.004247
# 6 0.002397 -0.001138 0.009911 -0.007668 -0.004247 0.032530
#
#
# Mechanical properties :
#
#
# Convention : Reuss Voigt Hill
#
# Bulk Modulus (GPa) = 52.86992 77.39358 65.13175
# Shear Modulus (GPa) = 37.20519 53.38844 45.29681
#
# Velocity S-wave (km/s) = 3.65802 4.38195 4.03625
# Velocity P-wave (km/s) = 6.07095 7.31007 6.71914
#
# Compressibility (1/GPa) = 0.01891435
#
# Stress axis : x y z
#
# Youngs Moduli (GPa) = 86.06680 148.04241 67.32162
#
# Poissons Ratio (x) = 0.28942 0.13109
# Poissons Ratio (y) = 0.16826 0.21910
# Poissons Ratio (z) = 0.16759 0.48181
#
# Static dielectric constant tensor:
#      x y z
#    x 2.186290 -0.053050 0.114850 
#    y -0.053050 2.144310 -0.079260 
#    z 0.114850 -0.079260 2.265710 
# 
# From -- ./inp_files/41267.got.cif
#   From: 2010.05.17/outbox.cif.g08.bks.cpg/sg2_21_cif.got.tgz:41267.got - 2010.06.03 11:33:40.
