data_PCOD9025413
_publ_section_title
;
Structure prediction by ZEFSAII (Michael W. Deem and Ramdas Pophale) SiO2 
 PCOD9025413
Probable space group: P -1
;
_chemical_formula_sum "Si O2"
_cell_formula_units_Z 15
_cell_length_a 14.487174
_cell_length_b 11.797230
_cell_length_c 18.811773
_cell_angle_alpha 147.712950
_cell_angle_beta 22.273421
_cell_angle_gamma 148.869746
_cell_volume 606.286193
_symmetry_space_group_name_H-M "P -1"
_symmetry_group_IT_number 2
_symmetry_cell_setting 'triclinic'
loop_
_space_group_symop_operation_xyz
x,y,z
-x,-y,-z
loop_
_atom_site_type_symbol
_atom_site_label
_atom_site_fract_x
_atom_site_fract_y
_atom_site_fract_z
Si Si1 0.507097 0.874911 0.610578
Si Si2 0.434604 0.385080 0.775669
Si Si3 0.068030 0.281264 0.859762
Si Si4 0.500000 0.500000 0.500000
Si Si5 0.149490 0.646215 0.627217
Si Si6 0.564413 0.878560 0.957533
Si Si7 0.015219 0.752684 0.354845
Si Si8 0.359495 0.603069 0.211295
O O1 0.691170 0.743783 0.373040
O O2 0.466516 0.751895 0.649839
O O3 0.245128 0.815354 0.717159
O O4 0.641568 0.143942 0.664762
O O5 0.162735 0.315884 0.892061
O O6 0.592043 0.259954 0.554452
O O7 0.471047 0.367162 0.822616
O O8 0.595915 0.651332 0.786615
O O9 0.000000 0.500000 0.000000
O O10 0.820261 0.053772 0.904049
O O11 0.797262 0.620489 0.382788
O O12 0.066916 0.405906 0.601097
O O13 0.928680 0.589299 0.693201
O O14 0.308140 0.787743 0.141208
O O15 0.500000 0.000000 0.000000
O O16 0.000000 0.000000 0.500000
O O17 0.500000 0.500000 0.000000
#
# Coordination Sequence:
#
# PCOD9025413 Si02
#       8
#     2   2   2   1   2   2   2   2
#     4  10  24  45  73 107 146 193 245 308 375 445
#     4  11  25  44  74 104 142 197 246 307 381 440
#     4  11  24  44  73 110 151 187 248 309 372 449
#     4  10  22  40  68  98 144 188 232 296 374 424
#     4  10  23  45  69 101 141 187 248 306 366 446
#     4  12  23  39  68 104 146 190 242 300 366 447
#     4  11  23  37  63  98 141 189 236 296 364 431
#     4  12  26  48  71 105 149 195 254 307 372 449
#
# _framework density 24.740790000000001
#
# number of rings (size 3 to 8) (size 9 to 14) (size 15 to 20)
#    0.000    1.067    1.333    4.400    3.733    3.733 
#    0.000    0.000    0.000    0.000    0.000    0.000 
#    0.000    0.000    0.000    0.000    0.000    0.000 
#
# Total GULP energy -83514.741847 kJ/mol
# GULP energy per Si atom -5567.649456 kJ/mol
# Density = 2.468448 g / cm^3
# Si number density = 24.740790 Si / 1000 Ang^3
#
#
#
# Elastic Constant Matrix: (Units=GPa)
#
#
# Indices 1 2 3 4 5 6 
#
# 1 141.5344 29.9736 2.0288 -7.9191 -30.0357 25.3155
# 2 29.9736 120.0026 18.7628 -0.6975 -22.5774 31.8495
# 3 2.0288 18.7628 57.0131 -1.7042 -9.5128 -1.8283
# 4 -7.9191 -0.6975 -1.7042 36.4332 6.6769 -14.8305
# 5 -30.0357 -22.5774 -9.5128 6.6769 34.5406 -20.2979
# 6 25.3155 31.8495 -1.8283 -14.8305 -20.2979 47.5198
#
#
#
# Elastic Compliance Matrix: (Units=1/GPa)
#
#
# Indices 1 2 3 4 5 6 
#
# 1 0.008876 -0.000790 0.001035 0.000236 0.006730 -0.001211
# 2 -0.000790 0.011528 -0.003798 -0.003643 0.001948 -0.007757
# 3 0.001035 -0.003798 0.020294 0.002475 0.007494 0.006749
# 4 0.000236 -0.003643 0.002475 0.032684 -0.000535 0.012383
# 5 0.006730 0.001948 0.007494 -0.000535 0.047319 0.015442
# 6 -0.001211 -0.007757 0.006749 0.012383 0.015442 0.037608
#
#
# Mechanical properties :
#
#
# Convention : Reuss Voigt Hill
#
# Bulk Modulus (GPa) = 29.76915 46.67562 38.22238
# Shear Modulus (GPa) = 28.31057 41.55105 34.93081
#
# Velocity S-wave (km/s) = 3.38640 4.10256 3.76156
# Velocity P-wave (km/s) = 5.22961 6.43025 5.86076
#
# Compressibility (1/GPa) = 0.03359183
#
# Stress axis : x y z
#
# Youngs Moduli (GPa) = 112.66563 86.74158 49.27612
#
# Poissons Ratio (x) = 0.06852 -0.05101
# Poissons Ratio (y) = 0.08900 0.18717
# Poissons Ratio (z) = -0.11663 0.32948
#
# Static dielectric constant tensor:
#      x y z
#    x 2.309670 0.139840 -0.214530 
#    y 0.139840 2.121700 -0.163920 
#    z -0.214530 -0.163920 2.275190 
# 
# From -- ./inp_files/598019.got.cif
#   From: 2010.05.17/outbox.cif.g08.bks.cpg/sg2_300_cif.got.tgz:598019.got - 2010.06.03 11:33:40.
