data_PCOD9025216
_publ_section_title
;
Structure prediction by ZEFSAII (Michael W. Deem and Ramdas Pophale) SiO2 
 PCOD9025216
Probable space group: P -1
;
_chemical_formula_sum "Si O2"
_cell_formula_units_Z 16
_cell_length_a 21.342815
_cell_length_b 12.035163
_cell_length_c 9.537923
_cell_angle_alpha 129.285846
_cell_angle_beta 40.407043
_cell_angle_gamma 152.408079
_cell_volume 728.439958
_symmetry_space_group_name_H-M "P -1"
_symmetry_group_IT_number 2
_symmetry_cell_setting 'triclinic'
loop_
_space_group_symop_operation_xyz
x,y,z
-x,-y,-z
loop_
_atom_site_type_symbol
_atom_site_label
_atom_site_fract_x
_atom_site_fract_y
_atom_site_fract_z
Si Si1 0.418153 0.746282 0.948013
Si Si2 0.619984 0.841426 0.447263
Si Si3 0.911634 0.979504 0.009610
Si Si4 0.484734 0.636168 0.207576
Si Si5 0.338537 0.873823 0.746632
Si Si6 0.846501 0.487574 0.988576
Si Si7 0.131097 0.615769 0.631307
Si Si8 0.759939 0.562156 0.740022
O O1 0.509970 0.741718 0.689664
O O2 0.237051 0.554859 0.042947
O O3 0.395627 0.662007 0.075275
O O4 0.500000 0.000000 0.000000
O O5 0.756687 0.881640 0.256875
O O6 0.514715 0.677780 0.356755
O O7 0.722503 0.111742 0.463960
O O8 0.849411 0.800228 0.851334
O O9 0.000000 0.000000 0.000000
O O10 0.035918 0.245237 0.946886
O O11 0.310970 0.488017 0.332198
O O12 0.620522 0.909565 0.135880
O O13 0.500000 0.500000 0.000000
O O14 0.298244 0.734978 0.841283
O O15 0.180384 0.674777 0.757951
O O16 0.500000 0.000000 0.500000
O O17 0.963906 0.491631 0.776667
O O18 0.135645 0.456955 0.452971
#
# Coordination Sequence:
#
# PCOD9025216 Si02
#       8
#     2   2   2   2   2   2   2   2
#     4  12  24  41  69 105 132 173 244 282 344 406
#     4  10  23  43  72  98 136 186 223 289 346 407
#     4  11  24  46  65  98 145 184 221 282 354 408
#     4  11  22  42  69 100 136 173 227 287 347 395
#     4  11  21  42  71  97 134 177 227 285 343 403
#     4  11  24  43  67  96 136 181 229 280 345 417
#     4  10  22  40  67  99 132 177 228 280 346 403
#     4  12  23  42  68 100 137 179 231 291 335 418
#
# _framework density 21.964746999999999
#
# number of rings (size 3 to 8) (size 9 to 14) (size 15 to 20)
#    0.000    1.000    5.000    2.625    0.000    2.000 
#    0.000    3.125    0.000    0.000    0.000    0.000 
#    0.000    0.000    0.000    0.000    0.000    0.000 
#
# Total GULP energy -89459.780061 kJ/mol
# GULP energy per Si atom -5591.236254 kJ/mol
# Density = 2.191475 g / cm^3
# Si number density = 21.964747 Si / 1000 Ang^3
#
#
#
# Elastic Constant Matrix: (Units=GPa)
#
#
# Indices 1 2 3 4 5 6 
#
# 1 91.2383 5.3898 40.8709 -5.3766 -18.0417 13.5076
# 2 5.3898 103.1436 48.7910 24.3296 -12.7461 -5.1049
# 3 40.8709 48.7910 96.6648 15.4350 -25.1366 2.0042
# 4 -5.3766 24.3296 15.4350 33.4626 -8.7712 -6.3793
# 5 -18.0417 -12.7461 -25.1366 -8.7712 37.4285 -1.0891
# 6 13.5076 -5.1049 2.0042 -6.3793 -1.0891 36.2458
#
#
#
# Elastic Compliance Matrix: (Units=1/GPa)
#
#
# Indices 1 2 3 4 5 6 
#
# 1 0.015849 0.001706 -0.007095 0.004942 0.004489 -0.004269
# 2 0.001706 0.014609 -0.007138 -0.007122 -0.000650 0.000544
# 3 -0.007095 -0.007138 0.019053 -0.003060 0.006234 0.000234
# 4 0.004942 -0.007122 -0.003060 0.040093 0.007432 0.004604
# 5 0.004489 -0.000650 0.006234 0.007432 0.034596 0.000238
# 6 -0.004269 0.000544 0.000234 0.004604 0.000238 0.030061
#
#
# Mechanical properties :
#
#
# Convention : Reuss Voigt Hill
#
# Bulk Modulus (GPa) = 40.89008 53.46113 47.17560
# Shear Modulus (GPa) = 26.67108 34.49371 30.58239
#
# Velocity S-wave (km/s) = 3.48841 3.96714 3.73546
# Velocity P-wave (km/s) = 5.90610 6.73622 6.33477
#
# Compressibility (1/GPa) = 0.02445581
#
# Stress axis : x y z
#
# Youngs Moduli (GPa) = 63.09569 68.44956 52.48534
#
# Poissons Ratio (x) = -0.11678 0.37240
# Poissons Ratio (y) = -0.10764 0.37466
# Poissons Ratio (z) = 0.44769 0.48861
#
# Static dielectric constant tensor:
#      x y z
#    x 1.825040 -0.008190 0.004430 
#    y -0.008190 1.815650 0.002570 
#    z 0.004430 0.002570 1.811860 
# 
# From -- ./inp_files/346332.got.cif
#   From: 2010.05.17/outbox.cif.g08.bks.cpg/sg2_174_cif.got.tgz:346332.got - 2010.06.03 11:33:40.
