data_PCOD9025782
_publ_section_title
;
Structure prediction by ZEFSAII (Michael W. Deem and Ramdas Pophale) SiO2 
 PCOD9025782
Probable space group: P -1
;
_chemical_formula_sum "Si O2"
_cell_formula_units_Z 16
_cell_length_a 8.655338
_cell_length_b 8.715437
_cell_length_c 17.196852
_cell_angle_alpha 133.406378
_cell_angle_beta 101.629145
_cell_angle_gamma 109.541700
_cell_volume 689.636299
_symmetry_space_group_name_H-M "P -1"
_symmetry_group_IT_number 2
_symmetry_cell_setting 'triclinic'
loop_
_space_group_symop_operation_xyz
x,y,z
-x,-y,-z
loop_
_atom_site_type_symbol
_atom_site_label
_atom_site_fract_x
_atom_site_fract_y
_atom_site_fract_z
Si Si1 0.686658 0.905862 0.792710
Si Si2 0.347035 0.581664 0.373789
Si Si3 0.351491 0.058481 0.029950
Si Si4 0.279172 0.586537 0.055916
Si Si5 0.749355 0.889633 0.617864
Si Si6 0.884222 0.462357 0.808543
Si Si7 0.286611 0.145843 0.887864
Si Si8 0.075062 0.398901 0.411629
O O1 0.774998 0.226446 0.915169
O O2 0.784110 0.757685 0.760026
O O3 0.630434 0.836986 0.670625
O O4 0.566578 0.797053 0.826191
O O5 0.582801 0.732631 0.475503
O O6 0.291345 0.647833 0.312950
O O7 0.262338 0.638269 0.458054
O O8 0.106148 0.770758 0.917157
O O9 0.357330 0.213049 0.008549
O O10 0.500000 0.000000 0.000000
O O11 0.212925 0.537500 0.121357
O O12 0.521036 0.750829 0.113228
O O13 0.184343 0.284172 0.907493
O O14 0.856527 0.758088 0.594256
O O15 0.900639 0.223851 0.734574
O O16 0.116990 0.816556 0.741096
O O17 0.000000 0.500000 0.500000
#
# Coordination Sequence:
#
# PCOD9025782 Si02
#       8
#     2   2   2   2   2   2   2   2
#     4  10  22  40  71  98 136 177 228 276 345 405
#     4  11  23  46  71 100 138 184 242 280 339 416
#     4  12  25  42  70 102 144 175 223 288 355 410
#     4  10  24  41  69 102 136 180 222 287 342 412
#     4  10  25  44  71 100 136 188 238 282 338 412
#     4  11  25  44  73 103 138 182 234 285 348 417
#     4  11  24  44  65 101 142 178 229 278 354 407
#     4  11  25  41  72  97 137 185 234 281 345 412
#
# _framework density 23.200635999999999
#
# number of rings (size 3 to 8) (size 9 to 14) (size 15 to 20)
#    0.000    1.250    2.500    2.625   10.500    2.000 
#    0.000    0.625    0.000    0.000    0.000    0.000 
#    0.000    0.000    0.000    0.000    0.000    0.000 
#
# Total GULP energy -89144.575082 kJ/mol
# GULP energy per Si atom -5571.535943 kJ/mol
# Density = 2.314783 g / cm^3
# Si number density = 23.200636 Si / 1000 Ang^3
#
#
#
# Elastic Constant Matrix: (Units=GPa)
#
#
# Indices 1 2 3 4 5 6 
#
# 1 111.6609 58.3536 55.5936 -22.9338 -31.5121 -3.3784
# 2 58.3536 97.4421 25.5375 -20.9534 -2.5763 -4.6504
# 3 55.5936 25.5375 72.3607 -24.1312 -14.6731 -6.1576
# 4 -22.9338 -20.9534 -24.1312 45.1830 -1.8281 -0.6513
# 5 -31.5121 -2.5763 -14.6731 -1.8281 38.3015 -5.2813
# 6 -3.3784 -4.6504 -6.1576 -0.6513 -5.2813 42.0609
#
#
#
# Elastic Compliance Matrix: (Units=1/GPa)
#
#
# Indices 1 2 3 4 5 6 
#
# 1 0.025837 -0.011445 -0.011652 0.002260 0.016294 0.001185
# 2 -0.011445 0.016977 0.002419 0.003073 -0.007137 0.000463
# 3 -0.011652 0.002419 0.025402 0.008870 0.001191 0.003337
# 4 0.002260 0.003073 0.008870 0.029784 0.007327 0.003201
# 5 0.016294 -0.007137 0.001191 0.007327 0.040656 0.005912
# 6 0.001185 0.000463 0.003337 0.003201 0.005912 0.025202
#
#
# Mechanical properties :
#
#
# Convention : Reuss Voigt Hill
#
# Bulk Modulus (GPa) = 37.23299 62.27034 49.75166
# Shear Modulus (GPa) = 23.34620 34.57434 28.96027
#
# Velocity S-wave (km/s) = 3.17562 3.86454 3.53690
# Velocity P-wave (km/s) = 5.43408 6.84186 6.17820
#
# Compressibility (1/GPa) = 0.02685790
#
# Stress axis : x y z
#
# Youngs Moduli (GPa) = 38.70440 58.90324 39.36748
#
# Poissons Ratio (x) = 0.67417 0.45872
# Poissons Ratio (y) = 0.44299 -0.09522
# Poissons Ratio (z) = 0.45099 -0.14248
#
# Static dielectric constant tensor:
#      x y z
#    x 1.881220 0.018080 0.028630 
#    y 0.018080 1.974710 0.048330 
#    z 0.028630 0.048330 1.944200 
# 
# From -- ./inp_files/495747.got.cif
#   From: 2010.05.17/outbox.cif.g08.bks.cpg/sg2_248_cif.got.tgz:495747.got - 2010.06.03 11:33:40.
