data_PCOD9025844
_publ_section_title
;
Structure prediction by ZEFSAII (Michael W. Deem and Ramdas Pophale) SiO2 
 PCOD9025844
Probable space group: P -1
;
_chemical_formula_sum "Si O2"
_cell_formula_units_Z 12
_cell_length_a 9.604886
_cell_length_b 9.126800
_cell_length_c 7.691610
_cell_angle_alpha 123.028504
_cell_angle_beta 91.774281
_cell_angle_gamma 66.624018
_cell_volume 503.635337
_symmetry_space_group_name_H-M "P -1"
_symmetry_group_IT_number 2
_symmetry_cell_setting 'triclinic'
loop_
_space_group_symop_operation_xyz
x,y,z
-x,-y,-z
loop_
_atom_site_type_symbol
_atom_site_label
_atom_site_fract_x
_atom_site_fract_y
_atom_site_fract_z
Si Si1 0.961528 0.648800 0.251752
Si Si2 0.495009 0.323089 0.993023
Si Si3 0.029518 0.914195 0.187674
Si Si4 0.755947 0.592826 0.686927
Si Si5 0.719857 0.921004 0.640783
Si Si6 0.762932 0.264886 0.230362
O O1 0.782979 0.774640 0.385204
O O2 0.061490 0.527559 0.340329
O O3 0.023818 0.799989 0.283304
O O4 0.000000 0.500000 0.000000
O O5 0.565557 0.125564 0.753768
O O6 0.331403 0.378968 0.114261
O O7 0.614559 0.275268 0.129564
O O8 0.500000 0.500000 0.000000
O O9 0.857016 0.071766 0.226006
O O10 0.139971 0.019583 0.281848
O O11 0.709740 0.796933 0.722729
O O12 0.717648 0.454334 0.468107
O O13 0.110838 0.762550 0.934056
#
# Coordination Sequence:
#
# PCOD9025844 Si02
#       6
#     2   2   2   2   2   2
#     4  12  26  41  69 103 136 170 226 276 328 391
#     4  11  26  46  68  96 133 180 224 271 332 398
#     4  10  22  41  68 101 130 174 221 271 329 393
#     4  12  24  44  67 101 136 173 221 273 333 396
#     4  11  24  44  68  97 137 176 219 276 333 391
#     4  10  22  40  72  94 133 172 222 268 332 388
#
# _framework density 23.826763
#
# number of rings (size 3 to 8) (size 9 to 14) (size 15 to 20)
#    0.000    1.000    1.667    5.000    9.333    0.000 
#    0.000    1.667    0.000    0.000    0.000    0.000 
#    0.000    0.000    0.000    0.000    0.000    0.000 
#
# Total GULP energy -67191.596378 kJ/mol
# GULP energy per Si atom -5599.299698 kJ/mol
# Density = 2.377253 g / cm^3
# Si number density = 23.826763 Si / 1000 Ang^3
#
#
#
# Elastic Constant Matrix: (Units=GPa)
#
#
# Indices 1 2 3 4 5 6 
#
# 1 59.6452 32.3693 24.3519 7.5264 -17.2919 6.3318
# 2 32.3693 111.5346 28.4886 20.7469 -27.5351 10.9185
# 3 24.3519 28.4886 137.4406 32.6441 -28.1877 4.5052
# 4 7.5264 20.7469 32.6441 39.0128 -7.2221 -2.2832
# 5 -17.2919 -27.5351 -28.1877 -7.2221 38.8010 -16.1879
# 6 6.3318 10.9185 4.5052 -2.2832 -16.1879 43.7177
#
#
#
# Elastic Compliance Matrix: (Units=1/GPa)
#
#
# Indices 1 2 3 4 5 6 
#
# 1 0.021443 -0.004664 -0.002045 0.000995 0.005022 0.000181
# 2 -0.004664 0.012729 0.000775 -0.005384 0.006292 -0.000535
# 3 -0.002045 0.000775 0.010544 -0.007624 0.006271 0.000940
# 4 0.000995 -0.005384 -0.007624 0.034692 -0.001034 0.003415
# 5 0.005022 0.006292 0.006271 -0.001034 0.042090 0.012586
# 6 0.000181 -0.000535 0.000940 0.003415 0.012586 0.027723
#
#
# Mechanical properties :
#
#
# Convention : Reuss Voigt Hill
#
# Bulk Modulus (GPa) = 30.44384 53.22665 41.83524
# Shear Modulus (GPa) = 29.06343 39.20034 34.13189
#
# Velocity S-wave (km/s) = 3.49632 4.06054 3.78895
# Velocity P-wave (km/s) = 5.39481 6.66119 6.06116
#
# Compressibility (1/GPa) = 0.03284737
#
# Stress axis : x y z
#
# Youngs Moduli (GPa) = 46.63569 78.56287 94.84245
#
# Poissons Ratio (x) = 0.36640 0.19394
# Poissons Ratio (y) = 0.21750 -0.07347
# Poissons Ratio (z) = 0.09536 -0.06086
#
# Static dielectric constant tensor:
#      x y z
#    x 1.893270 -0.004610 0.003270 
#    y -0.004610 1.882120 0.037920 
#    z 0.003270 0.037920 1.975570 
# 
# From -- ./inp_files/159803.got.cif
#   From: 2010.05.17/outbox.cif.g08.bks.cpg/sg2_80_cif.got.tgz:159803.got - 2010.06.03 11:33:40.
