data_PCOD9025744
_publ_section_title
;
Structure prediction by ZEFSAII (Michael W. Deem and Ramdas Pophale) SiO2 
 PCOD9025744
Probable space group: P -1
;
_chemical_formula_sum "Si O2"
_cell_formula_units_Z 16
_cell_length_a 9.397983
_cell_length_b 8.666120
_cell_length_c 8.661034
_cell_angle_alpha 96.137576
_cell_angle_beta 107.121839
_cell_angle_gamma 102.799703
_cell_volume 646.063966
_symmetry_space_group_name_H-M "P -1"
_symmetry_group_IT_number 2
_symmetry_cell_setting 'triclinic'
loop_
_space_group_symop_operation_xyz
x,y,z
-x,-y,-z
loop_
_atom_site_type_symbol
_atom_site_label
_atom_site_fract_x
_atom_site_fract_y
_atom_site_fract_z
Si Si1 0.338396 0.215207 0.745316
Si Si2 0.872657 0.566785 0.272007
Si Si3 0.911251 0.832231 0.877650
Si Si4 0.392051 0.911745 0.596678
Si Si5 0.776690 0.254769 0.025146
Si Si6 0.778867 0.369755 0.699550
Si Si7 0.384526 0.125834 0.064215
Si Si8 0.236796 0.344170 0.452299
O O1 0.201027 0.285044 0.773317
O O2 0.370209 0.316338 0.605251
O O3 0.302803 0.033951 0.652556
O O4 0.441741 0.212388 0.928901
O O5 0.770430 0.394126 0.160402
O O6 0.869248 0.583501 0.458112
O O7 0.037344 0.595106 0.250917
O O8 0.746957 0.797114 0.905024
O O9 0.861728 0.818201 0.679311
O O10 0.038731 0.734107 0.923859
O O11 0.000000 0.000000 0.000000
O O12 0.284126 0.757898 0.467411
O O13 0.494752 0.867302 0.760368
O O14 0.500000 0.000000 0.500000
O O15 0.728659 0.299100 0.844428
O O16 0.694024 0.066111 0.012520
O O17 0.723245 0.526917 0.656945
#
# Coordination Sequence:
#
# PCOD9025744 Si02
#       8
#     2   2   2   2   2   2   2   2
#     4  10  26  44  72 100 138 181 232 291 341 410
#     4  10  24  44  69 111 140 171 228 291 358 411
#     4  10  22  40  71 104 136 180 227 289 343 407
#     4  12  26  50  69  99 140 189 242 278 338 418
#     4  11  23  41  72 102 143 176 228 285 357 409
#     4  12  24  42  74 101 141 188 221 290 352 410
#     4  11  24  47  70  98 138 186 237 285 336 411
#     4  10  24  42  66 107 143 171 230 281 358 409
#
# _framework density 24.765350999999999
#
# number of rings (size 3 to 8) (size 9 to 14) (size 15 to 20)
#    0.750    0.500    2.500    2.625    5.250    1.500 
#    0.000    5.000    0.000    0.000    0.000    0.000 
#    0.000    0.000    0.000    0.000    0.000    0.000 
#
# Total GULP energy -89309.297619 kJ/mol
# GULP energy per Si atom -5581.831101 kJ/mol
# Density = 2.470898 g / cm^3
# Si number density = 24.765351 Si / 1000 Ang^3
#
#
#
# Elastic Constant Matrix: (Units=GPa)
#
#
# Indices 1 2 3 4 5 6 
#
# 1 71.3116 50.7071 47.0946 1.2988 -2.2682 -3.3268
# 2 50.7071 99.6581 65.1701 8.3800 -6.2929 -18.9199
# 3 47.0946 65.1701 189.8549 -4.0852 -14.4903 -2.7153
# 4 1.2988 8.3800 -4.0852 77.2044 -6.0735 -5.0241
# 5 -2.2682 -6.2929 -14.4903 -6.0735 32.8120 2.0400
# 6 -3.3268 -18.9199 -2.7153 -5.0241 2.0400 36.2973
#
#
#
# Elastic Compliance Matrix: (Units=1/GPa)
#
#
# Indices 1 2 3 4 5 6 
#
# 1 0.023159 -0.011304 -0.001997 0.000395 -0.001140 -0.003800
# 2 -0.011304 0.020295 -0.004032 -0.001604 0.000474 0.008992
# 3 -0.001997 -0.004032 0.007342 0.000952 0.002616 -0.001751
# 4 0.000395 -0.001604 0.000952 0.013436 0.002566 0.000987
# 5 -0.001140 0.000474 0.002616 0.002566 0.032188 -0.001115
# 6 -0.003800 0.008992 -0.001751 0.000987 -0.001115 0.031957
#
#
# Mechanical properties :
#
#
# Convention : Reuss Voigt Hill
#
# Bulk Modulus (GPa) = 62.00180 76.30758 69.15469
# Shear Modulus (GPa) = 29.68748 42.45293 36.07021
#
# Velocity S-wave (km/s) = 3.46605 4.14479 3.82052
# Velocity P-wave (km/s) = 6.41156 7.33381 6.88814
#
# Compressibility (1/GPa) = 0.01612857
#
# Stress axis : x y z
#
# Youngs Moduli (GPa) = 43.17922 49.27418 136.20724
#
# Poissons Ratio (x) = 0.55701 0.27205
# Poissons Ratio (y) = 0.48811 0.54919
# Poissons Ratio (z) = 0.08624 0.19867
#
# Static dielectric constant tensor:
#      x y z
#    x 2.005170 0.006940 -0.000100 
#    y 0.006940 1.986910 -0.021300 
#    z -0.000100 -0.021300 1.994060 
# 
# From -- ./inp_files/239977.got.cif
#   From: 2010.05.17/outbox.cif.g08.bks.cpg/sg2_120_cif.got.tgz:239977.got - 2010.06.03 11:33:40.
