data_PCOD9025927
_publ_section_title
;
Structure prediction by ZEFSAII (Michael W. Deem and Ramdas Pophale) SiO2 
 PCOD9025927
Probable space group: P -1
;
_chemical_formula_sum "Si O2"
_cell_formula_units_Z 16
_cell_length_a 11.799898
_cell_length_b 9.643955
_cell_length_c 7.290185
_cell_angle_alpha 110.377331
_cell_angle_beta 88.944922
_cell_angle_gamma 129.758155
_cell_volume 573.326759
_symmetry_space_group_name_H-M "P -1"
_symmetry_group_IT_number 2
_symmetry_cell_setting 'triclinic'
loop_
_space_group_symop_operation_xyz
x,y,z
-x,-y,-z
loop_
_atom_site_type_symbol
_atom_site_label
_atom_site_fract_x
_atom_site_fract_y
_atom_site_fract_z
Si Si1 0.586235 0.808026 0.381895
Si Si2 0.334971 0.580335 0.971968
Si Si3 0.279316 0.850437 0.929273
Si Si4 0.891792 0.911411 0.782303
Si Si5 0.918644 0.106566 0.506257
Si Si6 0.240448 0.758893 0.476020
Si Si7 0.437953 0.288633 0.253995
Si Si8 0.945843 0.596210 0.928654
O O1 0.459501 0.679033 0.173735
O O2 0.535768 0.695419 0.522780
O O3 0.896305 0.052801 0.699021
O O4 0.635035 0.022805 0.522338
O O5 0.160974 0.387548 0.942048
O O6 0.407965 0.549577 0.790955
O O7 0.311567 0.734342 0.995773
O O8 0.294113 0.801948 0.701269
O O9 0.388692 0.081538 0.086279
O O10 0.108087 0.771451 0.909288
O O11 0.948330 0.841712 0.597767
O O12 0.716406 0.751156 0.782895
O O13 0.000000 0.000000 0.000000
O O14 0.913375 0.276074 0.552344
O O15 0.752388 0.902164 0.343091
O O16 0.183152 0.562227 0.291570
O O17 0.000000 0.500000 0.000000
#
# Coordination Sequence:
#
# PCOD9025927 Si02
#       8
#     2   2   2   2   2   2   2   2
#     4   9  19  33  54  77 112 139 176 222 275 304
#     4  11  22  35  51  79 113 149 185 219 264 321
#     4  11  22  35  53  79 112 152 190 213 262 321
#     4  10  17  31  55  80 111 134 170 225 285 319
#     4   8  19  33  50  84 109 133 174 229 277 317
#     4  10  19  37  54  77 112 141 184 228 265 316
#     4  11  21  34  56  84 112 140 180 223 274 327
#     4  10  23  36  51  75 113 151 188 219 258 319
#
# _framework density 27.907298999999998
#
# number of rings (size 3 to 8) (size 9 to 14) (size 15 to 20)
#    0.750    1.250    1.250    3.750    1.750    1.000 
#    0.000    0.000    0.000    0.000    0.000   11.375 
#    0.000    0.125    0.000    0.000    0.000    0.000 
#
# Total GULP energy -89483.563618 kJ/mol
# GULP energy per Si atom -5592.722726 kJ/mol
# Density = 2.784378 g / cm^3
# Si number density = 27.907299 Si / 1000 Ang^3
#
#
#
# Elastic Constant Matrix: (Units=GPa)
#
#
# Indices 1 2 3 4 5 6 
#
# 1 123.3467 46.3713 38.3345 -12.2257 1.8776 57.6596
# 2 46.3713 99.6511 33.9803 5.6837 0.8490 36.1845
# 3 38.3345 33.9803 145.5993 -17.9954 14.5500 14.3380
# 4 -12.2257 5.6837 -17.9954 34.1227 1.9878 -3.5432
# 5 1.8776 0.8490 14.5500 1.9878 46.4469 -10.4385
# 6 57.6596 36.1845 14.3380 -3.5432 -10.4385 57.9150
#
#
#
# Elastic Compliance Matrix: (Units=1/GPa)
#
#
# Indices 1 2 3 4 5 6 
#
# 1 0.017344 -0.001854 -0.001623 0.004220 -0.003972 -0.016165
# 2 -0.001854 0.014764 -0.002847 -0.005325 -0.000676 -0.007121
# 3 -0.001623 -0.002847 0.008697 0.004740 -0.002570 0.001068
# 4 0.004220 -0.005325 0.004740 0.034334 -0.003143 -0.000514
# 5 -0.003972 -0.000676 -0.002570 -0.003143 0.024727 0.009277
# 6 -0.016165 -0.007121 0.001068 -0.000514 0.009277 0.039185
#
#
# Mechanical properties :
#
#
# Convention : Reuss Voigt Hill
#
# Bulk Modulus (GPa) = 35.51647 67.32995 51.42321
# Shear Modulus (GPa) = 31.03924 44.35763 37.69844
#
# Velocity S-wave (km/s) = 3.33862 3.99113 3.67937
# Velocity P-wave (km/s) = 5.25510 6.73925 6.04291
#
# Compressibility (1/GPa) = 0.02815595
#
# Stress axis : x y z
#
# Youngs Moduli (GPa) = 57.65688 67.73344 114.97752
#
# Poissons Ratio (x) = 0.12561 0.18665
# Poissons Ratio (y) = 0.10692 0.32731
# Poissons Ratio (z) = 0.09360 0.19282
#
# Static dielectric constant tensor:
#      x y z
#    x 2.281800 -0.044090 -0.032630 
#    y -0.044090 2.235590 -0.026790 
#    z -0.032630 -0.026790 2.152150 
# 
# From -- ./inp_files/268114.got.cif
#   From: 2010.05.17/outbox.cif.g08.bks.cpg/sg2_135_cif.got.tgz:268114.got - 2010.06.03 11:33:40.
