data_PCOD9025108
_publ_section_title
;
Structure prediction by ZEFSAII (Michael W. Deem and Ramdas Pophale) SiO2 
 PCOD9025108
Probable space group: P -1
;
_chemical_formula_sum "Si O2"
_cell_formula_units_Z 14
_cell_length_a 18.813636
_cell_length_b 6.813807
_cell_length_c 17.793826
_cell_angle_alpha 65.384723
_cell_angle_beta 30.356054
_cell_angle_gamma 43.004281
_cell_volume 615.427829
_symmetry_space_group_name_H-M "P -1"
_symmetry_group_IT_number 2
_symmetry_cell_setting 'triclinic'
loop_
_space_group_symop_operation_xyz
x,y,z
-x,-y,-z
loop_
_atom_site_type_symbol
_atom_site_label
_atom_site_fract_x
_atom_site_fract_y
_atom_site_fract_z
Si Si1 0.886083 0.835056 0.502550
Si Si2 0.580941 0.746875 0.073740
Si Si3 0.672228 0.134612 0.499810
Si Si4 0.335121 0.503846 0.125792
Si Si5 0.726620 0.555088 0.370460
Si Si6 0.986513 0.599125 0.171655
Si Si7 0.851507 0.375700 0.113888
O O1 0.000000 0.500000 0.500000
O O2 0.061731 0.821161 0.354310
O O3 0.611780 0.174203 0.725317
O O4 0.863829 0.811649 0.437545
O O5 0.456579 0.127140 0.101675
O O6 0.674290 0.506703 0.953815
O O7 0.787730 0.572461 0.967489
O O8 0.645328 0.422328 0.493799
O O9 0.426812 0.311399 0.702501
O O10 0.767180 0.990285 0.351331
O O11 0.500000 0.500000 0.000000
O O12 0.848146 0.376026 0.206508
O O13 0.918630 0.432975 0.269112
O O14 0.500000 0.000000 0.500000
O O15 0.030457 0.574001 0.046891
O O16 0.000000 0.000000 0.000000
#
# Coordination Sequence:
#
# PCOD9025108 Si02
#       7
#     2   2   2   2   2   2   2
#     4  10  22  43  68  99 137 176 223 281 348 410
#     4  10  22  41  63  96 131 177 220 279 342 410
#     4  12  24  45  70 100 142 182 228 290 353 405
#     4  10  22  40  67  93 133 171 224 281 339 404
#     4  12  26  44  69 105 140 181 235 292 344 410
#     4  12  24  42  69  99 138 182 233 282 350 415
#     4  12  24  46  71  97 143 187 231 287 349 411
#
# _framework density 22.748405000000002
#
# number of rings (size 3 to 8) (size 9 to 14) (size 15 to 20)
#    0.000    0.857    5.714    1.714    2.000    0.571 
#    0.000    4.286    0.000    0.000    0.000    0.000 
#    0.000    0.000    0.000    0.000    0.000    0.000 
#
# Total GULP energy -78136.710471 kJ/mol
# GULP energy per Si atom -5581.193605 kJ/mol
# Density = 2.269663 g / cm^3
# Si number density = 22.748405 Si / 1000 Ang^3
#
#
#
# Elastic Constant Matrix: (Units=GPa)
#
#
# Indices 1 2 3 4 5 6 
#
# 1 101.4476 20.2060 32.7446 -10.8255 -12.5019 11.8882
# 2 20.2060 57.3921 15.2008 -17.8737 -0.8001 12.3242
# 3 32.7446 15.2008 152.4118 -17.7323 -6.2205 16.6085
# 4 -10.8255 -17.8737 -17.7323 35.3060 5.8941 -7.5603
# 5 -12.5019 -0.8001 -6.2205 5.8941 43.0250 -7.9770
# 6 11.8882 12.3242 16.6085 -7.5603 -7.9770 31.2297
#
#
#
# Elastic Compliance Matrix: (Units=1/GPa)
#
#
# Indices 1 2 3 4 5 6 
#
# 1 0.011630 -0.003177 -0.001887 0.000249 0.002752 -0.001406
# 2 -0.003177 0.022875 0.000103 0.009817 -0.002988 -0.006260
# 3 -0.001887 0.000103 0.007562 0.002736 -0.000341 -0.002769
# 4 0.000249 0.009817 0.002736 0.035873 -0.003841 0.002279
# 5 0.002752 -0.002988 -0.000341 -0.003841 0.025559 0.005912
# 6 -0.001406 -0.006260 -0.002769 0.002279 0.005912 0.038561
#
#
# Mechanical properties :
#
#
# Convention : Reuss Voigt Hill
#
# Bulk Modulus (GPa) = 31.10801 49.72825 40.41813
# Shear Modulus (GPa) = 30.73199 38.11883 34.42541
#
# Velocity S-wave (km/s) = 3.67952 4.09794 3.89435
# Velocity P-wave (km/s) = 5.63527 6.65570 6.16663
#
# Compressibility (1/GPa) = 0.03214606
#
# Stress axis : x y z
#
# Youngs Moduli (GPa) = 85.98634 43.71629 132.23259
#
# Poissons Ratio (x) = 0.13887 0.24954
# Poissons Ratio (y) = 0.27315 -0.01367
# Poissons Ratio (z) = 0.16227 -0.00452
#
# Static dielectric constant tensor:
#      x y z
#    x 1.889930 -0.063250 0.008870 
#    y -0.063250 1.909440 -0.025340 
#    z 0.008870 -0.025340 1.914930 
# 
# From -- ./inp_files/55406.got.cif
#   From: 2010.05.17/outbox.cif.g08.bks.cpg/sg2_28_cif.got.tgz:55406.got - 2010.06.03 11:33:40.
