data_PCOD9025726
_publ_section_title
;
Structure prediction by ZEFSAII (Michael W. Deem and Ramdas Pophale) SiO2 
 PCOD9025726
Probable space group: P -1
;
_chemical_formula_sum "Si O2"
_cell_formula_units_Z 14
_cell_length_a 8.302832
_cell_length_b 7.682550
_cell_length_c 19.382901
_cell_angle_alpha 53.082283
_cell_angle_beta 72.866412
_cell_angle_gamma 112.791317
_cell_volume 636.764972
_symmetry_space_group_name_H-M "P -1"
_symmetry_group_IT_number 2
_symmetry_cell_setting 'triclinic'
loop_
_space_group_symop_operation_xyz
x,y,z
-x,-y,-z
loop_
_atom_site_type_symbol
_atom_site_label
_atom_site_fract_x
_atom_site_fract_y
_atom_site_fract_z
Si Si1 0.515253 0.331925 0.479005
Si Si2 0.772791 0.721899 0.219021
Si Si3 0.265111 0.796851 0.430079
Si Si4 0.343251 0.664865 0.061238
Si Si5 0.502753 0.438845 0.192871
Si Si6 0.821497 0.540635 0.009586
Si Si7 0.805409 0.264084 0.269513
O O1 0.500000 0.500000 0.500000
O O2 0.587296 0.512415 0.355957
O O3 0.718332 0.332713 0.471062
O O4 0.253259 0.953161 0.607199
O O5 0.647802 0.708667 0.170024
O O6 0.829379 0.530929 0.231411
O O7 0.011329 0.090649 0.120055
O O8 0.000000 0.500000 0.500000
O O9 0.315182 0.101621 0.339395
O O10 0.545148 0.984023 0.326040
O O11 0.382221 0.482273 0.142460
O O12 0.388749 0.691428 0.967547
O O13 0.051200 0.439844 0.157326
O O14 0.500000 0.000000 0.000000
O O15 0.698823 0.487641 0.110521
O O16 0.000000 0.500000 0.000000
#
# Coordination Sequence:
#
# PCOD9025726 Si02
#       7
#     2   2   2   2   2   2   2
#     4  10  22  40  71 100 133 181 233 279 351 409
#     4  11  22  44  71  95 140 184 230 288 344 412
#     4   9  22  40  67  98 137 167 233 282 344 402
#     4  12  25  46  67 102 143 180 233 289 341 419
#     4  11  25  42  65 105 140 179 234 288 341 412
#     4  12  25  43  72  98 135 187 237 285 353 407
#     4   9  22  41  67  95 134 182 222 281 351 397
#
# _framework density 21.986132999999999
#
# number of rings (size 3 to 8) (size 9 to 14) (size 15 to 20)
#    0.857    0.571    0.000    5.571    6.000    0.000 
#    0.000    0.714    0.000    0.000    0.000    0.000 
#    0.000    0.000    0.000    0.000    0.000    0.000 
#
# Total GULP energy -77941.762935 kJ/mol
# GULP energy per Si atom -5567.268781 kJ/mol
# Density = 2.193609 g / cm^3
# Si number density = 21.986133 Si / 1000 Ang^3
#
#
#
# Elastic Constant Matrix: (Units=GPa)
#
#
# Indices 1 2 3 4 5 6 
#
# 1 82.0671 25.9867 17.1195 2.4635 7.8180 0.1828
# 2 25.9867 118.5640 39.0456 7.7876 6.4464 6.6625
# 3 17.1195 39.0456 87.5054 -3.5541 6.1647 0.2546
# 4 2.4635 7.7876 -3.5541 48.0956 2.8157 6.2211
# 5 7.8180 6.4464 6.1647 2.8157 40.8674 -5.2394
# 6 0.1828 6.6625 0.2546 6.2211 -5.2394 34.1672
#
#
#
# Elastic Compliance Matrix: (Units=1/GPa)
#
#
# Indices 1 2 3 4 5 6 
#
# 1 0.013426 -0.002345 -0.001457 -0.000323 -0.001936 0.000158
# 2 -0.002345 0.010609 -0.004287 -0.001636 -0.000701 -0.001834
# 3 -0.001457 -0.004287 0.013786 0.001831 -0.001222 0.000220
# 4 -0.000323 -0.001636 0.001831 0.021838 -0.001970 -0.003971
# 5 -0.001936 -0.000701 -0.001222 -0.001970 0.025844 0.004478
# 6 0.000158 -0.001834 0.000220 -0.003971 0.004478 0.031033
#
#
# Mechanical properties :
#
#
# Convention : Reuss Voigt Hill
#
# Bulk Modulus (GPa) = 46.20748 50.27114 48.23931
# Shear Modulus (GPa) = 35.73314 38.35836 37.04575
#
# Velocity S-wave (km/s) = 4.03582 4.18145 4.10928
# Velocity P-wave (km/s) = 6.54060 6.79906 6.67108
#
# Compressibility (1/GPa) = 0.02164152
#
# Stress axis : x y z
#
# Youngs Moduli (GPa) = 74.48510 94.26392 72.53985
#
# Poissons Ratio (x) = 0.22106 0.10572
# Poissons Ratio (y) = 0.17467 0.31095
# Poissons Ratio (z) = 0.10855 0.40407
#
# Static dielectric constant tensor:
#      x y z
#    x 1.918030 0.034980 0.033770 
#    y 0.034980 1.843710 0.028020 
#    z 0.033770 0.028020 1.879260 
# 
# From -- ./inp_files/587836.got.cif
#   From: 2010.05.17/outbox.cif.g08.bks.cpg/sg2_294_cif.got.tgz:587836.got - 2010.06.03 11:33:40.
