data_PCOD9025187
_publ_section_title
;
Structure prediction by ZEFSAII (Michael W. Deem and Ramdas Pophale) SiO2 
 PCOD9025187
Probable space group: P -1
;
_chemical_formula_sum "Si O2"
_cell_formula_units_Z 14
_cell_length_a 8.083375
_cell_length_b 8.647092
_cell_length_c 18.431453
_cell_angle_alpha 143.892373
_cell_angle_beta 54.701861
_cell_angle_gamma 127.170210
_cell_volume 593.831034
_symmetry_space_group_name_H-M "P -1"
_symmetry_group_IT_number 2
_symmetry_cell_setting 'triclinic'
loop_
_space_group_symop_operation_xyz
x,y,z
-x,-y,-z
loop_
_atom_site_type_symbol
_atom_site_label
_atom_site_fract_x
_atom_site_fract_y
_atom_site_fract_z
Si Si1 0.849031 0.579471 0.630682
Si Si2 0.511658 0.147453 0.198845
Si Si3 0.054922 0.713503 0.380969
Si Si4 0.051230 0.459626 0.811124
Si Si5 0.621964 0.280087 0.375299
Si Si6 0.787411 0.902349 0.265783
Si Si7 0.334903 0.538834 0.995192
O O1 0.635197 0.647915 0.687965
O O2 0.000000 0.500000 0.500000
O O3 0.794244 0.342366 0.615731
O O4 0.994023 0.880489 0.734249
O O5 0.744674 0.291551 0.164450
O O6 0.532666 0.091632 0.257849
O O7 0.409623 0.859524 0.077389
O O8 0.091331 0.638174 0.261112
O O9 0.846731 0.477785 0.368931
O O10 0.000000 0.000000 0.500000
O O11 0.147420 0.218299 0.723077
O O12 0.897636 0.521063 0.933290
O O13 0.500000 0.500000 0.500000
O O14 0.632327 0.095250 0.371876
O O15 0.692737 0.654544 0.140879
O O16 0.500000 0.500000 0.000000
#
# Coordination Sequence:
#
# PCOD9025187 Si02
#       7
#     2   2   2   2   2   2   2
#     4  11  23  44  74 102 145 185 225 289 350 416
#     4  11  24  45  68 105 136 181 236 279 357 404
#     4  10  23  40  64 103 138 177 230 286 340 406
#     4  11  26  44  69 105 141 176 240 291 337 425
#     4  10  22  40  67  97 136 179 230 282 345 423
#     4  11  23  45  69 102 136 188 234 280 352 420
#     4  12  26  47  74  96 142 188 230 291 354 414
#
# _framework density 23.57573
#
# number of rings (size 3 to 8) (size 9 to 14) (size 15 to 20)
#    0.000    1.143    2.857    3.000    2.000    3.429 
#    0.000    3.571    0.000    0.000    0.000    0.000 
#    0.000    0.000    0.000    0.000    0.000    0.000 
#
# Total GULP energy -78173.719917 kJ/mol
# GULP energy per Si atom -5583.837137 kJ/mol
# Density = 2.352207 g / cm^3
# Si number density = 23.575730 Si / 1000 Ang^3
#
#
#
# Elastic Constant Matrix: (Units=GPa)
#
#
# Indices 1 2 3 4 5 6 
#
# 1 93.5884 34.3836 18.9780 14.5874 -14.1189 -20.6945
# 2 34.3836 97.1133 28.9223 10.5199 -3.7393 -1.7729
# 3 18.9780 28.9223 95.0415 24.8355 0.8574 1.9377
# 4 14.5874 10.5199 24.8355 17.3856 4.3509 -6.1448
# 5 -14.1189 -3.7393 0.8574 4.3509 38.1584 5.8749
# 6 -20.6945 -1.7729 1.9377 -6.1448 5.8749 48.2846
#
#
#
# Elastic Compliance Matrix: (Units=1/GPa)
#
#
# Indices 1 2 3 4 5 6 
#
# 1 0.015837 -0.004315 0.001299 -0.012591 0.006194 0.004221
# 2 -0.004315 0.012699 -0.002863 -0.000431 -0.000036 -0.001319
# 3 0.001299 -0.002863 0.018614 -0.028413 0.003693 -0.004361
# 4 -0.012591 -0.000431 -0.028413 0.118502 -0.019606 0.013194
# 5 0.006194 -0.000036 0.003693 -0.019606 0.031231 -0.003790
# 6 0.004221 -0.001319 -0.004361 0.013194 -0.003790 0.024787
#
#
# Mechanical properties :
#
#
# Convention : Reuss Voigt Hill
#
# Bulk Modulus (GPa) = 28.25482 50.03457 39.14470
# Shear Modulus (GPa) = 20.38950 34.32967 27.35959
#
# Velocity S-wave (km/s) = 2.94403 3.82009 3.41030
# Velocity P-wave (km/s) = 4.85460 6.38172 5.66981
#
# Compressibility (1/GPa) = 0.03539219
#
# Stress axis : x y z
#
# Youngs Moduli (GPa) = 63.14265 78.74770 53.72351
#
# Poissons Ratio (x) = 0.33977 -0.06978
# Poissons Ratio (y) = 0.27244 0.15381
# Poissons Ratio (z) = -0.08201 0.22545
#
# Static dielectric constant tensor:
#      x y z
#    x 2.045500 -0.050750 -0.002510 
#    y -0.050750 1.859170 0.006880 
#    z -0.002510 0.006880 1.917670 
# 
# From -- ./inp_files/195563.got.cif
#   From: 2010.05.17/outbox.cif.g08.bks.cpg/sg2_98_cif.got.tgz:195563.got - 2010.06.03 11:33:40.
