data_PCOD9025574
_publ_section_title
;
Structure prediction by ZEFSAII (Michael W. Deem and Ramdas Pophale) SiO2 
 PCOD9025574
Probable space group: P -1
;
_chemical_formula_sum "Si O2"
_cell_formula_units_Z 16
_cell_length_a 20.936847
_cell_length_b 24.598618
_cell_length_c 8.815273
_cell_angle_alpha 147.466926
_cell_angle_beta 147.244097
_cell_angle_gamma 20.089335
_cell_volume 808.349406
_symmetry_space_group_name_H-M "P -1"
_symmetry_group_IT_number 2
_symmetry_cell_setting 'triclinic'
loop_
_space_group_symop_operation_xyz
x,y,z
-x,-y,-z
loop_
_atom_site_type_symbol
_atom_site_label
_atom_site_fract_x
_atom_site_fract_y
_atom_site_fract_z
Si Si1 0.842123 0.033197 0.688268
Si Si2 0.778070 0.877994 0.830477
Si Si3 0.802647 0.096788 0.407709
Si Si4 0.470622 0.246932 0.653816
Si Si5 0.973015 0.306756 0.826586
Si Si6 0.544536 0.577618 0.698388
Si Si7 0.403003 0.056370 0.676332
Si Si8 0.147532 0.362173 0.099698
O O1 0.809476 0.094409 0.596802
O O2 0.643751 0.164079 0.693801
O O3 0.922818 0.863704 0.433950
O O4 0.000000 0.000000 0.000000
O O5 0.749940 0.844115 0.533466
O O6 0.593538 0.976861 0.798563
O O7 0.958408 0.729540 0.946843
O O8 0.776977 0.997444 0.078448
O O9 0.627726 0.278122 0.418466
O O10 0.000000 0.000000 0.500000
O O11 0.270222 0.363209 0.437763
O O12 0.537405 0.094692 0.501954
O O13 0.447905 0.343487 0.968767
O O14 0.745994 0.442598 0.694906
O O15 0.035761 0.363518 0.994318
O O16 0.500000 0.500000 0.500000
O O17 0.312312 0.183294 0.926610
O O18 0.000000 0.500000 0.000000
#
# Coordination Sequence:
#
# PCOD9025574 Si02
#       8
#     2   2   2   2   2   2   2   2
#     4  11  24  45  72 100 129 183 239 278 335 411
#     4  10  22  40  69  99 124 179 227 273 329 410
#     4  11  23  43  70  98 130 178 230 278 329 408
#     4  12  24  47  71  98 138 188 226 277 345 413
#     4  11  24  43  68  97 142 170 225 284 345 396
#     4  12  27  47  67 101 139 178 226 289 343 399
#     4  11  22  43  70  97 134 175 231 271 333 411
#     4  12  27  41  66 103 144 177 221 284 353 408
#
# _framework density 19.793420999999999
#
# number of rings (size 3 to 8) (size 9 to 14) (size 15 to 20)
#    0.000    0.750    3.750    4.875    5.250    0.500 
#    2.250    1.250    0.000    0.000    0.000    0.000 
#    0.000    0.000    0.000    0.000    0.000    0.000 
#
# Total GULP energy -89509.862567 kJ/mol
# GULP energy per Si atom -5594.366410 kJ/mol
# Density = 1.974837 g / cm^3
# Si number density = 19.793421 Si / 1000 Ang^3
#
#
#
# Elastic Constant Matrix: (Units=GPa)
#
#
# Indices 1 2 3 4 5 6 
#
# 1 93.5904 30.0435 19.7133 -4.7805 26.0660 -0.8944
# 2 30.0435 102.1760 23.6585 -21.1447 4.6599 21.0171
# 3 19.7133 23.6585 92.5198 -11.2046 7.3754 7.0351
# 4 -4.7805 -21.1447 -11.2046 35.2703 -4.8239 -0.0155
# 5 26.0660 4.6599 7.3754 -4.8239 34.9427 3.2709
# 6 -0.8944 21.0171 7.0351 -0.0155 3.2709 33.8101
#
#
#
# Elastic Compliance Matrix: (Units=1/GPa)
#
#
# Indices 1 2 3 4 5 6 
#
# 1 0.016022 -0.005545 -0.001874 -0.003358 -0.011786 0.005399
# 2 -0.005545 0.015322 -0.001301 0.008629 0.004479 -0.009830
# 3 -0.001874 -0.001301 0.012035 0.002729 -0.000433 -0.001702
# 4 -0.003358 0.008629 0.002729 0.034782 0.006198 -0.006604
# 5 -0.011786 0.004479 -0.000433 0.006198 0.038389 -0.006717
# 6 0.005399 -0.009830 -0.001702 -0.006604 -0.006717 0.036831
#
#
# Mechanical properties :
#
#
# Convention : Reuss Voigt Hill
#
# Bulk Modulus (GPa) = 38.55127 48.34631 43.44879
# Shear Modulus (GPa) = 27.86016 35.12937 31.49477
#
# Velocity S-wave (km/s) = 3.75580 4.21741 3.99328
# Velocity P-wave (km/s) = 6.19089 6.94218 6.57727
#
# Compressibility (1/GPa) = 0.02593948
#
# Stress axis : x y z
#
# Youngs Moduli (GPa) = 62.41345 65.26452 83.09204
#
# Poissons Ratio (x) = 0.36191 0.15567
# Poissons Ratio (y) = 0.34610 0.10812
# Poissons Ratio (z) = 0.11693 0.08492
#
# Static dielectric constant tensor:
#      x y z
#    x 1.657440 0.010010 -0.012230 
#    y 0.010010 1.687000 -0.018490 
#    z -0.012230 -0.018490 1.692970 
# 
# From -- ./inp_files/199791.got.cif
#   From: 2010.05.17/outbox.cif.g08.bks.cpg/sg2_100_cif.got.tgz:199791.got - 2010.06.03 11:33:40.
