data_PCOD9025812
_publ_section_title
;
Structure prediction by ZEFSAII (Michael W. Deem and Ramdas Pophale) SiO2 
 PCOD9025812
Probable space group: P -1
;
_chemical_formula_sum "Si O2"
_cell_formula_units_Z 16
_cell_length_a 9.344548
_cell_length_b 19.216803
_cell_length_c 10.863512
_cell_angle_alpha 32.401088
_cell_angle_beta 58.081340
_cell_angle_gamma 38.456006
_cell_volume 596.535324
_symmetry_space_group_name_H-M "P -1"
_symmetry_group_IT_number 2
_symmetry_cell_setting 'triclinic'
loop_
_space_group_symop_operation_xyz
x,y,z
-x,-y,-z
loop_
_atom_site_type_symbol
_atom_site_label
_atom_site_fract_x
_atom_site_fract_y
_atom_site_fract_z
Si Si1 0.407997 0.678601 0.653245
Si Si2 0.919257 0.705032 0.863492
Si Si3 0.453972 0.283314 0.229591
Si Si4 0.743375 0.961820 0.757956
Si Si5 0.261734 0.430992 0.718246
Si Si6 0.915359 0.365179 0.743879
Si Si7 0.964502 0.232094 0.499793
Si Si8 0.261073 0.813184 0.009709
O O1 0.435274 0.665025 0.809508
O O2 0.691394 0.526545 0.699712
O O3 0.260236 0.667369 0.646324
O O4 0.252375 0.903341 0.375759
O O5 0.161712 0.479023 0.065252
O O6 0.740963 0.709353 0.010325
O O7 0.948929 0.809870 0.786540
O O8 0.833516 0.811039 0.615261
O O9 0.586843 0.222884 0.128317
O O10 0.511417 0.124243 0.527517
O O11 0.814387 0.815129 0.047461
O O12 0.117928 0.514073 0.530996
O O13 0.124636 0.615808 0.587511
O O14 0.551340 0.307183 0.779711
O O15 0.843150 0.267419 0.860612
O O16 0.067636 0.037999 0.789622
#
# Coordination Sequence:
#
# PCOD9025812 Si02
#       8
#     2   2   2   2   2   2   2   2
#     4  10  22  40  72 104 120 162 219 286 329 359
#     4  12  24  45  66  97 137 171 217 266 330 388
#     4  10  22  40  72 104 120 162 219 286 329 359
#     4  10  22  42  73  99 127 165 218 282 327 378
#     4  12  30  43  61  96 142 186 208 252 322 414
#     4  12  24  45  66  97 137 171 217 266 330 388
#     4  12  24  42  72  97 130 170 219 280 322 378
#     4  12  24  42  72  97 130 170 219 280 322 378
#
# _framework density 26.821545
#
# number of rings (size 3 to 8) (size 9 to 14) (size 15 to 20)
#    0.750    0.000    6.250    0.750    1.750    6.000 
#    0.000    1.250    0.000    0.000    0.000    0.000 
#    0.000    0.000    0.000    0.000    0.000    0.000 
#
# Total GULP energy -89408.258169 kJ/mol
# GULP energy per Si atom -5588.016136 kJ/mol
# Density = 2.676050 g / cm^3
# Si number density = 26.821545 Si / 1000 Ang^3
#
#
#
# Elastic Constant Matrix: (Units=GPa)
#
#
# Indices 1 2 3 4 5 6 
#
# 1 82.7698 19.6128 36.2320 -4.0816 7.1020 18.2180
# 2 19.6128 67.1546 27.2078 -11.0275 -4.9982 23.1989
# 3 36.2320 27.2078 148.1744 2.8180 6.2732 10.7704
# 4 -4.0816 -11.0275 2.8180 41.2758 12.0361 1.5424
# 5 7.1020 -4.9982 6.2732 12.0361 38.6510 2.6865
# 6 18.2180 23.1989 10.7704 1.5424 2.6865 34.3761
#
#
#
# Elastic Compliance Matrix: (Units=1/GPa)
#
#
# Indices 1 2 3 4 5 6 
#
# 1 0.015431 -0.000759 -0.003086 0.002591 -0.002781 -0.006598
# 2 -0.000759 0.022476 -0.003132 0.005886 0.002713 -0.014261
# 3 -0.003086 -0.003132 0.008041 -0.001519 -0.000765 0.001357
# 4 0.002591 0.005886 -0.001519 0.028706 -0.008023 -0.005530
# 5 -0.002781 0.002713 -0.000765 -0.008023 0.029500 -0.002063
# 6 -0.006598 -0.014261 0.001357 -0.005530 -0.002063 0.042195
#
#
# Mechanical properties :
#
#
# Convention : Reuss Voigt Hill
#
# Bulk Modulus (GPa) = 31.25407 51.57824 41.41616
# Shear Modulus (GPa) = 29.24535 37.19699 33.22117
#
# Velocity S-wave (km/s) = 3.30565 3.72806 3.52319
# Velocity P-wave (km/s) = 5.12325 6.14843 5.65910
#
# Compressibility (1/GPa) = 0.03199583
#
# Stress axis : x y z
#
# Youngs Moduli (GPa) = 64.80493 44.49112 124.36253
#
# Poissons Ratio (x) = 0.03375 0.38377
# Poissons Ratio (y) = 0.04916 0.38948
# Poissons Ratio (z) = 0.19998 0.13934
#
# Static dielectric constant tensor:
#      x y z
#    x 2.144740 -0.044280 -0.035660 
#    y -0.044280 2.077830 0.069130 
#    z -0.035660 0.069130 2.149920 
# 
# From -- ./inp_files/438585.got.cif
#   From: 2010.05.17/outbox.cif.g08.bks.cpg/sg2_220_cif.got.tgz:438585.got - 2010.06.03 11:33:40.
