data_PCOD9025675
_publ_section_title
;
Structure prediction by ZEFSAII (Michael W. Deem and Ramdas Pophale) SiO2 
 PCOD9025675
Probable space group: P -1
;
_chemical_formula_sum "Si O2"
_cell_formula_units_Z 12
_cell_length_a 9.381171
_cell_length_b 10.839275
_cell_length_c 4.888511
_cell_angle_alpha 95.563131
_cell_angle_beta 73.492845
_cell_angle_gamma 83.019200
_cell_volume 468.531563
_symmetry_space_group_name_H-M "P -1"
_symmetry_group_IT_number 2
_symmetry_cell_setting 'triclinic'
loop_
_space_group_symop_operation_xyz
x,y,z
-x,-y,-z
loop_
_atom_site_type_symbol
_atom_site_label
_atom_site_fract_x
_atom_site_fract_y
_atom_site_fract_z
Si Si1 0.540936 0.615310 0.331837
Si Si2 0.223112 0.072248 0.900705
Si Si3 0.691453 0.795689 0.611352
Si Si4 0.228802 0.658533 0.298064
Si Si5 0.870187 0.182339 0.111805
Si Si6 0.856951 0.545840 0.273256
O O1 0.500000 0.500000 0.500000
O O2 0.555382 0.730719 0.553045
O O3 0.410248 0.640028 0.190136
O O4 0.713622 0.570022 0.146644
O O5 0.311143 0.152767 0.072499
O O6 0.217839 0.929823 0.953709
O O7 0.286501 0.089466 0.570350
O O8 0.047975 0.134871 0.006023
O O9 0.834399 0.683746 0.459331
O O10 0.168194 0.700067 0.043350
O O11 0.169669 0.548652 0.485641
O O12 0.178118 0.777213 0.548639
O O13 0.000000 0.500000 0.000000
#
# Coordination Sequence:
#
# PCOD9025675 Si02
#       6
#     2   2   2   2   2   2
#     4   8  20  43  67 100 141 177 213 273 343 411
#     4  11  23  45  63 102 129 182 224 287 322 389
#     4  10  22  40  70  95 138 170 224 277 336 392
#     4  11  22  44  66 104 132 182 219 272 344 405
#     4  11  25  41  71  91 142 178 230 270 339 394
#     4   9  20  41  70 102 132 172 221 279 336 397
#
# _framework density 25.611937999999999
#
# number of rings (size 3 to 8) (size 9 to 14) (size 15 to 20)
#    1.000    1.000    0.000    3.000    0.000    5.333 
#    0.000   14.167    0.000    0.000    0.000    0.000 
#    0.000    0.000    0.000    0.000    0.000    0.000 
#
# Total GULP energy -67161.395939 kJ/mol
# GULP energy per Si atom -5596.782995 kJ/mol
# Density = 2.555364 g / cm^3
# Si number density = 25.611938 Si / 1000 Ang^3
#
#
#
# Elastic Constant Matrix: (Units=GPa)
#
#
# Indices 1 2 3 4 5 6 
#
# 1 92.8193 17.5250 11.8432 -6.9315 -1.1261 6.7899
# 2 17.5250 90.7506 9.2869 -26.0519 6.2277 30.7113
# 3 11.8432 9.2869 90.4539 -12.1537 3.9214 2.0182
# 4 -6.9315 -26.0519 -12.1537 32.5768 2.3915 3.0495
# 5 -1.1261 6.2277 3.9214 2.3915 29.7308 4.4511
# 6 6.7899 30.7113 2.0182 3.0495 4.4511 36.9104
#
#
#
# Elastic Compliance Matrix: (Units=1/GPa)
#
#
# Indices 1 2 3 4 5 6 
#
# 1 0.011370 -0.001710 -0.001263 0.000578 0.001024 -0.000771
# 2 -0.001710 0.025840 0.001379 0.023242 -0.004133 -0.022683
# 3 -0.001263 0.001379 0.011965 0.005619 -0.002100 -0.001780
# 4 0.000578 0.023242 0.005619 0.054170 -0.006434 -0.023452
# 5 0.001024 -0.004133 -0.002100 -0.006434 0.035390 -0.000371
# 6 -0.000771 -0.022683 -0.001780 -0.023452 -0.000371 0.048188
#
#
# Mechanical properties :
#
#
# Convention : Reuss Voigt Hill
#
# Bulk Modulus (GPa) = 21.74505 39.03712 30.39108
# Shear Modulus (GPa) = 24.33814 35.53484 29.93649
#
# Velocity S-wave (km/s) = 3.08598 3.72887 3.42255
# Velocity P-wave (km/s) = 4.60503 5.81499 5.24502
#
# Compressibility (1/GPa) = 0.04598749
#
# Stress axis : x y z
#
# Youngs Moduli (GPa) = 87.95430 38.69910 83.57837
#
# Poissons Ratio (x) = 0.06617 0.10553
# Poissons Ratio (y) = 0.15040 -0.11526
# Poissons Ratio (z) = 0.11106 -0.05337
#
# Static dielectric constant tensor:
#      x y z
#    x 2.086600 0.014960 0.002400 
#    y 0.014960 2.022670 0.033320 
#    z 0.002400 0.033320 1.924310 
# 
# From -- ./inp_files/18927.got.cif
#   From: 2010.05.17/outbox.cif.g08.bks.cpg/sg2_10_cif.got.tgz:18927.got - 2010.06.03 11:33:40.
