data_PCOD9025974
_publ_section_title
;
Structure prediction by ZEFSAII (Michael W. Deem and Ramdas Pophale) SiO2 
 PCOD9025974
Probable space group: P -1
;
_chemical_formula_sum "Si O2"
_cell_formula_units_Z 14
_cell_length_a 18.269475
_cell_length_b 14.599232
_cell_length_c 10.414104
_cell_angle_alpha 131.456490
_cell_angle_beta 21.551331
_cell_angle_gamma 142.313972
_cell_volume 588.925969
_symmetry_space_group_name_H-M "P -1"
_symmetry_group_IT_number 2
_symmetry_cell_setting 'triclinic'
loop_
_space_group_symop_operation_xyz
x,y,z
-x,-y,-z
loop_
_atom_site_type_symbol
_atom_site_label
_atom_site_fract_x
_atom_site_fract_y
_atom_site_fract_z
Si Si1 0.124286 0.155596 0.859810
Si Si2 0.522298 0.807503 0.200708
Si Si3 0.565977 0.973385 0.542487
Si Si4 0.282571 0.360876 0.321119
Si Si5 0.004094 0.545369 0.256139
Si Si6 0.549110 0.155923 0.108336
Si Si7 0.447891 0.524449 0.462701
O O1 0.331424 0.170969 0.442130
O O2 0.280881 0.300678 0.838657
O O3 0.877173 0.120368 0.164702
O O4 0.000000 0.000000 0.000000
O O5 0.560402 0.941892 0.176112
O O6 0.254993 0.629105 0.445084
O O7 0.500495 0.860840 0.425786
O O8 0.743849 0.791100 0.814682
O O9 0.487984 0.873607 0.705341
O O10 0.379611 0.406537 0.351231
O O11 0.061947 0.374500 0.665475
O O12 0.500000 0.500000 0.000000
O O13 0.164853 0.679670 0.229615
O O14 0.211578 0.527217 0.853593
O O15 0.500000 0.000000 0.000000
O O16 0.500000 0.500000 0.500000
#
# Coordination Sequence:
#
# PCOD9025974 Si02
#       7
#     2   2   2   2   2   2   2
#     4   9  21  37  61  84 124 167 204 244 320 383
#     4  10  23  40  64  90 122 167 213 256 311 371
#     4  10  22  41  60  88 128 164 205 259 313 374
#     4  10  24  39  67  94 127 167 221 256 308 394
#     4  10  23  41  68  94 127 168 214 262 316 383
#     4  10  23  38  62  93 123 162 207 260 316 377
#     4  11  23  41  65  97 129 163 208 271 326 362
#
# _framework density 23.772086999999999
#
# number of rings (size 3 to 8) (size 9 to 14) (size 15 to 20)
#    0.000    2.000    0.000    1.286   16.000    5.714 
#    0.000    5.000    0.000    0.000    0.000    0.000 
#    0.000    0.000    0.000    0.000    0.000    0.000 
#
# Total GULP energy -78109.599412 kJ/mol
# GULP energy per Si atom -5579.257101 kJ/mol
# Density = 2.371798 g / cm^3
# Si number density = 23.772087 Si / 1000 Ang^3
#
#
#
# Elastic Constant Matrix: (Units=GPa)
#
#
# Indices 1 2 3 4 5 6 
#
# 1 67.6634 8.3767 33.0513 16.9313 -11.8117 -19.3004
# 2 8.3767 98.8115 30.4689 21.5422 -6.6181 -5.2410
# 3 33.0513 30.4689 81.4961 8.5757 -25.0937 3.5372
# 4 16.9313 21.5422 8.5757 44.4313 -6.1585 -12.3591
# 5 -11.8117 -6.6181 -25.0937 -6.1585 23.0356 3.8243
# 6 -19.3004 -5.2410 3.5372 -12.3591 3.8243 31.0280
#
#
#
# Elastic Compliance Matrix: (Units=1/GPa)
#
#
# Indices 1 2 3 4 5 6 
#
# 1 0.026361 0.003689 -0.013669 -0.005059 -0.004508 0.017120
# 2 0.003689 0.013289 -0.007373 -0.006075 -0.004530 0.003518
# 3 -0.013669 -0.007373 0.028792 0.002536 0.025431 -0.015155
# 4 -0.005059 -0.006075 0.002536 0.029455 0.005197 0.006630
# 5 -0.004508 -0.004530 0.025431 0.005197 0.071075 -0.013158
# 6 0.017120 0.003518 -0.015155 0.006630 -0.013158 0.049463
#
#
# Mechanical properties :
#
#
# Convention : Reuss Voigt Hill
#
# Bulk Modulus (GPa) = 29.64141 43.52943 36.58542
# Shear Modulus (GPa) = 18.91177 31.43725 25.17451
#
# Velocity S-wave (km/s) = 2.82360 3.64049 3.25775
# Velocity P-wave (km/s) = 4.80899 6.00181 5.43820
#
# Compressibility (1/GPa) = 0.03373659
#
# Stress axis : x y z
#
# Youngs Moduli (GPa) = 37.93434 75.25280 34.73183
#
# Poissons Ratio (x) = -0.27761 0.47475
# Poissons Ratio (y) = -0.13994 0.25607
# Poissons Ratio (z) = 0.51853 0.55481
#
# Static dielectric constant tensor:
#      x y z
#    x 1.924220 -0.019860 -0.068220 
#    y -0.019860 1.937550 -0.038560 
#    z -0.068220 -0.038560 2.048170 
# 
# From -- ./inp_files/472413.got.cif
#   From: 2010.05.17/outbox.cif.g08.bks.cpg/sg2_237_cif.got.tgz:472413.got - 2010.06.03 11:33:40.
