data_PCOD9025222
_publ_section_title
;
Structure prediction by ZEFSAII (Michael W. Deem and Ramdas Pophale) SiO2 
 PCOD9025222
Probable space group: P -1
;
_chemical_formula_sum "Si O2"
_cell_formula_units_Z 16
_cell_length_a 5.196508
_cell_length_b 13.479385
_cell_length_c 14.581714
_cell_angle_alpha 135.048620
_cell_angle_beta 85.591036
_cell_angle_gamma 108.308874
_cell_volume 668.785751
_symmetry_space_group_name_H-M "P -1"
_symmetry_group_IT_number 2
_symmetry_cell_setting 'triclinic'
loop_
_space_group_symop_operation_xyz
x,y,z
-x,-y,-z
loop_
_atom_site_type_symbol
_atom_site_label
_atom_site_fract_x
_atom_site_fract_y
_atom_site_fract_z
Si Si1 0.237135 0.636573 0.137684
Si Si2 0.846234 0.873631 0.044530
Si Si3 0.157455 0.622989 0.341127
Si Si4 0.799206 0.049205 0.473685
Si Si5 0.867645 0.183105 0.187246
Si Si6 0.681838 0.512564 0.593615
Si Si7 0.140563 0.198742 0.811348
Si Si8 0.618848 0.331634 0.173089
O O1 0.291741 0.624347 0.237721
O O2 0.546478 0.676223 0.115843
O O3 0.086852 0.759835 0.213077
O O4 0.000000 0.500000 0.000000
O O5 0.976086 0.833506 0.104102
O O6 0.843482 0.040851 0.154724
O O7 0.530598 0.756762 0.968773
O O8 0.989424 0.844128 0.928957
O O9 0.085468 0.773365 0.436587
O O10 0.281147 0.625388 0.442554
O O11 0.921325 0.455528 0.234295
O O12 0.500000 0.000000 0.500000
O O13 0.796399 0.947006 0.319067
O O14 0.000000 0.000000 0.500000
O O15 0.597674 0.204793 0.167767
O O16 0.032946 0.344058 0.335486
O O17 0.500000 0.500000 0.500000
O O18 0.538719 0.569230 0.716281
#
# Coordination Sequence:
#
# PCOD9025222 Si02
#       8
#     2   2   2   2   2   2   2   2
#     4  12  27  45  71 106 142 183 233 294 358 428
#     4  10  22  40  67  99 136 177 230 290 364 417
#     4  11  25  43  72  94 141 183 230 291 365 405
#     4  12  25  49  69 100 144 190 243 290 355 425
#     4   9  21  43  64  96 138 179 224 291 360 427
#     4  10  24  42  65 103 133 178 241 288 353 433
#     4  12  26  45  70 107 139 182 244 289 346 440
#     4  10  22  40  69  94 136 175 228 289 360 427
#
# _framework density 23.923953000000001
#
# number of rings (size 3 to 8) (size 9 to 14) (size 15 to 20)
#    0.000    1.250    2.500    1.500   10.500    4.000 
#    2.250    0.000    0.000    0.000    0.000    0.000 
#    0.000    0.000    0.000    0.000    0.000    0.000 
#
# Total GULP energy -89210.526137 kJ/mol
# GULP energy per Si atom -5575.657884 kJ/mol
# Density = 2.386950 g / cm^3
# Si number density = 23.923953 Si / 1000 Ang^3
#
#
#
# Elastic Constant Matrix: (Units=GPa)
#
#
# Indices 1 2 3 4 5 6 
#
# 1 82.9930 33.7666 -3.4163 -4.5025 0.0857 -18.3130
# 2 33.7666 142.9705 43.5730 -6.8039 7.1199 -31.0661
# 3 -3.4163 43.5730 78.0447 0.9779 9.3733 -15.6813
# 4 -4.5025 -6.8039 0.9779 40.7085 -12.9980 -6.6187
# 5 0.0857 7.1199 9.3733 -12.9980 27.9305 -2.4005
# 6 -18.3130 -31.0661 -15.6813 -6.6187 -2.4005 31.1850
#
#
#
# Elastic Compliance Matrix: (Units=1/GPa)
#
#
# Indices 1 2 3 4 5 6 
#
# 1 0.015506 -0.002794 0.003820 0.003143 0.001622 0.009035
# 2 -0.002794 0.010856 -0.004836 0.003149 0.000973 0.007485
# 3 0.003820 -0.004836 0.017379 -0.001448 -0.004814 0.005487
# 4 0.003143 0.003149 -0.001448 0.032562 0.015892 0.012389
# 5 0.001622 0.000973 -0.004814 0.015892 0.045106 0.006346
# 6 0.009035 0.007485 0.005487 0.012389 0.006346 0.050706
#
#
# Mechanical properties :
#
#
# Convention : Reuss Voigt Hill
#
# Bulk Modulus (GPa) = 27.68493 50.20609 38.94551
# Shear Modulus (GPa) = 26.07208 35.30380 30.68794
#
# Velocity S-wave (km/s) = 3.30478 3.84561 3.58541
# Velocity P-wave (km/s) = 5.11461 6.38354 5.78398
#
# Compressibility (1/GPa) = 0.03612074
#
# Stress axis : x y z
#
# Youngs Moduli (GPa) = 64.49202 92.11395 57.54073
#
# Poissons Ratio (x) = 0.25741 -0.21981
# Poissons Ratio (y) = 0.18022 0.27825
# Poissons Ratio (z) = -0.24636 0.44543
#
# Static dielectric constant tensor:
#      x y z
#    x 2.093670 -0.042090 0.008290 
#    y -0.042090 1.966450 0.026640 
#    z 0.008290 0.026640 1.974480 
# 
# From -- ./inp_files/95431.got.cif
#   From: 2010.05.17/outbox.cif.g08.bks.cpg/sg2_48_cif.got.tgz:95431.got - 2010.06.03 11:33:40.
