data_PCOD9025997
_publ_section_title
;
Structure prediction by ZEFSAII (Michael W. Deem and Ramdas Pophale) SiO2 
 PCOD9025997
Probable space group: P -1
;
_chemical_formula_sum "Si O2"
_cell_formula_units_Z 16
_cell_length_a 11.908839
_cell_length_b 11.291163
_cell_length_c 17.134691
_cell_angle_alpha 136.220406
_cell_angle_beta 141.552517
_cell_angle_gamma 71.912241
_cell_volume 798.347829
_symmetry_space_group_name_H-M "P -1"
_symmetry_group_IT_number 2
_symmetry_cell_setting 'triclinic'
loop_
_space_group_symop_operation_xyz
x,y,z
-x,-y,-z
loop_
_atom_site_type_symbol
_atom_site_label
_atom_site_fract_x
_atom_site_fract_y
_atom_site_fract_z
Si Si1 0.838539 0.302677 0.038868
Si Si2 0.789678 0.288284 0.183812
Si Si3 0.256933 0.280443 0.268737
Si Si4 0.728449 0.535639 0.396397
Si Si5 0.412721 0.105050 0.384100
Si Si6 0.077297 0.623832 0.184566
Si Si7 0.686296 0.851207 0.926635
Si Si8 0.857963 0.988993 0.662989
O O1 0.789669 0.337748 0.116232
O O2 0.053179 0.296454 0.161179
O O3 0.914118 0.475828 0.095071
O O4 0.631930 0.077506 0.784840
O O5 0.710772 0.395996 0.247758
O O6 0.041960 0.380322 0.392593
O O7 0.649733 0.034575 0.999794
O O8 0.500000 0.500000 0.500000
O O9 0.266328 0.177742 0.303952
O O10 0.252131 0.153831 0.131419
O O11 0.523392 0.377238 0.266742
O O12 0.743548 0.739344 0.470850
O O13 0.670706 0.300083 0.624541
O O14 0.300503 0.004180 0.357531
O O15 0.101161 0.843013 0.298869
O O16 0.000000 0.500000 0.000000
O O17 0.899503 0.915731 0.123997
#
# Coordination Sequence:
#
# PCOD9025997 Si02
#       8
#     2   2   2   2   2   2   2   2
#     4  12  23  39  62  93 133 157 198 258 309 375
#     4  10  22  41  60  97 123 160 207 246 310 371
#     4  12  20  34  58  98 126 151 190 248 327 367
#     4  10  23  39  65  88 127 164 202 256 299 363
#     4  12  23  38  62  91 127 161 195 262 316 369
#     4  12  26  41  59  91 126 170 209 246 308 372
#     4  11  20  38  64  91 125 157 196 256 310 370
#     4  11  24  39  59  90 122 165 212 246 299 367
#
# _framework density 20.041388999999999
#
# number of rings (size 3 to 8) (size 9 to 14) (size 15 to 20)
#    0.000    0.750    5.000    4.125    1.750    0.000 
#    0.000    0.625    0.000    1.500    0.000    0.000 
#    0.000    0.000    0.000    0.000    0.000    0.000 
#
# Total GULP energy -89422.573463 kJ/mol
# GULP energy per Si atom -5588.910841 kJ/mol
# Density = 1.999577 g / cm^3
# Si number density = 20.041389 Si / 1000 Ang^3
#
#
#
# Elastic Constant Matrix: (Units=GPa)
#
#
# Indices 1 2 3 4 5 6 
#
# 1 64.1189 23.6422 14.9758 1.1544 -15.7654 10.7150
# 2 23.6422 102.5128 23.4130 15.6142 -7.1701 16.8247
# 3 14.9758 23.4130 84.4023 9.2861 1.6319 4.6422
# 4 1.1544 15.6142 9.2861 26.5473 1.7139 3.7673
# 5 -15.7654 -7.1701 1.6319 1.7139 35.0946 4.9314
# 6 10.7150 16.8247 4.6422 3.7673 4.9314 26.3330
#
#
#
# Elastic Compliance Matrix: (Units=1/GPa)
#
#
# Indices 1 2 3 4 5 6 
#
# 1 0.021131 -0.002334 -0.003049 0.002104 0.010291 -0.008798
# 2 -0.002334 0.013019 -0.002225 -0.006021 0.002946 -0.006666
# 3 -0.003049 -0.002225 0.013343 -0.003242 -0.002460 0.001234
# 4 0.002104 -0.006021 -0.003242 0.042686 -0.001912 -0.002186
# 5 0.010291 0.002946 -0.002460 -0.001912 0.035618 -0.012033
# 6 -0.008798 -0.006666 0.001234 -0.002186 -0.012033 0.048163
#
#
# Mechanical properties :
#
#
# Convention : Reuss Voigt Hill
#
# Bulk Modulus (GPa) = 30.98143 41.67733 36.32938
# Shear Modulus (GPa) = 25.00828 30.19518 27.60173
#
# Velocity S-wave (km/s) = 3.53630 3.88576 3.71514
# Velocity P-wave (km/s) = 5.67152 6.40101 6.04728
#
# Compressibility (1/GPa) = 0.03227740
#
# Stress axis : x y z
#
# Youngs Moduli (GPa) = 47.32297 76.81335 74.94825
#
# Poissons Ratio (x) = 0.17928 0.22849
# Poissons Ratio (y) = 0.11045 0.16676
# Poissons Ratio (z) = 0.14427 0.17091
#
# Static dielectric constant tensor:
#      x y z
#    x 1.675240 0.001280 -0.014010 
#    y 0.001280 1.739700 0.024390 
#    z -0.014010 0.024390 1.738980 
# 
# From -- ./inp_files/402859.got.cif
#   From: 2010.05.17/outbox.cif.g08.bks.cpg/sg2_202_cif.got.tgz:402859.got - 2010.06.03 11:33:40.
