data_PCOD9025746
_publ_section_title
;
Structure prediction by ZEFSAII (Michael W. Deem and Ramdas Pophale) SiO2 
 PCOD9025746
Probable space group: P -1
;
_chemical_formula_sum "Si O2"
_cell_formula_units_Z 16
_cell_length_a 13.284157
_cell_length_b 7.842783
_cell_length_c 6.977414
_cell_angle_alpha 97.477530
_cell_angle_beta 128.784889
_cell_angle_gamma 78.380852
_cell_volume 555.032845
_symmetry_space_group_name_H-M "P -1"
_symmetry_group_IT_number 2
_symmetry_cell_setting 'triclinic'
loop_
_space_group_symop_operation_xyz
x,y,z
-x,-y,-z
loop_
_atom_site_type_symbol
_atom_site_label
_atom_site_fract_x
_atom_site_fract_y
_atom_site_fract_z
Si Si1 0.747154 0.575672 0.005475
Si Si2 0.470575 0.626405 0.795346
Si Si3 0.228857 0.160852 0.591983
Si Si4 0.043233 0.718734 0.621172
Si Si5 0.932930 0.732305 0.059626
Si Si6 0.240874 0.923181 0.029568
Si Si7 0.509117 0.982372 0.277632
Si Si8 0.213805 0.779146 0.364143
O O1 0.743730 0.752929 0.156432
O O2 0.837529 0.431387 0.214935
O O3 0.835231 0.589927 0.923962
O O4 0.597016 0.553180 0.804139
O O5 0.316338 0.633666 0.570420
O O6 0.476136 0.837638 0.789648
O O7 0.500000 0.500000 0.000000
O O8 0.365081 0.158209 0.643592
O O9 0.085284 0.271117 0.396441
O O10 0.203595 0.962114 0.495829
O O11 0.993432 0.710079 0.345347
O O12 0.115524 0.883106 0.760110
O O13 0.067887 0.754210 0.127380
O O14 0.823349 0.898568 0.921135
O O15 0.370501 0.920987 0.060325
O O16 0.277381 0.799341 0.235224
O O17 0.500000 0.000000 0.500000
#
# Coordination Sequence:
#
# PCOD9025746 Si02
#       8
#     2   2   2   2   2   2   2   2
#     4  11  25  45  69 102 147 194 236 299 363 434
#     4  11  24  44  71 104 149 189 240 306 363 434
#     4  10  22  40  71 105 140 184 248 300 354 430
#     4  11  25  44  68 109 145 190 241 299 368 433
#     4  11  22  41  70 102 146 186 245 299 354 435
#     4  12  23  43  73 107 143 187 240 306 361 430
#     4  11  23  45  74 108 143 191 244 300 366 440
#     4  11  24  41  74 110 140 184 249 306 365 429
#
# _framework density 28.827121000000002
#
# number of rings (size 3 to 8) (size 9 to 14) (size 15 to 20)
#    0.000    1.000    5.000    3.000    1.750    4.000 
#    0.000    1.250   11.000    0.000    0.000    0.000 
#    0.000    0.000    0.000    0.000    0.000    0.000 
#
# Total GULP energy -89297.942810 kJ/mol
# GULP energy per Si atom -5581.121426 kJ/mol
# Density = 2.876151 g / cm^3
# Si number density = 28.827121 Si / 1000 Ang^3
#
#
#
# Elastic Constant Matrix: (Units=GPa)
#
#
# Indices 1 2 3 4 5 6 
#
# 1 188.4230 34.4256 38.8507 -3.8355 46.7592 15.8417
# 2 34.4256 72.4802 18.5343 -8.3406 0.2268 -20.4517
# 3 38.8507 18.5343 151.4938 -22.2440 33.1509 -2.8115
# 4 -3.8355 -8.3406 -22.2440 54.1010 -0.9979 3.1997
# 5 46.7592 0.2268 33.1509 -0.9979 70.9389 -6.1176
# 6 15.8417 -20.4517 -2.8115 3.1997 -6.1176 39.1094
#
#
#
# Elastic Compliance Matrix: (Units=1/GPa)
#
#
# Indices 1 2 3 4 5 6 
#
# 1 0.008718 -0.006270 -0.000255 -0.000108 -0.006282 -0.007802
# 2 -0.006270 0.021493 -0.001920 0.001337 0.006231 0.014507
# 3 -0.000255 -0.001920 0.008130 0.003028 -0.003681 -0.001140
# 4 -0.000108 0.001337 0.003028 0.019957 -0.001141 -0.000851
# 5 -0.006282 0.006231 -0.003681 -0.001141 0.020686 0.008867
# 6 -0.007802 0.014507 -0.001140 -0.000851 0.008867 0.037690
#
#
# Mechanical properties :
#
#
# Convention : Reuss Voigt Hill
#
# Bulk Modulus (GPa) = 46.61344 66.22427 56.41886
# Shear Modulus (GPa) = 35.53311 54.20229 44.86770
#
# Velocity S-wave (km/s) = 3.51469 4.34089 3.94945
# Velocity P-wave (km/s) = 5.71628 6.93882 6.35701
#
# Compressibility (1/GPa) = 0.02145304
#
# Stress axis : x y z
#
# Youngs Moduli (GPa) = 114.70704 46.52604 122.99987
#
# Poissons Ratio (x) = 0.29171 0.03132
# Poissons Ratio (y) = 0.71919 0.23612
# Poissons Ratio (z) = 0.02921 0.08932
#
# Static dielectric constant tensor:
#      x y z
#    x 2.380990 0.203230 -0.034910 
#    y 0.203230 2.543030 0.145690 
#    z -0.034910 0.145690 2.274750 
# 
# From -- ./inp_files/298386.got.cif
#   From: 2010.05.17/outbox.cif.g08.bks.cpg/sg2_150_cif.got.tgz:298386.got - 2010.06.03 11:33:40.
