data_PCOD9025864
_publ_section_title
;
Structure prediction by ZEFSAII (Michael W. Deem and Ramdas Pophale) SiO2 
 PCOD9025864
Probable space group: P -1
;
_chemical_formula_sum "Si O2"
_cell_formula_units_Z 14
_cell_length_a 12.801895
_cell_length_b 5.597931
_cell_length_c 11.137371
_cell_angle_alpha 103.810157
_cell_angle_beta 52.769331
_cell_angle_gamma 88.312678
_cell_volume 601.315707
_symmetry_space_group_name_H-M "P -1"
_symmetry_group_IT_number 2
_symmetry_cell_setting 'triclinic'
loop_
_space_group_symop_operation_xyz
x,y,z
-x,-y,-z
loop_
_atom_site_type_symbol
_atom_site_label
_atom_site_fract_x
_atom_site_fract_y
_atom_site_fract_z
Si Si1 0.510489 0.207037 0.120914
Si Si2 0.798655 0.631037 0.231319
Si Si3 0.140904 0.922873 0.461867
Si Si4 0.054924 0.833183 0.080074
Si Si5 0.243657 0.432394 0.482410
Si Si6 0.740230 0.386096 0.876946
Si Si7 0.743229 0.856340 0.051080
O O1 0.374381 0.345746 0.296877
O O2 0.616663 0.074325 0.132284
O O3 0.591854 0.398712 0.030589
O O4 0.500000 0.000000 0.000000
O O5 0.728379 0.567905 0.393791
O O6 0.714355 0.743153 0.185801
O O7 0.902861 0.812831 0.205556
O O8 0.886302 0.372009 0.086470
O O9 0.156208 0.705973 0.529733
O O10 0.242434 0.768977 0.274232
O O11 0.174402 0.193353 0.493616
O O12 0.000000 0.000000 0.500000
O O13 0.142987 0.751318 0.129352
O O14 0.111592 0.073621 0.031232
O O15 0.758475 0.669095 0.903855
#
# Coordination Sequence:
#
# PCOD9025864 Si02
#       7
#     2   2   2   2   2   2   2
#     4  11  23  44  70 103 140 191 242 292 349 428
#     4  10  22  43  65 103 141 187 238 291 354 429
#     4  12  27  48  70 106 144 187 234 300 365 425
#     4   9  20  41  68 100 135 186 235 294 353 422
#     4  12  28  45  73 105 143 192 234 297 357 425
#     4  10  22  42  71 103 137 183 243 292 355 419
#     4  10  22  40  73 101 139 191 236 297 350 423
#
# _framework density 23.282278000000002
#
# number of rings (size 3 to 8) (size 9 to 14) (size 15 to 20)
#    0.000    1.429    1.429    2.571    6.000    1.714 
#   12.857    6.429    0.000    0.000    0.000    0.000 
#    0.000    0.000    0.000    0.000    0.000    0.000 
#
# Total GULP energy -78109.884768 kJ/mol
# GULP energy per Si atom -5579.277483 kJ/mol
# Density = 2.322929 g / cm^3
# Si number density = 23.282278 Si / 1000 Ang^3
#
#
#
# Elastic Constant Matrix: (Units=GPa)
#
#
# Indices 1 2 3 4 5 6 
#
# 1 77.6373 33.7755 9.4543 -3.2049 -2.4342 -19.5536
# 2 33.7755 111.0440 14.2386 9.4839 0.4615 -3.3686
# 3 9.4543 14.2386 94.3661 -13.8115 8.2747 -1.1694
# 4 -3.2049 9.4839 -13.8115 22.3579 2.9605 4.0128
# 5 -2.4342 0.4615 8.2747 2.9605 26.7596 3.4179
# 6 -19.5536 -3.3686 -1.1694 4.0128 3.4179 59.9400
#
#
#
# Elastic Compliance Matrix: (Units=1/GPa)
#
#
# Indices 1 2 3 4 5 6 
#
# 1 0.016534 -0.005118 -0.000401 0.003329 0.000731 0.004834
# 2 -0.005118 0.011438 -0.002331 -0.007029 0.000919 -0.000654
# 3 -0.000401 -0.002331 0.012822 0.009577 -0.004974 -0.000369
# 4 0.003329 -0.007029 0.009577 0.055638 -0.008390 -0.002369
# 5 0.000731 0.000919 -0.004974 -0.008390 0.040082 -0.001531
# 6 0.004834 -0.000654 -0.000369 -0.002369 -0.001531 0.018462
#
#
# Mechanical properties :
#
#
# Convention : Reuss Voigt Hill
#
# Bulk Modulus (GPa) = 39.85072 44.22046 42.03559
# Shear Modulus (GPa) = 27.92675 36.85010 32.38843
#
# Velocity S-wave (km/s) = 3.46712 3.98270 3.73382
# Velocity P-wave (km/s) = 5.76033 6.33905 6.05661
#
# Compressibility (1/GPa) = 0.02509365
#
# Stress axis : x y z
#
# Youngs Moduli (GPa) = 60.48292 87.42992 77.99064
#
# Poissons Ratio (x) = 0.44748 0.03128
# Poissons Ratio (y) = 0.30956 0.18176
# Poissons Ratio (z) = 0.02426 0.20376
#
# Static dielectric constant tensor:
#      x y z
#    x 1.926810 -0.018960 0.039630 
#    y -0.018960 1.977330 -0.010310 
#    z 0.039630 -0.010310 1.882660 
# 
# From -- ./inp_files/442138.got.cif
#   From: 2010.05.17/outbox.cif.g08.bks.cpg/sg2_222_cif.got.tgz:442138.got - 2010.06.03 11:33:40.
