data_PCOD9025373
_publ_section_title
;
Structure prediction by ZEFSAII (Michael W. Deem and Ramdas Pophale) SiO2 
 PCOD9025373
Probable space group: P -1
;
_chemical_formula_sum "Si O2"
_cell_formula_units_Z 14
_cell_length_a 16.320194
_cell_length_b 5.351972
_cell_length_c 9.957278
_cell_angle_alpha 127.065348
_cell_angle_beta 69.559297
_cell_angle_gamma 122.363900
_cell_volume 585.734559
_symmetry_space_group_name_H-M "P -1"
_symmetry_group_IT_number 2
_symmetry_cell_setting 'triclinic'
loop_
_space_group_symop_operation_xyz
x,y,z
-x,-y,-z
loop_
_atom_site_type_symbol
_atom_site_label
_atom_site_fract_x
_atom_site_fract_y
_atom_site_fract_z
Si Si1 0.767799 0.436560 0.904159
Si Si2 0.039992 0.111265 0.161357
Si Si3 0.226196 0.894257 0.478388
Si Si4 0.853520 0.562687 0.190776
Si Si5 0.067035 0.417283 0.592256
Si Si6 0.555753 0.278427 0.943099
Si Si7 0.556605 0.894616 0.546875
O O1 0.847235 0.766750 0.887033
O O2 0.760632 0.137129 0.701901
O O3 0.667618 0.467232 0.985565
O O4 0.805889 0.415696 0.026299
O O5 0.007627 0.411844 0.317184
O O6 0.970600 0.779193 0.176813
O O7 0.000000 0.000000 0.000000
O O8 0.145196 0.527682 0.462870
O O9 0.188459 0.174066 0.640616
O O10 0.331725 0.004089 0.518876
O O11 0.858321 0.369270 0.260236
O O12 0.000000 0.000000 0.500000
O O13 0.560743 0.101155 0.745130
O O14 0.500000 0.500000 0.000000
O O15 0.500000 0.000000 0.000000
O O16 0.500000 0.500000 0.500000
O O17 0.500000 0.000000 0.500000
#
# Coordination Sequence:
#
# PCOD9025373 Si02
#       7
#     2   2   2   2   2   2   2
#     4  10  22  43  65  95 133 185 225 291 349 430
#     4   9  20  41  60  95 137 174 226 272 350 413
#     4  10  24  43  64 100 139 179 231 286 362 419
#     4  10  22  40  68  96 139 179 230 279 351 421
#     4  11  22  39  69 101 140 184 229 289 345 428
#     4  11  26  49  71 105 142 184 243 304 366 428
#     4  11  26  46  76 102 141 188 241 305 364 433
#
# _framework density 23.901610999999999
#
# number of rings (size 3 to 8) (size 9 to 14) (size 15 to 20)
#    0.000    1.714    0.000    2.571    6.000    4.571 
#   15.429    1.429    0.000    0.000    0.000    0.000 
#    0.000    0.000    0.000    0.000    0.000    0.000 
#
# Total GULP energy -78091.472461 kJ/mol
# GULP energy per Si atom -5577.962319 kJ/mol
# Density = 2.384721 g / cm^3
# Si number density = 23.901611 Si / 1000 Ang^3
#
#
#
# Elastic Constant Matrix: (Units=GPa)
#
#
# Indices 1 2 3 4 5 6 
#
# 1 186.8351 89.0342 45.3560 -18.2243 9.3880 31.2431
# 2 89.0342 87.2421 16.0896 -10.0929 -11.7528 16.9005
# 3 45.3560 16.0896 130.2124 -17.9717 18.7328 1.3568
# 4 -18.2243 -10.0929 -17.9717 35.8868 -4.8329 -3.3453
# 5 9.3880 -11.7528 18.7328 -4.8329 57.2108 -7.9037
# 6 31.2431 16.9005 1.3568 -3.3453 -7.9037 42.6407
#
#
#
# Elastic Compliance Matrix: (Units=1/GPa)
#
#
# Indices 1 2 3 4 5 6 
#
# 1 0.012945 -0.012298 -0.002144 0.000925 -0.004606 -0.005324
# 2 -0.012298 0.025039 0.000418 0.002041 0.007278 0.000582
# 3 -0.002144 0.000418 0.009142 0.003412 -0.002131 0.000987
# 4 0.000925 0.002041 0.003412 0.030990 0.001933 0.001194
# 5 -0.004606 0.007278 -0.002131 0.001933 0.021233 0.004645
# 6 -0.005324 0.000582 0.000987 0.001194 0.004645 0.028045
#
#
# Mechanical properties :
#
#
# Convention : Reuss Voigt Hill
#
# Bulk Modulus (GPa) = 52.41109 78.36102 65.38606
# Shear Modulus (GPa) = 30.90235 44.06832 37.48533
#
# Velocity S-wave (km/s) = 3.59959 4.29854 3.96450
# Velocity P-wave (km/s) = 6.26510 7.58238 6.95500
#
# Compressibility (1/GPa) = 0.01907993
#
# Stress axis : x y z
#
# Youngs Moduli (GPa) = 77.25032 39.93737 109.38473
#
# Poissons Ratio (x) = 0.49114 0.23449
# Poissons Ratio (y) = 0.95000 -0.04575
# Poissons Ratio (z) = 0.16560 -0.01670
#
# Static dielectric constant tensor:
#      x y z
#    x 1.959210 0.018030 0.025180 
#    y 0.018030 2.053960 -0.030850 
#    z 0.025180 -0.030850 2.045130 
# 
# From -- ./inp_files/119274.got.cif
#   From: 2010.05.17/outbox.cif.g08.bks.cpg/sg2_60_cif.got.tgz:119274.got - 2010.06.03 11:33:40.
