data_PCOD9025880
_publ_section_title
;
Structure prediction by ZEFSAII (Michael W. Deem and Ramdas Pophale) SiO2 
 PCOD9025880
Probable space group: P -1
;
_chemical_formula_sum "Si O2"
_cell_formula_units_Z 15
_cell_length_a 12.538729
_cell_length_b 5.297579
_cell_length_c 14.878575
_cell_angle_alpha 104.169115
_cell_angle_beta 142.042067
_cell_angle_gamma 83.971316
_cell_volume 582.948908
_symmetry_space_group_name_H-M "P -1"
_symmetry_group_IT_number 2
_symmetry_cell_setting 'triclinic'
loop_
_space_group_symop_operation_xyz
x,y,z
-x,-y,-z
loop_
_atom_site_type_symbol
_atom_site_label
_atom_site_fract_x
_atom_site_fract_y
_atom_site_fract_z
Si Si1 0.780393 0.574951 0.535689
Si Si2 0.719367 0.748553 0.043562
Si Si3 0.559926 0.079885 0.258343
Si Si4 0.835211 0.780159 0.393615
Si Si5 0.994000 0.757649 0.077452
Si Si6 0.175239 0.651391 0.793625
Si Si7 0.291275 0.038471 0.213032
Si Si8 0.500000 0.500000 0.500000
O O1 0.705950 0.285987 0.423036
O O2 0.802347 0.751177 0.475752
O O3 0.646357 0.619386 0.528849
O O4 0.980769 0.609430 0.704744
O O5 0.894606 0.714014 0.100501
O O6 0.701551 0.508222 0.079370
O O7 0.757442 0.040003 0.137255
O O8 0.559580 0.762596 0.869967
O O9 0.433314 0.924479 0.236517
O O10 0.661243 0.886710 0.253517
O O11 0.848995 0.503596 0.330667
O O12 0.000000 0.000000 0.500000
O O13 0.866064 0.932181 0.956861
O O14 0.197831 0.883348 0.222067
O O15 0.000000 0.500000 0.000000
O O16 0.387397 0.316946 0.333841
#
# Coordination Sequence:
#
# PCOD9025880 Si02
#       8
#     2   2   2   2   2   2   2   1
#     4  11  25  47  77 106 153 201 258 314 393 468
#     4  11  28  46  74 116 154 196 260 324 388 455
#     4  10  25  46  71 108 148 199 251 319 388 458
#     4  12  26  48  79 107 151 209 262 314 391 461
#     4  10  22  40  73  98 151 202 243 299 392 469
#     4  12  27  48  77 112 153 203 261 321 378 467
#     4   9  21  41  64 106 143 191 245 307 385 454
#     4  10  22  44  72 110 150 186 258 330 384 450
#
# _framework density 25.731244
#
# number of rings (size 3 to 8) (size 9 to 14) (size 15 to 20)
#    0.000    1.333    1.333    2.000   11.200    3.200 
#    0.000    2.000    0.000    0.000    0.000    0.000 
#    0.000    0.000    0.000    0.000    0.000    0.000 
#
# Total GULP energy -83686.775641 kJ/mol
# GULP energy per Si atom -5579.118376 kJ/mol
# Density = 2.567268 g / cm^3
# Si number density = 25.731244 Si / 1000 Ang^3
#
#
#
# Elastic Constant Matrix: (Units=GPa)
#
#
# Indices 1 2 3 4 5 6 
#
# 1 172.4688 46.4791 17.6760 -12.9681 8.2131 3.5685
# 2 46.4791 94.9822 17.9755 5.4843 3.4678 -7.3802
# 3 17.6760 17.9755 60.7997 14.1734 12.7398 0.2646
# 4 -12.9681 5.4843 14.1734 39.0974 3.3019 -4.2613
# 5 8.2131 3.4678 12.7398 3.3019 46.8561 -0.0219
# 6 3.5685 -7.3802 0.2646 -4.2613 -0.0219 23.3982
#
#
#
# Elastic Compliance Matrix: (Units=1/GPa)
#
#
# Indices 1 2 3 4 5 6 
#
# 1 0.007245 -0.003516 -0.001687 0.003403 -0.000791 -0.001576
# 2 -0.003516 0.013163 -0.002608 -0.001625 0.000468 0.004422
# 3 -0.001687 -0.002608 0.020404 -0.007442 -0.004535 -0.002156
# 4 0.003403 -0.001625 -0.007442 0.030176 -0.000577 0.004548
# 5 -0.000791 0.000468 -0.004535 -0.000577 0.022720 0.000236
# 6 -0.001576 0.004422 -0.002156 0.004548 0.000236 0.045226
#
#
# Mechanical properties :
#
#
# Convention : Reuss Voigt Hill
#
# Bulk Modulus (GPa) = 39.70018 54.72354 47.21186
# Shear Modulus (GPa) = 30.68386 38.27834 34.48110
#
# Velocity S-wave (km/s) = 3.45697 3.86115 3.66464
# Velocity P-wave (km/s) = 5.60325 6.41806 6.02445
#
# Compressibility (1/GPa) = 0.02518881
#
# Stress axis : x y z
#
# Youngs Moduli (GPa) = 138.03095 75.97265 49.01071
#
# Poissons Ratio (x) = 0.26711 0.08270
# Poissons Ratio (y) = 0.48530 0.12782
# Poissons Ratio (z) = 0.23291 0.19813
#
# Static dielectric constant tensor:
#      x y z
#    x 1.960540 0.204320 0.013560 
#    y 0.204320 1.669390 -0.057800 
#    z 0.013560 -0.057800 2.000520 
# 
# From -- ./inp_files/511218.got.cif
#   From: 2010.05.17/outbox.cif.g08.bks.cpg/sg2_256_cif.got.tgz:511218.got - 2010.06.03 11:33:40.
