data_PCOD9025468
_publ_section_title
;
Structure prediction by ZEFSAII (Michael W. Deem and Ramdas Pophale) SiO2 
 PCOD9025468
Probable space group: P -1
;
_chemical_formula_sum "Si O2"
_cell_formula_units_Z 12
_cell_length_a 9.328573
_cell_length_b 11.331848
_cell_length_c 5.295469
_cell_angle_alpha 113.818065
_cell_angle_beta 106.183586
_cell_angle_gamma 62.491980
_cell_volume 451.270996
_symmetry_space_group_name_H-M "P -1"
_symmetry_group_IT_number 2
_symmetry_cell_setting 'triclinic'
loop_
_space_group_symop_operation_xyz
x,y,z
-x,-y,-z
loop_
_atom_site_type_symbol
_atom_site_label
_atom_site_fract_x
_atom_site_fract_y
_atom_site_fract_z
Si Si1 0.933283 0.135249 0.269254
Si Si2 0.305886 0.717304 0.131725
Si Si3 0.348953 0.337787 0.701207
Si Si4 0.289618 0.206588 0.073666
Si Si5 0.241287 0.995394 0.550828
Si Si6 0.069782 0.591415 0.942157
O O1 0.843857 0.087765 0.402574
O O2 0.798481 0.260247 0.158895
O O3 0.100891 0.130613 0.468057
O O4 0.000000 0.000000 0.000000
O O5 0.493231 0.626377 0.198799
O O6 0.321150 0.871317 0.284094
O O7 0.195112 0.652716 0.179656
O O8 0.363879 0.228010 0.390955
O O9 0.182990 0.475818 0.698442
O O10 0.334249 0.286755 0.933750
O O11 0.094333 0.275352 0.090613
O O12 0.331834 0.053859 0.842873
O O13 0.000000 0.500000 0.000000
#
# Coordination Sequence:
#
# PCOD9025468 Si02
#       6
#     2   2   2   2   2   2
#     4   9  19  37  63 102 132 180 233 281 347 416
#     4  11  24  43  73 103 143 182 235 296 362 420
#     4  11  27  46  68 109 145 192 228 298 355 417
#     4  11  25  46  73 101 147 187 243 282 352 428
#     4  10  22  40  69 103 140 184 233 288 355 422
#     4  10  23  49  74 100 137 190 246 294 343 423
#
# _framework density 26.591560000000001
#
# number of rings (size 3 to 8) (size 9 to 14) (size 15 to 20)
#    0.000    1.667    0.000    4.000    9.333    1.333 
#    6.000    4.167    0.000    0.000    0.000    0.000 
#    0.000    0.000    0.000    0.000    0.000    0.000 
#
# Total GULP energy -66921.155874 kJ/mol
# GULP energy per Si atom -5576.762990 kJ/mol
# Density = 2.653104 g / cm^3
# Si number density = 26.591560 Si / 1000 Ang^3
#
#
#
# Elastic Constant Matrix: (Units=GPa)
#
#
# Indices 1 2 3 4 5 6 
#
# 1 143.6417 24.2931 45.7779 -5.1430 45.7911 -7.2465
# 2 24.2931 54.6757 41.4859 13.4712 9.7145 14.0659
# 3 45.7779 41.4859 141.6366 1.9055 31.4339 -10.4048
# 4 -5.1430 13.4712 1.9055 45.0348 4.9473 5.0802
# 5 45.7911 9.7145 31.4339 4.9473 34.5461 0.4379
# 6 -7.2465 14.0659 -10.4048 5.0802 0.4379 29.7731
#
#
#
# Elastic Compliance Matrix: (Units=1/GPa)
#
#
# Indices 1 2 3 4 5 6 
#
# 1 0.014544 -0.008232 0.002713 0.005363 -0.020298 0.007761
# 2 -0.008232 0.037900 -0.013077 -0.010680 0.013972 -0.022862
# 3 0.002713 -0.013077 0.013679 0.003818 -0.013055 0.011160
# 4 0.005363 -0.010680 0.003818 0.026737 -0.011450 0.003291
# 5 -0.020298 0.013972 -0.013055 -0.011450 0.065633 -0.015115
# 6 0.007761 -0.022862 0.011160 0.003291 -0.015115 0.049838
#
#
# Mechanical properties :
#
#
# Convention : Reuss Voigt Hill
#
# Bulk Modulus (GPa) = 34.56467 62.56310 48.56388
# Shear Modulus (GPa) = 19.59506 37.09727 28.34616
#
# Velocity S-wave (km/s) = 2.71752 3.73912 3.26848
# Velocity P-wave (km/s) = 4.78258 6.49768 5.70495
#
# Compressibility (1/GPa) = 0.02893127
#
# Stress axis : x y z
#
# Youngs Moduli (GPa) = 68.75915 26.38513 73.10277
#
# Poissons Ratio (x) = 0.21721 -0.19836
# Poissons Ratio (y) = 0.56603 0.95598
# Poissons Ratio (z) = -0.18657 0.34504
#
# Static dielectric constant tensor:
#      x y z
#    x 2.057000 0.132900 0.138220 
#    y 0.132900 1.794580 -0.374330 
#    z 0.138220 -0.374330 1.681860 
# 
# From -- ./inp_files/28982.got.cif
#   From: 2010.05.17/outbox.cif.g08.bks.cpg/sg2_15_cif.got.tgz:28982.got - 2010.06.03 11:33:40.
