data_PCOD9025539
_publ_section_title
;
Structure prediction by ZEFSAII (Michael W. Deem and Ramdas Pophale) SiO2 
 PCOD9025539
Probable space group: P -1
;
_chemical_formula_sum "Si O2"
_cell_formula_units_Z 14
_cell_length_a 16.779603
_cell_length_b 7.727278
_cell_length_c 5.605652
_cell_angle_alpha 114.460080
_cell_angle_beta 75.336354
_cell_angle_gamma 110.899020
_cell_volume 613.303366
_symmetry_space_group_name_H-M "P -1"
_symmetry_group_IT_number 2
_symmetry_cell_setting 'triclinic'
loop_
_space_group_symop_operation_xyz
x,y,z
-x,-y,-z
loop_
_atom_site_type_symbol
_atom_site_label
_atom_site_fract_x
_atom_site_fract_y
_atom_site_fract_z
Si Si1 0.661817 0.908530 0.976913
Si Si2 0.722407 0.296152 0.423720
Si Si3 0.685959 0.540522 0.970324
Si Si4 0.807182 0.080329 0.609344
Si Si5 0.509031 0.392088 0.185901
Si Si6 0.145756 0.520173 0.949251
Si Si7 0.045930 0.085144 0.764795
O O1 0.674836 0.758780 0.087489
O O2 0.568863 0.808869 0.877398
O O3 0.743583 0.933386 0.755842
O O4 0.670506 0.126907 0.190203
O O5 0.677362 0.448499 0.657941
O O6 0.746195 0.168652 0.544300
O O7 0.811343 0.419203 0.305828
O O8 0.608631 0.399802 0.098635
O O9 0.777793 0.536012 0.995144
O O10 0.865692 0.976406 0.357849
O O11 0.864909 0.277156 0.815645
O O12 0.500000 0.500000 0.500000
O O13 0.500000 0.500000 0.000000
O O14 0.067467 0.323598 0.890800
O O15 0.000000 0.000000 0.500000
O O16 0.000000 0.000000 0.000000
#
# Coordination Sequence:
#
# PCOD9025539 Si02
#       7
#     2   2   2   2   2   2   2
#     4  10  22  40  69  95 135 179 225 276 330 393
#     4  10  22  41  68 100 126 188 220 268 336 393
#     4  10  22  40  69  95 135 179 225 276 330 393
#     4  10  24  44  70  97 136 176 220 275 335 403
#     4  10  24  39  63 103 134 179 229 277 331 380
#     4  10  24  44  70  97 136 176 220 275 335 403
#     4  12  30  46  72 105 130 175 222 276 344 404
#
# _framework density 22.827202
#
# number of rings (size 3 to 8) (size 9 to 14) (size 15 to 20)
#    0.000    1.714    0.000    1.714   20.000    1.714 
#    0.000    6.429    0.000    0.000    0.000    0.000 
#    0.000    0.000    0.000    0.000    0.000    0.000 
#
# Total GULP energy -78200.872886 kJ/mol
# GULP energy per Si atom -5585.776635 kJ/mol
# Density = 2.277525 g / cm^3
# Si number density = 22.827202 Si / 1000 Ang^3
#
#
#
# Elastic Constant Matrix: (Units=GPa)
#
#
# Indices 1 2 3 4 5 6 
#
# 1 39.5061 50.1886 26.5389 7.6417 17.9609 -3.7055
# 2 50.1886 52.1142 -3.3757 4.3886 -29.3505 48.2704
# 3 26.5389 -3.3757 93.9000 -7.6764 -25.5921 34.8464
# 4 7.6417 4.3886 -7.6764 21.1493 -4.9272 5.4065
# 5 17.9609 -29.3505 -25.5921 -4.9272 24.9334 8.1422
# 6 -3.7055 48.2704 34.8464 5.4065 8.1422 33.2621
#
#
#
# Elastic Compliance Matrix: (Units=1/GPa)
#
#
# Indices 1 2 3 4 5 6 
#
# 1 0.010951 0.005538 0.003927 0.001269 0.007117 -0.012878
# 2 0.005538 0.004149 -0.006578 -0.008732 -0.009272 0.005176
# 3 0.003927 -0.006578 0.008062 0.001801 -0.002550 0.001868
# 4 0.001269 -0.008732 0.001801 0.048237 -0.000893 0.003306
# 5 0.007117 -0.009272 -0.002550 -0.000893 0.017063 0.012889
# 6 -0.012878 0.005176 0.001868 0.003306 0.012889 0.015469
#
#
# Mechanical properties :
#
#
# Convention : Reuss Voigt Hill
#
# Bulk Modulus (GPa) = 34.55975 36.91378 35.73677
# Shear Modulus (GPa) = 46.38087 23.34684 34.86385
#
# Velocity S-wave (km/s) = 4.51247 3.20154 3.91230
# Velocity P-wave (km/s) = 6.50557 5.46558 6.00812
#
# Compressibility (1/GPa) = 0.02893539
#
# Stress axis : x y z
#
# Youngs Moduli (GPa) = 91.31648 241.01779 124.03465
#
# Poissons Ratio (x) = -1.33466 -0.48703
# Poissons Ratio (y) = -0.50567 0.81584
# Poissons Ratio (z) = -0.35856 1.58531
#
# Static dielectric constant tensor:
#      x y z
#    x 1.895410 0.016270 0.053550 
#    y 0.016270 1.825430 0.017730 
#    z 0.053550 0.017730 1.902210 
# 
# From -- ./inp_files/44897.got.cif
#   From: 2010.05.17/outbox.cif.g08.bks.cpg/sg2_23_cif.got.tgz:44897.got - 2010.06.03 11:33:40.
