data_PCOD9025338
_publ_section_title
;
Structure prediction by ZEFSAII (Michael W. Deem and Ramdas Pophale) SiO2 
 PCOD9025338
Probable space group: P -1
;
_chemical_formula_sum "Si O2"
_cell_formula_units_Z 15
_cell_length_a 5.879559
_cell_length_b 20.732188
_cell_length_c 5.193879
_cell_angle_alpha 114.027401
_cell_angle_beta 100.474372
_cell_angle_gamma 97.748132
_cell_volume 553.033005
_symmetry_space_group_name_H-M "P -1"
_symmetry_group_IT_number 2
_symmetry_cell_setting 'triclinic'
loop_
_space_group_symop_operation_xyz
x,y,z
-x,-y,-z
loop_
_atom_site_type_symbol
_atom_site_label
_atom_site_fract_x
_atom_site_fract_y
_atom_site_fract_z
Si Si1 0.961313 0.205078 0.706482
Si Si2 0.500000 0.000000 0.500000
Si Si3 0.819622 0.527777 0.820573
Si Si4 0.384306 0.866644 0.111504
Si Si5 0.862611 0.052611 0.200362
Si Si6 0.655051 0.661515 0.186570
Si Si7 0.787449 0.388897 0.328947
Si Si8 0.585813 0.259775 0.392339
O O1 0.875018 0.177493 0.926103
O O2 0.993126 0.135481 0.437780
O O3 0.719410 0.224684 0.580147
O O4 0.162052 0.277505 0.833929
O O5 0.467612 0.083360 0.560887
O O6 0.741494 0.017725 0.381429
O O7 0.680750 0.452053 0.544032
O O8 0.966083 0.573737 0.692202
O O9 0.710067 0.582793 0.053087
O O10 0.000000 0.500000 0.000000
O O11 0.331575 0.934199 0.039652
O O12 0.507502 0.808371 0.922089
O O13 0.000000 0.000000 0.000000
O O14 0.617110 0.699771 0.506211
O O15 0.394312 0.647343 0.985284
O O16 0.790774 0.324231 0.418198
#
# Coordination Sequence:
#
# PCOD9025338 Si02
#       8
#     2   1   2   2   2   2   2   2
#     4  10  24  45  66  97 139 179 228 289 341 418
#     4  10  22  40  68  94 136 178 228 290 344 416
#     4  11  25  46  69  96 139 177 225 282 341 412
#     4  10  22  45  65  96 134 178 227 286 347 408
#     4  10  23  43  66 101 136 183 233 286 358 421
#     4  12  24  41  68 101 131 179 230 276 347 415
#     4  11  25  43  67  99 134 178 221 287 342 410
#     4  11  24  43  66  96 138 175 228 282 349 412
#
# _framework density 27.123152999999999
#
# number of rings (size 3 to 8) (size 9 to 14) (size 15 to 20)
#    0.000    1.333    0.000    4.800    1.867    9.600 
#    9.600    0.000    0.000    0.000    0.000    0.000 
#    0.000    0.000    0.000    0.000    0.000    0.000 
#
# Total GULP energy -83776.182600 kJ/mol
# GULP energy per Si atom -5585.078840 kJ/mol
# Density = 2.706142 g / cm^3
# Si number density = 27.123153 Si / 1000 Ang^3
#
#
#
# Elastic Constant Matrix: (Units=GPa)
#
#
# Indices 1 2 3 4 5 6 
#
# 1 48.9065 43.5247 46.2435 19.4372 -32.9736 -17.9916
# 2 43.5247 156.1114 50.8581 30.5198 -28.9398 6.1611
# 3 46.2435 50.8581 132.9585 55.3242 -51.4696 -16.9001
# 4 19.4372 30.5198 55.3242 74.8335 -13.0135 -11.9170
# 5 -32.9736 -28.9398 -51.4696 -13.0135 56.2697 13.7456
# 6 -17.9916 6.1611 -16.9001 -11.9170 13.7456 45.2798
#
#
#
# Elastic Compliance Matrix: (Units=1/GPa)
#
#
# Indices 1 2 3 4 5 6 
#
# 1 0.050829 -0.009942 -0.006193 0.000465 0.015538 0.014644
# 2 -0.009942 0.009919 -0.000074 -0.002339 0.000128 -0.005982
# 3 -0.006193 -0.000074 0.017738 -0.009884 0.010681 -0.001674
# 4 0.000465 -0.002339 -0.009884 0.021112 -0.006122 0.004229
# 5 0.015538 0.000128 0.010681 -0.006122 0.035873 -0.002358
# 6 0.014644 -0.005982 -0.001674 0.004229 -0.002358 0.029921
#
#
# Mechanical properties :
#
#
# Convention : Reuss Voigt Hill
#
# Bulk Modulus (GPa) = 21.70675 68.80322 45.25499
# Shear Modulus (GPa) = 23.45587 48.43328 35.94457
#
# Velocity S-wave (km/s) = 2.94392 4.23032 3.64433
# Velocity P-wave (km/s) = 4.42448 7.02017 5.86766
#
# Compressibility (1/GPa) = 0.04606862
#
# Stress axis : x y z
#
# Youngs Moduli (GPa) = 19.67364 100.81936 56.37614
#
# Poissons Ratio (x) = 1.00239 0.34912
# Poissons Ratio (y) = 0.19560 0.00415
# Poissons Ratio (z) = 0.12183 0.00742
#
# Static dielectric constant tensor:
#      x y z
#    x 2.099020 -0.012090 -0.200560 
#    y -0.012090 2.073490 -0.154650 
#    z -0.200560 -0.154650 1.776150 
# 
# From -- ./inp_files/7644.got.cif
#   From: 2010.05.17/outbox.cif.g08.bks.cpg/sg2_4_cif.got.tgz:7644.got - 2010.06.03 11:33:40.
