data_PCOD9025389
_publ_section_title
;
Structure prediction by ZEFSAII (Michael W. Deem and Ramdas Pophale) SiO2 
 PCOD9025389
Probable space group: P -1
;
_chemical_formula_sum "Si O2"
_cell_formula_units_Z 15
_cell_length_a 5.007426
_cell_length_b 10.493827
_cell_length_c 11.571728
_cell_angle_alpha 63.653289
_cell_angle_beta 81.653188
_cell_angle_gamma 92.694906
_cell_volume 534.850580
_symmetry_space_group_name_H-M "P -1"
_symmetry_group_IT_number 2
_symmetry_cell_setting 'triclinic'
loop_
_space_group_symop_operation_xyz
x,y,z
-x,-y,-z
loop_
_atom_site_type_symbol
_atom_site_label
_atom_site_fract_x
_atom_site_fract_y
_atom_site_fract_z
Si Si1 0.223178 0.240785 0.760727
Si Si2 0.920302 0.282504 0.551137
Si Si3 0.289741 0.377419 0.305155
Si Si4 0.500000 0.500000 0.500000
Si Si5 0.186591 0.744236 0.759858
Si Si6 0.662110 0.883522 0.974818
Si Si7 0.705426 0.399729 0.967453
Si Si8 0.578263 0.019282 0.703504
O O1 0.409727 0.390833 0.668885
O O2 0.386513 0.123704 0.735090
O O3 0.963569 0.254477 0.693573
O O4 0.148410 0.177342 0.917026
O O5 0.738600 0.404225 0.493473
O O6 0.782674 0.130333 0.571960
O O7 0.216656 0.353090 0.455215
O O8 0.591917 0.347702 0.273189
O O9 0.198625 0.513332 0.188813
O O10 0.077401 0.256278 0.302473
O O11 0.369430 0.895715 0.709065
O O12 0.108968 0.657914 0.920162
O O13 0.753785 0.949034 0.819116
O O14 0.462259 0.744661 0.008438
O O15 0.500000 0.000000 0.000000
O O16 0.500000 0.500000 0.000000
#
# Coordination Sequence:
#
# PCOD9025389 Si02
#       8
#     2   2   2   1   2   2   2   2
#     4  10  22  40  68  97 138 186 240 299 367 437
#     4  11  25  42  68  99 140 193 238 307 360 447
#     4  11  25  41  72 104 141 188 246 292 375 431
#     4  10  24  44  60  90 142 174 240 294 366 418
#     4  10  23  44  70 105 141 189 241 305 358 439
#     4   9  19  41  71 101 141 189 239 300 366 433
#     4   9  20  42  71 102 144 186 243 304 362 432
#     4   9  22  43  67  98 146 179 245 296 365 430
#
# _framework density 28.045217999999998
#
# number of rings (size 3 to 8) (size 9 to 14) (size 15 to 20)
#    0.000    2.133    0.000    0.800    7.467    2.667 
#    2.400    1.333    0.000    0.000    0.000    0.000 
#    0.000    0.000    0.000    0.000    0.000    0.000 
#
# Total GULP energy -83861.631174 kJ/mol
# GULP energy per Si atom -5590.775412 kJ/mol
# Density = 2.798139 g / cm^3
# Si number density = 28.045218 Si / 1000 Ang^3
#
#
#
# Elastic Constant Matrix: (Units=GPa)
#
#
# Indices 1 2 3 4 5 6 
#
# 1 114.5263 -0.8431 31.6761 -1.4001 10.5108 -9.2061
# 2 -0.8431 105.1765 48.6238 -28.9235 -9.1860 1.3025
# 3 31.6761 48.6238 145.6898 -11.8470 18.7184 -8.1862
# 4 -1.4001 -28.9235 -11.8470 42.7051 9.5110 -5.6393
# 5 10.5108 -9.1860 18.7184 9.5110 58.5400 -8.1949
# 6 -9.2061 1.3025 -8.1862 -5.6393 -8.1949 27.8977
#
#
#
# Elastic Compliance Matrix: (Units=1/GPa)
#
#
# Indices 1 2 3 4 5 6 
#
# 1 0.009627 0.001309 -0.002223 0.001056 -0.000635 0.002490
# 2 0.001309 0.013965 -0.004558 0.007829 0.002237 0.000682
# 3 -0.002223 -0.004558 0.009380 0.000330 -0.003178 0.001365
# 4 0.001056 0.007829 0.000330 0.030261 -0.003249 0.005242
# 5 -0.000635 0.002237 -0.003178 -0.003249 0.019632 0.003863
# 6 0.002490 0.000682 0.001365 0.005242 0.003863 0.039230
#
#
# Mechanical properties :
#
#
# Convention : Reuss Voigt Hill
#
# Bulk Modulus (GPa) = 45.39404 58.25623 51.82514
# Shear Modulus (GPa) = 35.61667 44.89095 40.25381
#
# Velocity S-wave (km/s) = 3.56753 4.00517 3.79267
# Velocity P-wave (km/s) = 5.76115 6.49660 6.13990
#
# Compressibility (1/GPa) = 0.02202932
#
# Stress axis : x y z
#
# Youngs Moduli (GPa) = 103.87034 71.60562 106.60710
#
# Poissons Ratio (x) = -0.09371 0.23694
# Poissons Ratio (y) = -0.13593 0.48591
# Poissons Ratio (z) = 0.23085 0.32638
#
# Static dielectric constant tensor:
#      x y z
#    x 2.391500 0.704180 -0.088270 
#    y 0.704180 3.521180 -0.107420 
#    z -0.088270 -0.107420 2.253900 
# 
# From -- ./inp_files/362673.got.cif
#   From: 2010.05.17/outbox.cif.g08.bks.cpg/sg2_182_cif.got.tgz:362673.got - 2010.06.03 11:33:40.
