data_PCOD9025663
_publ_section_title
;
Structure prediction by ZEFSAII (Michael W. Deem and Ramdas Pophale) SiO2 
 PCOD9025663
Probable space group: P -1
;
_chemical_formula_sum "Si O2"
_cell_formula_units_Z 16
_cell_length_a 11.829265
_cell_length_b 17.634190
_cell_length_c 5.800253
_cell_angle_alpha 104.968194
_cell_angle_beta 54.002203
_cell_angle_gamma 130.042946
_cell_volume 735.229529
_symmetry_space_group_name_H-M "P -1"
_symmetry_group_IT_number 2
_symmetry_cell_setting 'triclinic'
loop_
_space_group_symop_operation_xyz
x,y,z
-x,-y,-z
loop_
_atom_site_type_symbol
_atom_site_label
_atom_site_fract_x
_atom_site_fract_y
_atom_site_fract_z
Si Si1 0.424879 0.665597 0.064375
Si Si2 0.688935 0.717455 0.412628
Si Si3 0.584182 0.972186 0.190522
Si Si4 0.315145 0.840303 0.019523
Si Si5 0.402082 0.520913 0.312611
Si Si6 0.422993 0.167774 0.631145
Si Si7 0.076612 0.500885 0.159166
Si Si8 0.068555 0.333479 0.834748
O O1 0.351440 0.575810 0.259463
O O2 0.453074 0.749034 0.257573
O O3 0.275860 0.610107 0.002678
O O4 0.613707 0.710668 0.752607
O O5 0.542961 0.604805 0.393506
O O6 0.678458 0.795522 0.343155
O O7 0.871972 0.732050 0.201246
O O8 0.415743 0.880419 0.173438
O O9 0.682600 0.936321 0.178528
O O10 0.500000 0.000000 0.500000
O O11 0.694252 0.071289 0.978442
O O12 0.117232 0.736412 0.136793
O O13 0.452055 0.835828 0.699091
O O14 0.232463 0.419473 0.545507
O O15 0.500000 0.500000 0.000000
O O16 0.000000 0.500000 0.500000
O O17 0.065146 0.401617 0.082711
O O18 0.000000 0.500000 0.000000
#
# Coordination Sequence:
#
# PCOD9025663 Si02
#       8
#     2   2   2   2   2   2   2   2
#     4  11  22  40  60  90 133 183 230 260 344 400
#     4  11  23  40  61  93 133 183 226 270 333 410
#     4   9  20  44  69  96 125 168 213 279 356 413
#     4  10  22  42  71  98 129 163 223 284 343 411
#     4  11  21  40  60  87 136 192 226 273 326 404
#     4  10  22  40  70  94 129 174 223 275 342 418
#     4  12  27  42  62  98 146 185 232 297 343 406
#     4  12  24  42  66 102 136 180 235 284 338 405
#
# _framework density 21.761911999999999
#
# number of rings (size 3 to 8) (size 9 to 14) (size 15 to 20)
#    0.000    1.250    2.500    3.375    5.250    0.000 
#    9.000    0.625    0.000   10.500    0.000    0.000 
#    0.000    0.000    0.000    0.000    0.000    0.000 
#
# Total GULP energy -89249.568211 kJ/mol
# GULP energy per Si atom -5578.098013 kJ/mol
# Density = 2.171238 g / cm^3
# Si number density = 21.761912 Si / 1000 Ang^3
#
#
#
# Elastic Constant Matrix: (Units=GPa)
#
#
# Indices 1 2 3 4 5 6 
#
# 1 94.8875 51.3559 36.6951 12.9069 2.5934 -21.4748
# 2 51.3559 81.0261 37.0566 28.2456 2.0179 -20.3915
# 3 36.6951 37.0566 102.7464 35.4938 4.4570 5.0183
# 4 12.9069 28.2456 35.4938 37.4949 0.1425 12.7655
# 5 2.5934 2.0179 4.4570 0.1425 25.5656 2.7442
# 6 -21.4748 -20.3915 5.0183 12.7655 2.7442 54.2861
#
#
#
# Elastic Compliance Matrix: (Units=1/GPa)
#
#
# Indices 1 2 3 4 5 6 
#
# 1 0.017729 -0.010398 -0.004456 0.005156 -0.000480 0.002331
# 2 -0.010398 0.030614 0.000639 -0.024587 -0.002758 0.013248
# 3 -0.004456 0.000639 0.016143 -0.014386 -0.002385 0.000488
# 4 0.005156 -0.024587 -0.014386 0.064255 0.005851 -0.021272
# 5 -0.000480 -0.002758 -0.002385 0.005851 0.040239 -0.004415
# 6 0.002331 0.013248 0.000488 -0.021272 -0.004415 0.029500
#
#
# Mechanical properties :
#
#
# Convention : Reuss Voigt Hill
#
# Bulk Modulus (GPa) = 27.73522 58.76391 43.24956
# Shear Modulus (GPa) = 20.92673 33.70615 27.31644
#
# Velocity S-wave (km/s) = 3.10437 3.93983 3.54678
# Velocity P-wave (km/s) = 5.06182 6.91072 6.05723
#
# Compressibility (1/GPa) = 0.03605524
#
# Stress axis : x y z
#
# Youngs Moduli (GPa) = 56.40469 32.66470 61.94647
#
# Poissons Ratio (x) = 0.33965 0.27603
# Poissons Ratio (y) = 0.58649 -0.03955
# Poissons Ratio (z) = 0.25134 -0.02086
#
# Static dielectric constant tensor:
#      x y z
#    x 1.850340 -0.001470 0.012380 
#    y -0.001470 1.789880 -0.028220 
#    z 0.012380 -0.028220 1.797280 
# 
# From -- ./inp_files/81513.got.cif
#   From: 2010.05.17/outbox.cif.g08.bks.cpg/sg2_41_cif.got.tgz:81513.got - 2010.06.03 11:33:40.
