data_PCOD9025794
_publ_section_title
;
Structure prediction by ZEFSAII (Michael W. Deem and Ramdas Pophale) SiO2 
 PCOD9025794
Probable space group: P -1
;
_chemical_formula_sum "Si O2"
_cell_formula_units_Z 16
_cell_length_a 9.413726
_cell_length_b 16.096810
_cell_length_c 9.574597
_cell_angle_alpha 91.188853
_cell_angle_beta 149.349075
_cell_angle_gamma 96.403725
_cell_volume 715.270404
_symmetry_space_group_name_H-M "P -1"
_symmetry_group_IT_number 2
_symmetry_cell_setting 'triclinic'
loop_
_space_group_symop_operation_xyz
x,y,z
-x,-y,-z
loop_
_atom_site_type_symbol
_atom_site_label
_atom_site_fract_x
_atom_site_fract_y
_atom_site_fract_z
Si Si1 0.656949 0.264748 0.808581
Si Si2 0.528148 0.722462 0.828305
Si Si3 0.788612 0.779350 0.348078
Si Si4 0.214806 0.362037 0.450993
Si Si5 0.837642 0.046416 0.258079
Si Si6 0.859622 0.202081 0.706911
Si Si7 0.677906 0.476943 0.280267
Si Si8 0.829331 0.011191 0.718215
O O1 0.933714 0.325001 0.120193
O O2 0.470444 0.328224 0.598751
O O3 0.698584 0.205510 0.716035
O O4 0.009871 0.039003 0.258684
O O5 0.304219 0.762300 0.554967
O O6 0.411486 0.622541 0.759115
O O7 0.653369 0.769069 0.080700
O O8 0.825150 0.736948 0.995606
O O9 0.836946 0.689673 0.445297
O O10 0.072772 0.853826 0.618094
O O11 0.538616 0.793051 0.240762
O O12 0.318256 0.461034 0.581786
O O13 0.000000 0.000000 0.500000
O O14 0.500000 0.000000 0.000000
O O15 0.889459 0.106482 0.706771
O O16 0.000000 0.500000 0.500000
O O17 0.500000 0.500000 0.000000
O O18 0.500000 0.000000 0.500000
O O19 0.000000 0.000000 0.000000
#
# Coordination Sequence:
#
# PCOD9025794 Si02
#       8
#     2   2   2   2   2   2   2   2
#     4  10  23  43  71  98 139 193 243 288 349 446
#     4  12  26  43  73 107 148 187 229 313 369 426
#     4  10  25  42  75  95 139 189 246 282 366 425
#     4  10  22  40  72 100 133 183 253 289 333 430
#     4  12  28  46  69 110 150 181 236 317 378 432
#     4  12  27  47  68 110 149 185 239 302 382 422
#     4  12  22  43  68 108 144 184 244 291 354 432
#     4  12  27  49  77 103 139 198 250 299 355 451
#
# _framework density 22.369160000000001
#
# number of rings (size 3 to 8) (size 9 to 14) (size 15 to 20)
#    0.750    0.000    1.250    6.000    5.250    2.000 
#    0.000    3.750    0.000    0.000    0.000    0.000 
#    0.000    0.000    0.000    0.000    0.000    0.000 
#
# Total GULP energy -89286.560089 kJ/mol
# GULP energy per Si atom -5580.410006 kJ/mol
# Density = 2.231825 g / cm^3
# Si number density = 22.369160 Si / 1000 Ang^3
#
#
#
# Elastic Constant Matrix: (Units=GPa)
#
#
# Indices 1 2 3 4 5 6 
#
# 1 76.3172 18.6258 18.2197 4.9960 -5.4676 -12.1213
# 2 18.6258 119.4667 57.2652 13.4317 -8.8932 8.1089
# 3 18.2197 57.2652 179.4671 -0.6168 12.1414 10.2993
# 4 4.9960 13.4317 -0.6168 34.2443 1.9654 -5.1440
# 5 -5.4676 -8.8932 12.1414 1.9654 38.5130 -1.0953
# 6 -12.1213 8.1089 10.2993 -5.1440 -1.0953 39.2825
#
#
#
# Elastic Compliance Matrix: (Units=1/GPa)
#
#
# Indices 1 2 3 4 5 6 
#
# 1 0.014934 -0.001727 -0.001432 -0.000868 0.002367 0.005292
# 2 -0.001727 0.011333 -0.003564 -0.004839 0.003672 -0.002469
# 3 -0.001432 -0.003564 0.007175 0.001713 -0.003417 -0.001458
# 4 -0.000868 -0.004839 0.001713 0.032107 -0.003294 0.004394
# 5 0.002367 0.003672 -0.003417 -0.003294 0.028430 0.001230
# 6 0.005292 -0.002469 -0.001458 0.004394 0.001230 0.028591
#
#
# Mechanical properties :
#
#
# Convention : Reuss Voigt Hill
#
# Bulk Modulus (GPa) = 50.01104 62.60805 56.30955
# Shear Modulus (GPa) = 35.04285 41.15064 38.09674
#
# Velocity S-wave (km/s) = 3.96229 4.29373 4.13133
# Velocity P-wave (km/s) = 6.58321 7.25471 6.92710
#
# Compressibility (1/GPa) = 0.01999558
#
# Stress axis : x y z
#
# Youngs Moduli (GPa) = 66.96312 88.23478 139.36334
#
# Poissons Ratio (x) = 0.15242 0.19953
# Poissons Ratio (y) = 0.11567 0.49673
# Poissons Ratio (z) = 0.09587 0.31450
#
# Static dielectric constant tensor:
#      x y z
#    x 1.984130 -0.058240 0.059480 
#    y -0.058240 1.848360 -0.011730 
#    z 0.059480 -0.011730 1.801410 
# 
# From -- ./inp_files/434091.got.cif
#   From: 2010.05.17/outbox.cif.g08.bks.cpg/sg2_218_cif.got.tgz:434091.got - 2010.06.03 11:33:40.
