data_PCOD9025577
_publ_section_title
;
Structure prediction by ZEFSAII (Michael W. Deem and Ramdas Pophale) SiO2 
 PCOD9025577
Probable space group: P -1
;
_chemical_formula_sum "Si O2"
_cell_formula_units_Z 16
_cell_length_a 27.349668
_cell_length_b 8.985319
_cell_length_c 10.063372
_cell_angle_alpha 135.921089
_cell_angle_beta 155.602648
_cell_angle_gamma 42.831066
_cell_volume 683.140193
_symmetry_space_group_name_H-M "P -1"
_symmetry_group_IT_number 2
_symmetry_cell_setting 'triclinic'
loop_
_space_group_symop_operation_xyz
x,y,z
-x,-y,-z
loop_
_atom_site_type_symbol
_atom_site_label
_atom_site_fract_x
_atom_site_fract_y
_atom_site_fract_z
Si Si1 0.720925 0.981933 0.396854
Si Si2 0.819195 0.394843 0.860781
Si Si3 0.649886 0.999761 0.512651
Si Si4 0.053339 0.160590 0.825344
Si Si5 0.321146 0.165246 0.089262
Si Si6 0.389155 0.440367 0.767161
Si Si7 0.025747 0.335601 0.145783
Si Si8 0.583753 0.240136 0.747847
O O1 0.629205 0.008993 0.310191
O O2 0.828561 0.754559 0.535991
O O3 0.776983 0.191291 0.685317
O O4 0.678866 0.964047 0.131246
O O5 0.790466 0.614548 0.021612
O O6 0.732431 0.472467 0.566371
O O7 0.956279 0.304985 0.087619
O O8 0.595102 0.816252 0.328768
O O9 0.599835 0.220513 0.617511
O O10 0.798698 0.925544 0.851417
O O11 0.017647 0.405392 0.830459
O O12 0.997608 0.198511 0.861015
O O13 0.000000 0.000000 0.500000
O O14 0.443988 0.249498 0.446492
O O15 0.333719 0.986382 0.123306
O O16 0.500000 0.500000 0.000000
O O17 0.379018 0.561859 0.961206
#
# Coordination Sequence:
#
# PCOD9025577 Si02
#       8
#     2   2   2   2   2   2   2   2
#     4  11  27  43  63  97 144 173 213 284 339 382
#     4  12  23  42  66  96 134 175 225 272 331 393
#     4  11  25  44  66 103 134 171 223 277 330 398
#     4  10  22  40  69  99 132 173 225 273 325 394
#     4  11  23  41  66  98 128 171 228 271 325 401
#     4  12  22  42  72  98 128 175 228 278 321 393
#     4  10  23  42  63  99 134 175 223 271 330 398
#     4  11  22  40  70  96 123 175 228 268 327 394
#
# _framework density 23.421256
#
# number of rings (size 3 to 8) (size 9 to 14) (size 15 to 20)
#    0.000    1.000    5.000    1.125    1.750    5.000 
#    0.000    1.250    0.000    0.000    0.000    0.000 
#    0.000    0.000    0.000    0.000    0.000    0.000 
#
# Total GULP energy -89555.349618 kJ/mol
# GULP energy per Si atom -5597.209351 kJ/mol
# Density = 2.336795 g / cm^3
# Si number density = 23.421256 Si / 1000 Ang^3
#
#
#
# Elastic Constant Matrix: (Units=GPa)
#
#
# Indices 1 2 3 4 5 6 
#
# 1 135.8971 25.1450 32.8829 18.0878 -10.4325 -22.7783
# 2 25.1450 56.1594 19.0382 16.3175 -7.2803 -22.0628
# 3 32.8829 19.0382 60.0973 16.3034 -11.8019 -12.3532
# 4 18.0878 16.3175 16.3034 31.7237 -11.6860 -8.0454
# 5 -10.4325 -7.2803 -11.8019 -11.6860 36.2668 4.8406
# 6 -22.7783 -22.0628 -12.3532 -8.0454 4.8406 35.4405
#
#
#
# Elastic Compliance Matrix: (Units=1/GPa)
#
#
# Indices 1 2 3 4 5 6 
#
# 1 0.009264 -0.000914 -0.003424 -0.002033 0.000218 0.003700
# 2 -0.000914 0.026859 -0.003062 -0.008513 -0.000370 0.013183
# 3 -0.003424 -0.003062 0.022188 -0.006179 0.003395 0.001761
# 4 -0.002033 -0.008513 -0.006179 0.043819 0.009836 -0.000156
# 5 0.000218 -0.000370 0.003395 0.009836 0.031975 -0.001042
# 6 0.003700 0.013183 0.001761 -0.000156 -0.001042 0.039522
#
#
# Mechanical properties :
#
#
# Convention : Reuss Voigt Hill
#
# Bulk Modulus (GPa) = 22.98328 45.14291 34.06310
# Shear Modulus (GPa) = 24.63905 32.35871 28.49888
#
# Velocity S-wave (km/s) = 3.24697 3.72101 3.49204
# Velocity P-wave (km/s) = 4.88788 6.14634 5.55287
#
# Compressibility (1/GPa) = 0.04350990
#
# Stress axis : x y z
#
# Youngs Moduli (GPa) = 107.94760 37.23209 45.06964
#
# Poissons Ratio (x) = 0.03405 0.15433
# Poissons Ratio (y) = 0.09871 0.13798
# Poissons Ratio (z) = 0.36963 0.11399
#
# Static dielectric constant tensor:
#      x y z
#    x 1.907290 -0.009820 -0.005990 
#    y -0.009820 1.848910 -0.026370 
#    z -0.005990 -0.026370 1.873730 
# 
# From -- ./inp_files/352460.got.cif
#   From: 2010.05.17/outbox.cif.g08.bks.cpg/sg2_177_cif.got.tgz:352460.got - 2010.06.03 11:33:40.
