data_PCOD9025171
_publ_section_title
;
Structure prediction by ZEFSAII (Michael W. Deem and Ramdas Pophale) SiO2 
 PCOD9025171
Probable space group: P -1
;
_chemical_formula_sum "Si O2"
_cell_formula_units_Z 16
_cell_length_a 11.845934
_cell_length_b 13.120880
_cell_length_c 17.228921
_cell_angle_alpha 134.800578
_cell_angle_beta 159.138209
_cell_angle_gamma 50.153503
_cell_volume 674.997459
_symmetry_space_group_name_H-M "P -1"
_symmetry_group_IT_number 2
_symmetry_cell_setting 'triclinic'
loop_
_space_group_symop_operation_xyz
x,y,z
-x,-y,-z
loop_
_atom_site_type_symbol
_atom_site_label
_atom_site_fract_x
_atom_site_fract_y
_atom_site_fract_z
Si Si1 0.205237 0.884199 0.738323
Si Si2 0.295105 0.417187 0.972541
Si Si3 0.700492 0.299375 0.440520
Si Si4 0.636039 0.006262 0.343239
Si Si5 0.749021 0.801549 0.712783
Si Si6 0.795520 0.220719 0.149501
Si Si7 0.995293 0.691181 0.966846
Si Si8 0.079136 0.664162 0.168376
O O1 0.296183 0.749043 0.672214
O O2 0.099491 0.833620 0.728727
O O3 0.937332 0.955753 0.554459
O O4 0.500000 0.000000 0.000000
O O5 0.019231 0.392039 0.717371
O O6 0.261847 0.579187 0.065673
O O7 0.165407 0.318658 0.909287
O O8 0.631564 0.370564 0.136092
O O9 0.693677 0.150724 0.406307
O O10 0.373716 0.369421 0.289585
O O11 0.388374 0.046930 0.272398
O O12 0.488311 0.885953 0.125560
O O13 0.965545 0.771704 0.910247
O O14 0.431224 0.693924 0.444033
O O15 0.933883 0.783761 0.742900
O O16 0.058738 0.762087 0.130425
O O17 0.000000 0.500000 0.000000
#
# Coordination Sequence:
#
# PCOD9025171 Si02
#       8
#     2   2   2   2   2   2   2   2
#     4  12  24  38  67  98 132 170 217 272 326 373
#     4  11  21  42  68  96 128 166 222 273 314 384
#     4  11  20  38  68  97 128 164 218 271 320 380
#     4  11  23  42  64  95 132 172 218 262 325 396
#     4  11  26  44  65  95 137 172 214 267 328 395
#     4  12  26  43  63  98 135 175 215 267 326 388
#     4  10  23  40  68  93 127 170 212 266 330 375
#     4  10  22  40  67  97 122 165 222 267 312 383
#
# _framework density 23.703793999999998
#
# number of rings (size 3 to 8) (size 9 to 14) (size 15 to 20)
#    0.000    1.000    5.000    2.625    3.500    2.000 
#    0.000    2.500    0.000    0.000    0.000    0.000 
#    0.000    0.000    0.000    0.000    0.000    0.000 
#
# Total GULP energy -89449.189910 kJ/mol
# GULP energy per Si atom -5590.574369 kJ/mol
# Density = 2.364984 g / cm^3
# Si number density = 23.703794 Si / 1000 Ang^3
#
#
#
# Elastic Constant Matrix: (Units=GPa)
#
#
# Indices 1 2 3 4 5 6 
#
# 1 177.4344 18.8744 32.3849 -14.8159 -6.3391 -17.8043
# 2 18.8744 51.6182 14.6305 -20.1866 1.4452 -12.2866
# 3 32.3849 14.6305 56.8779 -16.2690 -22.9610 10.0994
# 4 -14.8159 -20.1866 -16.2690 30.9911 -9.5839 -1.0757
# 5 -6.3391 1.4452 -22.9610 -9.5839 42.6184 -7.7698
# 6 -17.8043 -12.2866 10.0994 -1.0757 -7.7698 35.5344
#
#
#
# Elastic Compliance Matrix: (Units=1/GPa)
#
#
# Indices 1 2 3 4 5 6 
#
# 1 0.007062 0.000463 -0.004857 0.001178 -0.000401 0.005027
# 2 0.000463 0.031331 -0.002789 0.021092 0.004713 0.013527
# 3 -0.004857 -0.002789 0.039063 0.023545 0.024162 -0.008504
# 4 0.001178 0.021092 0.023545 0.068316 0.029269 0.009660
# 5 -0.000401 0.004713 0.024162 0.029269 0.043758 0.005016
# 6 0.005027 0.013527 -0.008504 0.009660 0.005016 0.039144
#
#
# Mechanical properties :
#
#
# Convention : Reuss Voigt Hill
#
# Bulk Modulus (GPa) = 15.85051 46.41220 31.13136
# Shear Modulus (GPa) = 18.93447 36.49816 27.71631
#
# Velocity S-wave (km/s) = 2.82936 3.92823 3.42318
# Velocity P-wave (km/s) = 4.16835 6.34013 5.36528
#
# Compressibility (1/GPa) = 0.06308944
#
# Stress axis : x y z
#
# Youngs Moduli (GPa) = 141.61055 31.91770 25.59972
#
# Poissons Ratio (x) = -0.01478 0.12434
# Poissons Ratio (y) = -0.06559 0.07139
# Poissons Ratio (z) = 0.68782 0.08901
#
# Static dielectric constant tensor:
#      x y z
#    x 1.934840 0.021920 0.005110 
#    y 0.021920 1.962480 -0.008780 
#    z 0.005110 -0.008780 1.899780 
# 
# From -- ./inp_files/455523.got.cif
#   From: 2010.05.17/outbox.cif.g08.bks.cpg/sg2_228_cif.got.tgz:455523.got - 2010.06.03 11:33:40.
