data_PCOD9025337
_publ_section_title
;
Structure prediction by ZEFSAII (Michael W. Deem and Ramdas Pophale) SiO2 
 PCOD9025337
Probable space group: P -1
;
_chemical_formula_sum "Si O2"
_cell_formula_units_Z 15
_cell_length_a 10.979635
_cell_length_b 14.399824
_cell_length_c 8.957741
_cell_angle_alpha 58.271548
_cell_angle_beta 83.386503
_cell_angle_gamma 129.197221
_cell_volume 685.389960
_symmetry_space_group_name_H-M "P -1"
_symmetry_group_IT_number 2
_symmetry_cell_setting 'triclinic'
loop_
_space_group_symop_operation_xyz
x,y,z
-x,-y,-z
loop_
_atom_site_type_symbol
_atom_site_label
_atom_site_fract_x
_atom_site_fract_y
_atom_site_fract_z
Si Si1 0.588071 0.314567 0.628166
Si Si2 0.014661 0.633747 0.446490
Si Si3 0.992635 0.982701 0.762129
Si Si4 0.720478 0.725855 0.276488
Si Si5 0.872022 0.265908 0.312911
Si Si6 0.280234 0.087498 0.377362
Si Si7 0.289352 0.612193 0.793248
Si Si8 0.500000 0.000000 0.000000
O O1 0.788164 0.514185 0.520482
O O2 0.367722 0.214641 0.776528
O O3 0.643305 0.366009 0.402224
O O4 0.562313 0.168673 0.793626
O O5 0.000000 0.500000 0.500000
O O6 0.023053 0.639436 0.619602
O O7 0.239959 0.845012 0.179355
O O8 0.139015 0.170696 0.681162
O O9 0.143129 0.026251 0.591325
O O10 0.822285 0.925373 0.736704
O O11 0.869126 0.814910 0.037536
O O12 0.500000 0.500000 0.500000
O O13 0.733959 0.272864 0.292337
O O14 0.743809 0.060099 0.511554
O O15 0.060395 0.398080 0.053235
O O16 0.527035 0.293016 0.200625
#
# Coordination Sequence:
#
# PCOD9025337 Si02
#       8
#     2   2   2   2   2   2   2   1
#     4  11  24  43  69 100 135 177 224 281 339 401
#     4  10  22  41  63  99 130 173 222 271 332 402
#     4  10  26  47  67 104 127 177 237 276 335 399
#     4  11  26  45  72  98 134 175 231 287 336 389
#     4  11  25  42  67  98 135 181 219 270 339 409
#     4  11  25  45  69  94 140 176 225 275 335 405
#     4  11  24  45  64 101 137 175 222 269 343 406
#     4  10  22  40  68  94 136 172 212 280 342 392
#
# _framework density 21.885349999999999
#
# number of rings (size 3 to 8) (size 9 to 14) (size 15 to 20)
#    0.000    1.333    4.000    0.400    7.467    3.200 
#    2.400    2.667    0.000    0.000    0.000    0.000 
#    0.000    0.000    0.000    0.000    0.000    0.000 
#
# Total GULP energy -83577.044461 kJ/mol
# GULP energy per Si atom -5571.802964 kJ/mol
# Density = 2.183554 g / cm^3
# Si number density = 21.885350 Si / 1000 Ang^3
#
#
#
# Elastic Constant Matrix: (Units=GPa)
#
#
# Indices 1 2 3 4 5 6 
#
# 1 54.5242 17.7068 -16.9041 2.4253 -14.1493 29.8814
# 2 17.7068 87.9810 40.4043 7.6493 3.1629 27.4206
# 3 -16.9041 40.4043 74.6394 1.5073 -10.5495 5.3823
# 4 2.4253 7.6493 1.5073 23.5869 -4.8229 -5.0867
# 5 -14.1493 3.1629 -10.5495 -4.8229 28.7065 -9.6561
# 6 29.8814 27.4206 5.3823 -5.0867 -9.6561 38.8706
#
#
#
# Elastic Compliance Matrix: (Units=1/GPa)
#
#
# Indices 1 2 3 4 5 6 
#
# 1 0.054453 -0.015283 0.026704 -0.002575 0.028472 -0.028041
# 2 -0.015283 0.034025 -0.024347 -0.017937 -0.029484 -0.018554
# 3 0.026704 -0.024347 0.036797 0.009260 0.031087 0.000486
# 4 -0.002575 -0.017937 0.009260 0.058315 0.022877 0.026665
# 5 0.028472 -0.029484 0.031087 0.022877 0.072649 0.015647
# 6 -0.028041 -0.018554 0.000486 0.026665 0.015647 0.067681
#
#
# Mechanical properties :
#
#
# Convention : Reuss Voigt Hill
#
# Bulk Modulus (GPa) = 10.05799 33.28429 21.67114
# Shear Modulus (GPa) = 13.05782 29.96199 21.50991
#
# Velocity S-wave (km/s) = 2.44528 3.70407 3.13844
# Velocity P-wave (km/s) = 3.54659 5.79094 4.80174
#
# Compressibility (1/GPa) = 0.09942341
#
# Stress axis : x y z
#
# Youngs Moduli (GPa) = 18.36434 29.39011 27.17619
#
# Poissons Ratio (x) = 0.44916 -0.72571
# Poissons Ratio (y) = 0.28066 0.66166
# Poissons Ratio (z) = -0.49040 0.71556
#
# Static dielectric constant tensor:
#      x y z
#    x 1.858320 0.007080 -0.011920 
#    y 0.007080 1.783970 -0.006350 
#    z -0.011920 -0.006350 1.755710 
# 
# From -- ./inp_files/269786.got.cif
#   From: 2010.05.17/outbox.cif.g08.bks.cpg/sg2_135_cif.got.tgz:269786.got - 2010.06.03 11:33:40.
