data_PCOD9025737
_publ_section_title
;
Structure prediction by ZEFSAII (Michael W. Deem and Ramdas Pophale) SiO2 
 PCOD9025737
Probable space group: P -1
;
_chemical_formula_sum "Si O2"
_cell_formula_units_Z 16
_cell_length_a 16.340977
_cell_length_b 11.121134
_cell_length_c 8.179683
_cell_angle_alpha 115.328485
_cell_angle_beta 33.033024
_cell_angle_gamma 126.784199
_cell_volume 639.541696
_symmetry_space_group_name_H-M "P -1"
_symmetry_group_IT_number 2
_symmetry_cell_setting 'triclinic'
loop_
_space_group_symop_operation_xyz
x,y,z
-x,-y,-z
loop_
_atom_site_type_symbol
_atom_site_label
_atom_site_fract_x
_atom_site_fract_y
_atom_site_fract_z
Si Si1 0.154284 0.925586 0.859875
Si Si2 0.434367 0.574914 0.794486
Si Si3 0.155207 0.340324 0.382455
Si Si4 0.180219 0.513722 0.756854
Si Si5 0.414420 0.841512 0.452266
Si Si6 0.215231 0.140048 0.588023
Si Si7 0.862212 0.403679 0.808540
Si Si8 0.219942 0.065999 0.189913
O O1 0.261118 0.837633 0.600195
O O2 0.231017 0.069817 0.693137
O O3 0.953636 0.841193 0.108493
O O4 0.173437 0.962076 0.043749
O O5 0.500000 0.500000 0.500000
O O6 0.614340 0.703073 0.639675
O O7 0.296763 0.442428 0.067809
O O8 0.331140 0.668252 0.976103
O O9 0.219114 0.430757 0.499042
O O10 0.153240 0.182657 0.318675
O O11 0.961676 0.317295 0.664033
O O12 0.326524 0.690378 0.619182
O O13 0.148647 0.476917 0.977759
O O14 0.000000 0.500000 0.000000
O O15 0.500000 0.000000 0.500000
O O16 0.573423 0.846629 0.098356
O O17 0.174596 0.026362 0.434412
O O18 0.000000 0.500000 0.500000
#
# Coordination Sequence:
#
# PCOD9025737 Si02
#       8
#     2   2   2   2   2   2   2   2
#     4  10  25  49  68  98 141 184 237 290 346 413
#     4  11  24  40  67 104 144 181 230 289 352 418
#     4  10  23  43  69 104 142 177 230 292 353 427
#     4  10  22  40  71 102 132 183 229 285 353 422
#     4  10  24  43  71  99 138 183 236 289 351 420
#     4  11  25  43  69 100 135 185 237 281 350 416
#     4   9  22  42  64 100 139 181 225 284 354 415
#     4  11  24  46  73 104 136 182 236 290 355 413
#
# _framework density 25.017917000000001
#
# number of rings (size 3 to 8) (size 9 to 14) (size 15 to 20)
#    0.000    1.750    0.000    1.875   10.500    2.500 
#    0.000    7.500    0.000    0.000    0.000    0.000 
#    0.000    0.000    0.000    0.000    0.000    0.000 
#
# Total GULP energy -89268.128568 kJ/mol
# GULP energy per Si atom -5579.258035 kJ/mol
# Density = 2.496098 g / cm^3
# Si number density = 25.017917 Si / 1000 Ang^3
#
#
#
# Elastic Constant Matrix: (Units=GPa)
#
#
# Indices 1 2 3 4 5 6 
#
# 1 93.7812 12.2845 53.5964 5.3846 -9.3499 -12.6303
# 2 12.2845 60.7267 16.5714 7.7489 5.8056 8.6980
# 3 53.5964 16.5714 169.7527 5.6789 -17.6939 -5.4431
# 4 5.3846 7.7489 5.6789 32.9081 0.8638 -5.5469
# 5 -9.3499 5.8056 -17.6939 0.8638 60.5599 5.7627
# 6 -12.6303 8.6980 -5.4431 -5.5469 5.7627 28.5119
#
#
#
# Elastic Compliance Matrix: (Units=1/GPa)
#
#
# Indices 1 2 3 4 5 6 
#
# 1 0.014183 -0.002762 -0.003936 0.000042 0.000710 0.006238
# 2 -0.002762 0.019363 -0.001292 -0.005188 -0.001823 -0.008018
# 3 -0.003936 -0.001292 0.007443 -0.000443 0.001732 -0.000365
# 4 0.000042 -0.005188 -0.000443 0.033072 -0.000871 0.008127
# 5 0.000710 -0.001823 0.001732 -0.000871 0.017555 -0.002516
# 6 0.006238 -0.008018 -0.000365 0.008127 -0.002516 0.042303
#
#
# Mechanical properties :
#
#
# Convention : Reuss Voigt Hill
#
# Bulk Modulus (GPa) = 39.98299 54.35169 47.16734
# Shear Modulus (GPa) = 31.59879 40.51653 36.05766
#
# Velocity S-wave (km/s) = 3.55779 4.02867 3.80053
# Velocity P-wave (km/s) = 5.73530 6.58882 6.17682
#
# Compressibility (1/GPa) = 0.02501063
#
# Stress axis : x y z
#
# Youngs Moduli (GPa) = 70.50819 51.64436 134.34897
#
# Poissons Ratio (x) = 0.14263 0.52875
# Poissons Ratio (y) = 0.19473 0.17355
# Poissons Ratio (z) = 0.27750 0.06671
#
# Static dielectric constant tensor:
#      x y z
#    x 2.373490 0.580940 0.076430 
#    y 0.580940 3.484940 0.177440 
#    z 0.076430 0.177440 2.000060 
# 
# From -- ./inp_files/333582.got.cif
#   From: 2010.05.17/outbox.cif.g08.bks.cpg/sg2_167_cif.got.tgz:333582.got - 2010.06.03 11:33:40.
