data_PCOD9025162
_publ_section_title
;
Structure prediction by ZEFSAII (Michael W. Deem and Ramdas Pophale) SiO2 
 PCOD9025162
Probable space group: P -1
;
_chemical_formula_sum "Si O2"
_cell_formula_units_Z 16
_cell_length_a 10.611981
_cell_length_b 8.250879
_cell_length_c 10.657838
_cell_angle_alpha 124.313685
_cell_angle_beta 54.595991
_cell_angle_gamma 110.106935
_cell_volume 628.042861
_symmetry_space_group_name_H-M "P -1"
_symmetry_group_IT_number 2
_symmetry_cell_setting 'triclinic'
loop_
_space_group_symop_operation_xyz
x,y,z
-x,-y,-z
loop_
_atom_site_type_symbol
_atom_site_label
_atom_site_fract_x
_atom_site_fract_y
_atom_site_fract_z
Si Si1 0.308633 0.812717 0.679768
Si Si2 0.404499 0.576880 0.202834
Si Si3 0.843786 0.152173 0.486058
Si Si4 0.571787 0.550701 0.328602
Si Si5 0.163473 0.242902 0.231530
Si Si6 0.376305 0.909967 0.936335
Si Si7 0.897889 0.730848 0.267190
Si Si8 0.978984 0.662028 0.904610
O O1 0.254198 0.879340 0.602464
O O2 0.420310 0.626063 0.521881
O O3 0.392048 0.954124 0.796190
O O4 0.147597 0.749458 0.810450
O O5 0.276670 0.733529 0.311063
O O6 0.531924 0.648038 0.259941
O O7 0.298995 0.402210 0.253494
O O8 0.500000 0.500000 0.000000
O O9 0.002711 0.267701 0.408265
O O10 0.895119 0.945785 0.417530
O O11 0.608722 0.325321 0.174639
O O12 0.723784 0.648148 0.341063
O O13 0.129200 0.275994 0.118688
O O14 0.222720 0.022172 0.115811
O O15 0.500000 0.000000 0.000000
O O16 0.008058 0.572801 0.195863
O O17 0.934518 0.735502 0.099444
#
# Coordination Sequence:
#
# PCOD9025162 Si02
#       8
#     2   2   2   2   2   2   2   2
#     4  10  22  43  69  98 133 177 234 275 330 405
#     4  11  24  45  67  98 144 181 218 284 351 396
#     4  10  24  43  72 100 130 184 234 273 333 407
#     4  11  24  43  67 100 137 179 225 282 335 403
#     4  11  23  44  69  96 137 179 230 275 338 406
#     4  12  23  40  68 103 132 175 227 278 337 403
#     4  11  22  40  65 101 137 165 233 282 336 394
#     4  10  22  40  67  96 134 177 218 283 342 386
#
# _framework density 25.475968999999999
#
# number of rings (size 3 to 8) (size 9 to 14) (size 15 to 20)
#    0.000    1.250    2.500    3.000    1.750    5.000 
#    0.000    0.625    0.000    0.000    0.000    0.000 
#    0.000    0.000    0.000    0.000    0.000    0.000 
#
# Total GULP energy -89519.667710 kJ/mol
# GULP energy per Si atom -5594.979232 kJ/mol
# Density = 2.541798 g / cm^3
# Si number density = 25.475969 Si / 1000 Ang^3
#
#
#
# Elastic Constant Matrix: (Units=GPa)
#
#
# Indices 1 2 3 4 5 6 
#
# 1 113.0422 13.5029 24.2300 3.0660 -9.4179 -0.9730
# 2 13.5029 70.9894 37.8214 23.0306 -14.8088 6.3636
# 3 24.2300 37.8214 154.0230 12.3247 -34.2934 -3.7272
# 4 3.0660 23.0306 12.3247 46.7734 -12.6483 -7.7287
# 5 -9.4179 -14.8088 -34.2934 -12.6483 41.5746 13.7328
# 6 -0.9730 6.3636 -3.7272 -7.7287 13.7328 24.3706
#
#
#
# Elastic Compliance Matrix: (Units=1/GPa)
#
#
# Indices 1 2 3 4 5 6 
#
# 1 0.009271 -0.001233 -0.000981 0.000547 0.000960 0.000174
# 2 -0.001233 0.021818 -0.003352 -0.010322 0.005819 -0.012811
# 3 -0.000981 -0.003352 0.008822 0.000963 0.006550 -0.001200
# 4 0.000547 -0.010322 0.000963 0.028578 0.002453 0.010546
# 5 0.000960 0.005819 0.006550 0.002453 0.039803 -0.022130
# 6 0.000174 -0.012811 -0.001200 0.010546 -0.022130 0.060016
#
#
# Mechanical properties :
#
#
# Convention : Reuss Voigt Hill
#
# Bulk Modulus (GPa) = 34.74901 54.35146 44.55023
# Shear Modulus (GPa) = 26.45024 40.04376 33.24700
#
# Velocity S-wave (km/s) = 3.22567 3.96893 3.61644
# Velocity P-wave (km/s) = 5.24812 6.51029 5.91298
#
# Compressibility (1/GPa) = 0.02877780
#
# Stress axis : x y z
#
# Youngs Moduli (GPa) = 107.86834 45.83343 113.34783
#
# Poissons Ratio (x) = 0.05652 0.11123
# Poissons Ratio (y) = 0.13302 0.37995
# Poissons Ratio (z) = 0.10586 0.15364
#
# Static dielectric constant tensor:
#      x y z
#    x 2.039290 -0.019320 0.056630 
#    y -0.019320 2.084510 -0.001830 
#    z 0.056630 -0.001830 2.012400 
# 
# From -- ./inp_files/419903.got.cif
#   From: 2010.05.17/outbox.cif.g08.bks.cpg/sg2_210_cif.got.tgz:419903.got - 2010.06.03 11:33:40.
