data_PCOD9025159
_publ_section_title
;
Structure prediction by ZEFSAII (Michael W. Deem and Ramdas Pophale) SiO2 
 PCOD9025159
Probable space group: P -1
;
_chemical_formula_sum "Si O2"
_cell_formula_units_Z 16
_cell_length_a 8.813255
_cell_length_b 11.720117
_cell_length_c 15.247846
_cell_angle_alpha 80.625587
_cell_angle_beta 28.148513
_cell_angle_gamma 90.238570
_cell_volume 695.158337
_symmetry_space_group_name_H-M "P -1"
_symmetry_group_IT_number 2
_symmetry_cell_setting 'triclinic'
loop_
_space_group_symop_operation_xyz
x,y,z
-x,-y,-z
loop_
_atom_site_type_symbol
_atom_site_label
_atom_site_fract_x
_atom_site_fract_y
_atom_site_fract_z
Si Si1 0.377558 0.935382 0.675451
Si Si2 0.605786 0.916153 0.027839
Si Si3 0.322200 0.795283 0.561169
Si Si4 0.436230 0.337511 0.972905
Si Si5 0.619719 0.942920 0.733407
Si Si6 0.634004 0.317227 0.054386
Si Si7 0.428558 0.407166 0.630048
Si Si8 0.396731 0.512052 0.813153
O O1 0.496079 0.846891 0.560445
O O2 0.377168 0.893680 0.779858
O O3 0.009486 0.937809 0.830239
O O4 0.622839 0.074839 0.529623
O O5 0.441271 0.774984 0.105785
O O6 0.500000 0.000000 0.000000
O O7 0.486355 0.954260 0.175603
O O8 0.444404 0.704446 0.450249
O O9 0.947079 0.719370 0.790607
O O10 0.625831 0.390552 0.959556
O O11 0.431309 0.417687 0.881205
O O12 0.560140 0.825416 0.840163
O O13 0.000000 0.000000 0.500000
O O14 0.471100 0.361850 0.215876
O O15 0.031646 0.343155 0.860238
O O16 0.500000 0.500000 0.500000
O O17 0.557053 0.485082 0.644022
O O18 0.000000 0.500000 0.000000
#
# Coordination Sequence:
#
# PCOD9025159 Si02
#       8
#     2   2   2   2   2   2   2   2
#     4  10  24  39  69  95 137 187 223 279 347 405
#     4  11  24  43  64  99 141 180 227 279 346 409
#     4  10  22  40  67  96 133 173 233 274 338 401
#     4  11  23  44  70  96 138 180 220 286 344 410
#     4  12  26  42  70 105 140 178 231 280 340 420
#     4  11  24  45  70  96 142 181 219 283 351 395
#     4  11  25  43  69 100 132 174 233 284 330 409
#     4  10  24  43  69  97 128 178 230 276 339 406
#
# _framework density 23.016338000000001
#
# number of rings (size 3 to 8) (size 9 to 14) (size 15 to 20)
#    0.000    1.250    1.250    3.750   14.000    0.000 
#    0.000    1.250    0.000    0.000    0.000    0.000 
#    0.000    0.000    0.000    0.000    0.000    0.000 
#
# Total GULP energy -89341.660897 kJ/mol
# GULP energy per Si atom -5583.853806 kJ/mol
# Density = 2.296395 g / cm^3
# Si number density = 23.016338 Si / 1000 Ang^3
#
#
#
# Elastic Constant Matrix: (Units=GPa)
#
#
# Indices 1 2 3 4 5 6 
#
# 1 109.6732 25.4146 9.8982 24.2793 28.9964 4.7054
# 2 25.4146 129.1619 30.5936 40.0989 16.7296 22.2102
# 3 9.8982 30.5936 75.6515 16.5452 15.1070 10.3049
# 4 24.2793 40.0989 16.5452 39.3390 14.0393 17.5055
# 5 28.9964 16.7296 15.1070 14.0393 35.6205 6.9633
# 6 4.7054 22.2102 10.3049 17.5055 6.9633 37.3511
#
#
#
# Elastic Compliance Matrix: (Units=1/GPa)
#
#
# Indices 1 2 3 4 5 6 
#
# 1 0.012628 -0.000169 0.001151 -0.006185 -0.008784 0.002728
# 2 -0.000169 0.011760 -0.002272 -0.010206 -0.000098 -0.001543
# 3 0.001151 -0.002272 0.015765 -0.002746 -0.005304 -0.000868
# 4 -0.006185 -0.010206 -0.002746 0.049201 -0.005581 -0.014413
# 5 -0.008784 -0.000098 -0.005304 -0.005581 0.040158 -0.002242
# 6 0.002728 -0.001543 -0.000868 -0.014413 -0.002242 0.034760
#
#
# Mechanical properties :
#
#
# Convention : Reuss Voigt Hill
#
# Bulk Modulus (GPa) = 26.61419 49.58881 38.10150
# Shear Modulus (GPa) = 27.87470 39.03414 33.45442
#
# Velocity S-wave (km/s) = 3.48384 4.12264 3.81663
# Velocity P-wave (km/s) = 5.26983 6.65232 6.00102
#
# Compressibility (1/GPa) = 0.03757395
#
# Stress axis : x y z
#
# Youngs Moduli (GPa) = 79.19039 85.03343 63.43349
#
# Poissons Ratio (x) = 0.01433 -0.07302
# Poissons Ratio (y) = 0.01335 0.14411
# Poissons Ratio (z) = -0.09116 0.19318
#
# Static dielectric constant tensor:
#      x y z
#    x 1.976830 0.002010 0.004280 
#    y 0.002010 1.898350 -0.014010 
#    z 0.004280 -0.014010 1.864300 
# 
# From -- ./inp_files/500347.got.cif
#   From: 2010.05.17/outbox.cif.g08.bks.cpg/sg2_251_cif.got.tgz:500347.got - 2010.06.03 11:33:40.
