data_PCOD9025019
_publ_section_title
;
Structure prediction by ZEFSAII (Michael W. Deem and Ramdas Pophale) SiO2 
 PCOD9025019
Probable space group: P -1
;
_chemical_formula_sum "Si O2"
_cell_formula_units_Z 16
_cell_length_a 8.852900
_cell_length_b 20.793261
_cell_length_c 11.374504
_cell_angle_alpha 136.365703
_cell_angle_beta 28.483857
_cell_angle_gamma 128.703345
_cell_volume 688.690118
_symmetry_space_group_name_H-M "P -1"
_symmetry_group_IT_number 2
_symmetry_cell_setting 'triclinic'
loop_
_space_group_symop_operation_xyz
x,y,z
-x,-y,-z
loop_
_atom_site_type_symbol
_atom_site_label
_atom_site_fract_x
_atom_site_fract_y
_atom_site_fract_z
Si Si1 0.899961 0.510905 0.840801
Si Si2 0.935746 0.943836 0.588516
Si Si3 0.265665 0.330284 0.405052
Si Si4 0.951863 0.259407 0.763159
Si Si5 0.897174 0.718912 0.054658
Si Si6 0.740555 0.426420 0.604778
Si Si7 0.195603 0.758053 0.581758
Si Si8 0.227589 0.888179 0.937655
O O1 0.730994 0.441259 0.773211
O O2 0.168973 0.440771 0.611423
O O3 0.003309 0.608256 0.838744
O O4 0.604049 0.544093 0.169273
O O5 0.579029 0.909682 0.769225
O O6 0.134951 0.847930 0.341183
O O7 0.000000 0.000000 0.500000
O O8 0.963645 0.016721 0.771823
O O9 0.148973 0.297533 0.569545
O O10 0.066307 0.265952 0.366268
O O11 0.628917 0.315508 0.096100
O O12 0.160969 0.262784 0.741998
O O13 0.549376 0.737605 0.261885
O O14 0.114211 0.802745 0.981488
O O15 0.847834 0.319360 0.386398
O O16 0.000000 0.500000 0.500000
O O17 0.192737 0.855008 0.782860
#
# Coordination Sequence:
#
# PCOD9025019 Si02
#       8
#     2   2   2   2   2   2   2   2
#     4   9  21  37  58  98 133 189 221 280 326 404
#     4  11  23  43  72 101 130 170 233 294 350 400
#     4  11  28  45  67  99 157 186 219 270 368 408
#     4  12  26  47  67 103 139 188 222 290 348 421
#     4  11  22  41  72 100 135 173 258 275 324 399
#     4   9  17  33  61  91 134 172 240 274 326 381
#     4  10  22  40  67 101 131 185 226 291 325 411
#     4  11  21  39  75 104 125 168 235 303 333 391
#
# _framework density 23.232510999999999
#
# number of rings (size 3 to 8) (size 9 to 14) (size 15 to 20)
#    0.000    1.500    2.500    2.250    7.000    1.000 
#    0.000    1.250    0.000    0.000    0.000    0.000 
#    0.000    0.000    0.000    0.000    0.000    0.000 
#
# Total GULP energy -89186.454902 kJ/mol
# GULP energy per Si atom -5574.153431 kJ/mol
# Density = 2.317963 g / cm^3
# Si number density = 23.232511 Si / 1000 Ang^3
#
#
#
# Elastic Constant Matrix: (Units=GPa)
#
#
# Indices 1 2 3 4 5 6 
#
# 1 34.9347 -15.0149 -13.7622 0.5889 10.5693 17.5222
# 2 -15.0149 118.0446 14.6868 -3.5964 7.8465 9.6497
# 3 -13.7622 14.6868 71.2712 15.1551 -1.2433 3.0699
# 4 0.5889 -3.5964 15.1551 55.6880 15.7613 5.7400
# 5 10.5693 7.8465 -1.2433 15.7613 28.8289 6.8629
# 6 17.5222 9.6497 3.0699 5.7400 6.8629 35.3567
#
#
#
# Elastic Compliance Matrix: (Units=1/GPa)
#
#
# Indices 1 2 3 4 5 6 
#
# 1 0.056399 0.009965 0.008393 0.006272 -0.019647 -0.028603
# 2 0.009965 0.011001 -0.000913 0.003548 -0.006939 -0.007091
# 3 0.008393 -0.000913 0.017097 -0.004770 0.001695 -0.004949
# 4 0.006272 0.003548 -0.004770 0.024328 -0.015684 -0.004568
# 5 -0.019647 -0.006939 0.001695 -0.015684 0.051465 0.004040
# 6 -0.028603 -0.007091 -0.004949 -0.004568 0.004040 0.044781
#
#
# Mechanical properties :
#
#
# Convention : Reuss Voigt Hill
#
# Bulk Modulus (GPa) = 8.37622 21.78553 15.08088
# Shear Modulus (GPa) = 23.81209 39.86412 31.83811
#
# Velocity S-wave (km/s) = 3.20495 4.14681 3.70592
# Velocity P-wave (km/s) = 4.16039 5.68556 4.98169
#
# Compressibility (1/GPa) = 0.11938554
#
# Stress axis : x y z
#
# Youngs Moduli (GPa) = 17.73091 90.89694 58.49083
#
# Poissons Ratio (x) = -0.90577 -0.49089
# Poissons Ratio (y) = -0.17669 0.05340
# Poissons Ratio (z) = -0.14881 0.08299
#
# Static dielectric constant tensor:
#      x y z
#    x 1.932980 -0.017730 0.063280 
#    y -0.017730 1.899130 0.022120 
#    z 0.063280 0.022120 2.156830 
# 
# From -- ./inp_files/405540.got.cif
#   From: 2010.05.17/outbox.cif.g08.bks.cpg/sg2_203_cif.got.tgz:405540.got - 2010.06.03 11:33:40.
