data_PCOD9025908
_publ_section_title
;
Structure prediction by ZEFSAII (Michael W. Deem and Ramdas Pophale) SiO2 
 PCOD9025908
Probable space group: P -1
;
_chemical_formula_sum "Si O2"
_cell_formula_units_Z 16
_cell_length_a 13.453211
_cell_length_b 8.017677
_cell_length_c 8.238106
_cell_angle_alpha 120.358548
_cell_angle_beta 110.089704
_cell_angle_gamma 53.384771
_cell_volume 614.301243
_symmetry_space_group_name_H-M "P -1"
_symmetry_group_IT_number 2
_symmetry_cell_setting 'triclinic'
loop_
_space_group_symop_operation_xyz
x,y,z
-x,-y,-z
loop_
_atom_site_type_symbol
_atom_site_label
_atom_site_fract_x
_atom_site_fract_y
_atom_site_fract_z
Si Si1 0.187219 0.940194 0.489927
Si Si2 0.150396 0.650462 0.833355
Si Si3 0.291751 0.181827 0.533453
Si Si4 0.087995 0.679362 0.438199
Si Si5 0.931625 0.690970 0.916901
Si Si6 0.684191 0.165151 0.996832
Si Si7 0.560686 0.898721 0.696577
Si Si8 0.558080 0.298566 0.304593
O O1 0.167300 0.728559 0.377633
O O2 0.302867 0.872223 0.637123
O O3 0.220341 0.045162 0.406783
O O4 0.056744 0.137020 0.581560
O O5 0.216014 0.379651 0.717276
O O6 0.114202 0.723945 0.659662
O O7 0.248298 0.714357 0.981580
O O8 0.030792 0.745108 0.925101
O O9 0.330916 0.278084 0.449114
O O10 0.428151 0.006050 0.590677
O O11 0.096501 0.442310 0.302950
O O12 0.000000 0.500000 0.000000
O O13 0.803487 0.920268 0.000645
O O14 0.589544 0.340071 0.164415
O O15 0.599252 0.083831 0.826173
O O16 0.535918 0.794413 0.790270
O O17 0.500000 0.500000 0.500000
#
# Coordination Sequence:
#
# PCOD9025908 Si02
#       8
#     2   2   2   2   2   2   2   2
#     4  10  22  40  74  99 133 173 235 280 326 412
#     4  12  25  44  72 101 139 185 229 278 344 421
#     4  10  22  45  70  98 137 182 231 277 337 408
#     4  11  23  44  74 103 133 187 233 270 348 419
#     4  12  28  44  68 105 143 181 221 290 355 404
#     4  12  26  44  69  99 145 173 230 288 342 404
#     4  10  24  42  69  99 134 183 229 284 338 396
#     4  11  23  45  69  98 132 182 234 282 338 407
#
# _framework density 26.045853000000001
#
# number of rings (size 3 to 8) (size 9 to 14) (size 15 to 20)
#    0.000    1.000    2.500    3.375    7.000    1.500 
#    0.000    0.000    0.000    0.000    0.000    0.000 
#    0.000    0.000    0.000    0.000    0.000    0.000 
#
# Total GULP energy -89370.785533 kJ/mol
# GULP energy per Si atom -5585.674096 kJ/mol
# Density = 2.598657 g / cm^3
# Si number density = 26.045853 Si / 1000 Ang^3
#
#
#
# Elastic Constant Matrix: (Units=GPa)
#
#
# Indices 1 2 3 4 5 6 
#
# 1 243.8085 32.1025 47.9573 7.8578 21.4996 20.9829
# 2 32.1025 55.2404 1.4698 3.7430 -7.3096 7.3837
# 3 47.9573 1.4698 78.5837 22.7144 6.9466 2.9822
# 4 7.8578 3.7430 22.7144 31.0032 -1.2576 6.9905
# 5 21.4996 -7.3096 6.9466 -1.2576 37.8271 14.8332
# 6 20.9829 7.3837 2.9822 6.9905 14.8332 43.1465
#
#
#
# Elastic Compliance Matrix: (Units=1/GPa)
#
#
# Indices 1 2 3 4 5 6 
#
# 1 0.005529 -0.003416 -0.003550 0.001790 -0.002599 -0.001255
# 2 -0.003416 0.021758 0.001659 -0.001654 0.007553 -0.004505
# 3 -0.003550 0.001659 0.019097 -0.014191 -0.002993 0.003451
# 4 0.001790 -0.001654 -0.014191 0.044684 0.006287 -0.009007
# 5 -0.002599 0.007553 -0.002993 0.006287 0.035207 -0.012944
# 6 -0.001255 -0.004505 0.003451 -0.009007 -0.012944 0.030229
#
#
# Mechanical properties :
#
#
# Convention : Reuss Voigt Hill
#
# Bulk Modulus (GPa) = 27.95729 60.07687 44.01708
# Shear Modulus (GPa) = 27.92649 42.13555 35.03102
#
# Velocity S-wave (km/s) = 3.27801 4.02648 3.67137
# Velocity P-wave (km/s) = 5.00842 6.68825 5.90834
#
# Compressibility (1/GPa) = 0.03576885
#
# Stress axis : x y z
#
# Youngs Moduli (GPa) = 180.85386 45.96098 52.36552
#
# Poissons Ratio (x) = 0.15701 0.18592
# Poissons Ratio (y) = 0.61784 -0.08690
# Poissons Ratio (z) = 0.64212 -0.07627
#
# Static dielectric constant tensor:
#      x y z
#    x 2.014100 0.111950 -0.054140 
#    y 0.111950 2.171660 -0.116500 
#    z -0.054140 -0.116500 2.160050 
# 
# From -- ./inp_files/245613.got.cif
#   From: 2010.05.17/outbox.cif.g08.bks.cpg/sg2_123_cif.got.tgz:245613.got - 2010.06.03 11:33:40.
