data_PCOD9025759
_publ_section_title
;
Structure prediction by ZEFSAII (Michael W. Deem and Ramdas Pophale) SiO2 
 PCOD9025759
Probable space group: P -1
;
_chemical_formula_sum "Si O2"
_cell_formula_units_Z 10
_cell_length_a 9.325115
_cell_length_b 8.364174
_cell_length_c 8.402537
_cell_angle_alpha 70.113610
_cell_angle_beta 70.739230
_cell_angle_gamma 118.367885
_cell_volume 436.255847
_symmetry_space_group_name_H-M "P -1"
_symmetry_group_IT_number 2
_symmetry_cell_setting 'triclinic'
loop_
_space_group_symop_operation_xyz
x,y,z
-x,-y,-z
loop_
_atom_site_type_symbol
_atom_site_label
_atom_site_fract_x
_atom_site_fract_y
_atom_site_fract_z
Si Si1 0.097513 0.682771 0.542331
Si Si2 0.458886 0.709240 0.460191
Si Si3 0.260138 0.460459 0.097200
Si Si4 0.337492 0.172431 0.315925
Si Si5 0.774413 0.765556 0.143331
O O1 0.311918 0.759516 0.482878
O O2 0.000000 0.500000 0.500000
O O3 0.931389 0.567641 0.781565
O O4 0.154529 0.921110 0.407782
O O5 0.599651 0.820491 0.528188
O O6 0.607090 0.786736 0.231187
O O7 0.302557 0.436073 0.636493
O O8 0.292468 0.339643 0.259465
O O9 0.465773 0.714064 0.904269
O O10 0.233206 0.331181 0.990843
O O11 0.000000 0.000000 0.000000
#
# Coordination Sequence:
#
# PCOD9025759 Si02
#       5
#     2   2   2   2   2
#     4  12  27  39  66 101 134 164 213 273 323 369
#     4  10  24  42  65  97 129 167 215 264 320 380
#     4  10  24  43  68  93 126 176 216 258 323 382
#     4  10  23  45  69  88 132 173 218 259 317 388
#     4  10  22  40  71  94 127 169 218 261 319 384
#
# _framework density 22.922332000000001
#
# number of rings (size 3 to 8) (size 9 to 14) (size 15 to 20)
#    0.000    1.600    0.000    2.400   14.000    5.600 
#    0.000    0.000    0.000    0.000    0.000    0.000 
#    0.000    0.000    0.000    0.000    0.000    0.000 
#
# Total GULP energy -55904.310505 kJ/mol
# GULP energy per Si atom -5590.431051 kJ/mol
# Density = 2.287016 g / cm^3
# Si number density = 22.922332 Si / 1000 Ang^3
#
#
#
# Elastic Constant Matrix: (Units=GPa)
#
#
# Indices 1 2 3 4 5 6 
#
# 1 59.8807 9.5752 34.9595 30.4371 -30.6564 -0.0584
# 2 9.5752 123.0732 62.8841 -0.3873 -12.0842 18.9280
# 3 34.9595 62.8841 120.2718 10.9892 -50.4185 7.1772
# 4 30.4371 -0.3873 10.9892 52.4122 -3.8211 -7.1436
# 5 -30.6564 -12.0842 -50.4185 -3.8211 47.5261 6.6635
# 6 -0.0584 18.9280 7.1772 -7.1436 6.6635 25.9859
#
#
#
# Elastic Compliance Matrix: (Units=1/GPa)
#
#
# Indices 1 2 3 4 5 6 
#
# 1 0.045633 -0.000011 0.004982 -0.027416 0.035006 -0.017779
# 2 -0.000011 0.012853 -0.008538 0.000778 -0.004961 -0.005518
# 3 0.004982 -0.008538 0.023941 -0.007269 0.027167 -0.009347
# 4 -0.027416 0.000778 -0.007269 0.037173 -0.024725 0.017939
# 5 0.035006 -0.004961 0.027167 -0.024725 0.073316 -0.029408
# 6 -0.017779 -0.005518 -0.009347 0.017939 -0.029408 0.057516
#
#
# Mechanical properties :
#
#
# Convention : Reuss Voigt Hill
#
# Bulk Modulus (GPa) = 13.28150 57.56261 35.42205
# Shear Modulus (GPa) = 17.68902 38.23862 27.96382
#
# Velocity S-wave (km/s) = 2.78095 4.08877 3.49655
# Velocity P-wave (km/s) = 4.01476 6.88892 5.63806
#
# Compressibility (1/GPa) = 0.07529268
#
# Stress axis : x y z
#
# Youngs Moduli (GPa) = 21.91418 77.80501 41.76960
#
# Poissons Ratio (x) = 0.00083 -0.20811
# Poissons Ratio (y) = 0.00024 0.35664
# Poissons Ratio (z) = -0.10918 0.66431
#
# Static dielectric constant tensor:
#      x y z
#    x 1.939700 -0.019660 0.016010 
#    y -0.019660 1.879230 -0.005710 
#    z 0.016010 -0.005710 1.876770 
# 
# From -- ./inp_files/144002.got.cif
#   From: 2010.05.17/outbox.cif.g08.bks.cpg/sg2_73_cif.got.tgz:144002.got - 2010.06.03 11:33:40.
