data_PCOD9025177
_publ_section_title
;
Structure prediction by ZEFSAII (Michael W. Deem and Ramdas Pophale) SiO2 
 PCOD9025177
Probable space group: P -1
;
_chemical_formula_sum "Si O2"
_cell_formula_units_Z 12
_cell_length_a 15.461489
_cell_length_b 10.376047
_cell_length_c 7.084524
_cell_angle_alpha 62.396550
_cell_angle_beta 134.327434
_cell_angle_gamma 143.689446
_cell_volume 467.926030
_symmetry_space_group_name_H-M "P -1"
_symmetry_group_IT_number 2
_symmetry_cell_setting 'triclinic'
loop_
_space_group_symop_operation_xyz
x,y,z
-x,-y,-z
loop_
_atom_site_type_symbol
_atom_site_label
_atom_site_fract_x
_atom_site_fract_y
_atom_site_fract_z
Si Si1 0.566025 0.398402 0.628488
Si Si2 0.708680 0.159816 0.780660
Si Si3 0.725808 0.999863 0.277658
Si Si4 0.763831 0.517559 0.504514
Si Si5 0.129653 0.300919 0.836216
Si Si6 0.858048 0.998038 0.123296
O O1 0.500000 0.500000 0.500000
O O2 0.584809 0.392905 0.438769
O O3 0.433942 0.171736 0.698345
O O4 0.777079 0.579650 0.904776
O O5 0.816682 0.402862 0.720965
O O6 0.500000 0.000000 0.500000
O O7 0.711179 0.126870 0.032057
O O8 0.792558 0.089428 0.868921
O O9 0.734297 0.881289 0.206996
O O10 0.923710 0.170189 0.570141
O O11 0.737583 0.504499 0.251081
O O12 0.935410 0.781099 0.632061
O O13 0.140741 0.138442 0.917828
#
# Coordination Sequence:
#
# PCOD9025177 Si02
#       6
#     2   2   2   2   2   2
#     4  12  26  39  67 104 130 167 222 271 325 388
#     4  10  22  40  67  97 128 178 217 262 328 391
#     4   9  22  42  63  97 134 167 219 271 320 386
#     4  11  23  43  69  93 131 174 221 260 329 392
#     4  11  23  45  69  96 133 172 214 275 326 378
#     4   9  21  40  68  93 128 173 216 265 323 384
#
# _framework density 25.64508
#
# number of rings (size 3 to 8) (size 9 to 14) (size 15 to 20)
#    1.000    0.667    0.000    5.500    2.333    4.667 
#    0.000    0.833    0.000    0.000    0.000    0.000 
#    0.000    0.000    0.000    0.000    0.000    0.000 
#
# Total GULP energy -67159.054016 kJ/mol
# GULP energy per Si atom -5596.587835 kJ/mol
# Density = 2.558671 g / cm^3
# Si number density = 25.645080 Si / 1000 Ang^3
#
#
#
# Elastic Constant Matrix: (Units=GPa)
#
#
# Indices 1 2 3 4 5 6 
#
# 1 61.6724 12.1749 17.1140 -6.8473 -1.8521 24.6516
# 2 12.1749 83.6842 16.0262 -14.2168 -0.8095 6.5354
# 3 17.1140 16.0262 111.0563 3.3876 12.1119 -6.9663
# 4 -6.8473 -14.2168 3.3876 54.6481 -7.1101 4.7842
# 5 -1.8521 -0.8095 12.1119 -7.1101 37.8099 -11.8243
# 6 24.6516 6.5354 -6.9663 4.7842 -11.8243 31.5233
#
#
#
# Elastic Compliance Matrix: (Units=1/GPa)
#
#
# Indices 1 2 3 4 5 6 
#
# 1 0.028797 -0.000102 -0.005819 0.005731 -0.003807 -0.026082
# 2 -0.000102 0.013378 -0.002334 0.004011 0.000668 -0.003568
# 3 -0.005819 -0.002334 0.011011 -0.002925 -0.002196 0.007088
# 4 0.005731 0.004011 -0.002925 0.021315 0.002760 -0.008159
# 5 -0.003807 0.000668 -0.002196 0.002760 0.031838 0.013877
# 6 -0.026082 -0.003568 0.007088 -0.008159 0.013877 0.060868
#
#
# Mechanical properties :
#
#
# Convention : Reuss Voigt Hill
#
# Bulk Modulus (GPa) = 27.26457 38.56035 32.91246
# Shear Modulus (GPa) = 25.51780 38.86946 32.19363
#
# Velocity S-wave (km/s) = 3.15784 3.89738 3.54694
# Velocity P-wave (km/s) = 4.89393 5.94320 5.44390
#
# Compressibility (1/GPa) = 0.03667764
#
# Stress axis : x y z
#
# Youngs Moduli (GPa) = 34.72624 74.74934 90.81666
#
# Poissons Ratio (x) = 0.00759 0.52843
# Poissons Ratio (y) = 0.00353 0.21196
# Poissons Ratio (z) = 0.20206 0.17446
#
# Static dielectric constant tensor:
#      x y z
#    x 2.008840 0.015270 0.006280 
#    y 0.015270 2.045210 0.005430 
#    z 0.006280 0.005430 2.013240 
# 
# From -- ./inp_files/329904.got.cif
#   From: 2010.05.17/outbox.cif.g08.bks.cpg/sg2_165_cif.got.tgz:329904.got - 2010.06.03 11:33:40.
