data_PCOD9025168
_publ_section_title
;
Structure prediction by ZEFSAII (Michael W. Deem and Ramdas Pophale) SiO2 
 PCOD9025168
Probable space group: P -1
;
_chemical_formula_sum "Si O2"
_cell_formula_units_Z 14
_cell_length_a 24.189494
_cell_length_b 13.395574
_cell_length_c 26.403573
_cell_angle_alpha 160.077178
_cell_angle_beta 168.940991
_cell_angle_gamma 23.429480
_cell_volume 557.489216
_symmetry_space_group_name_H-M "P -1"
_symmetry_group_IT_number 2
_symmetry_cell_setting 'triclinic'
loop_
_space_group_symop_operation_xyz
x,y,z
-x,-y,-z
loop_
_atom_site_type_symbol
_atom_site_label
_atom_site_fract_x
_atom_site_fract_y
_atom_site_fract_z
Si Si1 0.159284 0.937258 0.182120
Si Si2 0.343123 0.557387 0.833332
Si Si3 0.665823 0.348327 0.937908
Si Si4 0.602313 0.754591 0.784877
Si Si5 0.892229 0.196680 0.452022
Si Si6 0.038704 0.376781 0.054292
Si Si7 0.358731 0.392034 0.069799
O O1 0.120373 0.598421 0.969333
O O2 0.500000 0.000000 0.500000
O O3 0.873625 0.099708 0.988926
O O4 0.122379 0.897396 0.190274
O O5 0.000000 0.500000 0.500000
O O6 0.500000 0.500000 0.000000
O O7 0.431928 0.321057 0.757889
O O8 0.416052 0.906781 0.053728
O O9 0.886286 0.597441 0.280990
O O10 0.578201 0.517756 0.889256
O O11 0.296394 0.574411 0.409636
O O12 0.798074 0.747469 0.906533
O O13 0.785104 0.578210 0.905433
O O14 0.682287 0.420479 0.395419
O O15 0.000000 0.000000 0.500000
O O16 0.732712 0.939262 0.153835
#
# Coordination Sequence:
#
# PCOD9025168 Si02
#       7
#     2   2   2   2   2   2   2
#     4  12  25  43  68 108 147 195 243 297 376 439
#     4  12  28  47  76 108 146 190 249 313 382 437
#     4  11  25  43  68  98 143 185 238 297 363 439
#     4  10  23  48  73 106 137 194 251 306 373 430
#     4   9  20  40  63  95 130 178 232 286 344 430
#     4  10  24  44  75 103 146 188 250 310 359 450
#     4  10  22  40  67  96 141 182 238 287 361 435
#
# _framework density 25.112594000000001
#
# number of rings (size 3 to 8) (size 9 to 14) (size 15 to 20)
#    0.000    1.429    1.429    2.143    4.000    9.143 
#    0.000    0.000    0.000    0.000    0.000    0.000 
#    0.000    0.000    0.000    0.000    0.000    0.000 
#
# Total GULP energy -77963.462151 kJ/mol
# GULP energy per Si atom -5568.818725 kJ/mol
# Density = 2.505544 g / cm^3
# Si number density = 25.112594 Si / 1000 Ang^3
#
#
#
# Elastic Constant Matrix: (Units=GPa)
#
#
# Indices 1 2 3 4 5 6 
#
# 1 59.9178 14.7981 25.7645 -21.1800 15.8134 -3.7327
# 2 14.7981 153.7714 28.2105 -44.6694 -0.8039 -9.1475
# 3 25.7645 28.2105 100.3084 -27.8457 4.3589 -5.0302
# 4 -21.1800 -44.6694 -27.8457 36.1103 -0.8530 -1.8337
# 5 15.8134 -0.8039 4.3589 -0.8530 39.8256 -6.0253
# 6 -3.7327 -9.1475 -5.0302 -1.8337 -6.0253 43.0841
#
#
#
# Elastic Compliance Matrix: (Units=1/GPa)
#
#
# Indices 1 2 3 4 5 6 
#
# 1 0.025311 0.002846 -0.002215 0.016543 -0.009098 0.001970
# 2 0.002846 0.010912 0.000801 0.015950 -0.000154 0.003314
# 3 -0.002215 0.000801 0.013173 0.009947 -0.000041 0.001934
# 4 0.016543 0.015950 0.009947 0.065096 -0.004717 0.008092
# 5 -0.009098 -0.000154 -0.000041 -0.004717 0.029082 0.003041
# 6 0.001970 0.003314 0.001934 0.008092 0.003041 0.025080
#
#
# Mechanical properties :
#
#
# Convention : Reuss Voigt Hill
#
# Bulk Modulus (GPa) = 19.13542 50.17152 34.65347
# Shear Modulus (GPa) = 27.29103 40.15230 33.72167
#
# Velocity S-wave (km/s) = 3.30016 4.00295 3.66842
# Velocity P-wave (km/s) = 4.70721 6.43326 5.63669
#
# Compressibility (1/GPa) = 0.05225910
#
# Stress axis : x y z
#
# Youngs Moduli (GPa) = 39.50904 91.64201 75.91349
#
# Poissons Ratio (x) = -0.26081 0.16814
# Poissons Ratio (y) = -0.11244 -0.06079
# Poissons Ratio (z) = 0.08751 -0.07338
#
# Static dielectric constant tensor:
#      x y z
#    x 2.375630 -0.079080 0.091070 
#    y -0.079080 2.275430 0.242550 
#    z 0.091070 0.242550 2.473960 
# 
# From -- ./inp_files/624303.got.cif
#   From: 2010.05.17/outbox.cif.g08.bks.cpg/sg2_313_cif.got.tgz:624303.got - 2010.06.03 11:33:40.
