data_PCOD9025862
_publ_section_title
;
Structure prediction by ZEFSAII (Michael W. Deem and Ramdas Pophale) SiO2 
 PCOD9025862
Probable space group: P -1
;
_chemical_formula_sum "Si O2"
_cell_formula_units_Z 16
_cell_length_a 5.579380
_cell_length_b 7.826171
_cell_length_c 18.385837
_cell_angle_alpha 122.491810
_cell_angle_beta 89.516532
_cell_angle_gamma 89.715783
_cell_volume 677.086948
_symmetry_space_group_name_H-M "P -1"
_symmetry_group_IT_number 2
_symmetry_cell_setting 'triclinic'
loop_
_space_group_symop_operation_xyz
x,y,z
-x,-y,-z
loop_
_atom_site_type_symbol
_atom_site_label
_atom_site_fract_x
_atom_site_fract_y
_atom_site_fract_z
Si Si1 0.749525 0.903244 0.008366
Si Si2 0.630407 0.798382 0.426442
Si Si3 0.214849 0.375020 0.761579
Si Si4 0.078544 0.200647 0.428516
Si Si5 0.269188 0.983696 0.250769
Si Si6 0.696008 0.420228 0.537004
Si Si7 0.713802 0.486946 0.833770
Si Si8 0.228924 0.030136 0.805038
O O1 0.745878 0.925043 0.100231
O O2 0.744487 0.667799 0.931667
O O3 0.500000 0.000000 0.000000
O O4 0.000000 0.000000 0.000000
O O5 0.746235 0.765092 0.341000
O O6 0.821084 0.768211 0.483746
O O7 0.424278 0.631619 0.399306
O O8 0.500000 0.000000 0.500000
O O9 0.453720 0.508442 0.800860
O O10 0.209270 0.228914 0.798798
O O11 0.957822 0.486128 0.785234
O O12 0.123748 0.394622 0.421086
O O13 0.800087 0.218752 0.451144
O O14 0.207647 0.020540 0.344570
O O15 0.291537 0.740835 0.184131
O O16 0.523953 0.074320 0.247657
O O17 0.031784 0.066734 0.229955
O O18 0.500000 0.500000 0.500000
#
# Coordination Sequence:
#
# PCOD9025862 Si02
#       8
#     2   2   2   2   2   2   2   2
#     4  12  26  48  72 100 140 180 218 272 359 440
#     4  11  23  38  66  98 140 189 237 288 335 398
#     4  10  23  41  67 103 136 174 232 296 334 387
#     4  10  22  42  65  94 136 191 234 283 341 400
#     4  10  22  40  73 100 134 174 232 289 333 397
#     4   9  22  41  60  90 128 184 235 280 339 396
#     4  10  23  44  67 100 134 168 232 282 344 412
#     4  10  23  44  67 102 130 174 226 278 352 409
#
# _framework density 23.630644
#
# number of rings (size 3 to 8) (size 9 to 14) (size 15 to 20)
#    0.000    1.750    0.000    3.000    8.750    4.500 
#    6.750    0.000    0.000    0.000    0.000    0.000 
#    0.000    0.000    0.000    0.000    0.000    0.000 
#
# Total GULP energy -89245.231860 kJ/mol
# GULP energy per Si atom -5577.826991 kJ/mol
# Density = 2.357686 g / cm^3
# Si number density = 23.630644 Si / 1000 Ang^3
#
#
#
# Elastic Constant Matrix: (Units=GPa)
#
#
# Indices 1 2 3 4 5 6 
#
# 1 170.2417 12.5984 28.5383 -3.2513 -12.8194 -4.8357
# 2 12.5984 49.1744 24.3786 -3.3583 -4.4335 7.4702
# 3 28.5383 24.3786 122.1718 -14.8539 -0.1550 -0.0103
# 4 -3.2513 -3.3583 -14.8539 15.9018 2.1275 -7.2948
# 5 -12.8194 -4.4335 -0.1550 2.1275 36.6151 -4.5929
# 6 -4.8357 7.4702 -0.0103 -7.2948 -4.5929 18.7326
#
#
#
# Elastic Compliance Matrix: (Units=1/GPa)
#
#
# Indices 1 2 3 4 5 6 
#
# 1 0.006453 -0.001299 -0.001102 0.001175 0.002435 0.003238
# 2 -0.001299 0.024910 -0.005372 -0.005799 0.001345 -0.012201
# 3 -0.001102 -0.005372 0.010957 0.011870 -0.000893 0.006267
# 4 0.001175 -0.005799 0.011870 0.090348 -0.000772 0.037616
# 5 0.002435 0.001345 -0.000893 -0.000772 0.029241 0.006960
# 6 0.003238 -0.012201 0.006267 0.037616 0.006960 0.075443
#
#
# Mechanical properties :
#
#
# Convention : Reuss Voigt Hill
#
# Bulk Modulus (GPa) = 37.34831 52.51314 44.93072
# Shear Modulus (GPa) = 19.09702 32.65474 25.87588
#
# Velocity S-wave (km/s) = 2.84588 3.72140 3.31269
# Velocity P-wave (km/s) = 5.16120 6.38246 5.80404
#
# Compressibility (1/GPa) = 0.02677497
#
# Stress axis : x y z
#
# Youngs Moduli (GPa) = 154.97617 40.14406 91.26615
#
# Poissons Ratio (x) = 0.05215 0.10056
# Poissons Ratio (y) = 0.20131 0.49025
# Poissons Ratio (z) = 0.17076 0.21564
#
# Static dielectric constant tensor:
#      x y z
#    x 2.243050 0.064670 0.007030 
#    y 0.064670 1.969450 0.043150 
#    z 0.007030 0.043150 1.875730 
# 
# From -- ./inp_files/336478.got.cif
#   From: 2010.05.17/outbox.cif.g08.bks.cpg/sg2_169_cif.got.tgz:336478.got - 2010.06.03 11:33:40.
