data_PCOD9025191
_publ_section_title
;
Structure prediction by ZEFSAII (Michael W. Deem and Ramdas Pophale) SiO2 
 PCOD9025191
Probable space group: P -1
;
_chemical_formula_sum "Si O2"
_cell_formula_units_Z 14
_cell_length_a 6.792814
_cell_length_b 5.210934
_cell_length_c 24.757276
_cell_angle_alpha 73.281511
_cell_angle_beta 135.346223
_cell_angle_gamma 100.548215
_cell_volume 589.566302
_symmetry_space_group_name_H-M "P -1"
_symmetry_group_IT_number 2
_symmetry_cell_setting 'triclinic'
loop_
_space_group_symop_operation_xyz
x,y,z
-x,-y,-z
loop_
_atom_site_type_symbol
_atom_site_label
_atom_site_fract_x
_atom_site_fract_y
_atom_site_fract_z
Si Si1 0.054769 0.508176 0.282230
Si Si2 0.406886 0.869650 0.753614
Si Si3 0.646638 0.218171 0.426077
Si Si4 0.678992 0.948455 0.159272
Si Si5 0.122033 0.705519 0.053664
Si Si6 0.140551 0.212324 0.592320
Si Si7 0.982638 0.628842 0.842767
O O1 0.340189 0.355337 0.364557
O O2 0.029274 0.468777 0.215066
O O3 0.807408 0.369494 0.274295
O O4 0.971069 0.823109 0.248939
O O5 0.696251 0.795936 0.786697
O O6 0.468129 0.925325 0.824498
O O7 0.253958 0.109770 0.677510
O O8 0.814888 0.470472 0.419965
O O9 0.818604 0.154201 0.518397
O O10 0.684401 0.963542 0.408638
O O11 0.458554 0.730850 0.111153
O O12 0.760519 0.168549 0.118158
O O13 0.029951 0.602475 0.101036
O O14 0.000000 0.500000 0.000000
O O15 0.000000 0.000000 0.000000
#
# Coordination Sequence:
#
# PCOD9025191 Si02
#       7
#     2   2   2   2   2   2   2
#     4  11  24  41  72 106 135 189 247 287 349 429
#     4  11  23  43  70 106 140 193 241 292 349 420
#     4  10  22  41  64 103 140 189 241 288 355 411
#     4  11  27  45  74 109 140 186 249 285 360 435
#     4  12  29  51  75 108 144 184 234 292 365 442
#     4  10  22  40  67  97 145 192 233 295 353 405
#     4  11  25  47  74 101 147 187 231 303 352 422
#
# _framework density 23.746269999999999
#
# number of rings (size 3 to 8) (size 9 to 14) (size 15 to 20)
#    0.000    1.143    2.857    1.714   12.000    1.714 
#    0.000    0.714    0.000    0.000    0.000    0.000 
#    0.000    0.000    0.000    0.000    0.000    0.000 
#
# Total GULP energy -78246.059847 kJ/mol
# GULP energy per Si atom -5589.004275 kJ/mol
# Density = 2.369222 g / cm^3
# Si number density = 23.746270 Si / 1000 Ang^3
#
#
#
# Elastic Constant Matrix: (Units=GPa)
#
#
# Indices 1 2 3 4 5 6 
#
# 1 100.5043 18.7112 28.6930 6.1580 1.6966 10.2719
# 2 18.7112 76.5610 23.9413 -7.9774 -6.2204 4.2923
# 3 28.6930 23.9413 108.3833 -16.7217 12.1528 8.3717
# 4 6.1580 -7.9774 -16.7217 38.6384 2.9554 2.7860
# 5 1.6966 -6.2204 12.1528 2.9554 33.7365 -9.7016
# 6 10.2719 4.2923 8.3717 2.7860 -9.7016 35.6619
#
#
#
# Elastic Compliance Matrix: (Units=1/GPa)
#
#
# Indices 1 2 3 4 5 6 
#
# 1 0.011627 -0.002180 -0.002917 -0.003385 -0.000276 -0.002212
# 2 -0.002180 0.014991 -0.002916 0.001853 0.003883 0.000420
# 3 -0.002917 -0.002916 0.012651 0.006140 -0.006656 -0.004069
# 4 -0.003385 0.001853 0.006140 0.030225 -0.005668 -0.004593
# 5 -0.000276 0.003883 -0.006656 -0.005668 0.036593 0.011572
# 6 -0.002212 0.000420 -0.004069 -0.004593 0.011572 0.033090
#
#
# Mechanical properties :
#
#
# Convention : Reuss Voigt Hill
#
# Bulk Modulus (GPa) = 43.02526 47.57106 45.29816
# Shear Modulus (GPa) = 30.68401 35.88091 33.28246
#
# Velocity S-wave (km/s) = 3.59856 3.89139 3.74784
# Velocity P-wave (km/s) = 5.95183 6.34564 6.15189
#
# Compressibility (1/GPa) = 0.02324216
#
# Stress axis : x y z
#
# Youngs Moduli (GPa) = 86.00943 66.70543 79.04634
#
# Poissons Ratio (x) = 0.14545 0.23056
# Poissons Ratio (y) = 0.18754 0.23050
# Poissons Ratio (z) = 0.25087 0.19452
#
# Static dielectric constant tensor:
#      x y z
#    x 1.863960 -0.003850 0.036260 
#    y -0.003850 1.963670 -0.001220 
#    z 0.036260 -0.001220 1.970380 
# 
# From -- ./inp_files/7451.got.cif
#   From: 2010.05.17/outbox.cif.g08.bks.cpg/sg2_4_cif.got.tgz:7451.got - 2010.06.03 11:33:40.
