data_PCOD9025875
_publ_section_title
;
Structure prediction by ZEFSAII (Michael W. Deem and Ramdas Pophale) SiO2 
 PCOD9025875
Probable space group: P -1
;
_chemical_formula_sum "Si O2"
_cell_formula_units_Z 14
_cell_length_a 20.793347
_cell_length_b 7.002325
_cell_length_c 10.979481
_cell_angle_alpha 62.746121
_cell_angle_beta 27.198075
_cell_angle_gamma 48.279358
_cell_volume 501.561574
_symmetry_space_group_name_H-M "P -1"
_symmetry_group_IT_number 2
_symmetry_cell_setting 'triclinic'
loop_
_space_group_symop_operation_xyz
x,y,z
-x,-y,-z
loop_
_atom_site_type_symbol
_atom_site_label
_atom_site_fract_x
_atom_site_fract_y
_atom_site_fract_z
Si Si1 0.299448 0.277285 0.277477
Si Si2 0.690207 0.539006 0.238319
Si Si3 0.705587 0.067099 0.263355
Si Si4 0.741058 0.192471 0.895011
Si Si5 0.060757 0.741779 0.893001
Si Si6 0.955857 0.763145 0.432030
Si Si7 0.386305 0.455974 0.292658
O O1 0.263917 0.542362 0.192425
O O2 0.173179 0.207461 0.466748
O O3 0.315596 0.317844 0.380750
O O4 0.500000 0.000000 0.000000
O O5 0.650894 0.320996 0.372405
O O6 0.497914 0.833265 0.441534
O O7 0.796170 0.523763 0.183890
O O8 0.849468 0.376777 0.916382
O O9 0.778147 0.068236 0.004932
O O10 0.887679 0.807483 0.100309
O O11 0.133730 0.014594 0.368451
O O12 0.537428 0.294570 0.188106
O O13 0.192542 0.733352 0.577258
O O14 0.000000 0.000000 0.000000
O O15 0.000000 0.500000 0.500000
O O16 0.500000 0.500000 0.000000
#
# Coordination Sequence:
#
# PCOD9025875 Si02
#       7
#     2   2   2   2   2   2   2
#     4  11  25  45  72 114 153 197 256 316 391 457
#     4  10  23  45  68 109 157 194 258 316 377 467
#     4  10  22  43  73 111 147 203 255 311 390 458
#     4  11  24  46  80 109 153 198 256 323 387 457
#     4  10  22  40  73 110 148 199 257 307 388 464
#     4  12  28  48  73 114 155 199 258 322 385 463
#     4  10  22  42  72 110 149 193 257 314 375 460
#
# _framework density 27.912825999999999
#
# number of rings (size 3 to 8) (size 9 to 14) (size 15 to 20)
#    0.000    1.429    2.857    0.857   10.000    1.143 
#    2.571    1.429    0.000    3.429    0.000    0.000 
#    0.000    0.000    0.000    0.000    0.000    0.000 
#
# Total GULP energy -78141.640969 kJ/mol
# GULP energy per Si atom -5581.545783 kJ/mol
# Density = 2.784930 g / cm^3
# Si number density = 27.912826 Si / 1000 Ang^3
#
#
#
# Elastic Constant Matrix: (Units=GPa)
#
#
# Indices 1 2 3 4 5 6 
#
# 1 222.8370 47.1892 92.0596 7.0544 -38.5976 5.5844
# 2 47.1892 112.9345 56.2454 10.5284 -11.0311 16.7142
# 3 92.0596 56.2454 245.6676 29.2858 -22.6236 5.3853
# 4 7.0544 10.5284 29.2858 44.9460 -3.1900 -3.0685
# 5 -38.5976 -11.0311 -22.6236 -3.1900 61.7320 15.1090
# 6 5.5844 16.7142 5.3853 -3.0685 15.1090 46.5132
#
#
#
# Elastic Compliance Matrix: (Units=1/GPa)
#
#
# Indices 1 2 3 4 5 6 
#
# 1 0.006029 -0.001243 -0.001730 0.000626 0.003209 -0.001078
# 2 -0.001243 0.011128 -0.001665 -0.001507 0.001568 -0.004265
# 3 -0.001730 -0.001665 0.005499 -0.002897 0.000534 -0.000195
# 4 0.000626 -0.001507 -0.002897 0.024542 -0.000286 0.002514
# 5 0.003209 0.001568 0.000534 -0.000286 0.020553 -0.007706
# 6 -0.001078 -0.004265 -0.000195 0.002514 -0.007706 0.025853
#
#
# Mechanical properties :
#
#
# Convention : Reuss Voigt Hill
#
# Bulk Modulus (GPa) = 74.73522 108.04749 91.39136
# Shear Modulus (GPa) = 46.58179 56.36790 51.47484
#
# Velocity S-wave (km/s) = 4.08956 4.49868 4.29899
# Velocity P-wave (km/s) = 7.00942 8.11031 7.57988
#
# Compressibility (1/GPa) = 0.01338057
#
# Stress axis : x y z
#
# Youngs Moduli (GPa) = 165.87632 89.86491 181.85962
#
# Poissons Ratio (x) = 0.11168 0.31463
# Poissons Ratio (y) = 0.20614 0.30271
# Poissons Ratio (z) = 0.28698 0.14958
#
# Static dielectric constant tensor:
#      x y z
#    x 2.387770 -0.049540 -0.011830 
#    y -0.049540 2.462140 -0.387850 
#    z -0.011830 -0.387850 2.575590 
# 
# From -- ./inp_files/468889.got.cif
#   From: 2010.05.17/outbox.cif.g08.bks.cpg/sg2_235_cif.got.tgz:468889.got - 2010.06.03 11:33:40.
