data_PCOD9025376
_publ_section_title
;
Structure prediction by ZEFSAII (Michael W. Deem and Ramdas Pophale) SiO2 
 PCOD9025376
Probable space group: P -1
;
_chemical_formula_sum "Si O2"
_cell_formula_units_Z 14
_cell_length_a 12.935508
_cell_length_b 5.932007
_cell_length_c 9.109049
_cell_angle_alpha 120.244545
_cell_angle_beta 107.068688
_cell_angle_gamma 88.842147
_cell_volume 570.295851
_symmetry_space_group_name_H-M "P -1"
_symmetry_group_IT_number 2
_symmetry_cell_setting 'triclinic'
loop_
_space_group_symop_operation_xyz
x,y,z
-x,-y,-z
loop_
_atom_site_type_symbol
_atom_site_label
_atom_site_fract_x
_atom_site_fract_y
_atom_site_fract_z
Si Si1 0.176699 0.169092 0.625359
Si Si2 0.364874 0.968213 0.793544
Si Si3 0.484655 0.682145 0.198055
Si Si4 0.692790 0.712997 0.874536
Si Si5 0.022825 0.617178 0.390526
Si Si6 0.324724 0.367378 0.506120
Si Si7 0.939588 0.716963 0.950395
O O1 0.219970 0.199759 0.487247
O O2 0.101361 0.378370 0.714454
O O3 0.285168 0.158459 0.756242
O O4 0.095264 0.899565 0.521485
O O5 0.315160 0.670286 0.641076
O O6 0.474179 0.034142 0.763310
O O7 0.363881 0.060258 0.991787
O O8 0.365999 0.566809 0.173588
O O9 0.566022 0.666572 0.365955
O O10 0.500000 0.500000 0.000000
O O11 0.673044 0.695941 0.685455
O O12 0.822733 0.764375 0.979510
O O13 0.088164 0.449119 0.262060
O O14 0.000000 0.500000 0.500000
O O15 0.000000 0.500000 0.000000
O O16 0.000000 0.000000 0.000000
#
# Coordination Sequence:
#
# PCOD9025376 Si02
#       7
#     2   2   2   2   2   2   2
#     4  10  22  40  68  96 140 182 239 302 364 442
#     4  10  22  43  67  98 138 182 233 293 367 436
#     4   9  22  45  69 103 142 180 239 297 368 448
#     4  11  24  45  69 103 142 188 245 302 369 435
#     4  11  24  42  70  95 136 193 247 302 374 434
#     4  11  23  43  70 106 139 185 236 300 371 446
#     4  12  30  49  71 110 152 196 253 312 371 446
#
# _framework density 24.548662
#
# number of rings (size 3 to 8) (size 9 to 14) (size 15 to 20)
#    0.000    1.429    0.000    3.857   10.000    2.857 
#    2.571    0.000    0.000    0.000    0.000    0.000 
#    0.000    0.000    0.000    0.000    0.000    0.000 
#
# Total GULP energy -78082.090528 kJ/mol
# GULP energy per Si atom -5577.292181 kJ/mol
# Density = 2.449279 g / cm^3
# Si number density = 24.548662 Si / 1000 Ang^3
#
#
#
# Elastic Constant Matrix: (Units=GPa)
#
#
# Indices 1 2 3 4 5 6 
#
# 1 119.8645 59.7466 13.0051 -25.5523 11.0542 27.5232
# 2 59.7466 114.6121 43.2459 -18.6334 3.2066 33.0520
# 3 13.0051 43.2459 126.0228 -34.0625 -14.5724 2.3868
# 4 -25.5523 -18.6334 -34.0625 35.0473 1.4938 0.5237
# 5 11.0542 3.2066 -14.5724 1.4938 48.1222 -10.2627
# 6 27.5232 33.0520 2.3868 0.5237 -10.2627 57.6941
#
#
#
# Elastic Compliance Matrix: (Units=1/GPa)
#
#
# Indices 1 2 3 4 5 6 
#
# 1 0.014376 -0.005486 0.002985 0.010675 -0.003330 -0.004528
# 2 -0.005486 0.015314 -0.005013 -0.000522 -0.002629 -0.006412
# 3 0.002985 -0.005013 0.012949 0.011925 0.003504 0.001427
# 4 0.010675 -0.000522 0.011925 0.047786 -0.001569 -0.006000
# 5 -0.003330 -0.002629 0.003504 -0.001569 0.024387 0.007302
# 6 -0.004528 -0.006412 0.001427 -0.006000 0.007302 0.024460
#
#
# Mechanical properties :
#
#
# Convention : Reuss Voigt Hill
#
# Bulk Modulus (GPa) = 36.21660 65.83273 51.02467
# Shear Modulus (GPa) = 30.58058 44.47283 37.52670
#
# Velocity S-wave (km/s) = 3.53329 4.26093 3.91406
# Velocity P-wave (km/s) = 5.60630 7.14722 6.42314
#
# Compressibility (1/GPa) = 0.02761164
#
# Stress axis : x y z
#
# Youngs Moduli (GPa) = 69.56114 65.29979 77.22862
#
# Poissons Ratio (x) = 0.35823 -0.23054
# Poissons Ratio (y) = 0.38161 0.38712
# Poissons Ratio (z) = -0.20765 0.32732
#
# Static dielectric constant tensor:
#      x y z
#    x 2.013330 -0.059170 0.030550 
#    y -0.059170 2.020120 -0.057220 
#    z 0.030550 -0.057220 1.961090 
# 
# From -- ./inp_files/88037.got.cif
#   From: 2010.05.17/outbox.cif.g08.bks.cpg/sg2_45_cif.got.tgz:88037.got - 2010.06.03 11:33:40.
