data_PCOD9025541
_publ_section_title
;
Structure prediction by ZEFSAII (Michael W. Deem and Ramdas Pophale) SiO2 
 PCOD9025541
Probable space group: P -1
;
_chemical_formula_sum "Si O2"
_cell_formula_units_Z 12
_cell_length_a 20.635755
_cell_length_b 13.429891
_cell_length_c 14.696880
_cell_angle_alpha 150.474415
_cell_angle_beta 18.510112
_cell_angle_gamma 156.503650
_cell_volume 515.532683
_symmetry_space_group_name_H-M "P -1"
_symmetry_group_IT_number 2
_symmetry_cell_setting 'triclinic'
loop_
_space_group_symop_operation_xyz
x,y,z
-x,-y,-z
loop_
_atom_site_type_symbol
_atom_site_label
_atom_site_fract_x
_atom_site_fract_y
_atom_site_fract_z
Si Si1 0.807568 0.029050 0.723377
Si Si2 0.026687 0.488786 0.663715
Si Si3 0.708161 0.262514 0.198170
Si Si4 0.759365 0.607929 0.854989
Si Si5 0.619788 0.531845 0.189531
Si Si6 0.581543 0.851104 0.176644
O O1 0.948615 0.257307 0.646769
O O2 0.602366 0.762549 0.741731
O O3 0.671456 0.097945 0.029924
O O4 0.000000 0.000000 0.500000
O O5 0.031453 0.404758 0.485891
O O6 0.314734 0.722350 0.480265
O O7 0.841582 0.569256 0.985095
O O8 0.511906 0.331335 0.509373
O O9 0.668760 0.102792 0.212338
O O10 0.000000 0.500000 0.000000
O O11 0.501780 0.352944 0.956545
O O12 0.736037 0.606220 0.991902
O O13 0.766278 0.834113 0.981451
#
# Coordination Sequence:
#
# PCOD9025541 Si02
#       6
#     2   2   2   2   2   2
#     4  12  22  45  67  89 133 167 211 267 303 386
#     4  10  22  40  69  96 125 171 209 260 328 369
#     4  12  26  39  66  97 125 170 218 255 320 379
#     4   9  19  40  69  89 124 168 212 258 313 370
#     4  12  24  40  67  97 130 168 207 264 326 371
#     4   9  20  41  64  94 121 166 221 254 307 378
#
# _framework density 23.276895
#
# number of rings (size 3 to 8) (size 9 to 14) (size 15 to 20)
#    1.000    0.333    3.333    3.000    0.000    2.000 
#    0.000    0.000    0.000    0.000    0.000    0.000 
#    0.000    0.000    0.000    0.000    0.000    0.000 
#
# Total GULP energy -67098.423127 kJ/mol
# GULP energy per Si atom -5591.535261 kJ/mol
# Density = 2.322392 g / cm^3
# Si number density = 23.276895 Si / 1000 Ang^3
#
#
#
# Elastic Constant Matrix: (Units=GPa)
#
#
# Indices 1 2 3 4 5 6 
#
# 1 33.0275 27.2421 33.9324 4.3738 1.8328 -22.8824
# 2 27.2421 146.4248 56.2443 15.3130 -3.9293 -42.4996
# 3 33.9324 56.2443 188.8995 19.4843 -20.8768 -21.0680
# 4 4.3738 15.3130 19.4843 26.1015 -9.6545 -0.1611
# 5 1.8328 -3.9293 -20.8768 -9.6545 37.2400 1.2725
# 6 -22.8824 -42.4996 -21.0680 -0.1611 1.2725 38.1697
#
#
#
# Elastic Compliance Matrix: (Units=1/GPa)
#
#
# Indices 1 2 3 4 5 6 
#
# 1 0.064757 0.002942 -0.008523 -0.010276 -0.011608 0.037736
# 2 0.002942 0.011658 -0.002047 -0.006543 -0.002225 0.013661
# 3 -0.008523 -0.002047 0.007697 -0.001575 0.004222 -0.003288
# 4 -0.010276 -0.006543 -0.001575 0.049493 0.012260 -0.014515
# 5 -0.011608 -0.002225 0.004222 0.012260 0.033013 -0.008155
# 6 0.037736 0.013661 -0.003288 -0.014515 -0.008155 0.062428
#
#
# Mechanical properties :
#
#
# Convention : Reuss Voigt Hill
#
# Bulk Modulus (GPa) = 14.52305 67.02107 40.77206
# Shear Modulus (GPa) = 18.70881 37.03112 27.86997
#
# Velocity S-wave (km/s) = 2.83812 3.99293 3.46399
# Velocity P-wave (km/s) = 4.12223 7.07909 5.79250
#
# Compressibility (1/GPa) = 0.06885605
#
# Stress axis : x y z
#
# Youngs Moduli (GPa) = 15.44233 85.77799 129.92658
#
# Poissons Ratio (x) = -0.25234 1.10731
# Poissons Ratio (y) = -0.04543 0.26596
# Poissons Ratio (z) = 0.13161 0.17559
#
# Static dielectric constant tensor:
#      x y z
#    x 1.940600 0.020740 0.020490 
#    y 0.020740 1.879280 0.029250 
#    z 0.020490 0.029250 1.916810 
# 
# From -- ./inp_files/165716.got.cif
#   From: 2010.05.17/outbox.cif.g08.bks.cpg/sg2_83_cif.got.tgz:165716.got - 2010.06.03 11:33:40.
