data_PCOD9025697
_publ_section_title
;
Structure prediction by ZEFSAII (Michael W. Deem and Ramdas Pophale) SiO2 
 PCOD9025697
Probable space group: P -1
;
_chemical_formula_sum "Si O2"
_cell_formula_units_Z 16
_cell_length_a 13.171406
_cell_length_b 20.573216
_cell_length_c 6.538976
_cell_angle_alpha 91.087445
_cell_angle_beta 91.156567
_cell_angle_gamma 22.236581
_cell_volume 670.414064
_symmetry_space_group_name_H-M "P -1"
_symmetry_group_IT_number 2
_symmetry_cell_setting 'triclinic'
loop_
_space_group_symop_operation_xyz
x,y,z
-x,-y,-z
loop_
_atom_site_type_symbol
_atom_site_label
_atom_site_fract_x
_atom_site_fract_y
_atom_site_fract_z
Si Si1 0.890220 0.165479 0.570551
Si Si2 0.411707 0.008260 0.808733
Si Si3 0.241435 0.407515 0.457740
Si Si4 0.578440 0.354416 0.176361
Si Si5 0.697884 0.141358 0.136882
Si Si6 0.242876 0.225428 0.551848
Si Si7 0.380101 0.886593 0.273788
Si Si8 0.854534 0.290652 0.907194
O O1 0.652754 0.291633 0.409196
O O2 0.780093 0.287313 0.717675
O O3 0.045886 0.020543 0.710969
O O4 0.135308 0.043548 0.427872
O O5 0.285132 0.129253 0.636828
O O6 0.172309 0.107799 0.892680
O O7 0.646737 0.834092 0.680116
O O8 0.500000 0.000000 0.000000
O O9 0.425660 0.286184 0.260437
O O10 0.446000 0.276987 0.642536
O O11 0.000000 0.500000 0.500000
O O12 0.070044 0.573607 0.440107
O O13 0.660032 0.238130 0.068260
O O14 0.286613 0.555853 0.120515
O O15 0.753567 0.312527 0.104251
O O16 0.716827 0.081306 0.945503
O O17 0.420862 0.169566 0.695355
#
# Coordination Sequence:
#
# PCOD9025697 Si02
#       8
#     2   2   2   2   2   2   2   2
#     4  11  23  43  70  95 138 180 228 285 343 398
#     4  11  25  40  70  98 133 181 222 281 335 410
#     4   9  21  39  62  95 133 173 218 271 337 399
#     4  11  26  44  69 101 136 183 230 287 339 410
#     4  11  24  42  69 103 136 177 231 282 343 406
#     4  10  22  41  63  99 132 177 228 268 343 402
#     4  10  22  40  70  97 137 174 219 284 337 409
#     4  11  25  46  68 100 138 180 232 279 351 404
#
# _framework density 23.865846000000001
#
# number of rings (size 3 to 8) (size 9 to 14) (size 15 to 20)
#    0.000    1.500    1.250    2.250    3.500    8.000 
#    0.000    2.500    0.000    0.000    0.000    0.000 
#    0.000    0.000    0.000    0.000    0.000    0.000 
#
# Total GULP energy -89390.183531 kJ/mol
# GULP energy per Si atom -5586.886471 kJ/mol
# Density = 2.381153 g / cm^3
# Si number density = 23.865846 Si / 1000 Ang^3
#
#
#
# Elastic Constant Matrix: (Units=GPa)
#
#
# Indices 1 2 3 4 5 6 
#
# 1 78.5375 19.9535 25.0144 -1.9370 -13.7487 16.8581
# 2 19.9535 106.6981 42.8001 -1.1259 -17.3248 19.2919
# 3 25.0144 42.8001 90.3550 3.0579 5.1186 3.6855
# 4 -1.9370 -1.1259 3.0579 33.0623 0.3618 -9.4772
# 5 -13.7487 -17.3248 5.1186 0.3618 39.0185 -0.2738
# 6 16.8581 19.2919 3.6855 -9.4772 -0.2738 46.9268
#
#
#
# Elastic Compliance Matrix: (Units=1/GPa)
#
#
# Indices 1 2 3 4 5 6 
#
# 1 0.016665 0.001295 -0.005370 -0.000315 0.007112 -0.006120
# 2 0.001295 0.014403 -0.007365 -0.000520 0.007782 -0.005868
# 3 -0.005370 -0.007365 0.016350 -0.001016 -0.007274 0.003425
# 4 -0.000315 -0.000520 -0.001016 0.032294 -0.000459 0.006926
# 5 0.007112 0.007782 -0.007274 -0.000459 0.032513 -0.005086
# 6 -0.006120 -0.005868 0.003425 0.006926 -0.005086 0.027021
#
#
# Mechanical properties :
#
#
# Convention : Reuss Voigt Hill
#
# Bulk Modulus (GPa) = 40.75226 50.12519 45.43872
# Shear Modulus (GPa) = 29.35929 36.32304 32.84116
#
# Velocity S-wave (km/s) = 3.51120 3.90547 3.71357
# Velocity P-wave (km/s) = 5.79229 6.43315 6.12111
#
# Compressibility (1/GPa) = 0.02453852
#
# Stress axis : x y z
#
# Youngs Moduli (GPa) = 60.00702 69.42793 61.16343
#
# Poissons Ratio (x) = -0.08994 0.32844
# Poissons Ratio (y) = -0.07774 0.45049
# Poissons Ratio (z) = 0.32223 0.51136
#
# Static dielectric constant tensor:
#      x y z
#    x 2.063580 0.049650 0.018440 
#    y 0.049650 1.940090 0.019540 
#    z 0.018440 0.019540 1.957660 
# 
# From -- ./inp_files/77984.got.cif
#   From: 2010.05.17/outbox.cif.g08.bks.cpg/sg2_39_cif.got.tgz:77984.got - 2010.06.03 11:33:40.
