data_PCOD9025139
_publ_section_title
;
Structure prediction by ZEFSAII (Michael W. Deem and Ramdas Pophale) SiO2 
 PCOD9025139
Probable space group: P -1
;
_chemical_formula_sum "Si O2"
_cell_formula_units_Z 16
_cell_length_a 11.393854
_cell_length_b 29.577808
_cell_length_c 17.645884
_cell_angle_alpha 20.207091
_cell_angle_beta 149.092034
_cell_angle_gamma 158.958726
_cell_volume 729.795370
_symmetry_space_group_name_H-M "P -1"
_symmetry_group_IT_number 2
_symmetry_cell_setting 'triclinic'
loop_
_space_group_symop_operation_xyz
x,y,z
-x,-y,-z
loop_
_atom_site_type_symbol
_atom_site_label
_atom_site_fract_x
_atom_site_fract_y
_atom_site_fract_z
Si Si1 0.754400 0.377937 0.420078
Si Si2 0.119929 0.138114 0.171878
Si Si3 0.866091 0.133170 0.892105
Si Si4 0.173818 0.504266 0.019916
Si Si5 0.030216 0.417897 0.355047
Si Si6 0.023007 0.191182 0.335717
Si Si7 0.165261 0.804405 0.946939
Si Si8 0.777436 0.788984 0.179151
O O1 0.855977 0.285529 0.664018
O O2 0.394245 0.285100 0.385254
O O3 0.780897 0.341071 0.406041
O O4 0.007356 0.603614 0.205240
O O5 0.003492 0.153950 0.160617
O O6 0.436024 0.346458 0.988012
O O7 0.183465 0.013657 0.421992
O O8 0.863187 0.052458 0.095725
O O9 0.164730 0.214796 0.872732
O O10 0.546803 0.968057 0.923832
O O11 0.028710 0.310174 0.212278
O O12 0.000000 0.500000 0.000000
O O13 0.130022 0.588469 0.796200
O O14 0.387409 0.636183 0.221142
O O15 0.103067 0.295087 0.582899
O O16 0.909687 0.196449 0.181746
O O17 0.000000 0.000000 0.000000
#
# Coordination Sequence:
#
# PCOD9025139 Si02
#       8
#     2   2   2   2   2   2   2   2
#     4  11  22  42  72  98 133 176 230 280 338 396
#     4  12  27  44  67 103 144 174 224 283 343 408
#     4  11  26  42  65 104 139 179 227 280 343 401
#     4  12  27  46  70  95 137 183 226 278 342 401
#     4  10  22  41  65  98 129 169 227 275 322 397
#     4  12  26  43  72 104 133 178 232 279 339 408
#     4  12  23  41  72 100 134 179 224 279 340 402
#     4  10  22  40  67  95 132 175 223 273 327 395
#
# _framework density 21.923954999999999
#
# number of rings (size 3 to 8) (size 9 to 14) (size 15 to 20)
#    0.000    0.750    3.750    3.375    3.500    3.000 
#    0.000    0.000    0.000    0.000    0.000    0.000 
#    0.000    0.000    0.000    0.000    0.000    0.000 
#
# Total GULP energy -89451.148503 kJ/mol
# GULP energy per Si atom -5590.696781 kJ/mol
# Density = 2.187406 g / cm^3
# Si number density = 21.923955 Si / 1000 Ang^3
#
#
#
# Elastic Constant Matrix: (Units=GPa)
#
#
# Indices 1 2 3 4 5 6 
#
# 1 21.6667 -29.2530 0.2213 18.6255 57.2739 -12.0251
# 2 -29.2530 20.7148 19.0393 -0.6829 31.7967 -18.4266
# 3 0.2213 19.0393 122.7149 -11.3944 21.9302 -23.6014
# 4 18.6255 -0.6829 -11.3944 28.9086 -6.5199 4.9581
# 5 57.2739 31.7967 21.9302 -6.5199 8.4032 0.4972
# 6 -12.0251 -18.4266 -23.6014 4.9581 0.4972 17.4253
#
#
#
# Elastic Compliance Matrix: (Units=1/GPa)
#
#
# Indices 1 2 3 4 5 6 
#
# 1 0.005752 -0.011307 -0.001708 -0.001150 0.007749 -0.010195
# 2 -0.011307 0.020852 -0.003610 0.008296 0.013632 0.006609
# 3 -0.001708 -0.003610 0.010824 0.003661 -0.000616 0.008640
# 4 -0.001150 0.008296 0.003661 0.035062 -0.006086 0.003135
# 5 0.007749 0.013632 -0.000616 -0.006086 0.010289 0.020366
# 6 -0.010195 0.006609 0.008640 0.003135 0.020366 0.067570
#
#
# Mechanical properties :
#
#
# Convention : Reuss Voigt Hill
#
# Bulk Modulus (GPa) = 239.37515 16.12354 127.74934
# Shear Modulus (GPa) = 27.02817 22.61999 24.82408
#
# Velocity S-wave (km/s) = 3.51495 3.21557 3.36859
# Velocity P-wave (km/s) = 11.22027 4.59965 8.57471
#
# Compressibility (1/GPa) = 0.00417754
#
# Stress axis : x y z
#
# Youngs Moduli (GPa) = 173.84229 47.95633 92.38962
#
# Poissons Ratio (x) = 0.54226 0.15784
# Poissons Ratio (y) = 1.96571 0.33349
# Poissons Ratio (z) = 0.29699 0.17310
#
# Static dielectric constant tensor:
#      x y z
#    x 1.791560 -0.028790 0.018430 
#    y -0.028790 1.798830 0.007850 
#    z 0.018430 0.007850 1.805930 
# 
# From -- ./inp_files/570802.got.cif
#   From: 2010.05.17/outbox.cif.g08.bks.cpg/sg2_286_cif.got.tgz:570802.got - 2010.06.03 11:33:40.
