data_PCOD9025481
_publ_section_title
;
Structure prediction by ZEFSAII (Michael W. Deem and Ramdas Pophale) SiO2 
 PCOD9025481
Probable space group: P -1
;
_chemical_formula_sum "Si O2"
_cell_formula_units_Z 14
_cell_length_a 16.775049
_cell_length_b 14.224466
_cell_length_c 9.374506
_cell_angle_alpha 43.352127
_cell_angle_beta 128.273313
_cell_angle_gamma 154.508516
_cell_volume 655.695896
_symmetry_space_group_name_H-M "P -1"
_symmetry_group_IT_number 2
_symmetry_cell_setting 'triclinic'
loop_
_space_group_symop_operation_xyz
x,y,z
-x,-y,-z
loop_
_atom_site_type_symbol
_atom_site_label
_atom_site_fract_x
_atom_site_fract_y
_atom_site_fract_z
Si Si1 0.613076 0.575130 0.729301
Si Si2 0.035770 0.698027 0.353064
Si Si3 0.887838 0.665535 0.947812
Si Si4 0.222716 0.216013 0.630527
Si Si5 0.665692 0.943708 0.476079
Si Si6 0.719240 0.250971 0.006901
Si Si7 0.229612 0.511507 0.459498
O O1 0.732946 0.594492 0.916973
O O2 0.389663 0.318607 0.777349
O O3 0.677512 0.628008 0.578212
O O4 0.668855 0.790896 0.597478
O O5 0.228245 0.927362 0.399358
O O6 0.000000 0.500000 0.500000
O O7 0.881750 0.581096 0.420484
O O8 0.010086 0.745640 0.123587
O O9 0.779854 0.427473 0.001415
O O10 0.037840 0.917196 0.740020
O O11 0.176219 0.301961 0.569118
O O12 0.451946 0.750765 0.466422
O O13 0.756324 0.144248 0.233977
O O14 0.808259 0.411726 0.783530
O O15 0.500000 0.000000 0.000000
#
# Coordination Sequence:
#
# PCOD9025481 Si02
#       7
#     2   2   2   2   2   2   2
#     4  10  22  41  71  99 134 165 220 277 324 391
#     4  12  27  44  61  98 135 178 218 262 331 396
#     4  12  24  43  68  97 135 173 218 273 323 394
#     4  10  22  40  69 105 127 169 219 274 335 376
#     4  10  23  44  66  98 135 170 218 272 327 387
#     4  10  22  43  68  98 131 171 221 272 327 375
#     4  10  23  44  69  94 135 172 218 277 324 380
#
# _framework density 21.351362999999999
#
# number of rings (size 3 to 8) (size 9 to 14) (size 15 to 20)
#    0.000    1.429    2.857    1.286    4.000    5.714 
#    2.571    2.857    0.000    0.000    0.000    0.000 
#    0.000    0.000    0.000    0.000    0.000    0.000 
#
# Total GULP energy -78215.757824 kJ/mol
# GULP energy per Si atom -5586.839845 kJ/mol
# Density = 2.130277 g / cm^3
# Si number density = 21.351363 Si / 1000 Ang^3
#
#
#
# Elastic Constant Matrix: (Units=GPa)
#
#
# Indices 1 2 3 4 5 6 
#
# 1 82.5485 29.6208 -3.3667 -11.6724 -2.4937 -9.2124
# 2 29.6208 160.4839 37.1856 1.2703 14.1981 -11.3990
# 3 -3.3667 37.1856 59.9834 13.2107 -0.3795 -0.2081
# 4 -11.6724 1.2703 13.2107 37.1166 -0.5348 2.0683
# 5 -2.4937 14.1981 -0.3795 -0.5348 26.6483 4.1890
# 6 -9.2124 -11.3990 -0.2081 2.0683 4.1890 35.4433
#
#
#
# Elastic Compliance Matrix: (Units=1/GPa)
#
#
# Indices 1 2 3 4 5 6 
#
# 1 0.014204 -0.003207 0.001975 0.003796 0.002809 0.002118
# 2 -0.003207 0.008831 -0.005797 0.000529 -0.005485 0.002590
# 3 0.001975 -0.005797 0.021904 -0.006855 0.003645 -0.001253
# 4 0.003796 0.000529 -0.006855 0.030610 0.000708 -0.000753
# 5 0.002809 -0.005485 0.003645 0.000708 0.041718 -0.005984
# 6 0.002118 0.002590 -0.001253 -0.000753 -0.005984 0.030341
#
#
# Mechanical properties :
#
#
# Convention : Reuss Voigt Hill
#
# Bulk Modulus (GPa) = 32.38386 47.76612 40.07499
# Shear Modulus (GPa) = 29.07639 35.81338 32.44489
#
# Velocity S-wave (km/s) = 3.69427 4.09997 3.90239
# Velocity P-wave (km/s) = 5.77900 6.69575 6.25419
#
# Compressibility (1/GPa) = 0.03087958
#
# Stress axis : x y z
#
# Youngs Moduli (GPa) = 70.40510 113.23293 45.65322
#
# Poissons Ratio (x) = 0.36316 -0.09014
# Poissons Ratio (y) = 0.22580 0.26466
# Poissons Ratio (z) = -0.13902 0.65642
#
# Static dielectric constant tensor:
#      x y z
#    x 1.746420 0.039520 0.023680 
#    y 0.039520 1.891830 0.069130 
#    z 0.023680 0.069130 1.831250 
# 
# From -- ./inp_files/188482.got.cif
#   From: 2010.05.17/outbox.cif.g08.bks.cpg/sg2_95_cif.got.tgz:188482.got - 2010.06.03 11:33:40.
