data_PCOD9025390
_publ_section_title
;
Structure prediction by ZEFSAII (Michael W. Deem and Ramdas Pophale) SiO2 
 PCOD9025390
Probable space group: P -1
;
_chemical_formula_sum "Si O2"
_cell_formula_units_Z 16
_cell_length_a 12.500495
_cell_length_b 6.670056
_cell_length_c 27.141283
_cell_angle_alpha 45.609673
_cell_angle_beta 28.205233
_cell_angle_gamma 45.414485
_cell_volume 739.412385
_symmetry_space_group_name_H-M "P -1"
_symmetry_group_IT_number 2
_symmetry_cell_setting 'triclinic'
loop_
_space_group_symop_operation_xyz
x,y,z
-x,-y,-z
loop_
_atom_site_type_symbol
_atom_site_label
_atom_site_fract_x
_atom_site_fract_y
_atom_site_fract_z
Si Si1 0.934473 0.509583 0.316983
Si Si2 0.843489 0.894456 0.121819
Si Si3 0.180594 0.320158 0.071951
Si Si4 0.789069 0.091538 0.216032
Si Si5 0.904421 0.153129 0.658628
Si Si6 0.352249 0.724412 0.160373
Si Si7 0.446028 0.606362 0.318758
Si Si8 0.664720 0.676233 0.495744
O O1 0.752785 0.540009 0.430787
O O2 0.169330 0.571893 0.234807
O O3 0.831103 0.770418 0.276580
O O4 0.997823 0.193607 0.321908
O O5 0.613325 0.821170 0.205950
O O6 0.016195 0.587982 0.121084
O O7 0.775805 0.090947 0.163067
O O8 0.000000 0.000000 0.000000
O O9 0.011251 0.207627 0.122745
O O10 0.285645 0.057461 0.111206
O O11 0.387886 0.403501 0.943296
O O12 0.565770 0.304452 0.295215
O O13 0.695803 0.259069 0.764853
O O14 0.801976 0.255111 0.629182
O O15 0.111467 0.285159 0.570897
O O16 0.444355 0.529253 0.390324
O O17 0.500000 0.000000 0.500000
#
# Coordination Sequence:
#
# PCOD9025390 Si02
#       8
#     2   2   2   2   2   2   2   2
#     4  10  22  40  68  98 122 167 221 265 321 388
#     4  11  26  38  63  94 132 170 222 258 313 386
#     4   9  20  38  60  90 125 172 220 264 311 376
#     4  10  22  41  64  91 130 175 219 259 321 383
#     4  11  25  39  68  97 130 165 215 265 328 378
#     4   9  20  38  62  89 132 167 210 270 319 373
#     4  11  26  44  64  97 136 170 211 270 325 380
#     4  11  24  46  71  94 130 168 216 268 326 385
#
# _framework density 21.638802999999999
#
# number of rings (size 3 to 8) (size 9 to 14) (size 15 to 20)
#    0.000    1.750    1.250    1.125    8.750    4.000 
#    0.000    3.750    0.000    0.000    0.000    0.000 
#    0.000    0.000    0.000    0.000    0.000    0.000 
#
# Total GULP energy -89474.671859 kJ/mol
# GULP energy per Si atom -5592.166991 kJ/mol
# Density = 2.158955 g / cm^3
# Si number density = 21.638803 Si / 1000 Ang^3
#
#
#
# Elastic Constant Matrix: (Units=GPa)
#
#
# Indices 1 2 3 4 5 6 
#
# 1 57.3327 8.6569 19.1640 -2.2938 14.5964 -6.6533
# 2 8.6569 43.3509 14.1104 4.7584 0.5889 5.0168
# 3 19.1640 14.1104 75.4947 0.3035 7.4367 7.6926
# 4 -2.2938 4.7584 0.3035 31.3348 -4.3346 3.2343
# 5 14.5964 0.5889 7.4367 -4.3346 21.8697 13.6277
# 6 -6.6533 5.0168 7.6926 3.2343 13.6277 27.9448
#
#
#
# Elastic Compliance Matrix: (Units=1/GPa)
#
#
# Indices 1 2 3 4 5 6 
#
# 1 0.035374 -0.007529 -0.006705 -0.005564 -0.042911 0.033189
# 2 -0.007529 0.026953 -0.003148 -0.001738 0.012199 -0.011513
# 3 -0.006705 -0.003148 0.015897 0.001175 0.004081 -0.007534
# 4 -0.005564 -0.001738 0.001175 0.036110 0.020046 -0.015291
# 5 -0.042911 0.012199 0.004081 0.020046 0.124258 -0.076447
# 6 0.033189 -0.011513 -0.007534 -0.015291 -0.076447 0.086878
#
#
# Mechanical properties :
#
#
# Convention : Reuss Voigt Hill
#
# Bulk Modulus (GPa) = 23.00944 28.89346 25.95145
# Shear Modulus (GPa) = 13.34331 25.17964 19.26148
#
# Velocity S-wave (km/s) = 2.48591 3.41491 2.98675
# Velocity P-wave (km/s) = 4.34697 5.37870 4.89012
#
# Compressibility (1/GPa) = 0.04346042
#
# Stress axis : x y z
#
# Youngs Moduli (GPa) = 28.26972 37.10156 62.90400
#
# Poissons Ratio (x) = 0.27933 0.42176
# Poissons Ratio (y) = 0.21284 0.19803
# Poissons Ratio (z) = 0.18954 0.11680
#
# Static dielectric constant tensor:
#      x y z
#    x 1.755030 -0.023430 0.002570 
#    y -0.023430 1.768860 -0.016350 
#    z 0.002570 -0.016350 1.796250 
# 
# From -- ./inp_files/78252.got.cif
#   From: 2010.05.17/outbox.cif.g08.bks.cpg/sg2_40_cif.got.tgz:78252.got - 2010.06.03 11:33:40.
