data_PCOD9025920
_publ_section_title
;
Structure prediction by ZEFSAII (Michael W. Deem and Ramdas Pophale) SiO2 
 PCOD9025920
Probable space group: P -1
;
_chemical_formula_sum "Si O2"
_cell_formula_units_Z 14
_cell_length_a 9.076709
_cell_length_b 12.793332
_cell_length_c 7.893602
_cell_angle_alpha 130.351327
_cell_angle_beta 99.141877
_cell_angle_gamma 115.236504
_cell_volume 490.229591
_symmetry_space_group_name_H-M "P -1"
_symmetry_group_IT_number 2
_symmetry_cell_setting 'triclinic'
loop_
_space_group_symop_operation_xyz
x,y,z
-x,-y,-z
loop_
_atom_site_type_symbol
_atom_site_label
_atom_site_fract_x
_atom_site_fract_y
_atom_site_fract_z
Si Si1 0.865810 0.373670 0.680425
Si Si2 0.231027 0.688851 0.846269
Si Si3 0.823896 0.101020 0.188505
Si Si4 0.912765 0.065465 0.679537
Si Si5 0.500000 0.000000 0.500000
Si Si6 0.308465 0.447808 0.666710
Si Si7 0.000000 0.000000 0.000000
Si Si8 0.315992 0.497763 0.129435
O O1 0.816353 0.182190 0.444919
O O2 0.994957 0.500551 0.670319
O O3 0.661652 0.330892 0.626649
O O4 0.000000 0.500000 0.000000
O O5 0.262217 0.840075 0.891213
O O6 0.323549 0.599543 0.728349
O O7 0.347331 0.810175 0.162744
O O8 0.080976 0.237914 0.344259
O O9 0.774499 0.912920 0.968384
O O10 0.094873 0.298112 0.947317
O O11 0.687182 0.989164 0.525118
O O12 0.910159 0.006934 0.807678
O O13 0.000000 0.000000 0.500000
O O14 0.297403 0.472488 0.894446
O O15 0.502397 0.474079 0.726860
#
# Coordination Sequence:
#
# PCOD9025920 Si02
#       8
#     2   2   2   2   1   2   1   2
#     4  11  20  39  70 102 140 184 246 310 376 455
#     4  11  22  42  67 102 143 195 246 318 387 457
#     4  11  23  44  70 103 152 195 249 327 386 457
#     4  12  27  48  82 111 163 211 266 328 398 477
#     4  12  24  46  78 108 156 212 264 318 402 484
#     4  10  22  40  77 105 151 196 251 326 394 457
#     4  12  26  52  76 110 162 212 258 334 394 474
#     4  11  21  43  70 115 140 199 262 307 391 474
#
# _framework density 28.558046000000001
#
# number of rings (size 3 to 8) (size 9 to 14) (size 15 to 20)
#    0.000    0.857    5.714    3.429    0.000    1.143 
#    0.000    8.571    6.286    0.000    0.000    0.000 
#    0.000    0.000    0.000    0.000    0.000    0.000 
#
# Total GULP energy -77967.742867 kJ/mol
# GULP energy per Si atom -5569.124491 kJ/mol
# Density = 2.849305 g / cm^3
# Si number density = 28.558046 Si / 1000 Ang^3
#
#
#
# Elastic Constant Matrix: (Units=GPa)
#
#
# Indices 1 2 3 4 5 6 
#
# 1 264.4479 47.9485 47.5775 -9.3579 -4.9844 -34.1205
# 2 47.9485 113.8349 20.6633 -28.9289 12.7066 -10.0592
# 3 47.5775 20.6633 57.0648 -5.9838 -9.3960 -4.2867
# 4 -9.3579 -28.9289 -5.9838 39.0357 -3.0157 11.3878
# 5 -4.9844 12.7066 -9.3960 -3.0157 60.6545 -0.8235
# 6 -34.1205 -10.0592 -4.2867 11.3878 -0.8235 42.4233
#
#
#
# Elastic Compliance Matrix: (Units=1/GPa)
#
#
# Indices 1 2 3 4 5 6 
#
# 1 0.005158 -0.001617 -0.003566 -0.001615 0.000182 0.003842
# 2 -0.001617 0.012318 -0.002756 0.008388 -0.002736 -0.000963
# 3 -0.003566 -0.002756 0.022126 0.001235 0.003752 -0.001544
# 4 -0.001615 0.008388 0.001235 0.034057 -0.000118 -0.008329
# 5 0.000182 -0.002736 0.003752 -0.000118 0.017654 0.000251
# 6 0.003842 -0.000963 -0.001544 -0.008329 0.000251 0.028518
#
#
# Mechanical properties :
#
#
# Convention : Reuss Voigt Hill
#
# Bulk Modulus (GPa) = 42.14861 74.19178 58.17020
# Shear Modulus (GPa) = 34.81494 49.69992 42.25743
#
# Velocity S-wave (km/s) = 3.49534 4.17623 3.85086
# Velocity P-wave (km/s) = 5.57502 7.02070 6.33921
#
# Compressibility (1/GPa) = 0.02372557
#
# Stress axis : x y z
#
# Youngs Moduli (GPa) = 193.86843 81.18315 45.19518
#
# Poissons Ratio (x) = 0.13124 0.16116
# Poissons Ratio (y) = 0.31340 0.12455
# Poissons Ratio (z) = 0.69133 0.22372
#
# Static dielectric constant tensor:
#      x y z
#    x 2.735520 -0.222300 -0.491290 
#    y -0.222300 2.587840 0.351700 
#    z -0.491290 0.351700 2.878520 
# 
# From -- ./inp_files/204351.got.cif
#   From: 2010.05.17/outbox.cif.g08.bks.cpg/sg2_103_cif.got.tgz:204351.got - 2010.06.03 11:33:40.
