data_PCOD9025120
_publ_section_title
;
Structure prediction by ZEFSAII (Michael W. Deem and Ramdas Pophale) SiO2 
 PCOD9025120
Probable space group: P -1
;
_chemical_formula_sum "Si O2"
_cell_formula_units_Z 12
_cell_length_a 8.681407
_cell_length_b 11.773615
_cell_length_c 9.230476
_cell_angle_alpha 140.442466
_cell_angle_beta 119.806062
_cell_angle_gamma 58.112319
_cell_volume 503.087176
_symmetry_space_group_name_H-M "P -1"
_symmetry_group_IT_number 2
_symmetry_cell_setting 'triclinic'
loop_
_space_group_symop_operation_xyz
x,y,z
-x,-y,-z
loop_
_atom_site_type_symbol
_atom_site_label
_atom_site_fract_x
_atom_site_fract_y
_atom_site_fract_z
Si Si1 0.845896 0.577649 0.185999
Si Si2 0.539118 0.831970 0.466151
Si Si3 0.211345 0.777403 0.093980
Si Si4 0.957319 0.114364 0.442495
Si Si5 0.481834 0.366294 0.143007
Si Si6 0.528297 0.235187 0.337444
O O1 0.725774 0.687273 0.369790
O O2 0.992361 0.690144 0.327195
O O3 0.904777 0.367444 0.060523
O O4 0.694934 0.605088 0.014701
O O5 0.366461 0.751007 0.267062
O O6 0.538036 0.879379 0.680035
O O7 0.500000 0.000000 0.500000
O O8 0.335243 0.726840 0.957900
O O9 0.085193 0.983956 0.254479
O O10 0.745854 0.154066 0.344593
O O11 0.000000 0.000000 0.500000
O O12 0.448071 0.255428 0.160140
O O13 0.507824 0.559066 0.407643
#
# Coordination Sequence:
#
# PCOD9025120 Si02
#       6
#     2   2   2   2   2   2
#     4  11  21  41  71  91 124 175 220 256 319 391
#     4  11  18  38  66  90 122 171 216 251 308 388
#     4  11  21  40  67  95 126 172 219 258 320 389
#     4  12  24  40  66  99 129 162 219 276 316 373
#     4  10  22  40  67  94 131 170 214 264 323 387
#     4  11  22  41  64  99 132 163 214 276 319 373
#
# _framework density 23.852725
#
# number of rings (size 3 to 8) (size 9 to 14) (size 15 to 20)
#    0.000    1.000    6.667    1.000    0.000    3.333 
#    0.000    8.333    3.667    2.000    0.000    0.000 
#    0.000    0.000    0.000    0.000    0.000    0.000 
#
# Total GULP energy -67125.855552 kJ/mol
# GULP energy per Si atom -5593.821296 kJ/mol
# Density = 2.379844 g / cm^3
# Si number density = 23.852725 Si / 1000 Ang^3
#
#
#
# Elastic Constant Matrix: (Units=GPa)
#
#
# Indices 1 2 3 4 5 6 
#
# 1 74.3557 31.5389 24.6078 -3.5095 -22.0598 10.1465
# 2 31.5389 74.1635 32.6642 -5.1971 -12.2828 36.1571
# 3 24.6078 32.6642 86.7471 13.2895 -22.1321 13.4546
# 4 -3.5095 -5.1971 13.2895 33.9362 12.2148 -7.7365
# 5 -22.0598 -12.2828 -22.1321 12.2148 48.7078 9.2099
# 6 10.1465 36.1571 13.4546 -7.7365 9.2099 45.8297
#
#
#
# Elastic Compliance Matrix: (Units=1/GPa)
#
#
# Indices 1 2 3 4 5 6 
#
# 1 0.018368 -0.006102 -0.000899 -0.001257 0.006794 -0.000566
# 2 -0.006102 0.030482 -0.003230 -0.003381 0.008860 -0.024100
# 3 -0.000899 -0.003230 0.019955 -0.015041 0.013187 -0.008300
# 4 -0.001257 -0.003381 -0.015041 0.048032 -0.024145 0.020322
# 5 0.006794 0.008860 0.013187 -0.024145 0.042617 -0.025006
# 6 -0.000566 -0.024100 -0.008300 0.020322 -0.025006 0.051851
#
#
# Mechanical properties :
#
#
# Convention : Reuss Voigt Hill
#
# Bulk Modulus (GPa) = 20.68595 45.87646 33.28121
# Shear Modulus (GPa) = 20.17082 35.45843 27.81462
#
# Velocity S-wave (km/s) = 2.91114 3.85977 3.41852
# Velocity P-wave (km/s) = 4.47111 6.25610 5.43735
#
# Compressibility (1/GPa) = 0.04834199
#
# Stress axis : x y z
#
# Youngs Moduli (GPa) = 54.44158 32.80663 50.11278
#
# Poissons Ratio (x) = 0.20020 0.04505
# Poissons Ratio (y) = 0.33223 0.16187
# Poissons Ratio (z) = 0.04894 0.10597
#
# Static dielectric constant tensor:
#      x y z
#    x 1.939860 0.091730 0.013610 
#    y 0.091730 1.932810 0.069400 
#    z 0.013610 0.069400 1.954140 
# 
# From -- ./inp_files/173734.got.cif
#   From: 2010.05.17/outbox.cif.g08.bks.cpg/sg2_87_cif.got.tgz:173734.got - 2010.06.03 11:33:40.
