data_PCOD9025826
_publ_section_title
;
Structure prediction by ZEFSAII (Michael W. Deem and Ramdas Pophale) SiO2 
 PCOD9025826
Probable space group: P -1
;
_chemical_formula_sum "Si O2"
_cell_formula_units_Z 12
_cell_length_a 8.607704
_cell_length_b 16.513010
_cell_length_c 7.022668
_cell_angle_alpha 55.025777
_cell_angle_beta 97.631773
_cell_angle_gamma 55.835372
_cell_volume 502.015544
_symmetry_space_group_name_H-M "P -1"
_symmetry_group_IT_number 2
_symmetry_cell_setting 'triclinic'
loop_
_space_group_symop_operation_xyz
x,y,z
-x,-y,-z
loop_
_atom_site_type_symbol
_atom_site_label
_atom_site_fract_x
_atom_site_fract_y
_atom_site_fract_z
Si Si1 0.845580 0.483895 0.060041
Si Si2 0.982712 0.228987 0.599089
Si Si3 0.576748 0.483764 0.749966
Si Si4 0.740891 0.663730 0.134863
Si Si5 0.113142 0.182890 0.121418
Si Si6 0.803654 0.024104 0.325569
O O1 0.046856 0.300053 0.408385
O O2 0.688773 0.605609 0.046568
O O3 0.674015 0.537655 0.782135
O O4 0.000000 0.500000 0.000000
O O5 0.680152 0.399893 0.329433
O O6 0.068336 0.092138 0.678715
O O7 0.079031 0.175952 0.902010
O O8 0.500000 0.500000 0.500000
O O9 0.847734 0.295235 0.041420
O O10 0.000000 0.500000 0.500000
O O11 0.813199 0.738150 0.971750
O O12 0.472448 0.797447 0.021445
O O13 0.278022 0.021056 0.475338
O O14 0.000000 0.000000 0.500000
#
# Coordination Sequence:
#
# PCOD9025826 Si02
#       6
#     2   2   2   2   2   2
#     4  12  22  42  74 110 146 195 258 310 376 453
#     4  11  24  45  74 105 149 202 247 312 385 451
#     4  10  22  40  72 105 147 199 251 300 379 448
#     4  12  26  47  74 111 149 197 254 313 379 459
#     4  11  24  46  72 110 149 196 249 316 374 452
#     4  12  28  48  73 107 154 199 255 317 379 447
#
# _framework density 23.903642000000001
#
# number of rings (size 3 to 8) (size 9 to 14) (size 15 to 20)
#    0.000    0.667    5.000    2.000    2.333    2.667 
#    3.000    0.000    0.000    0.000    0.000    0.000 
#    0.000    0.000    0.000    0.000    0.000    0.000 
#
# Total GULP energy -66863.030508 kJ/mol
# GULP energy per Si atom -5571.919209 kJ/mol
# Density = 2.384924 g / cm^3
# Si number density = 23.903642 Si / 1000 Ang^3
#
#
#
# Elastic Constant Matrix: (Units=GPa)
#
#
# Indices 1 2 3 4 5 6 
#
# 1 73.4009 45.0710 33.2400 -12.1550 2.5011 16.1245
# 2 45.0710 208.4575 50.5114 -1.2273 16.0650 19.0884
# 3 33.2400 50.5114 108.0361 -3.3124 14.1766 -4.2498
# 4 -12.1550 -1.2273 -3.3124 36.7957 -2.3882 13.2065
# 5 2.5011 16.0650 14.1766 -2.3882 30.7251 -3.0348
# 6 16.1245 19.0884 -4.2498 13.2065 -3.0348 43.8867
#
#
#
# Elastic Compliance Matrix: (Units=1/GPa)
#
#
# Indices 1 2 3 4 5 6 
#
# 1 0.021768 -0.002395 -0.005933 0.010493 0.001991 -0.010551
# 2 -0.002395 0.006152 -0.001918 -0.000159 -0.002356 -0.002097
# 3 -0.005933 -0.001918 0.012615 -0.002883 -0.004083 0.004821
# 4 0.010493 -0.000159 -0.002883 0.035777 0.001888 -0.014701
# 5 0.001991 -0.002356 -0.004083 0.001888 0.035826 0.001807
# 6 -0.010551 -0.002097 0.004821 -0.014701 0.001807 0.032590
#
#
# Mechanical properties :
#
#
# Convention : Reuss Voigt Hill
#
# Bulk Modulus (GPa) = 49.88577 71.94881 60.91729
# Shear Modulus (GPa) = 29.08651 39.68630 34.38640
#
# Velocity S-wave (km/s) = 3.49208 4.07905 3.79693
# Velocity P-wave (km/s) = 6.09708 7.23531 6.69045
#
# Compressibility (1/GPa) = 0.02004579
#
# Stress axis : x y z
#
# Youngs Moduli (GPa) = 45.93837 162.54149 79.26982
#
# Poissons Ratio (x) = 0.38921 0.47027
# Poissons Ratio (y) = 0.11000 0.15203
# Poissons Ratio (z) = 0.27253 0.31173
#
# Static dielectric constant tensor:
#      x y z
#    x 1.921870 -0.107300 -0.006480 
#    y -0.107300 2.019890 -0.028120 
#    z -0.006480 -0.028120 1.976790 
# 
# From -- ./inp_files/212013.got.cif
#   From: 2010.05.17/outbox.cif.g08.bks.cpg/sg2_107_cif.got.tgz:212013.got - 2010.06.03 11:33:40.
