data_PCOD9025475
_publ_section_title
;
Structure prediction by ZEFSAII (Michael W. Deem and Ramdas Pophale) SiO2 
 PCOD9025475
Probable space group: P -1
;
_chemical_formula_sum "Si O2"
_cell_formula_units_Z 16
_cell_length_a 5.885790
_cell_length_b 19.447606
_cell_length_c 10.024424
_cell_angle_alpha 106.625365
_cell_angle_beta 135.780983
_cell_angle_gamma 66.726364
_cell_volume 735.105059
_symmetry_space_group_name_H-M "P -1"
_symmetry_group_IT_number 2
_symmetry_cell_setting 'triclinic'
loop_
_space_group_symop_operation_xyz
x,y,z
-x,-y,-z
loop_
_atom_site_type_symbol
_atom_site_label
_atom_site_fract_x
_atom_site_fract_y
_atom_site_fract_z
Si Si1 0.074449 0.326514 0.890549
Si Si2 0.158456 0.980381 0.904300
Si Si3 0.828274 0.682910 0.359092
Si Si4 0.665378 0.417631 0.971167
Si Si5 0.156946 0.810490 0.187678
Si Si6 0.940983 0.857554 0.831533
Si Si7 0.137502 0.685576 0.768672
Si Si8 0.786678 0.060674 0.546855
O O1 0.469188 0.317923 0.058678
O O2 0.884838 0.404839 0.922263
O O3 0.959065 0.319200 0.686763
O O4 0.007271 0.256859 0.900217
O O5 0.212766 0.890324 0.884502
O O6 0.857942 0.017231 0.693894
O O7 0.500000 0.000000 0.000000
O O8 0.000000 0.000000 0.000000
O O9 0.553472 0.764861 0.304168
O O10 0.035267 0.663187 0.569858
O O11 0.621809 0.622908 0.209686
O O12 0.902909 0.368693 0.159626
O O13 0.500000 0.500000 0.000000
O O14 0.107854 0.864774 0.324676
O O15 0.012091 0.856747 0.019400
O O16 0.579666 0.908382 0.656860
O O17 0.951832 0.772644 0.759452
O O18 0.000000 0.000000 0.500000
#
# Coordination Sequence:
#
# PCOD9025475 Si02
#       8
#     2   2   2   2   2   2   2   2
#     4  10  22  40  69 104 134 182 232 280 361 420
#     4  12  28  49  74 101 147 192 246 315 390 440
#     4  10  22  42  66 105 139 178 236 293 349 425
#     4  10  23  45  69 102 149 183 223 284 353 428
#     4  11  23  45  71  98 142 182 238 302 362 429
#     4  12  24  47  71  99 144 186 248 305 363 449
#     4  11  23  41  70 104 135 182 241 287 352 427
#     4  12  28  46  71 107 140 194 248 311 383 441
#
# _framework density 21.765597
#
# number of rings (size 3 to 8) (size 9 to 14) (size 15 to 20)
#    0.000    1.000    6.250    1.125    1.750    6.500 
#    2.250    1.250    0.000    0.000    0.000    0.000 
#    0.000    0.000    0.000    0.000    0.000    0.000 
#
# Total GULP energy -89252.191735 kJ/mol
# GULP energy per Si atom -5578.261983 kJ/mol
# Density = 2.171606 g / cm^3
# Si number density = 21.765597 Si / 1000 Ang^3
#
#
#
# Elastic Constant Matrix: (Units=GPa)
#
#
# Indices 1 2 3 4 5 6 
#
# 1 60.5762 27.5801 32.9166 1.7510 -19.1037 -13.5983
# 2 27.5801 129.9893 36.9420 19.8249 -13.6291 -25.2984
# 3 32.9166 36.9420 160.2929 8.5207 -31.8497 -3.1557
# 4 1.7510 19.8249 8.5207 23.2072 -4.4081 -5.7662
# 5 -19.1037 -13.6291 -31.8497 -4.4081 32.3466 6.1408
# 6 -13.5983 -25.2984 -3.1557 -5.7662 6.1408 28.0556
#
#
#
# Elastic Compliance Matrix: (Units=1/GPa)
#
#
# Indices 1 2 3 4 5 6 
#
# 1 0.023675 -0.002563 -0.002463 0.005089 0.009688 0.007812
# 2 -0.002563 0.011129 -0.001687 -0.007029 -0.000837 0.007342
# 3 -0.002463 -0.001687 0.008445 -0.001064 0.006658 -0.003441
# 4 0.005089 -0.007029 -0.001064 0.051407 0.004960 0.005488
# 5 0.009688 -0.000837 0.006658 0.004960 0.044271 -0.003981
# 6 0.007812 0.007342 -0.003441 0.005488 -0.003981 0.047663
#
#
# Mechanical properties :
#
#
# Convention : Reuss Voigt Hill
#
# Bulk Modulus (GPa) = 33.53007 60.63732 47.08370
# Shear Modulus (GPa) = 23.81428 33.61653 28.71540
#
# Velocity S-wave (km/s) = 3.31134 3.93425 3.63616
# Velocity P-wave (km/s) = 5.48257 6.96832 6.26961
#
# Compressibility (1/GPa) = 0.02982397
#
# Stress axis : x y z
#
# Youngs Moduli (GPa) = 42.23810 89.85271 118.41594
#
# Poissons Ratio (x) = 0.23032 0.29163
# Poissons Ratio (y) = 0.10827 0.19973
# Poissons Ratio (z) = 0.10402 0.15155
#
# Static dielectric constant tensor:
#      x y z
#    x 1.909950 -0.003080 -0.016060 
#    y -0.003080 1.867760 0.038780 
#    z -0.016060 0.038780 1.800250 
# 
# From -- ./inp_files/106107.got.cif
#   From: 2010.05.17/outbox.cif.g08.bks.cpg/sg2_54_cif.got.tgz:106107.got - 2010.06.03 11:33:40.
