data_PCOD9025031
_publ_section_title
;
Structure prediction by ZEFSAII (Michael W. Deem and Ramdas Pophale) SiO2 
 PCOD9025031
Probable space group: P -1
;
_chemical_formula_sum "Si O2"
_cell_formula_units_Z 14
_cell_length_a 5.060680
_cell_length_b 13.194060
_cell_length_c 15.376611
_cell_angle_alpha 36.712025
_cell_angle_beta 102.590120
_cell_angle_gamma 94.087528
_cell_volume 589.508814
_symmetry_space_group_name_H-M "P -1"
_symmetry_group_IT_number 2
_symmetry_cell_setting 'triclinic'
loop_
_space_group_symop_operation_xyz
x,y,z
-x,-y,-z
loop_
_atom_site_type_symbol
_atom_site_label
_atom_site_fract_x
_atom_site_fract_y
_atom_site_fract_z
Si Si1 0.111542 0.177231 0.385222
Si Si2 0.055836 0.159277 0.199311
Si Si3 0.942678 0.679800 0.424806
Si Si4 0.593280 0.917234 0.360611
Si Si5 0.250318 0.558663 0.700942
Si Si6 0.146303 0.645753 0.104179
Si Si7 0.202933 0.007515 0.931332
O O1 0.360104 0.151697 0.489739
O O2 0.874122 0.317127 0.314966
O O3 0.166550 0.207244 0.268121
O O4 0.187538 0.952539 0.727486
O O5 0.000000 0.000000 0.500000
O O6 0.296666 0.032929 0.253085
O O7 0.668349 0.758202 0.408291
O O8 0.162727 0.651501 0.539129
O O9 0.917152 0.827916 0.248840
O O10 0.000000 0.500000 0.500000
O O11 0.969011 0.329313 0.018676
O O12 0.074939 0.404521 0.809345
O O13 0.570802 0.487177 0.778450
O O14 0.214304 0.832662 0.999469
O O15 0.500000 0.000000 0.000000
O O16 0.000000 0.000000 0.000000
#
# Coordination Sequence:
#
# PCOD9025031 Si02
#       7
#     2   2   2   2   2   2   2
#     4   9  22  43  70 103 143 185 233 288 352 413
#     4  11  22  41  70  96 140 183 230 281 346 410
#     4  11  24  46  72 102 139 182 233 288 349 417
#     4  10  22  40  67 102 132 183 232 280 343 416
#     4  11  27  46  70 105 143 185 237 291 345 422
#     4  12  25  46  68 103 145 182 237 293 350 413
#     4  12  27  46  73 101 138 185 233 289 356 416
#
# _framework density 23.748586
#
# number of rings (size 3 to 8) (size 9 to 14) (size 15 to 20)
#    0.000    1.143    1.429    3.857    2.000   11.429 
#    0.000    5.000    0.000    0.000    0.000    0.000 
#    0.000    0.000    0.000    0.000    0.000    0.000 
#
# Total GULP energy -78341.150790 kJ/mol
# GULP energy per Si atom -5595.796485 kJ/mol
# Density = 2.369453 g / cm^3
# Si number density = 23.748586 Si / 1000 Ang^3
#
#
#
# Elastic Constant Matrix: (Units=GPa)
#
#
# Indices 1 2 3 4 5 6 
#
# 1 130.3860 9.8307 59.2954 11.7989 17.2750 -16.4012
# 2 9.8307 125.4495 52.7346 2.3644 8.6596 -9.1776
# 3 59.2954 52.7346 204.7658 15.3249 19.1711 -5.0584
# 4 11.7989 2.3644 15.3249 51.1207 0.0797 -4.9837
# 5 17.2750 8.6596 19.1711 0.0797 35.3299 -11.0461
# 6 -16.4012 -9.1776 -5.0584 -4.9837 -11.0461 27.8802
#
#
#
# Elastic Compliance Matrix: (Units=1/GPa)
#
#
# Indices 1 2 3 4 5 6 
#
# 1 0.009757 0.000848 -0.002654 -0.001053 -0.002127 0.004506
# 2 0.000848 0.009210 -0.002542 0.000434 -0.000353 0.003007
# 3 -0.002654 -0.002542 0.006583 -0.001475 -0.002404 -0.002420
# 4 -0.001053 0.000434 -0.001475 0.020601 0.002375 0.003880
# 5 -0.002127 -0.000353 -0.002404 0.002375 0.034583 0.012323
# 6 0.004506 0.003007 -0.002420 0.003880 0.012323 0.044645
#
#
# Mechanical properties :
#
#
# Convention : Reuss Voigt Hill
#
# Bulk Modulus (GPa) = 59.34470 78.25806 68.80138
# Shear Modulus (GPa) = 35.79251 45.44888 40.62069
#
# Velocity S-wave (km/s) = 3.88641 4.37939 4.14024
# Velocity P-wave (km/s) = 6.72174 7.65482 7.20341
#
# Compressibility (1/GPa) = 0.01685070
#
# Stress axis : x y z
#
# Youngs Moduli (GPa) = 102.49468 108.57961 151.91175
#
# Poissons Ratio (x) = -0.09202 0.40322
# Poissons Ratio (y) = -0.08687 0.38623
# Poissons Ratio (z) = 0.27205 0.27606
#
# Static dielectric constant tensor:
#      x y z
#    x 1.902860 0.080710 -0.036200 
#    y 0.080710 2.015250 0.004850 
#    z -0.036200 0.004850 1.931190 
# 
# From -- ./inp_files/340562.got.cif
#   From: 2010.05.17/outbox.cif.g08.bks.cpg/sg2_171_cif.got.tgz:340562.got - 2010.06.03 11:33:40.
