data_PCOD9025638
_publ_section_title
;
Structure prediction by ZEFSAII (Michael W. Deem and Ramdas Pophale) SiO2 
 PCOD9025638
Probable space group: P -1
;
_chemical_formula_sum "Si O2"
_cell_formula_units_Z 14
_cell_length_a 9.255292
_cell_length_b 9.694991
_cell_length_c 19.482914
_cell_angle_alpha 27.987251
_cell_angle_beta 53.463531
_cell_angle_gamma 64.198378
_cell_volume 639.914203
_symmetry_space_group_name_H-M "P -1"
_symmetry_group_IT_number 2
_symmetry_cell_setting 'triclinic'
loop_
_space_group_symop_operation_xyz
x,y,z
-x,-y,-z
loop_
_atom_site_type_symbol
_atom_site_label
_atom_site_fract_x
_atom_site_fract_y
_atom_site_fract_z
Si Si1 0.030506 0.364191 0.322175
Si Si2 0.015559 0.570314 0.855818
Si Si3 0.513392 0.850367 0.340586
Si Si4 0.092087 0.068143 0.867769
Si Si5 0.648290 0.779801 0.867605
Si Si6 0.549097 0.278960 0.914421
Si Si7 0.410784 0.857888 0.659307
O O1 0.980957 0.387425 0.246022
O O2 0.241041 0.547046 0.200265
O O3 0.918953 0.585784 0.294896
O O4 0.000000 0.000000 0.500000
O O5 0.829226 0.667774 0.884906
O O6 0.190573 0.788231 0.744687
O O7 0.016213 0.217337 0.021904
O O8 0.500000 0.500000 0.500000
O O9 0.698708 0.965020 0.190292
O O10 0.344707 0.957871 0.305139
O O11 0.531982 0.966436 0.362729
O O12 0.000000 0.000000 0.000000
O O13 0.500000 0.500000 0.000000
O O14 0.557138 0.858195 0.927286
O O15 0.465932 0.542721 0.791257
O O16 0.500000 0.000000 0.000000
O O17 0.500000 0.000000 0.500000
#
# Coordination Sequence:
#
# PCOD9025638 Si02
#       7
#     2   2   2   2   2   2   2
#     4  11  23  41  69 102 142 191 239 294 368 435
#     4  11  23  43  73  99 141 189 242 298 360 435
#     4  12  28  46  74 108 150 193 241 307 372 438
#     4  10  22  40  70 105 135 182 246 289 356 434
#     4  12  22  49  74 102 139 192 249 298 363 444
#     4  12  26  45  73 107 146 192 248 307 364 440
#     4  12  28  47  70 110 154 190 243 312 372 428
#
# _framework density 21.877932999999999
#
# number of rings (size 3 to 8) (size 9 to 14) (size 15 to 20)
#    0.000    0.571    4.286    2.571   10.000    3.429 
#    0.000    0.714    0.000    0.000    0.000    0.000 
#    0.000    0.000    0.000    0.000    0.000    0.000 
#
# Total GULP energy -78125.054675 kJ/mol
# GULP energy per Si atom -5580.361048 kJ/mol
# Density = 2.182814 g / cm^3
# Si number density = 21.877933 Si / 1000 Ang^3
#
#
#
# Elastic Constant Matrix: (Units=GPa)
#
#
# Indices 1 2 3 4 5 6 
#
# 1 110.1723 56.1814 33.7353 -10.1016 6.5200 1.8931
# 2 56.1814 167.9120 62.6261 -20.0645 5.9957 15.1965
# 3 33.7353 62.6261 112.6076 -30.8325 17.7595 10.2353
# 4 -10.1016 -20.0645 -30.8325 47.4489 -3.5729 1.0329
# 5 6.5200 5.9957 17.7595 -3.5729 26.9343 2.9724
# 6 1.8931 15.1965 10.2353 1.0329 2.9724 37.2912
#
#
#
# Elastic Compliance Matrix: (Units=1/GPa)
#
#
# Indices 1 2 3 4 5 6 
#
# 1 0.011252 -0.003290 -0.001498 -0.000084 -0.001156 0.001275
# 2 -0.003290 0.008685 -0.003666 0.000769 0.001661 -0.002519
# 3 -0.001498 -0.003666 0.014670 0.007158 -0.007316 -0.002071
# 4 -0.000084 0.000769 0.007158 0.026014 -0.001099 -0.002907
# 5 -0.001156 0.001661 -0.007316 -0.001099 0.041928 -0.001922
# 6 0.001275 -0.002519 -0.002071 -0.002907 -0.001922 0.028580
#
#
# Mechanical properties :
#
#
# Convention : Reuss Voigt Hill
#
# Bulk Modulus (GPa) = 56.50412 77.30859 66.90636
# Shear Modulus (GPa) = 32.48091 38.21149 35.34620
#
# Velocity S-wave (km/s) = 3.85729 4.18374 4.02383
# Velocity P-wave (km/s) = 6.76175 7.66494 7.22747
#
# Compressibility (1/GPa) = 0.01769783
#
# Stress axis : x y z
#
# Youngs Moduli (GPa) = 88.87351 115.14747 68.16634
#
# Poissons Ratio (x) = 0.37888 0.10208
# Poissons Ratio (y) = 0.29243 0.24993
# Poissons Ratio (z) = 0.13309 0.42218
#
# Static dielectric constant tensor:
#      x y z
#    x 1.871840 -0.060970 -0.081430 
#    y -0.060970 1.798570 0.043370 
#    z -0.081430 0.043370 1.929570 
# 
# From -- ./inp_files/556727.got.cif
#   From: 2010.05.17/outbox.cif.g08.bks.cpg/sg2_279_cif.got.tgz:556727.got - 2010.06.03 11:33:40.
