data_PCOD9025604
_publ_section_title
;
Structure prediction by ZEFSAII (Michael W. Deem and Ramdas Pophale) SiO2 
 PCOD9025604
Probable space group: P -1
;
_chemical_formula_sum "Si O2"
_cell_formula_units_Z 12
_cell_length_a 11.140518
_cell_length_b 7.464912
_cell_length_c 17.710520
_cell_angle_alpha 145.762753
_cell_angle_beta 34.639049
_cell_angle_gamma 141.545428
_cell_volume 445.954765
_symmetry_space_group_name_H-M "P -1"
_symmetry_group_IT_number 2
_symmetry_cell_setting 'triclinic'
loop_
_space_group_symop_operation_xyz
x,y,z
-x,-y,-z
loop_
_atom_site_type_symbol
_atom_site_label
_atom_site_fract_x
_atom_site_fract_y
_atom_site_fract_z
Si Si1 0.802397 0.831930 0.296576
Si Si2 0.547603 0.844666 0.745002
Si Si3 0.826878 0.253389 0.563409
Si Si4 0.256483 0.805553 0.090172
Si Si5 0.181776 0.566458 0.606525
Si Si6 0.652015 0.859502 0.171339
O O1 0.645022 0.467620 0.228465
O O2 0.060248 0.865650 0.164227
O O3 0.783131 0.902207 0.420149
O O4 0.741029 0.117759 0.381979
O O5 0.660336 0.661761 0.562420
O O6 0.729570 0.031499 0.777090
O O7 0.429268 0.084203 0.850252
O O8 0.582660 0.281801 0.710625
O O9 0.000000 0.500000 0.500000
O O10 0.948583 0.343300 0.612465
O O11 0.225095 0.413533 0.978987
O O12 0.500000 0.000000 0.000000
O O13 0.203566 0.774194 0.744326
#
# Coordination Sequence:
#
# PCOD9025604 Si02
#       6
#     2   2   2   2   2   2
#     4  11  24  42  73 101 131 180 234 278 336 400
#     4  12  26  44  70 101 142 179 222 286 344 401
#     4  10  22  40  70 101 129 178 227 275 331 397
#     4  12  27  47  70  99 138 181 230 284 337 406
#     4  11  23  42  73  99 134 176 230 280 328 405
#     4  12  27  44  68 105 140 177 225 282 346 402
#
# _framework density 26.908562
#
# number of rings (size 3 to 8) (size 9 to 14) (size 15 to 20)
#    0.000    0.667    3.333    4.500    4.667    6.667 
#    0.000    0.000    0.000    0.000    0.000    0.000 
#    0.000    0.000    0.000    0.000    0.000    0.000 
#
# Total GULP energy -67265.317328 kJ/mol
# GULP energy per Si atom -5605.443111 kJ/mol
# Density = 2.684732 g / cm^3
# Si number density = 26.908562 Si / 1000 Ang^3
#
#
#
# Elastic Constant Matrix: (Units=GPa)
#
#
# Indices 1 2 3 4 5 6 
#
# 1 81.9078 24.4100 -9.9031 6.0920 -0.7880 18.4508
# 2 24.4100 103.3712 25.3504 12.1497 1.3880 4.9899
# 3 -9.9031 25.3504 74.1008 15.9947 -2.9937 0.9657
# 4 6.0920 12.1497 15.9947 46.1982 1.5258 -1.4399
# 5 -0.7880 1.3880 -2.9937 1.5258 34.8852 10.8064
# 6 18.4508 4.9899 0.9657 -1.4399 10.8064 55.3224
#
#
#
# Elastic Compliance Matrix: (Units=1/GPa)
#
#
# Indices 1 2 3 4 5 6 
#
# 1 0.015398 -0.004133 0.004226 -0.002664 0.002673 -0.005428
# 2 -0.004133 0.011841 -0.004444 -0.000977 -0.001081 0.000574
# 3 0.004226 -0.004444 0.016869 -0.005374 0.002556 -0.001942
# 4 -0.002664 -0.000977 -0.005374 0.024254 -0.002204 0.002132
# 5 0.002673 -0.001081 0.002556 -0.002204 0.031253 -0.007001
# 6 -0.005428 0.000574 -0.001942 0.002132 -0.007001 0.021291
#
#
# Mechanical properties :
#
#
# Convention : Reuss Voigt Hill
#
# Bulk Modulus (GPa) = 28.24414 37.67714 32.96064
# Shear Modulus (GPa) = 35.35809 41.91599 38.63704
#
# Velocity S-wave (km/s) = 3.62886 3.95108 3.79339
# Velocity P-wave (km/s) = 5.29880 5.90313 5.60911
#
# Compressibility (1/GPa) = 0.03540557
#
# Stress axis : x y z
#
# Youngs Moduli (GPa) = 64.94338 84.45050 59.28187
#
# Poissons Ratio (x) = 0.34904 -0.25050
# Poissons Ratio (y) = 0.26842 0.26342
# Poissons Ratio (z) = -0.27442 0.37526
#
# Static dielectric constant tensor:
#      x y z
#    x 2.109670 -0.042570 0.077630 
#    y -0.042570 2.119860 -0.026290 
#    z 0.077630 -0.026290 2.076500 
# 
# From -- ./inp_files/162811.got.cif
#   From: 2010.05.17/outbox.cif.g08.bks.cpg/sg2_82_cif.got.tgz:162811.got - 2010.06.03 11:33:40.
