data_PCOD9025484
_publ_section_title
;
Structure prediction by ZEFSAII (Michael W. Deem and Ramdas Pophale) SiO2 
 PCOD9025484
Probable space group: P -1
;
_chemical_formula_sum "Si O2"
_cell_formula_units_Z 14
_cell_length_a 5.612321
_cell_length_b 9.900566
_cell_length_c 21.615092
_cell_angle_alpha 37.576601
_cell_angle_beta 95.189609
_cell_angle_gamma 74.334234
_cell_volume 603.007274
_symmetry_space_group_name_H-M "P -1"
_symmetry_group_IT_number 2
_symmetry_cell_setting 'triclinic'
loop_
_space_group_symop_operation_xyz
x,y,z
-x,-y,-z
loop_
_atom_site_type_symbol
_atom_site_label
_atom_site_fract_x
_atom_site_fract_y
_atom_site_fract_z
Si Si1 0.346024 0.691688 0.867514
Si Si2 0.421892 0.288945 0.561965
Si Si3 0.718151 0.037151 0.949362
Si Si4 0.966427 0.492460 0.927748
Si Si5 0.696903 0.033890 0.540368
Si Si6 0.154102 0.264418 0.680529
Si Si7 0.720139 0.464420 0.313954
O O1 0.626822 0.621002 0.859897
O O2 0.128483 0.626464 0.856881
O O3 0.155823 0.999204 0.774693
O O4 0.500000 0.500000 0.000000
O O5 0.500000 0.500000 0.500000
O O6 0.615176 0.060959 0.599917
O O7 0.406603 0.189253 0.664970
O O8 0.116939 0.469430 0.453115
O O9 0.540490 0.333063 0.809056
O O10 0.500000 0.000000 0.000000
O O11 0.000000 0.000000 0.000000
O O12 0.843590 0.811132 0.981376
O O13 0.000000 0.500000 0.000000
O O14 0.656087 0.312918 0.419427
O O15 0.500000 0.000000 0.500000
O O16 0.018617 0.780491 0.628551
O O17 0.194584 0.353106 0.715506
#
# Coordination Sequence:
#
# PCOD9025484 Si02
#       7
#     2   2   2   2   2   2   2
#     4  10  22  40  69 105 138 183 241 294 351 425
#     4  11  24  44  69 110 142 179 243 306 365 433
#     4  12  29  51  74 110 153 197 251 307 370 444
#     4  10  22  45  70 101 139 184 241 293 353 428
#     4  11  24  46  75 105 144 189 243 301 375 445
#     4  11  24  42  72 106 141 190 241 303 366 441
#     4  11  25  46  74 103 143 198 244 299 375 448
#
# _framework density 23.216967
#
# number of rings (size 3 to 8) (size 9 to 14) (size 15 to 20)
#    0.000    1.143    2.857    2.571    4.000    4.571 
#    5.143    0.000    0.000    0.000    0.000    0.000 
#    0.000    0.000    0.000    0.000    0.000    0.000 
#
# Total GULP energy -78258.189371 kJ/mol
# GULP energy per Si atom -5589.870669 kJ/mol
# Density = 2.316412 g / cm^3
# Si number density = 23.216967 Si / 1000 Ang^3
#
#
#
# Elastic Constant Matrix: (Units=GPa)
#
#
# Indices 1 2 3 4 5 6 
#
# 1 126.8987 25.1006 26.7026 -2.4166 8.1700 2.4381
# 2 25.1006 115.3889 25.7230 -7.2483 -0.5119 -11.6066
# 3 26.7026 25.7230 113.2835 -20.5657 14.3934 -3.1553
# 4 -2.4166 -7.2483 -20.5657 31.9641 8.4961 -2.3417
# 5 8.1700 -0.5119 14.3934 8.4961 31.4951 -1.5876
# 6 2.4381 -11.6066 -3.1553 -2.3417 -1.5876 36.8920
#
#
#
# Elastic Compliance Matrix: (Units=1/GPa)
#
#
# Indices 1 2 3 4 5 6 
#
# 1 0.008664 -0.001701 -0.001585 -0.000450 -0.001497 -0.001336
# 2 -0.001701 0.009804 -0.001754 0.000843 0.001334 0.003158
# 3 -0.001585 -0.001754 0.012351 0.009567 -0.007798 0.000881
# 4 -0.000450 0.000843 0.009567 0.041917 -0.015392 0.003112
# 5 -0.001497 0.001334 -0.007798 -0.015392 0.039907 0.000592
# 6 -0.001336 0.003158 0.000881 0.003112 0.000592 0.028486
#
#
# Mechanical properties :
#
#
# Convention : Reuss Voigt Hill
#
# Bulk Modulus (GPa) = 48.21517 56.73595 52.47556
# Shear Modulus (GPa) = 31.62158 38.60657 35.11408
#
# Velocity S-wave (km/s) = 3.69454 4.08224 3.89322
# Velocity P-wave (km/s) = 6.24594 6.83447 6.54682
#
# Compressibility (1/GPa) = 0.02074036
#
# Stress axis : x y z
#
# Youngs Moduli (GPa) = 115.42521 102.00219 80.96317
#
# Poissons Ratio (x) = 0.17347 0.12831
# Poissons Ratio (y) = 0.19630 0.14198
# Poissons Ratio (z) = 0.18293 0.17888
#
# Static dielectric constant tensor:
#      x y z
#    x 2.010340 -0.017680 0.013130 
#    y -0.017680 1.802810 -0.012140 
#    z 0.013130 -0.012140 1.895020 
# 
# From -- ./inp_files/95292.got.cif
#   From: 2010.05.17/outbox.cif.g08.bks.cpg/sg2_48_cif.got.tgz:95292.got - 2010.06.03 11:33:40.
