data_PCOD9025420
_publ_section_title
;
Structure prediction by ZEFSAII (Michael W. Deem and Ramdas Pophale) SiO2 
 PCOD9025420
Probable space group: P -1
;
_chemical_formula_sum "Si O2"
_cell_formula_units_Z 12
_cell_length_a 9.544164
_cell_length_b 10.202825
_cell_length_c 7.977529
_cell_angle_alpha 50.733271
_cell_angle_beta 110.069351
_cell_angle_gamma 87.061587
_cell_volume 525.005301
_symmetry_space_group_name_H-M "P -1"
_symmetry_group_IT_number 2
_symmetry_cell_setting 'triclinic'
loop_
_space_group_symop_operation_xyz
x,y,z
-x,-y,-z
loop_
_atom_site_type_symbol
_atom_site_label
_atom_site_fract_x
_atom_site_fract_y
_atom_site_fract_z
Si Si1 0.790067 0.961273 0.355704
Si Si2 0.814499 0.086505 0.899641
Si Si3 0.545300 0.984273 0.722078
Si Si4 0.207196 0.391686 0.790247
Si Si5 0.867999 0.430442 0.736053
Si Si6 0.139078 0.686217 0.803966
O O1 0.947350 0.801230 0.618876
O O2 0.626471 0.927075 0.334232
O O3 0.787254 0.154883 0.274600
O O4 0.808425 0.983798 0.149699
O O5 0.781967 0.294506 0.755854
O O6 0.679246 0.069063 0.739669
O O7 0.000000 0.000000 0.000000
O O8 0.500000 0.000000 0.500000
O O9 0.628172 0.774298 0.979199
O O10 0.180730 0.423166 0.554054
O O11 0.196493 0.567946 0.754378
O O12 0.060653 0.345229 0.850799
O O13 0.837073 0.440393 0.916419
#
# Coordination Sequence:
#
# PCOD9025420 Si02
#       6
#     2   2   2   2   2   2
#     4  10  24  43  70 103 138 179 231 284 343 404
#     4  11  22  45  72  96 138 187 230 273 343 421
#     4  12  27  44  68 106 141 176 227 290 350 399
#     4  11  23  42  70  99 138 178 232 281 341 407
#     4  10  22  40  68  99 130 184 230 277 331 414
#     4  10  22  43  72  99 135 184 234 274 341 417
#
# _framework density 22.856912000000001
#
# number of rings (size 3 to 8) (size 9 to 14) (size 15 to 20)
#    0.000    1.333    1.667    3.000    9.333    0.667 
#    3.000    1.667    0.000    0.000    0.000    0.000 
#    0.000    0.000    0.000    0.000    0.000    0.000 
#
# Total GULP energy -67031.661317 kJ/mol
# GULP energy per Si atom -5585.971776 kJ/mol
# Density = 2.280489 g / cm^3
# Si number density = 22.856912 Si / 1000 Ang^3
#
#
#
# Elastic Constant Matrix: (Units=GPa)
#
#
# Indices 1 2 3 4 5 6 
#
# 1 80.3936 7.8200 4.2517 26.1842 1.2464 12.8061
# 2 7.8200 98.3736 12.0217 19.5699 8.0026 23.9759
# 3 4.2517 12.0217 74.2855 23.1018 -3.2486 6.2255
# 4 26.1842 19.5699 23.1018 36.6159 0.9035 2.9340
# 5 1.2464 8.0026 -3.2486 0.9035 42.2738 12.4252
# 6 12.8061 23.9759 6.2255 2.9340 12.4252 33.3495
#
#
#
# Elastic Compliance Matrix: (Units=1/GPa)
#
#
# Indices 1 2 3 4 5 6 
#
# 1 0.019369 0.003825 0.004929 -0.018231 0.002545 -0.010452
# 2 0.003825 0.014542 0.001778 -0.010718 0.000927 -0.011658
# 3 0.004929 0.001778 0.018441 -0.015675 0.003154 -0.006410
# 4 -0.018231 -0.010718 -0.015675 0.054919 -0.004014 0.014296
# 5 0.002545 0.000927 0.003154 -0.004014 0.027272 -0.012040
# 6 -0.010452 -0.011658 -0.006410 0.014296 -0.012040 0.046805
#
#
# Mechanical properties :
#
#
# Convention : Reuss Voigt Hill
#
# Bulk Modulus (GPa) = 13.62069 33.47106 23.54587
# Shear Modulus (GPa) = 27.06277 37.71179 32.38728
#
# Velocity S-wave (km/s) = 3.44467 4.06631 3.76833
# Velocity P-wave (km/s) = 4.66831 6.05987 5.40903
#
# Compressibility (1/GPa) = 0.07341774
#
# Stress axis : x y z
#
# Youngs Moduli (GPa) = 51.62821 68.76616 54.22588
#
# Poissons Ratio (x) = -0.26303 -0.26729
# Poissons Ratio (y) = -0.19748 -0.09644
# Poissons Ratio (z) = -0.25448 -0.12230
#
# Static dielectric constant tensor:
#      x y z
#    x 1.798460 -0.001630 -0.043370 
#    y -0.001630 1.937560 -0.034320 
#    z -0.043370 -0.034320 1.834920 
# 
# From -- ./inp_files/146222.got.cif
#   From: 2010.05.17/outbox.cif.g08.bks.cpg/sg2_74_cif.got.tgz:146222.got - 2010.06.03 11:33:40.
