data_PCOD9025603
_publ_section_title
;
Structure prediction by ZEFSAII (Michael W. Deem and Ramdas Pophale) SiO2 
 PCOD9025603
Probable space group: P -1
;
_chemical_formula_sum "Si O2"
_cell_formula_units_Z 12
_cell_length_a 18.037669
_cell_length_b 13.650875
_cell_length_c 7.593535
_cell_angle_alpha 46.046611
_cell_angle_beta 126.538497
_cell_angle_gamma 159.224949
_cell_volume 466.812813
_symmetry_space_group_name_H-M "P -1"
_symmetry_group_IT_number 2
_symmetry_cell_setting 'triclinic'
loop_
_space_group_symop_operation_xyz
x,y,z
-x,-y,-z
loop_
_atom_site_type_symbol
_atom_site_label
_atom_site_fract_x
_atom_site_fract_y
_atom_site_fract_z
Si Si1 0.656406 0.673214 0.840009
Si Si2 0.854519 0.368269 0.802938
Si Si3 0.135982 0.325929 0.413791
Si Si4 0.631580 0.353832 0.035437
Si Si5 0.005375 0.696748 0.290466
Si Si6 0.759577 0.828403 0.257907
O O1 0.493794 0.512466 0.662726
O O2 0.876763 0.039042 0.739049
O O3 0.500000 0.500000 0.000000
O O4 0.679639 0.547463 0.983376
O O5 0.803729 0.458044 0.669789
O O6 0.987545 0.545344 0.586978
O O7 0.620899 0.995551 0.910370
O O8 0.000000 0.500000 0.000000
O O9 0.173175 0.225933 0.670059
O O10 0.268505 0.499631 0.200765
O O11 0.890940 0.008390 0.399553
O O12 0.763717 0.409114 0.247730
O O13 0.145955 0.919978 0.037177
#
# Coordination Sequence:
#
# PCOD9025603 Si02
#       6
#     2   2   2   2   2   2
#     4  10  22  40  70 101 128 165 231 273 322 389
#     4  12  27  44  65 100 138 179 220 271 332 399
#     4  10  23  41  70  97 140 169 223 273 337 389
#     4  11  24  45  67  98 137 179 214 272 339 398
#     4  10  24  43  68  97 131 175 224 271 328 392
#     4   9  21  42  67 105 125 174 221 283 324 387
#
# _framework density 25.706232
#
# number of rings (size 3 to 8) (size 9 to 14) (size 15 to 20)
#    0.000    1.667    0.000    2.500   14.000    0.667 
#    0.000   11.667    0.000    0.000    0.000    0.000 
#    0.000    0.000    0.000    0.000    0.000    0.000 
#
# Total GULP energy -67076.696178 kJ/mol
# GULP energy per Si atom -5589.724682 kJ/mol
# Density = 2.564772 g / cm^3
# Si number density = 25.706232 Si / 1000 Ang^3
#
#
#
# Elastic Constant Matrix: (Units=GPa)
#
#
# Indices 1 2 3 4 5 6 
#
# 1 99.3809 2.4747 28.3369 -3.1730 -25.6299 2.5750
# 2 2.4747 164.2572 44.5016 -4.1036 -20.7406 26.9653
# 3 28.3369 44.5016 130.6164 4.3678 -16.4466 13.5045
# 4 -3.1730 -4.1036 4.3678 45.4091 -2.6151 4.1856
# 5 -25.6299 -20.7406 -16.4466 -2.6151 28.5425 9.2239
# 6 2.5750 26.9653 13.5045 4.1856 9.2239 37.1696
#
#
#
# Elastic Compliance Matrix: (Units=1/GPa)
#
#
# Indices 1 2 3 4 5 6 
#
# 1 0.015768 0.004179 -0.001612 0.003560 0.019423 -0.008759
# 2 0.004179 0.010072 -0.001563 0.003157 0.013966 -0.010850
# 3 -0.001612 -0.001563 0.009336 -0.000663 0.003701 -0.002990
# 4 0.003560 0.003157 -0.000663 0.023858 0.009681 -0.007385
# 5 0.019423 0.013966 0.003701 0.009681 0.076255 -0.032835
# 6 -0.008759 -0.010850 -0.002990 -0.007385 -0.032835 0.045448
#
#
# Mechanical properties :
#
#
# Convention : Reuss Voigt Hill
#
# Bulk Modulus (GPa) = 26.89537 60.54233 43.71885
# Shear Modulus (GPa) = 26.16098 43.48701 34.82400
#
# Velocity S-wave (km/s) = 3.19359 4.11748 3.68461
# Velocity P-wave (km/s) = 4.90754 6.79762 5.92839
#
# Compressibility (1/GPa) = 0.03718112
#
# Stress axis : x y z
#
# Youngs Moduli (GPa) = 63.42106 99.28465 107.11515
#
# Poissons Ratio (x) = -0.41487 0.17270
# Poissons Ratio (y) = -0.26501 0.16747
# Poissons Ratio (z) = 0.10225 0.15523
#
# Static dielectric constant tensor:
#      x y z
#    x 2.124130 -0.039470 -0.014560 
#    y -0.039470 2.018060 0.049810 
#    z -0.014560 0.049810 2.089190 
# 
# From -- ./inp_files/240821.got.cif
#   From: 2010.05.17/outbox.cif.g08.bks.cpg/sg2_121_cif.got.tgz:240821.got - 2010.06.03 11:33:40.
