data_PCOD9025796
_publ_section_title
;
Structure prediction by ZEFSAII (Michael W. Deem and Ramdas Pophale) SiO2 
 PCOD9025796
Probable space group: P -1
;
_chemical_formula_sum "Si O2"
_cell_formula_units_Z 16
_cell_length_a 9.070439
_cell_length_b 13.896342
_cell_length_c 5.737932
_cell_angle_alpha 98.775458
_cell_angle_beta 65.036730
_cell_angle_gamma 85.651641
_cell_volume 640.017638
_symmetry_space_group_name_H-M "P -1"
_symmetry_group_IT_number 2
_symmetry_cell_setting 'triclinic'
loop_
_space_group_symop_operation_xyz
x,y,z
-x,-y,-z
loop_
_atom_site_type_symbol
_atom_site_label
_atom_site_fract_x
_atom_site_fract_y
_atom_site_fract_z
Si Si1 0.155545 0.554244 0.863840
Si Si2 0.691819 0.639006 0.523744
Si Si3 0.054713 0.310569 0.303313
Si Si4 0.897426 0.119674 0.396313
Si Si5 0.400796 0.259761 0.792284
Si Si6 0.567673 0.958644 0.187270
Si Si7 0.411284 0.609647 0.047029
Si Si8 0.149625 0.933608 0.085600
O O1 0.295917 0.463700 0.661260
O O2 0.235055 0.606190 0.046663
O O3 0.093972 0.627699 0.719586
O O4 0.000000 0.500000 0.000000
O O5 0.872801 0.634926 0.510324
O O6 0.648409 0.738445 0.442764
O O7 0.537278 0.645940 0.796207
O O8 0.011764 0.205050 0.370475
O O9 0.220648 0.302528 0.032716
O O10 0.808450 0.118543 0.709671
O O11 0.830761 0.138023 0.179642
O O12 0.975134 0.003200 0.274922
O O13 0.445482 0.154621 0.832800
O O14 0.553403 0.320578 0.737264
O O15 0.500000 0.000000 0.500000
O O16 0.500000 0.000000 0.000000
O O17 0.748906 0.982649 0.039102
O O18 0.500000 0.500000 0.000000
#
# Coordination Sequence:
#
# PCOD9025796 Si02
#       8
#     2   2   2   2   2   2   2   2
#     4  12  23  44  70 109 145 185 240 309 367 449
#     4  11  24  45  72  99 147 198 241 295 385 450
#     4  11  24  41  71 108 142 189 247 312 367 457
#     4  10  22  40  72 100 138 188 233 304 375 445
#     4  11  25  47  75 102 142 201 249 301 386 455
#     4  12  28  48  74 106 150 198 260 319 371 459
#     4  11  24  46  73 104 147 193 247 302 376 457
#     4  10  22  43  67 101 138 183 241 300 378 434
#
# _framework density 24.999313000000001
#
# number of rings (size 3 to 8) (size 9 to 14) (size 15 to 20)
#    0.000    1.000    3.750    2.250    5.250    2.000 
#    2.250    0.000    0.000    0.000    0.000    0.000 
#    0.000    0.000    0.000    0.000    0.000    0.000 
#
# Total GULP energy -89189.431410 kJ/mol
# GULP energy per Si atom -5574.339463 kJ/mol
# Density = 2.494241 g / cm^3
# Si number density = 24.999313 Si / 1000 Ang^3
#
#
#
# Elastic Constant Matrix: (Units=GPa)
#
#
# Indices 1 2 3 4 5 6 
#
# 1 141.3828 40.7834 40.0065 -15.9788 21.1660 6.4697
# 2 40.7834 100.4192 28.0786 -24.1531 23.0171 11.0918
# 3 40.0065 28.0786 125.2429 -21.8607 24.2645 -3.6099
# 4 -15.9788 -24.1531 -21.8607 38.3286 1.0252 5.5416
# 5 21.1660 23.0171 24.2645 1.0252 34.8154 -9.5128
# 6 6.4697 11.0918 -3.6099 5.5416 -9.5128 38.3516
#
#
#
# Elastic Compliance Matrix: (Units=1/GPa)
#
#
# Indices 1 2 3 4 5 6 
#
# 1 0.008913 -0.001269 -0.001298 0.002697 -0.004511 -0.002767
# 2 -0.001269 0.018097 0.001429 0.013653 -0.015516 -0.010707
# 3 -0.001298 0.001429 0.010933 0.007164 -0.008625 -0.002340
# 4 0.002697 0.013653 0.007164 0.042652 -0.021044 -0.015112
# 5 -0.004511 -0.015516 -0.008625 -0.021044 0.054061 0.020887
# 6 -0.002767 -0.010707 -0.002340 -0.015112 0.020887 0.036782
#
#
# Mechanical properties :
#
#
# Convention : Reuss Voigt Hill
#
# Bulk Modulus (GPa) = 28.03709 64.97578 46.50643
# Shear Modulus (GPa) = 26.93931 39.51088 33.22509
#
# Velocity S-wave (km/s) = 3.28625 3.97984 3.64956
# Velocity P-wave (km/s) = 5.06347 6.86777 6.03345
#
# Compressibility (1/GPa) = 0.03566704
#
# Stress axis : x y z
#
# Youngs Moduli (GPa) = 112.19662 55.25795 91.46808
#
# Poissons Ratio (x) = 0.07010 0.11870
# Poissons Ratio (y) = 0.14234 -0.13067
# Poissons Ratio (z) = 0.14560 -0.07894
#
# Static dielectric constant tensor:
#      x y z
#    x 21.845350 0.904630 2.087820 
#    y 0.904630 2.012090 0.154860 
#    z 2.087820 0.154860 2.334120 
# 
# From -- ./inp_files/38483.got.cif
#   From: 2010.05.17/outbox.cif.g08.bks.cpg/sg2_20_cif.got.tgz:38483.got - 2010.06.03 11:33:40.
