data_PCOD9025265
_publ_section_title
;
Structure prediction by ZEFSAII (Michael W. Deem and Ramdas Pophale) SiO2 
 PCOD9025265
Probable space group: P -1
;
_chemical_formula_sum "Si O2"
_cell_formula_units_Z 16
_cell_length_a 10.209068
_cell_length_b 5.141596
_cell_length_c 16.892886
_cell_angle_alpha 79.112545
_cell_angle_beta 122.486679
_cell_angle_gamma 107.325749
_cell_volume 713.566901
_symmetry_space_group_name_H-M "P -1"
_symmetry_group_IT_number 2
_symmetry_cell_setting 'triclinic'
loop_
_space_group_symop_operation_xyz
x,y,z
-x,-y,-z
loop_
_atom_site_type_symbol
_atom_site_label
_atom_site_fract_x
_atom_site_fract_y
_atom_site_fract_z
Si Si1 0.088013 0.807526 0.990270
Si Si2 0.299544 0.814933 0.702623
Si Si3 0.652725 0.085411 0.809577
Si Si4 0.345995 0.686641 0.488398
Si Si5 0.186071 0.072415 0.494243
Si Si6 0.887368 0.808294 0.314181
Si Si7 0.630502 0.525153 0.661947
Si Si8 0.919734 0.957232 0.782348
O O1 0.052336 0.867994 0.884886
O O2 0.000000 0.500000 0.000000
O O3 0.264594 0.865092 0.080855
O O4 0.000000 0.000000 0.000000
O O5 0.257796 0.962884 0.601210
O O6 0.209625 0.499558 0.688113
O O7 0.489178 0.857217 0.770812
O O8 0.226921 0.980132 0.736861
O O9 0.604154 0.349192 0.742845
O O10 0.789476 0.039621 0.794537
O O11 0.286217 0.956845 0.466299
O O12 0.991916 0.084331 0.579391
O O13 0.386947 0.658781 0.411759
O O14 0.218556 0.399427 0.483471
O O15 0.991702 0.831824 0.266429
O O16 0.507201 0.316437 0.405565
O O17 0.810139 0.703614 0.714975
#
# Coordination Sequence:
#
# PCOD9025265 Si02
#       8
#     2   2   2   2   2   2   2   2
#     4  10  22  40  68 104 128 160 217 277 328 382
#     4  12  27  44  65  96 135 179 219 265 327 389
#     4  11  24  43  72  97 131 171 221 273 328 389
#     4  11  24  35  62  99 129 170 214 276 312 385
#     4  12  22  44  60  87 134 176 224 253 323 380
#     4  12  27  44  65  96 135 179 219 265 327 389
#     4  11  22  37  64  96 136 163 220 267 334 370
#     4  11  24  43  72  97 131 171 221 273 328 389
#
# _framework density 22.422561999999999
#
# number of rings (size 3 to 8) (size 9 to 14) (size 15 to 20)
#    0.000    0.750    3.750    3.750    3.500    1.000 
#    0.000    1.250    0.000    0.000    0.000    0.000 
#    0.000    0.000    0.000    0.000    0.000    0.000 
#
# Total GULP energy -89524.111499 kJ/mol
# GULP energy per Si atom -5595.256969 kJ/mol
# Density = 2.237153 g / cm^3
# Si number density = 22.422562 Si / 1000 Ang^3
#
#
#
# Elastic Constant Matrix: (Units=GPa)
#
#
# Indices 1 2 3 4 5 6 
#
# 1 76.8982 22.3321 32.6905 13.9892 15.6657 3.3745
# 2 22.3321 121.4154 36.2491 19.5402 13.0820 27.6626
# 3 32.6905 36.2491 183.9589 2.8404 23.0111 24.9015
# 4 13.9892 19.5402 2.8404 24.9034 6.0821 6.1658
# 5 15.6657 13.0820 23.0111 6.0821 26.1973 7.8395
# 6 3.3745 27.6626 24.9015 6.1658 7.8395 47.1841
#
#
#
# Elastic Compliance Matrix: (Units=1/GPa)
#
#
# Indices 1 2 3 4 5 6 
#
# 1 0.016846 -0.001161 -0.002181 -0.007340 -0.006682 0.002696
# 2 -0.001161 0.011006 -0.001101 -0.006451 -0.000902 -0.004796
# 3 -0.002181 -0.001101 0.006847 0.002929 -0.004088 -0.002516
# 4 -0.007340 -0.006451 0.002929 0.051190 -0.005968 -0.002937
# 5 -0.006682 -0.000902 -0.004088 -0.005968 0.048842 -0.004171
# 6 0.002696 -0.004796 -0.002516 -0.002937 -0.004171 0.026217
#
#
# Mechanical properties :
#
#
# Convention : Reuss Voigt Hill
#
# Bulk Modulus (GPa) = 38.73663 62.75731 50.74697
# Shear Modulus (GPa) = 28.02083 39.05704 33.53893
#
# Velocity S-wave (km/s) = 3.53890 4.17809 3.87171
# Velocity P-wave (km/s) = 5.83195 7.16411 6.53208
#
# Compressibility (1/GPa) = 0.02581536
#
# Stress axis : x y z
#
# Youngs Moduli (GPa) = 59.35987 90.85640 146.04699
#
# Poissons Ratio (x) = 0.10544 0.31850
# Poissons Ratio (y) = 0.06889 0.16078
# Poissons Ratio (z) = 0.12945 0.10002
#
# Static dielectric constant tensor:
#      x y z
#    x 1.951960 -0.029300 0.004380 
#    y -0.029300 1.822410 0.011000 
#    z 0.004380 0.011000 1.831960 
# 
# From -- ./inp_files/82188.got.cif
#   From: 2010.05.17/outbox.cif.g08.bks.cpg/sg2_42_cif.got.tgz:82188.got - 2010.06.03 11:33:40.
