data_PCOD9025768
_publ_section_title
;
Structure prediction by ZEFSAII (Michael W. Deem and Ramdas Pophale) SiO2 
 PCOD9025768
Probable space group: P -1
;
_chemical_formula_sum "Si O2"
_cell_formula_units_Z 16
_cell_length_a 11.125253
_cell_length_b 8.230649
_cell_length_c 10.077842
_cell_angle_alpha 103.609946
_cell_angle_beta 96.115392
_cell_angle_gamma 133.661738
_cell_volume 599.480857
_symmetry_space_group_name_H-M "P -1"
_symmetry_group_IT_number 2
_symmetry_cell_setting 'triclinic'
loop_
_space_group_symop_operation_xyz
x,y,z
-x,-y,-z
loop_
_atom_site_type_symbol
_atom_site_label
_atom_site_fract_x
_atom_site_fract_y
_atom_site_fract_z
Si Si1 0.043222 0.984562 0.831851
Si Si2 0.623763 0.294187 0.331879
Si Si3 0.358698 0.581068 0.359182
Si Si4 0.816252 0.270798 0.679610
Si Si5 0.184651 0.791970 0.751233
Si Si6 0.373125 0.482064 0.074254
Si Si7 0.293065 0.794083 0.063400
Si Si8 0.010379 0.169735 0.626168
O O1 0.028115 0.133049 0.771760
O O2 0.170349 0.974251 0.777218
O O3 0.176965 0.186300 0.002879
O O4 0.846872 0.697829 0.738303
O O5 0.583540 0.360307 0.470414
O O6 0.695507 0.177022 0.336924
O O7 0.801398 0.552315 0.336270
O O8 0.453984 0.086350 0.179623
O O9 0.345008 0.765490 0.362243
O O10 0.453451 0.581693 0.251189
O O11 0.844561 0.309302 0.850600
O O12 0.981865 0.520512 0.668408
O O13 0.832073 0.101279 0.593347
O O14 0.243223 0.795689 0.908456
O O15 0.344450 0.647260 0.052710
O O16 0.500000 0.500000 0.000000
O O17 0.000000 0.000000 0.500000
#
# Coordination Sequence:
#
# PCOD9025768 Si02
#       8
#     2   2   2   2   2   2   2   2
#     4  11  23  42  70  98 130 174 227 278 327 388
#     4  11  23  42  67  97 137 174 224 273 332 406
#     4  10  23  43  67 100 133 178 225 266 332 400
#     4   9  22  39  67  94 128 177 224 269 324 402
#     4  10  22  40  71  96 130 182 224 270 325 403
#     4  11  24  43  67 102 137 173 217 278 337 395
#     4  11  23  45  67  95 135 180 224 271 332 401
#     4  11  23  42  65  96 136 170 217 279 333 385
#
# _framework density 26.68976
#
# number of rings (size 3 to 8) (size 9 to 14) (size 15 to 20)
#    0.000    1.500    1.250    3.375    1.750    7.500 
#    2.250    0.625    0.000    0.000    0.000    0.000 
#    0.000    0.000    0.000    0.000    0.000    0.000 
#
# Total GULP energy -89305.362825 kJ/mol
# GULP energy per Si atom -5581.585177 kJ/mol
# Density = 2.662901 g / cm^3
# Si number density = 26.689760 Si / 1000 Ang^3
#
#
#
# Elastic Constant Matrix: (Units=GPa)
#
#
# Indices 1 2 3 4 5 6 
#
# 1 57.4082 41.5553 34.9397 6.7489 -24.9632 1.5124
# 2 41.5553 80.8766 25.3171 25.7746 -9.0173 20.0506
# 3 34.9397 25.3171 152.5284 22.2908 -21.7831 9.5092
# 4 6.7489 25.7746 22.2908 43.1094 2.3555 5.1486
# 5 -24.9632 -9.0173 -21.7831 2.3555 38.2886 0.4174
# 6 1.5124 20.0506 9.5092 5.1486 0.4174 36.6211
#
#
#
# Elastic Compliance Matrix: (Units=1/GPa)
#
#
# Indices 1 2 3 4 5 6 
#
# 1 0.047465 -0.026035 -0.005544 0.008383 0.021011 0.012316
# 2 -0.026035 0.032617 0.002686 -0.014615 -0.006698 -0.015349
# 3 -0.005544 0.002686 0.008603 -0.004975 0.002249 -0.002802
# 4 0.008383 -0.014615 -0.004975 0.032831 -0.002874 0.004365
# 5 0.021011 -0.006698 0.002249 -0.002874 0.039671 0.002167
# 6 0.012316 -0.015349 -0.002802 0.004365 0.002167 0.035291
#
#
# Mechanical properties :
#
#
# Convention : Reuss Voigt Hill
#
# Bulk Modulus (GPa) = 32.36202 54.93748 43.64975
# Shear Modulus (GPa) = 18.89910 36.20389 27.55149
#
# Velocity S-wave (km/s) = 2.66391 3.68703 3.21641
# Velocity P-wave (km/s) = 4.64903 6.22527 5.49397
#
# Compressibility (1/GPa) = 0.03090042
#
# Stress axis : x y z
#
# Youngs Moduli (GPa) = 21.06827 30.65897 116.23642
#
# Poissons Ratio (x) = 0.79820 0.64438
# Poissons Ratio (y) = 0.54851 -0.31224
# Poissons Ratio (z) = 0.11680 -0.08236
#
# Static dielectric constant tensor:
#      x y z
#    x 2.123910 0.022550 0.028840 
#    y 0.022550 2.177510 -0.001190 
#    z 0.028840 -0.001190 2.162130 
# 
# From -- ./inp_files/419727.got.cif
#   From: 2010.05.17/outbox.cif.g08.bks.cpg/sg2_210_cif.got.tgz:419727.got - 2010.06.03 11:33:40.
