data_PCOD9025573
_publ_section_title
;
Structure prediction by ZEFSAII (Michael W. Deem and Ramdas Pophale) SiO2 
 PCOD9025573
Probable space group: P -1
;
_chemical_formula_sum "Si O2"
_cell_formula_units_Z 15
_cell_length_a 13.056973
_cell_length_b 19.164858
_cell_length_c 9.340412
_cell_angle_alpha 37.649442
_cell_angle_beta 47.094655
_cell_angle_gamma 29.383010
_cell_volume 700.164426
_symmetry_space_group_name_H-M "P -1"
_symmetry_group_IT_number 2
_symmetry_cell_setting 'triclinic'
loop_
_space_group_symop_operation_xyz
x,y,z
-x,-y,-z
loop_
_atom_site_type_symbol
_atom_site_label
_atom_site_fract_x
_atom_site_fract_y
_atom_site_fract_z
Si Si1 0.356373 0.553572 0.249183
Si Si2 0.556125 0.084027 0.489986
Si Si3 0.828009 0.443617 0.307127
Si Si4 0.000000 0.000000 0.500000
Si Si5 0.171297 0.663582 0.824825
Si Si6 0.093017 0.943174 0.839281
Si Si7 0.705669 0.762588 0.801394
Si Si8 0.792983 0.555673 0.638282
O O1 0.298130 0.552127 0.465930
O O2 0.603694 0.418151 0.216850
O O3 0.267305 0.504819 0.318927
O O4 0.243489 0.740789 0.017855
O O5 0.761107 0.034479 0.351181
O O6 0.433501 0.159508 0.333729
O O7 0.402831 0.240879 0.489609
O O8 0.613983 0.918172 0.736246
O O9 0.841096 0.358355 0.293212
O O10 0.062577 0.336339 0.303159
O O11 0.718689 0.630929 0.073693
O O12 0.992386 0.143713 0.279703
O O13 0.033330 0.982878 0.312286
O O14 0.163892 0.544386 0.098582
O O15 0.000000 0.000000 0.000000
O O16 0.000000 0.500000 0.500000
#
# Coordination Sequence:
#
# PCOD9025573 Si02
#       8
#     2   2   2   1   2   2   2   2
#     4  12  24  44  71  99 138 187 234 283 366 431
#     4  11  22  45  68  99 140 194 230 293 353 433
#     4  11  23  42  70 106 136 183 232 294 356 427
#     4  12  26  44  70 106 144 178 240 306 350 414
#     4  12  24  47  70  98 144 182 233 300 355 419
#     4  12  25  45  74 106 140 190 242 295 361 430
#     4  10  22  40  69  98 146 174 235 286 358 420
#     4  12  25  44  70  97 137 190 232 282 362 425
#
# _framework density 21.423539999999999
#
# number of rings (size 3 to 8) (size 9 to 14) (size 15 to 20)
#    0.000    0.533    4.000    4.800    1.867    2.133 
#    2.400    0.667    0.000    0.000    0.000    0.000 
#    0.000    0.000    0.000    0.000    0.000    0.000 
#
# Total GULP energy -83574.720108 kJ/mol
# GULP energy per Si atom -5571.648007 kJ/mol
# Density = 2.137478 g / cm^3
# Si number density = 21.423540 Si / 1000 Ang^3
#
#
#
# Elastic Constant Matrix: (Units=GPa)
#
#
# Indices 1 2 3 4 5 6 
#
# 1 95.9013 32.9682 24.0806 -2.8520 -7.0794 27.2256
# 2 32.9682 45.1784 26.1264 -5.3187 0.9067 21.1430
# 3 24.0806 26.1264 80.8617 -6.5444 -12.2037 9.3329
# 4 -2.8520 -5.3187 -6.5444 44.4992 17.1577 -9.7901
# 5 -7.0794 0.9067 -12.2037 17.1577 33.9711 -2.4096
# 6 27.2256 21.1430 9.3329 -9.7901 -2.4096 41.3187
#
#
#
# Elastic Compliance Matrix: (Units=1/GPa)
#
#
# Indices 1 2 3 4 5 6 
#
# 1 0.015511 -0.008404 -0.000786 -0.003169 0.004332 -0.006241
# 2 -0.008404 0.040779 -0.010316 0.003599 -0.009263 -0.012687
# 3 -0.000786 -0.010316 0.016616 -0.000941 0.006713 0.002212
# 4 -0.003169 0.003599 -0.000941 0.030138 -0.015843 0.006677
# 5 0.004332 -0.009263 0.006713 -0.015843 0.040929 -0.000998
# 6 -0.006241 -0.012687 0.002212 0.006677 -0.000998 0.035831
#
#
# Mechanical properties :
#
#
# Convention : Reuss Voigt Hill
#
# Bulk Modulus (GPa) = 29.50293 43.14353 36.32323
# Shear Modulus (GPa) = 21.72838 33.20887 27.46863
#
# Velocity S-wave (km/s) = 3.18815 3.94142 3.58463
# Velocity P-wave (km/s) = 5.23006 6.39493 5.84160
#
# Compressibility (1/GPa) = 0.03389494
#
# Stress axis : x y z
#
# Youngs Moduli (GPa) = 64.46995 24.52224 60.18466
#
# Poissons Ratio (x) = 0.20607 0.04733
# Poissons Ratio (y) = 0.54178 0.62084
# Poissons Ratio (z) = 0.05070 0.25296
#
# Static dielectric constant tensor:
#      x y z
#    x 1.791600 0.015150 0.058990 
#    y 0.015150 1.799260 -0.027610 
#    z 0.058990 -0.027610 1.774070 
# 
# From -- ./inp_files/278776.got.cif
#   From: 2010.05.17/outbox.cif.g08.bks.cpg/sg2_140_cif.got.tgz:278776.got - 2010.06.03 11:33:40.
