data_PCOD9025478
_publ_section_title
;
Structure prediction by ZEFSAII (Michael W. Deem and Ramdas Pophale) SiO2 
 PCOD9025478
Probable space group: P -1
;
_chemical_formula_sum "Si O2"
_cell_formula_units_Z 14
_cell_length_a 9.051583
_cell_length_b 10.590974
_cell_length_c 8.034341
_cell_angle_alpha 59.523207
_cell_angle_beta 107.011212
_cell_angle_gamma 74.715188
_cell_volume 549.740761
_symmetry_space_group_name_H-M "P -1"
_symmetry_group_IT_number 2
_symmetry_cell_setting 'triclinic'
loop_
_space_group_symop_operation_xyz
x,y,z
-x,-y,-z
loop_
_atom_site_type_symbol
_atom_site_label
_atom_site_fract_x
_atom_site_fract_y
_atom_site_fract_z
Si Si1 0.180986 0.987505 0.505126
Si Si2 0.208502 0.894137 0.194494
Si Si3 0.428901 0.278383 0.693467
Si Si4 0.975391 0.359915 0.187907
Si Si5 0.499677 0.660755 0.971928
Si Si6 0.803252 0.396250 0.784280
Si Si7 0.830266 0.636888 0.177648
O O1 0.211647 0.930473 0.363095
O O2 0.334411 0.841306 0.758594
O O3 0.000000 0.000000 0.500000
O O4 0.146939 0.176665 0.379172
O O5 0.385172 0.889916 0.176468
O O6 0.256070 0.706606 0.284354
O O7 0.000000 0.000000 0.000000
O O8 0.333820 0.406537 0.424355
O O9 0.264406 0.278401 0.737265
O O10 0.474472 0.367164 0.802711
O O11 0.911695 0.434672 0.302014
O O12 0.837344 0.345839 0.024180
O O13 0.000000 0.500000 0.000000
O O14 0.500000 0.500000 0.000000
O O15 0.666055 0.690518 0.960254
O O16 0.004221 0.339021 0.822940
#
# Coordination Sequence:
#
# PCOD9025478 Si02
#       7
#     2   2   2   2   2   2   2
#     4  12  25  44  72 103 141 189 243 294 357 431
#     4  12  25  42  68 103 144 178 233 304 353 417
#     4  10  24  41  70 102 134 191 230 295 352 430
#     4  10  23  44  71  98 139 191 232 294 354 423
#     4  10  22  40  69 104 141 183 242 283 357 428
#     4  11  22  44  68 103 142 179 242 284 368 413
#     4   9  23  43  71 100 136 192 232 288 353 435
#
# _framework density 25.466548
#
# number of rings (size 3 to 8) (size 9 to 14) (size 15 to 20)
#    0.857    0.571    1.429    3.429    6.000    0.000 
#    0.000    6.429    0.000    0.000    0.000    0.000 
#    0.000    0.000    0.000    0.000    0.000    0.000 
#
# Total GULP energy -78030.748856 kJ/mol
# GULP energy per Si atom -5573.624918 kJ/mol
# Density = 2.540858 g / cm^3
# Si number density = 25.466548 Si / 1000 Ang^3
#
#
#
# Elastic Constant Matrix: (Units=GPa)
#
#
# Indices 1 2 3 4 5 6 
#
# 1 111.8627 54.4674 46.9157 -9.5187 21.2696 -38.0029
# 2 54.4674 88.0088 10.7267 -6.2680 -13.4931 -19.4664
# 3 46.9157 10.7267 127.5985 -32.2500 16.8314 -1.2161
# 4 -9.5187 -6.2680 -32.2500 42.4409 -6.4384 -2.9079
# 5 21.2696 -13.4931 16.8314 -6.4384 36.1825 -5.1665
# 6 -38.0029 -19.4664 -1.2161 -2.9079 -5.1665 53.6168
#
#
#
# Elastic Compliance Matrix: (Units=1/GPa)
#
#
# Indices 1 2 3 4 5 6 
#
# 1 0.026141 -0.015857 -0.006795 -0.003514 -0.017207 0.010769
# 2 -0.015857 0.023758 0.002662 0.004616 0.017679 -0.000599
# 3 -0.006795 0.002662 0.012018 0.007840 0.000346 -0.003118
# 4 -0.003514 0.004616 0.007840 0.030396 0.005773 0.001568
# 5 -0.017207 0.017679 0.000346 0.005773 0.045052 -0.001116
# 6 0.010769 -0.000599 -0.003118 0.001568 -0.001116 0.025973
#
#
# Mechanical properties :
#
#
# Convention : Reuss Voigt Hill
#
# Bulk Modulus (GPa) = 45.58176 61.29886 53.44031
# Shear Modulus (GPa) = 23.73825 40.80539 32.27182
#
# Velocity S-wave (km/s) = 3.05640 4.00723 3.56367
# Velocity P-wave (km/s) = 5.51298 6.74783 6.16142
#
# Compressibility (1/GPa) = 0.02193860
#
# Stress axis : x y z
#
# Youngs Moduli (GPa) = 38.25368 42.09054 83.21075
#
# Poissons Ratio (x) = 0.66742 0.56538
# Poissons Ratio (y) = 0.60658 -0.22151
# Poissons Ratio (z) = 0.25991 -0.11205
#
# Static dielectric constant tensor:
#      x y z
#    x 2.268830 -0.003110 0.040910 
#    y -0.003110 2.043510 0.015490 
#    z 0.040910 0.015490 2.291400 
# 
# From -- ./inp_files/257607.got.cif
#   From: 2010.05.17/outbox.cif.g08.bks.cpg/sg2_129_cif.got.tgz:257607.got - 2010.06.03 11:33:40.
