data_PCOD9025030
_publ_section_title
;
Structure prediction by ZEFSAII (Michael W. Deem and Ramdas Pophale) SiO2 
 PCOD9025030
Probable space group: P -1
;
_chemical_formula_sum "Si O2"
_cell_formula_units_Z 14
_cell_length_a 10.582835
_cell_length_b 11.838849
_cell_length_c 12.453180
_cell_angle_alpha 145.884530
_cell_angle_beta 126.766262
_cell_angle_gamma 38.705154
_cell_volume 542.151671
_symmetry_space_group_name_H-M "P -1"
_symmetry_group_IT_number 2
_symmetry_cell_setting 'triclinic'
loop_
_space_group_symop_operation_xyz
x,y,z
-x,-y,-z
loop_
_atom_site_type_symbol
_atom_site_label
_atom_site_fract_x
_atom_site_fract_y
_atom_site_fract_z
Si Si1 0.131504 0.336177 0.541902
Si Si2 0.056317 0.796628 0.961215
Si Si3 0.621093 0.242950 0.784034
Si Si4 0.777434 0.748893 0.127076
Si Si5 0.397794 0.500995 0.230292
Si Si6 0.958557 0.236009 0.565172
Si Si7 0.768182 0.050730 0.189474
O O1 0.189857 0.504433 0.755654
O O2 0.000000 0.500000 0.500000
O O3 0.975107 0.357920 0.562888
O O4 0.327680 0.033923 0.385616
O O5 0.158311 0.852023 0.144472
O O6 0.000000 0.000000 0.000000
O O7 0.872165 0.860523 0.989785
O O8 0.590386 0.322368 0.706384
O O9 0.500000 0.500000 0.000000
O O10 0.841192 0.837693 0.329027
O O11 0.670680 0.965082 0.150348
O O12 0.642983 0.656590 0.995303
O O13 0.000000 0.500000 0.000000
O O14 0.221115 0.618554 0.322674
O O15 0.603037 0.325907 0.266296
O O16 0.917041 0.048629 0.346150
#
# Coordination Sequence:
#
# PCOD9025030 Si02
#       7
#     2   2   2   2   2   2   2
#     4  12  26  46  78 108 143 204 256 304 381 452
#     4  12  23  46  74 105 145 201 256 306 373 456
#     4  12  27  49  73 108 153 196 252 315 374 454
#     4  10  22  40  67 101 143 189 245 301 370 441
#     4  11  25  44  69 112 152 193 244 319 379 442
#     4  11  23  44  73 107 146 192 254 307 375 451
#     4  12  23  42  71 107 153 193 243 315 379 447
#
# _framework density 25.823031
#
# number of rings (size 3 to 8) (size 9 to 14) (size 15 to 20)
#    0.000    0.571    2.857    6.429    2.000    0.571 
#    0.000    0.000    0.000    0.000    0.000    0.000 
#    0.000    0.000    0.000    0.000    0.000    0.000 
#
# Total GULP energy -78063.698590 kJ/mol
# GULP energy per Si atom -5575.978471 kJ/mol
# Density = 2.576426 g / cm^3
# Si number density = 25.823031 Si / 1000 Ang^3
#
#
#
# Elastic Constant Matrix: (Units=GPa)
#
#
# Indices 1 2 3 4 5 6 
#
# 1 68.9082 17.4289 32.3838 -4.2677 -10.9436 32.8982
# 2 17.4289 145.6470 46.1873 -4.0330 -9.7618 46.0285
# 3 32.3838 46.1873 173.8992 18.0071 -3.7749 2.5876
# 4 -4.2677 -4.0330 18.0071 37.3093 3.0732 6.3815
# 5 -10.9436 -9.7618 -3.7749 3.0732 49.0492 -5.8161
# 6 32.8982 46.0285 2.5876 6.3815 -5.8161 48.6519
#
#
#
# Elastic Compliance Matrix: (Units=1/GPa)
#
#
# Indices 1 2 3 4 5 6 
#
# 1 0.035032 0.010917 -0.010461 0.015902 0.004030 -0.035065
# 2 0.010917 0.015173 -0.006711 0.009835 0.001658 -0.022471
# 3 -0.010461 -0.006711 0.010210 -0.009193 -0.000647 0.014008
# 4 0.015902 0.009835 -0.009193 0.038385 -0.000532 -0.024667
# 5 0.004030 0.001658 -0.000647 -0.000532 0.021407 -0.001630
# 6 -0.035065 -0.022471 0.014008 -0.024667 -0.001630 0.067820
#
#
# Mechanical properties :
#
#
# Convention : Reuss Voigt Hill
#
# Bulk Modulus (GPa) = 20.87415 64.49496 42.68456
# Shear Modulus (GPa) = 23.09417 46.49903 34.79660
#
# Velocity S-wave (km/s) = 2.99377 4.24805 3.67482
# Velocity P-wave (km/s) = 4.47787 7.00651 5.87973
#
# Compressibility (1/GPa) = 0.04790614
#
# Stress axis : x y z
#
# Youngs Moduli (GPa) = 28.54506 65.90778 97.94072
#
# Poissons Ratio (x) = -0.71951 1.02453
# Poissons Ratio (y) = -0.31162 0.65726
# Poissons Ratio (z) = 0.29860 0.44230
#
# Static dielectric constant tensor:
#      x y z
#    x 0.277370 -0.154160 0.259410 
#    y -0.154160 2.065510 0.066910 
#    z 0.259410 0.066910 2.025700 
# 
# From -- ./inp_files/426988.got.cif
#   From: 2010.05.17/outbox.cif.g08.bks.cpg/sg2_214_cif.got.tgz:426988.got - 2010.06.03 11:33:40.
