data_PCOD9025786
_publ_section_title
;
Structure prediction by ZEFSAII (Michael W. Deem and Ramdas Pophale) SiO2 
 PCOD9025786
Probable space group: P -1
;
_chemical_formula_sum "Si O2"
_cell_formula_units_Z 10
_cell_length_a 9.866146
_cell_length_b 9.318949
_cell_length_c 5.026242
_cell_angle_alpha 87.371362
_cell_angle_beta 112.470243
_cell_angle_gamma 77.296283
_cell_volume 412.235598
_symmetry_space_group_name_H-M "P -1"
_symmetry_group_IT_number 2
_symmetry_cell_setting 'triclinic'
loop_
_space_group_symop_operation_xyz
x,y,z
-x,-y,-z
loop_
_atom_site_type_symbol
_atom_site_label
_atom_site_fract_x
_atom_site_fract_y
_atom_site_fract_z
Si Si1 0.175380 0.010421 0.627183
Si Si2 0.375221 0.918042 0.308374
Si Si3 0.168943 0.336910 0.387045
Si Si4 0.447458 0.604036 0.203464
Si Si5 0.186562 0.504218 0.886478
O O1 0.276992 0.897311 0.496855
O O2 0.183171 0.170198 0.501714
O O3 0.257537 0.992503 0.978942
O O4 0.000000 0.000000 0.500000
O O5 0.470298 0.764500 0.261517
O O6 0.500000 0.000000 0.500000
O O7 0.990360 0.418529 0.250934
O O8 0.223397 0.367417 0.133575
O O9 0.500000 0.500000 0.500000
O O10 0.765418 0.567492 0.357677
O O11 0.500000 0.500000 0.000000
O O12 0.265829 0.628522 0.033486
#
# Coordination Sequence:
#
# PCOD9025786 Si02
#       5
#     2   2   2   2   2
#     4  12  26  47  78 106 149 196 252 300 380 438
#     4  12  29  49  74 112 153 193 248 311 371 450
#     4  10  22  40  71  99 135 180 229 303 350 426
#     4  12  27  45  73  99 145 193 243 289 359 437
#     4  10  22  41  65 103 136 174 239 290 354 415
#
# _framework density 24.257975999999999
#
# number of rings (size 3 to 8) (size 9 to 14) (size 15 to 20)
#    0.000    0.800    0.000    6.000    8.400    4.800 
#    0.000    0.000    0.000    0.000    0.000    0.000 
#    0.000    0.000    0.000    0.000    0.000    0.000 
#
# Total GULP energy -55946.028112 kJ/mol
# GULP energy per Si atom -5594.602811 kJ/mol
# Density = 2.420276 g / cm^3
# Si number density = 24.257976 Si / 1000 Ang^3
#
#
#
# Elastic Constant Matrix: (Units=GPa)
#
#
# Indices 1 2 3 4 5 6 
#
# 1 104.7584 27.8530 42.8031 29.3753 5.2912 -6.2798
# 2 27.8530 150.6699 49.1463 20.8900 13.0973 8.8224
# 3 42.8031 49.1463 167.7604 30.8504 -2.3473 1.9891
# 4 29.3753 20.8900 30.8504 43.9239 3.6873 0.0101
# 5 5.2912 13.0973 -2.3473 3.6873 46.0493 13.9239
# 6 -6.2798 8.8224 1.9891 0.0101 13.9239 37.9613
#
#
#
# Elastic Compliance Matrix: (Units=1/GPa)
#
#
# Indices 1 2 3 4 5 6 
#
# 1 0.012638 -0.000855 -0.001814 -0.006632 -0.001678 0.003002
# 2 -0.000855 0.007836 -0.001760 -0.001776 -0.001701 -0.001246
# 3 -0.001814 -0.001760 0.007603 -0.003428 0.001640 -0.000890
# 4 -0.006632 -0.001776 -0.003428 0.030567 -0.001350 -0.000018
# 5 -0.001678 -0.001701 0.001640 -0.001350 0.025391 -0.009281
# 6 0.003002 -0.001246 -0.000890 -0.000018 -0.009281 0.030580
#
#
# Mechanical properties :
#
#
# Convention : Reuss Voigt Hill
#
# Bulk Modulus (GPa) = 52.02892 73.64373 62.83633
# Shear Modulus (GPa) = 38.49737 45.81265 42.15501
#
# Velocity S-wave (km/s) = 3.98804 4.35047 4.17319
# Velocity P-wave (km/s) = 6.53457 7.46056 7.01287
#
# Compressibility (1/GPa) = 0.01922008
#
# Stress axis : x y z
#
# Youngs Moduli (GPa) = 79.12357 127.61235 131.52644
#
# Poissons Ratio (x) = 0.10914 0.23854
# Poissons Ratio (y) = 0.06767 0.23148
# Poissons Ratio (z) = 0.14350 0.22459
#
# Static dielectric constant tensor:
#      x y z
#    x 2.011120 0.020270 0.046580 
#    y 0.020270 1.930950 0.012930 
#    z 0.046580 0.012930 1.914620 
# 
# From -- ./inp_files/18180.got.cif
#   From: 2010.05.17/outbox.cif.g08.bks.cpg/sg2_10_cif.got.tgz:18180.got - 2010.06.03 11:33:40.
