data_PCOD9025041
_publ_section_title
;
Structure prediction by ZEFSAII (Michael W. Deem and Ramdas Pophale) SiO2 
 PCOD9025041
Probable space group: P -1
;
_chemical_formula_sum "Si O2"
_cell_formula_units_Z 15
_cell_length_a 12.375308
_cell_length_b 21.297263
_cell_length_c 5.149097
_cell_angle_alpha 72.493677
_cell_angle_beta 73.717134
_cell_angle_gamma 25.908197
_cell_volume 565.337029
_symmetry_space_group_name_H-M "P -1"
_symmetry_group_IT_number 2
_symmetry_cell_setting 'triclinic'
loop_
_space_group_symop_operation_xyz
x,y,z
-x,-y,-z
loop_
_atom_site_type_symbol
_atom_site_label
_atom_site_fract_x
_atom_site_fract_y
_atom_site_fract_z
Si Si1 0.528526 0.826170 0.359983
Si Si2 0.034763 0.435951 0.302119
Si Si3 0.825965 0.898136 0.494982
Si Si4 0.728570 0.173948 0.475290
Si Si5 0.744625 0.273256 0.934605
Si Si6 0.500000 0.500000 0.000000
Si Si7 0.373329 0.464050 0.577906
Si Si8 0.368311 0.118979 0.139627
O O1 0.689834 0.734152 0.624902
O O2 0.451172 0.793096 0.382466
O O3 0.272363 0.999277 0.351302
O O4 0.689099 0.785712 0.102795
O O5 0.000000 0.500000 0.500000
O O6 0.849993 0.470616 0.362291
O O7 0.000000 0.500000 0.000000
O O8 0.854545 0.807826 0.680923
O O9 0.032484 0.824909 0.277093
O O10 0.581702 0.020247 0.326803
O O11 0.617624 0.288569 0.595731
O O12 0.712987 0.218471 0.151175
O O13 0.000000 0.000000 0.500000
O O14 0.466954 0.445926 0.815020
O O15 0.756657 0.320409 0.100140
O O16 0.353571 0.528502 0.292807
O O17 0.500000 0.000000 0.000000
#
# Coordination Sequence:
#
# PCOD9025041 Si02
#       8
#     2   2   2   2   2   1   2   2
#     4  11  23  41  67  99 137 180 229 293 358 425
#     4  12  28  48  72 104 146 195 244 299 357 437
#     4  10  22  40  67 103 134 178 230 293 359 431
#     4  11  23  40  66 100 136 175 224 290 353 427
#     4  11  24  44  68  99 138 181 237 293 361 430
#     4  10  26  46  66  98 138 186 238 296 358 428
#     4  11  25  46  71  98 140 187 241 291 362 434
#     4   9  21  40  62  97 138 174 228 287 356 426
#
# _framework density 26.532848000000001
#
# number of rings (size 3 to 8) (size 9 to 14) (size 15 to 20)
#    0.000    1.333    1.333    2.800    3.733   11.733 
#    0.000    1.333    0.000    0.000    0.000    0.000 
#    0.000    0.000    0.000    0.000    0.000    0.000 
#
# Total GULP energy -83691.131644 kJ/mol
# GULP energy per Si atom -5579.408776 kJ/mol
# Density = 2.647246 g / cm^3
# Si number density = 26.532848 Si / 1000 Ang^3
#
#
#
# Elastic Constant Matrix: (Units=GPa)
#
#
# Indices 1 2 3 4 5 6 
#
# 1 144.6121 9.6862 44.3063 -13.5585 -45.8637 -2.9340
# 2 9.6862 68.3820 -15.3091 -18.0239 -8.3931 18.9855
# 3 44.3063 -15.3091 177.8455 -31.9471 -42.7930 16.6603
# 4 -13.5585 -18.0239 -31.9471 42.7905 11.2976 -3.2083
# 5 -45.8637 -8.3931 -42.7930 11.2976 53.2792 -3.8766
# 6 -2.9340 18.9855 16.6603 -3.2083 -3.8766 32.3861
#
#
#
# Elastic Compliance Matrix: (Units=1/GPa)
#
#
# Indices 1 2 3 4 5 6 
#
# 1 0.009823 -0.001686 -0.001115 -0.000179 0.007576 0.003341
# 2 -0.001686 0.025522 0.007788 0.013496 0.004710 -0.017220
# 3 -0.001115 0.007788 0.010358 0.008393 0.006194 -0.008422
# 4 -0.000179 0.013496 0.008393 0.034402 0.000782 -0.008744
# 5 0.007576 0.004710 0.006194 0.000782 0.030733 -0.001505
# 6 0.003341 -0.017220 -0.008422 -0.008744 -0.001505 0.044561
#
#
# Mechanical properties :
#
#
# Convention : Reuss Voigt Hill
#
# Bulk Modulus (GPa) = 17.96049 52.02293 34.99171
# Shear Modulus (GPa) = 30.49087 49.16824 39.82955
#
# Velocity S-wave (km/s) = 3.39363 4.30944 3.87866
# Velocity P-wave (km/s) = 4.70526 6.66418 5.76848
#
# Compressibility (1/GPa) = 0.05567778
#
# Stress axis : x y z
#
# Youngs Moduli (GPa) = 101.79930 39.18171 96.54364
#
# Poissons Ratio (x) = 0.06605 0.10760
# Poissons Ratio (y) = 0.17162 -0.75184
# Poissons Ratio (z) = 0.11346 -0.30513
#
# Static dielectric constant tensor:
#      x y z
#    x 0.431650 -0.461160 -0.801790 
#    y -0.461160 2.056100 -0.238940 
#    z -0.801790 -0.238940 1.599950 
# 
# From -- ./inp_files/83038.got.cif
#   From: 2010.05.17/outbox.cif.g08.bks.cpg/sg2_42_cif.got.tgz:83038.got - 2010.06.03 11:33:40.
