data_PCOD9025258
_publ_section_title
;
Structure prediction by ZEFSAII (Michael W. Deem and Ramdas Pophale) SiO2 
 PCOD9025258
Probable space group: P -1
;
_chemical_formula_sum "Si O2"
_cell_formula_units_Z 14
_cell_length_a 8.798393
_cell_length_b 18.372265
_cell_length_c 7.830501
_cell_angle_alpha 67.570361
_cell_angle_beta 110.550950
_cell_angle_gamma 52.405105
_cell_volume 559.773532
_symmetry_space_group_name_H-M "P -1"
_symmetry_group_IT_number 2
_symmetry_cell_setting 'triclinic'
loop_
_space_group_symop_operation_xyz
x,y,z
-x,-y,-z
loop_
_atom_site_type_symbol
_atom_site_label
_atom_site_fract_x
_atom_site_fract_y
_atom_site_fract_z
Si Si1 0.678589 0.353555 0.918480
Si Si2 0.890786 0.295588 0.694529
Si Si3 0.287373 0.943912 0.689968
Si Si4 0.144595 0.181586 0.537787
Si Si5 0.623603 0.616750 0.674527
Si Si6 0.350923 0.333224 0.728746
Si Si7 0.306250 0.251695 0.298284
O O1 0.926695 0.270777 0.936070
O O2 0.344455 0.532400 0.575689
O O3 0.597895 0.295498 0.928832
O O4 0.801677 0.330367 0.170765
O O5 0.137929 0.193656 0.728367
O O6 0.677384 0.310233 0.543472
O O7 0.494276 0.868668 0.668235
O O8 0.525049 0.801013 0.040206
O O9 0.000000 0.000000 0.500000
O O10 0.214366 0.062068 0.621117
O O11 0.334544 0.174552 0.529399
O O12 0.671076 0.650123 0.496574
O O13 0.565663 0.710427 0.700148
O O14 0.929851 0.432932 0.979717
O O15 0.000000 0.500000 0.500000
#
# Coordination Sequence:
#
# PCOD9025258 Si02
#       7
#     2   2   2   2   2   2   2
#     4  10  22  40  68 104 134 173 229 285 331 402
#     4  10  22  40  68 103 133 177 226 282 339 400
#     4  12  25  45  67  98 139 184 222 275 353 409
#     4  12  24  43  68  99 143 182 220 279 350 409
#     4  10  22  41  67 102 128 173 234 284 325 402
#     4  11  23  42  70  99 132 175 231 283 329 399
#     4  11  24  41  67 101 136 177 229 281 339 405
#
# _framework density 25.010111999999999
#
# number of rings (size 3 to 8) (size 9 to 14) (size 15 to 20)
#    0.000    1.143    4.286    1.714    2.000    0.000 
#    2.571    2.857    0.000    0.000    0.000    0.000 
#    0.000    0.000    0.000    0.000    0.000    0.000 
#
# Total GULP energy -78173.263013 kJ/mol
# GULP energy per Si atom -5583.804501 kJ/mol
# Density = 2.495319 g / cm^3
# Si number density = 25.010112 Si / 1000 Ang^3
#
#
#
# Elastic Constant Matrix: (Units=GPa)
#
#
# Indices 1 2 3 4 5 6 
#
# 1 132.1495 64.3595 40.0998 -20.7161 -17.7785 5.3209
# 2 64.3595 113.6193 22.0523 -24.7052 -7.4972 -10.5834
# 3 40.0998 22.0523 82.1170 -15.9256 -22.3708 -0.3146
# 4 -20.7161 -24.7052 -15.9256 31.3710 16.6672 -4.8108
# 5 -17.7785 -7.4972 -22.3708 16.6672 43.3441 7.6940
# 6 5.3209 -10.5834 -0.3146 -4.8108 7.6940 48.0884
#
#
#
# Elastic Compliance Matrix: (Units=1/GPa)
#
#
# Indices 1 2 3 4 5 6 
#
# 1 0.012250 -0.006591 -0.003604 -0.001074 0.003045 -0.003424
# 2 -0.006591 0.015279 -0.000168 0.011560 -0.005685 0.006157
# 3 -0.003604 -0.000168 0.016063 0.002493 0.005864 -0.000222
# 4 -0.001074 0.011560 0.002493 0.053798 -0.019836 0.011235
# 5 0.003045 -0.005685 0.005864 -0.019836 0.035630 -0.009235
# 6 -0.003424 0.006157 -0.000222 0.011235 -0.009235 0.025129
#
#
# Mechanical properties :
#
#
# Convention : Reuss Voigt Hill
#
# Bulk Modulus (GPa) = 43.73211 64.54546 54.13878
# Shear Modulus (GPa) = 26.81014 37.98565 32.39790
#
# Velocity S-wave (km/s) = 3.27765 3.90142 3.60306
# Velocity P-wave (km/s) = 5.64338 6.79401 6.24525
#
# Compressibility (1/GPa) = 0.02286649
#
# Stress axis : x y z
#
# Youngs Moduli (GPa) = 81.63356 65.44826 62.25595
#
# Poissons Ratio (x) = 0.43137 0.22435
# Poissons Ratio (y) = 0.53804 0.01046
# Poissons Ratio (z) = 0.29418 0.01100
#
# Static dielectric constant tensor:
#      x y z
#    x 2.014490 0.015000 0.071870 
#    y 0.015000 2.154420 0.082320 
#    z 0.071870 0.082320 2.010850 
# 
# From -- ./inp_files/157202.got.cif
#   From: 2010.05.17/outbox.cif.g08.bks.cpg/sg2_79_cif.got.tgz:157202.got - 2010.06.03 11:33:40.
