data_PCOD9025292
_publ_section_title
;
Structure prediction by ZEFSAII (Michael W. Deem and Ramdas Pophale) SiO2 
 PCOD9025292
Probable space group: P -1
;
_chemical_formula_sum "Si O2"
_cell_formula_units_Z 10
_cell_length_a 7.426643
_cell_length_b 13.932991
_cell_length_c 14.813085
_cell_angle_alpha 30.524120
_cell_angle_beta 36.652123
_cell_angle_gamma 38.552812
_cell_volume 443.334323
_symmetry_space_group_name_H-M "P -1"
_symmetry_group_IT_number 2
_symmetry_cell_setting 'triclinic'
loop_
_space_group_symop_operation_xyz
x,y,z
-x,-y,-z
loop_
_atom_site_type_symbol
_atom_site_label
_atom_site_fract_x
_atom_site_fract_y
_atom_site_fract_z
Si Si1 0.836767 0.343816 0.600543
Si Si2 0.869748 0.383381 0.819464
Si Si3 0.140827 0.639034 0.622910
Si Si4 0.775298 0.705153 0.883725
Si Si5 0.375279 0.975134 0.970880
O O1 0.494571 0.508516 0.610515
O O2 0.848851 0.259947 0.560040
O O3 0.100463 0.457745 0.397255
O O4 0.837229 0.174305 0.807482
O O5 0.949923 0.483482 0.797741
O O6 0.542499 0.338059 0.987658
O O7 0.154693 0.183093 0.856771
O O8 0.960801 0.761820 0.679437
O O9 0.654597 0.869134 0.876377
O O10 0.000000 0.500000 0.000000
O O11 0.500000 0.000000 0.000000
#
# Coordination Sequence:
#
# PCOD9025292 Si02
#       5
#     2   2   2   2   2
#     4   9  19  40  67  87 126 157 203 243 325 351
#     4  10  22  40  68  87 126 162 203 252 305 367
#     4   9  18  41  64  88 123 159 201 252 305 364
#     4  12  23  38  64  95 122 166 207 250 306 358
#     4  12  21  41  67  89 124 166 201 250 311 366
#
# _framework density 22.556341
#
# number of rings (size 3 to 8) (size 9 to 14) (size 15 to 20)
#    1.200    0.400    4.000    1.200    0.000    0.800 
#    0.000    5.000    4.400    0.000    0.000    0.000 
#    0.000    0.000    0.000    0.000    0.000    0.000 
#
# Total GULP energy -55845.337991 kJ/mol
# GULP energy per Si atom -5584.533799 kJ/mol
# Density = 2.250500 g / cm^3
# Si number density = 22.556341 Si / 1000 Ang^3
#
#
#
# Elastic Constant Matrix: (Units=GPa)
#
#
# Indices 1 2 3 4 5 6 
#
# 1 78.2827 35.9032 10.1451 12.8015 -2.4028 10.2634
# 2 35.9032 143.6507 33.2782 26.4224 17.7874 29.6785
# 3 10.1451 33.2782 82.9307 11.5551 12.9451 22.2236
# 4 12.8015 26.4224 11.5551 43.7700 4.0338 12.2423
# 5 -2.4028 17.7874 12.9451 4.0338 38.9069 12.9060
# 6 10.2634 29.6785 22.2236 12.2423 12.9060 32.3672
#
#
#
# Elastic Compliance Matrix: (Units=1/GPa)
#
#
# Indices 1 2 3 4 5 6 
#
# 1 0.015048 -0.003313 -0.000170 -0.002055 0.003448 -0.002215
# 2 -0.003313 0.010024 -0.001477 -0.003068 -0.002303 -0.005047
# 3 -0.000170 -0.001477 0.015195 -0.000646 -0.001626 -0.008132
# 4 -0.002055 -0.003068 -0.000646 0.027281 0.000909 -0.006773
# 5 0.003448 -0.002303 -0.001626 0.000909 0.030909 -0.010533
# 6 -0.002215 -0.005047 -0.008132 -0.006773 -0.010533 0.048571
#
#
# Mechanical properties :
#
#
# Convention : Reuss Voigt Hill
#
# Bulk Modulus (GPa) = 32.95324 51.50190 42.22757
# Shear Modulus (GPa) = 29.92870 38.04465 33.98668
#
# Velocity S-wave (km/s) = 3.64654 4.11134 3.88589
# Velocity P-wave (km/s) = 5.68952 6.73941 6.23660
#
# Compressibility (1/GPa) = 0.03034603
#
# Stress axis : x y z
#
# Youngs Moduli (GPa) = 66.45426 99.76031 65.81183
#
# Poissons Ratio (x) = 0.33052 0.01117
# Poissons Ratio (y) = 0.22017 0.09723
# Poissons Ratio (z) = 0.01128 0.14739
#
# Static dielectric constant tensor:
#      x y z
#    x 1.904290 0.094460 -0.019760 
#    y 0.094460 1.791240 -0.012140 
#    z -0.019760 -0.012140 1.888270 
# 
# From -- ./inp_files/147977.got.cif
#   From: 2010.05.17/outbox.cif.g08.bks.cpg/sg2_74_cif.got.tgz:147977.got - 2010.06.03 11:33:40.
