data_PCOD9025834
_publ_section_title
;
Structure prediction by ZEFSAII (Michael W. Deem and Ramdas Pophale) SiO2 
 PCOD9025834
Probable space group: P -1
;
_chemical_formula_sum "Si O2"
_cell_formula_units_Z 15
_cell_length_a 16.167608
_cell_length_b 22.276994
_cell_length_c 9.908015
_cell_angle_alpha 135.608765
_cell_angle_beta 151.562094
_cell_angle_gamma 24.550345
_cell_volume 637.154489
_symmetry_space_group_name_H-M "P -1"
_symmetry_group_IT_number 2
_symmetry_cell_setting 'triclinic'
loop_
_space_group_symop_operation_xyz
x,y,z
-x,-y,-z
loop_
_atom_site_type_symbol
_atom_site_label
_atom_site_fract_x
_atom_site_fract_y
_atom_site_fract_z
Si Si1 0.812319 0.002753 0.313343
Si Si2 0.699845 0.662596 0.417582
Si Si3 0.500000 0.500000 0.500000
Si Si4 0.734480 0.593161 0.653397
Si Si5 0.810200 0.257959 0.765146
Si Si6 0.183203 0.759510 0.692281
Si Si7 0.130682 0.268921 0.674404
Si Si8 0.282039 0.174533 0.446500
O O1 0.889060 0.892328 0.141419
O O2 0.971629 0.909789 0.533533
O O3 0.000000 0.000000 0.500000
O O4 0.425982 0.174171 0.042973
O O5 0.779515 0.625271 0.630791
O O6 0.628073 0.790177 0.475070
O O7 0.000000 0.500000 0.500000
O O8 0.405934 0.723497 0.051299
O O9 0.545523 0.403227 0.515402
O O10 0.383676 0.614388 0.643998
O O11 0.360060 0.748455 0.411172
O O12 0.815864 0.459403 0.526737
O O13 0.000000 0.500000 0.000000
O O14 0.936218 0.280001 0.077636
O O15 0.962453 0.788104 0.510377
O O16 0.270588 0.223279 0.652915
O O17 0.500000 0.000000 0.500000
#
# Coordination Sequence:
#
# PCOD9025834 Si02
#       8
#     2   2   1   2   2   2   2   2
#     4  11  24  44  70 103 146 197 243 302 367 447
#     4  12  27  46  77 110 148 196 254 313 370 448
#     4  10  22  40  72 108 140 190 238 300 366 442
#     4  12  28  46  75 113 147 186 252 318 371 442
#     4  11  24  44  72  99 147 189 239 299 373 434
#     4  11  25  44  73 107 150 193 250 302 380 438
#     4  12  24  47  73 105 147 197 245 307 375 448
#     4  12  26  48  74 105 150 198 248 304 381 442
#
# _framework density 23.542172000000001
#
# number of rings (size 3 to 8) (size 9 to 14) (size 15 to 20)
#    0.000    0.533    4.000    3.600    5.600    1.067 
#    4.800    1.333    0.000    0.000    0.000    0.000 
#    0.000    0.000    0.000    0.000    0.000    0.000 
#
# Total GULP energy -83581.718458 kJ/mol
# GULP energy per Si atom -5572.114564 kJ/mol
# Density = 2.348859 g / cm^3
# Si number density = 23.542172 Si / 1000 Ang^3
#
#
#
# Elastic Constant Matrix: (Units=GPa)
#
#
# Indices 1 2 3 4 5 6 
#
# 1 147.0297 23.4744 37.9775 -13.4799 -13.5354 40.5923
# 2 23.4744 67.7680 -4.1410 -7.3592 2.0878 19.0157
# 3 37.9775 -4.1410 115.9272 -1.3313 4.5039 19.1717
# 4 -13.4799 -7.3592 -1.3313 24.3776 2.3649 2.9892
# 5 -13.5354 2.0878 4.5039 2.3649 45.8201 6.7915
# 6 40.5923 19.0157 19.1717 2.9892 6.7915 43.3469
#
#
#
# Elastic Compliance Matrix: (Units=1/GPa)
#
#
# Indices 1 2 3 4 5 6 
#
# 1 0.011515 -0.000449 -0.002094 0.006981 0.004884 -0.010907
# 2 -0.000449 0.018328 0.002389 0.006550 -0.000192 -0.009098
# 3 -0.002094 0.002389 0.010009 0.000643 -0.001246 -0.003363
# 4 0.006981 0.006550 0.000643 0.048401 0.001161 -0.013215
# 5 0.004884 -0.000192 -0.001246 0.001161 0.024503 -0.007857
# 6 -0.010907 -0.009098 -0.003363 -0.013215 -0.007857 0.040904
#
#
# Mechanical properties :
#
#
# Convention : Reuss Voigt Hill
#
# Bulk Modulus (GPa) = 25.28804 49.48295 37.38550
# Shear Modulus (GPa) = 29.91339 40.93655 35.42497
#
# Velocity S-wave (km/s) = 3.56846 4.17449 3.88331
# Velocity P-wave (km/s) = 5.26720 6.65580 6.00179
#
# Compressibility (1/GPa) = 0.03954438
#
# Stress axis : x y z
#
# Youngs Moduli (GPa) = 86.84643 54.56226 99.90574
#
# Poissons Ratio (x) = 0.02447 0.20921
# Poissons Ratio (y) = 0.03895 -0.23867
# Poissons Ratio (z) = 0.18186 -0.13035
#
# Static dielectric constant tensor:
#      x y z
#    x 1.876270 -0.066630 0.010340 
#    y -0.066630 2.079880 -0.068760 
#    z 0.010340 -0.068760 1.932440 
# 
# From -- ./inp_files/319505.got.cif
#   From: 2010.05.17/outbox.cif.g08.bks.cpg/sg2_160_cif.got.tgz:319505.got - 2010.06.03 11:33:40.
