data_PCOD9025454
_publ_section_title
;
Structure prediction by ZEFSAII (Michael W. Deem and Ramdas Pophale) SiO2 
 PCOD9025454
Probable space group: P -1
;
_chemical_formula_sum "Si O2"
_cell_formula_units_Z 16
_cell_length_a 12.220670
_cell_length_b 9.707897
_cell_length_c 14.808973
_cell_angle_alpha 103.352465
_cell_angle_beta 40.913298
_cell_angle_gamma 128.520263
_cell_volume 795.650054
_symmetry_space_group_name_H-M "P -1"
_symmetry_group_IT_number 2
_symmetry_cell_setting 'triclinic'
loop_
_space_group_symop_operation_xyz
x,y,z
-x,-y,-z
loop_
_atom_site_type_symbol
_atom_site_label
_atom_site_fract_x
_atom_site_fract_y
_atom_site_fract_z
Si Si1 0.222093 0.895446 0.546929
Si Si2 0.476241 0.502689 0.622022
Si Si3 0.734330 0.571419 0.907463
Si Si4 0.956928 0.128821 0.084843
Si Si5 0.747294 0.911875 0.618417
Si Si6 0.029515 0.670328 0.051098
Si Si7 0.500615 0.803663 0.431585
Si Si8 0.402996 0.805517 0.979925
O O1 0.305878 0.789908 0.509833
O O2 0.955561 0.743278 0.730197
O O3 0.224522 0.940961 0.447459
O O4 0.428887 0.119196 0.496827
O O5 0.500000 0.500000 0.500000
O O6 0.625442 0.711412 0.609276
O O7 0.539698 0.382621 0.596262
O O8 0.209247 0.388668 0.789617
O O9 0.818128 0.678747 0.970766
O O10 0.500000 0.500000 0.000000
O O11 0.676495 0.371451 0.932587
O O12 0.746870 0.995035 0.264782
O O13 0.860259 0.169463 0.071662
O O14 0.000000 0.000000 0.000000
O O15 0.588958 0.859904 0.796282
O O16 0.000000 0.000000 0.500000
O O17 0.178202 0.731141 0.055717
O O18 0.000000 0.500000 0.000000
O O19 0.500000 0.000000 0.000000
#
# Coordination Sequence:
#
# PCOD9025454 Si02
#       8
#     2   2   2   2   2   2   2   2
#     4  10  23  43  69 100 137 178 221 287 339 414
#     4  12  25  40  71 102 135 178 228 286 341 413
#     4  11  25  45  67  99 140 179 224 279 350 415
#     4  11  22  40  69 100 131 176 223 286 341 408
#     4  12  26  47  68 102 142 182 231 284 349 416
#     4  12  24  45  70 102 137 177 241 287 344 412
#     4  10  22  40  69 102 132 170 230 278 348 400
#     4  12  29  46  70 100 141 188 230 290 349 411
#
# _framework density 20.109344
#
# number of rings (size 3 to 8) (size 9 to 14) (size 15 to 20)
#    0.000    0.750    5.000    1.500    5.250    0.000 
#    0.000    1.250    0.000    0.000    0.000    0.000 
#    0.000    0.000    0.000    0.000    0.000    0.000 
#
# Total GULP energy -89271.420595 kJ/mol
# GULP energy per Si atom -5579.463787 kJ/mol
# Density = 2.006357 g / cm^3
# Si number density = 20.109344 Si / 1000 Ang^3
#
#
#
# Elastic Constant Matrix: (Units=GPa)
#
#
# Indices 1 2 3 4 5 6 
#
# 1 116.4649 38.8380 6.2551 -4.5575 -16.7271 -9.5987
# 2 38.8380 134.0413 14.2299 12.1703 -3.1297 -6.0147
# 3 6.2551 14.2299 55.9140 7.7995 -6.6936 2.8918
# 4 -4.5575 12.1703 7.7995 28.9126 -2.9723 -2.1814
# 5 -16.7271 -3.1297 -6.6936 -2.9723 39.3938 -2.0220
# 6 -9.5987 -6.0147 2.8918 -2.1814 -2.0220 36.7574
#
#
#
# Elastic Compliance Matrix: (Units=1/GPa)
#
#
# Indices 1 2 3 4 5 6 
#
# 1 0.010719 -0.003166 -0.000520 0.003852 0.004646 0.002806
# 2 -0.003166 0.008888 -0.001525 -0.003915 -0.001170 0.000451
# 3 -0.000520 -0.001525 0.019372 -0.004563 0.002501 -0.002043
# 4 0.003852 -0.003915 -0.004563 0.038690 0.003634 0.003220
# 5 0.004646 -0.001170 0.002501 0.003634 0.028097 0.002586
# 6 0.002806 0.000451 -0.002043 0.003220 0.002586 0.028506
#
#
# Mechanical properties :
#
#
# Convention : Reuss Voigt Hill
#
# Bulk Modulus (GPa) = 35.01604 47.22957 41.12280
# Shear Modulus (GPa) = 32.42273 37.48590 34.95432
#
# Velocity S-wave (km/s) = 4.01973 4.32221 4.17371
# Velocity P-wave (km/s) = 6.24459 6.96032 6.61215
#
# Compressibility (1/GPa) = 0.02855834
#
# Stress axis : x y z
#
# Youngs Moduli (GPa) = 93.28939 112.51084 51.62002
#
# Poissons Ratio (x) = 0.35621 0.02682
# Poissons Ratio (y) = 0.29536 0.07872
# Poissons Ratio (z) = 0.04848 0.17158
#
# Static dielectric constant tensor:
#      x y z
#    x 1.788030 0.046850 0.139440 
#    y 0.046850 1.733470 -0.042830 
#    z 0.139440 -0.042830 1.644050 
# 
# From -- ./inp_files/515857.got.cif
#   From: 2010.05.17/outbox.cif.g08.bks.cpg/sg2_258_cif.got.tgz:515857.got - 2010.06.03 11:33:40.
