data_PCOD9025263
_publ_section_title
;
Structure prediction by ZEFSAII (Michael W. Deem and Ramdas Pophale) SiO2 
 PCOD9025263
Probable space group: P -1
;
_chemical_formula_sum "Si O2"
_cell_formula_units_Z 16
_cell_length_a 10.996460
_cell_length_b 8.687333
_cell_length_c 12.164098
_cell_angle_alpha 106.287907
_cell_angle_beta 84.406601
_cell_angle_gamma 139.901797
_cell_volume 705.428652
_symmetry_space_group_name_H-M "P -1"
_symmetry_group_IT_number 2
_symmetry_cell_setting 'triclinic'
loop_
_space_group_symop_operation_xyz
x,y,z
-x,-y,-z
loop_
_atom_site_type_symbol
_atom_site_label
_atom_site_fract_x
_atom_site_fract_y
_atom_site_fract_z
Si Si1 0.208181 0.471878 0.326137
Si Si2 0.697076 0.057402 0.564623
Si Si3 0.648259 0.502272 0.463842
Si Si4 0.148710 0.795927 0.838037
Si Si5 0.078120 0.755477 0.209746
Si Si6 0.376864 0.137136 0.707959
Si Si7 0.596594 0.933258 0.934217
Si Si8 0.251547 0.360295 0.771218
O O1 0.259539 0.710242 0.395154
O O2 0.204903 0.371892 0.421619
O O3 0.397050 0.605723 0.272192
O O4 0.024782 0.291545 0.227615
O O5 0.849602 0.140647 0.652245
O O6 0.489274 0.793940 0.576449
O O7 0.703412 0.993861 0.429755
O O8 0.500000 0.500000 0.500000
O O9 0.736999 0.611567 0.357602
O O10 0.058957 0.538480 0.835670
O O11 0.312895 0.938869 0.760200
O O12 0.260170 0.986557 0.967723
O O13 0.737037 0.095492 0.850051
O O14 0.947275 0.771928 0.191517
O O15 0.286324 0.212302 0.766512
O O16 0.426495 0.641614 0.859722
O O17 0.500000 0.000000 0.000000
#
# Coordination Sequence:
#
# PCOD9025263 Si02
#       8
#     2   2   2   2   2   2   2   2
#     4  10  24  41  68 101 145 182 232 272 344 412
#     4  10  22  40  68 103 145 176 228 284 338 420
#     4  11  20  41  69 102 143 187 221 279 349 413
#     4  11  27  43  71  99 138 182 231 293 334 411
#     4  11  26  43  73 108 129 182 243 284 349 407
#     4  11  25  44  65 108 145 187 216 280 362 410
#     4  12  27  49  76  97 134 181 245 296 339 405
#     4  12  26  42  73 104 141 187 232 285 348 414
#
# _framework density 22.681242999999998
#
# number of rings (size 3 to 8) (size 9 to 14) (size 15 to 20)
#    0.000    1.000    5.000    1.875    8.750    4.000 
#    0.000    1.250    0.000    0.000    0.000    0.000 
#    0.000    0.000    0.000    0.000    0.000    0.000 
#
# Total GULP energy -89481.138947 kJ/mol
# GULP energy per Si atom -5592.571184 kJ/mol
# Density = 2.262962 g / cm^3
# Si number density = 22.681243 Si / 1000 Ang^3
#
#
#
# Elastic Constant Matrix: (Units=GPa)
#
#
# Indices 1 2 3 4 5 6 
#
# 1 109.9947 18.3774 55.3805 26.1752 -1.0415 -6.4709
# 2 18.3774 54.6212 8.7937 4.0799 -13.1698 0.6521
# 3 55.3805 8.7937 59.1289 -19.5447 23.8414 1.7911
# 4 26.1752 4.0799 -19.5447 4.9641 4.7991 0.9836
# 5 -1.0415 -13.1698 23.8414 4.7991 40.4657 -4.3165
# 6 -6.4709 0.6521 1.7911 0.9836 -4.3165 22.9525
#
#
#
# Elastic Compliance Matrix: (Units=1/GPa)
#
#
# Indices 1 2 3 4 5 6 
#
# 1 0.003237 -0.004756 0.005573 0.015556 -0.006734 -0.001320
# 2 -0.004756 0.020923 0.000458 0.004294 0.005795 -0.001065
# 3 0.005573 0.000458 0.001681 -0.026427 0.002765 0.003079
# 4 0.015556 0.004294 -0.026427 -0.009126 0.019559 0.010395
# 5 -0.006734 0.005795 0.002765 0.019559 0.022597 0.001133
# 6 -0.001320 -0.001065 0.003079 0.010395 0.001133 0.042754
#
#
# Mechanical properties :
#
#
# Convention : Reuss Voigt Hill
#
# Bulk Modulus (GPa) = 35.22199 43.20533 39.21366
# Shear Modulus (GPa) = 56.19262 23.08934 39.64098
#
# Velocity S-wave (km/s) = 4.98284 3.19406 4.18514
# Velocity P-wave (km/s) = 6.97623 5.71778 6.37812
#
# Compressibility (1/GPa) = 0.02839136
#
# Stress axis : x y z
#
# Youngs Moduli (GPa) = 308.96056 47.79325 594.84428
#
# Poissons Ratio (x) = 0.22731 -3.31512
# Poissons Ratio (y) = 1.46943 -0.27245
# Poissons Ratio (z) = -1.72187 -0.02189
#
# Static dielectric constant tensor:
#      x y z
#    x 1.867190 0.000960 0.029790 
#    y 0.000960 1.861290 -0.018080 
#    z 0.029790 -0.018080 1.850420 
# 
# From -- ./inp_files/514515.got.cif
#   From: 2010.05.17/outbox.cif.g08.bks.cpg/sg2_258_cif.got.tgz:514515.got - 2010.06.03 11:33:40.
