data_PCOD9025738
_publ_section_title
;
Structure prediction by ZEFSAII (Michael W. Deem and Ramdas Pophale) SiO2 
 PCOD9025738
Probable space group: P -1
;
_chemical_formula_sum "Si O2"
_cell_formula_units_Z 16
_cell_length_a 8.811866
_cell_length_b 17.283526
_cell_length_c 12.111534
_cell_angle_alpha 129.282680
_cell_angle_beta 35.575262
_cell_angle_gamma 103.578852
_cell_volume 650.262747
_symmetry_space_group_name_H-M "P -1"
_symmetry_group_IT_number 2
_symmetry_cell_setting 'triclinic'
loop_
_space_group_symop_operation_xyz
x,y,z
-x,-y,-z
loop_
_atom_site_type_symbol
_atom_site_label
_atom_site_fract_x
_atom_site_fract_y
_atom_site_fract_z
Si Si1 0.430045 0.105423 0.417434
Si Si2 0.168265 0.497453 0.783827
Si Si3 0.486891 0.786568 0.734253
Si Si4 0.717197 0.441988 0.553315
Si Si5 0.196900 0.864469 0.200315
Si Si6 0.450023 0.351892 0.018731
Si Si7 0.078900 0.166705 0.040331
Si Si8 0.576593 0.758648 0.258468
O O1 0.350912 0.172965 0.407871
O O2 0.563623 0.153182 0.471118
O O3 0.079981 0.142724 0.695670
O O4 0.696737 0.953684 0.122681
O O5 0.308516 0.365682 0.521640
O O6 0.471176 0.494995 0.642994
O O7 0.000000 0.500000 0.000000
O O8 0.898741 0.625176 0.994447
O O9 0.419587 0.843993 0.946951
O O10 0.147523 0.842113 0.917802
O O11 0.531529 0.538863 0.852406
O O12 0.053635 0.422283 0.309758
O O13 0.838791 0.299679 0.368293
O O14 0.407316 0.751493 0.061796
O O15 0.000000 0.000000 0.500000
O O16 0.606616 0.278241 0.744360
O O17 0.316951 0.178972 0.833707
#
# Coordination Sequence:
#
# PCOD9025738 Si02
#       8
#     2   2   2   2   2   2   2   2
#     4  12  24  47  72 102 141 181 241 288 344 423
#     4  11  23  43  69 105 141 180 243 289 350 413
#     4  11  26  42  73 104 136 185 233 297 343 415
#     4   9  21  40  64  97 133 180 230 283 343 411
#     4  12  27  46  71 102 141 191 232 284 361 419
#     4  10  23  40  66 102 139 177 234 286 351 419
#     4  10  22  40  71 102 134 179 238 292 342 408
#     4  11  22  41  72 100 132 186 230 285 346 409
#
# _framework density 24.605436999999998
#
# number of rings (size 3 to 8) (size 9 to 14) (size 15 to 20)
#    0.000    1.250    2.500    3.000    7.000    3.000 
#    0.000    1.875    0.000    0.000    0.000    0.000 
#    0.000    0.000    0.000    0.000    0.000    0.000 
#
# Total GULP energy -89571.549063 kJ/mol
# GULP energy per Si atom -5598.221816 kJ/mol
# Density = 2.454943 g / cm^3
# Si number density = 24.605437 Si / 1000 Ang^3
#
#
#
# Elastic Constant Matrix: (Units=GPa)
#
#
# Indices 1 2 3 4 5 6 
#
# 1 86.5216 20.8866 36.3459 17.3889 30.7207 -6.7670
# 2 20.8866 76.8969 33.2271 19.6020 10.6518 -10.7357
# 3 36.3459 33.2271 79.1810 17.9280 27.9150 -15.5045
# 4 17.3889 19.6020 17.9280 42.7897 -3.1932 -6.3525
# 5 30.7207 10.6518 27.9150 -3.1932 54.7103 -3.1076
# 6 -6.7670 -10.7357 -15.5045 -6.3525 -3.1076 10.8992
#
#
#
# Elastic Compliance Matrix: (Units=1/GPa)
#
#
# Indices 1 2 3 4 5 6 
#
# 1 0.017228 -0.000593 -0.003613 -0.005940 -0.008107 -0.000801
# 2 -0.000593 0.017393 -0.004095 -0.004906 -0.000804 0.007850
# 3 -0.003613 -0.004095 0.024669 -0.004076 -0.008637 0.023977
# 4 -0.005940 -0.004906 -0.004076 0.031325 0.008561 0.006380
# 5 -0.008107 -0.000804 -0.008637 0.008561 0.027595 -0.005254
# 6 -0.000801 0.007850 0.023977 0.006380 -0.005254 0.135313
#
#
# Mechanical properties :
#
#
# Convention : Reuss Voigt Hill
#
# Bulk Modulus (GPa) = 23.42593 47.05766 35.24180
# Shear Modulus (GPa) = 17.58361 31.82251 24.70306
#
# Velocity S-wave (km/s) = 2.67614 3.60017 3.17198
# Velocity P-wave (km/s) = 4.36924 6.03722 5.26964
#
# Compressibility (1/GPa) = 0.04268774
#
# Stress axis : x y z
#
# Youngs Moduli (GPa) = 58.04337 57.49508 40.53644
#
# Poissons Ratio (x) = 0.03409 0.14647
# Poissons Ratio (y) = 0.03442 0.16600
# Poissons Ratio (z) = 0.20973 0.23545
#
# Static dielectric constant tensor:
#      x y z
#    x 1.964360 0.053200 0.042940 
#    y 0.053200 1.958260 -0.044710 
#    z 0.042940 -0.044710 1.976200 
# 
# From -- ./inp_files/403181.got.cif
#   From: 2010.05.17/outbox.cif.g08.bks.cpg/sg2_202_cif.got.tgz:403181.got - 2010.06.03 11:33:40.
