data_PCOD9025238
_publ_section_title
;
Structure prediction by ZEFSAII (Michael W. Deem and Ramdas Pophale) SiO2 
 PCOD9025238
Probable space group: P -1
;
_chemical_formula_sum "Si O2"
_cell_formula_units_Z 14
_cell_length_a 12.106403
_cell_length_b 15.120081
_cell_length_c 7.926748
_cell_angle_alpha 116.030457
_cell_angle_beta 33.763452
_cell_angle_gamma 129.437811
_cell_volume 609.189169
_symmetry_space_group_name_H-M "P -1"
_symmetry_group_IT_number 2
_symmetry_cell_setting 'triclinic'
loop_
_space_group_symop_operation_xyz
x,y,z
-x,-y,-z
loop_
_atom_site_type_symbol
_atom_site_label
_atom_site_fract_x
_atom_site_fract_y
_atom_site_fract_z
Si Si1 0.007713 0.203638 0.852012
Si Si2 0.718203 0.041222 0.630814
Si Si3 0.500000 0.000000 0.500000
Si Si4 0.000000 0.000000 0.500000
Si Si5 0.877001 0.562158 0.280876
Si Si6 0.370567 0.784777 0.461104
Si Si7 0.992036 0.314740 0.441519
Si Si8 0.405732 0.334794 0.726439
O O1 0.994579 0.115101 0.660718
O O2 0.040964 0.318739 0.820368
O O3 0.228107 0.253025 0.738365
O O4 0.762307 0.152524 0.230790
O O5 0.870764 0.995320 0.479568
O O6 0.860319 0.182035 0.561144
O O7 0.637214 0.998654 0.506312
O O8 0.500000 0.000000 0.000000
O O9 0.571020 0.907227 0.230883
O O10 0.957190 0.596799 0.400428
O O11 0.600083 0.466172 0.534432
O O12 0.000000 0.500000 0.000000
O O13 0.461638 0.723443 0.410954
O O14 0.178903 0.692739 0.496856
O O15 0.239693 0.343997 0.079441
#
# Coordination Sequence:
#
# PCOD9025238 Si02
#       8
#     2   2   1   1   2   2   2   2
#     4  11  24  44  69 108 138 185 243 290 369 426
#     4  11  24  44  71 108 147 193 242 299 368 447
#     4  10  22  40  68 100 146 186 236 288 364 434
#     4  12  24  42  78 108 150 186 240 314 360 448
#     4  12  24  47  73 100 144 189 238 303 353 428
#     4  10  22  45  68 100 141 189 235 290 360 436
#     4  10  25  45  69 105 139 181 251 290 362 430
#     4  11  24  46  72 101 144 190 237 302 355 434
#
# _framework density 22.981366999999999
#
# number of rings (size 3 to 8) (size 9 to 14) (size 15 to 20)
#    0.000    1.143    2.857    2.571    0.000    5.143 
#    5.143    6.429    0.000    0.000    0.000    0.000 
#    0.000    0.000    0.000    0.000    0.000    0.000 
#
# Total GULP energy -77937.430638 kJ/mol
# GULP energy per Si atom -5566.959331 kJ/mol
# Density = 2.292906 g / cm^3
# Si number density = 22.981367 Si / 1000 Ang^3
#
#
#
# Elastic Constant Matrix: (Units=GPa)
#
#
# Indices 1 2 3 4 5 6 
#
# 1 196.2106 61.3514 50.0932 20.1953 -26.4856 10.8884
# 2 61.3514 136.2705 65.7740 9.0860 4.4503 10.9988
# 3 50.0932 65.7740 100.1620 -10.1651 0.4850 8.4682
# 4 20.1953 9.0860 -10.1651 45.6347 1.9056 5.5005
# 5 -26.4856 4.4503 0.4850 1.9056 32.8338 4.7443
# 6 10.8884 10.9988 8.4682 5.5005 4.7443 57.9307
#
#
#
# Elastic Compliance Matrix: (Units=1/GPa)
#
#
# Indices 1 2 3 4 5 6 
#
# 1 0.007892 -0.002006 -0.002991 -0.003949 0.007036 -0.000867
# 2 -0.002006 0.012002 -0.007132 -0.002928 -0.002920 -0.000342
# 3 -0.002991 -0.007132 0.016943 0.006724 -0.001936 -0.001040
# 4 -0.003949 -0.002928 0.006724 0.026134 -0.004141 -0.001827
# 5 0.007036 -0.002920 -0.001936 -0.004141 0.037251 -0.003143
# 6 -0.000867 -0.000342 -0.001040 -0.001827 -0.003143 0.018073
#
#
# Mechanical properties :
#
#
# Convention : Reuss Voigt Hill
#
# Bulk Modulus (GPa) = 79.50252 87.45337 83.47795
# Shear Modulus (GPa) = 34.07218 44.30815 39.19017
#
# Velocity S-wave (km/s) = 3.85463 4.39567 4.13401
# Velocity P-wave (km/s) = 7.38108 7.99370 7.69349
#
# Compressibility (1/GPa) = 0.01257822
#
# Stress axis : x y z
#
# Youngs Moduli (GPa) = 126.71492 83.31799 59.02051
#
# Poissons Ratio (x) = 0.16712 0.17654
# Poissons Ratio (y) = 0.25416 0.42096
# Poissons Ratio (z) = 0.37903 0.59426
#
# Static dielectric constant tensor:
#      x y z
#    x 1.897340 -0.006210 0.059050 
#    y -0.006210 1.872680 -0.004340 
#    z 0.059050 -0.004340 1.928360 
# 
# From -- ./inp_files/270678.got.cif
#   From: 2010.05.17/outbox.cif.g08.bks.cpg/sg2_136_cif.got.tgz:270678.got - 2010.06.03 11:33:40.
