data_PCOD9025889
_publ_section_title
;
Structure prediction by ZEFSAII (Michael W. Deem and Ramdas Pophale) SiO2 
 PCOD9025889
Probable space group: P -1
;
_chemical_formula_sum "Si O2"
_cell_formula_units_Z 15
_cell_length_a 9.823629
_cell_length_b 4.980618
_cell_length_c 12.164400
_cell_angle_alpha 68.363490
_cell_angle_beta 100.391546
_cell_angle_gamma 101.935844
_cell_volume 537.721424
_symmetry_space_group_name_H-M "P -1"
_symmetry_group_IT_number 2
_symmetry_cell_setting 'triclinic'
loop_
_space_group_symop_operation_xyz
x,y,z
-x,-y,-z
loop_
_atom_site_type_symbol
_atom_site_label
_atom_site_fract_x
_atom_site_fract_y
_atom_site_fract_z
Si Si1 0.664828 0.587520 0.987333
Si Si2 0.500000 0.000000 0.500000
Si Si3 0.922566 0.853667 0.119711
Si Si4 0.881861 0.086666 0.302987
Si Si5 0.753989 0.269347 0.474899
Si Si6 0.411170 0.289621 0.666316
Si Si7 0.653207 0.224201 0.840796
Si Si8 0.873192 0.546409 0.668661
O O1 0.701547 0.335548 0.951266
O O2 0.677870 0.894993 0.878734
O O3 0.500000 0.500000 0.000000
O O4 0.775382 0.660549 0.090842
O O5 0.326231 0.042602 0.452242
O O6 0.514816 0.884219 0.385376
O O7 0.017636 0.639942 0.225297
O O8 0.902780 0.093920 0.173060
O O9 0.000000 0.000000 0.000000
O O10 0.821928 0.266559 0.366667
O O11 0.042914 0.124450 0.361625
O O12 0.754145 0.817979 0.330846
O O13 0.594606 0.375061 0.420891
O O14 0.843289 0.444795 0.555329
O O15 0.490701 0.251302 0.795949
O O16 0.736437 0.439757 0.734201
#
# Coordination Sequence:
#
# PCOD9025889 Si02
#       8
#     2   1   2   2   2   2   2   2
#     4  12  29  51  80 113 156 208 272 333 393 468
#     4  10  22  40  74 102 156 192 256 310 396 454
#     4  12  27  51  74 108 154 204 263 332 397 467
#     4  11  27  46  76 105 153 203 260 325 397 470
#     4  11  25  47  73 114 152 203 261 324 400 473
#     4  11  25  45  74 112 154 200 260 327 392 475
#     4  12  28  48  79 117 154 208 264 326 406 472
#     4  12  27  45  76 110 155 206 260 320 401 479
#
# _framework density 27.895482000000001
#
# number of rings (size 3 to 8) (size 9 to 14) (size 15 to 20)
#    0.000    0.533    2.667    3.600    7.467    4.267 
#    0.000    0.000    0.000    0.000    0.000    0.000 
#    0.000    0.000    0.000    0.000    0.000    0.000 
#
# Total GULP energy -83780.230841 kJ/mol
# GULP energy per Si atom -5585.348723 kJ/mol
# Density = 2.783199 g / cm^3
# Si number density = 27.895482 Si / 1000 Ang^3
#
#
#
# Elastic Constant Matrix: (Units=GPa)
#
#
# Indices 1 2 3 4 5 6 
#
# 1 124.0507 29.7931 54.1784 25.0627 -9.0144 36.3452
# 2 29.7931 82.9485 45.5316 40.4986 -7.4234 21.8829
# 3 54.1784 45.5316 180.4099 48.8845 -3.7980 6.1954
# 4 25.0627 40.4986 48.8845 65.5382 2.7339 4.0884
# 5 -9.0144 -7.4234 -3.7980 2.7339 77.9221 11.3964
# 6 36.3452 21.8829 6.1954 4.0884 11.3964 48.1417
#
#
#
# Elastic Compliance Matrix: (Units=1/GPa)
#
#
# Indices 1 2 3 4 5 6 
#
# 1 0.012976 0.001648 -0.003013 -0.003202 0.003180 -0.010639
# 2 0.001648 0.021731 -0.002315 -0.011830 0.004142 -0.010800
# 3 -0.003013 -0.002315 0.007858 -0.003428 -0.000463 0.002717
# 4 -0.003202 -0.011830 -0.003428 0.026071 -0.003584 0.006871
# 5 0.003180 0.004142 -0.000463 -0.003584 0.014784 -0.007419
# 6 -0.010639 -0.010800 0.002717 0.006871 -0.007419 0.034536
#
#
# Mechanical properties :
#
#
# Convention : Reuss Voigt Hill
#
# Bulk Modulus (GPa) = 28.40620 71.82393 50.11506
# Shear Modulus (GPa) = 36.48246 55.51415 45.99830
#
# Velocity S-wave (km/s) = 3.62031 4.46587 4.06513
# Velocity P-wave (km/s) = 5.26125 7.23846 6.32756
#
# Compressibility (1/GPa) = 0.03520358
#
# Stress axis : x y z
#
# Youngs Moduli (GPa) = 77.06373 46.01788 127.25893
#
# Poissons Ratio (x) = -0.07582 0.38340
# Poissons Ratio (y) = -0.12696 0.29467
# Poissons Ratio (z) = 0.23217 0.10655
#
# Static dielectric constant tensor:
#      x y z
#    x 2.221710 0.087100 0.076170 
#    y 0.087100 2.439120 -0.106150 
#    z 0.076170 -0.106150 2.141640 
# 
# From -- ./inp_files/373095.got.cif
#   From: 2010.05.17/outbox.cif.g08.bks.cpg/sg2_187_cif.got.tgz:373095.got - 2010.06.03 11:33:40.
