data_PCOD9025343
_publ_section_title
;
Structure prediction by ZEFSAII (Michael W. Deem and Ramdas Pophale) SiO2 
 PCOD9025343
Probable space group: P -1
;
_chemical_formula_sum "Si O2"
_cell_formula_units_Z 14
_cell_length_a 8.133910
_cell_length_b 30.209136
_cell_length_c 23.621770
_cell_angle_alpha 10.871642
_cell_angle_beta 33.145236
_cell_angle_gamma 33.617379
_cell_volume 595.460020
_symmetry_space_group_name_H-M "P -1"
_symmetry_group_IT_number 2
_symmetry_cell_setting 'triclinic'
loop_
_space_group_symop_operation_xyz
x,y,z
-x,-y,-z
loop_
_atom_site_type_symbol
_atom_site_label
_atom_site_fract_x
_atom_site_fract_y
_atom_site_fract_z
Si Si1 0.556494 0.609107 0.194751
Si Si2 0.600777 0.228900 0.152920
Si Si3 0.935702 0.750071 0.806863
Si Si4 0.995107 0.700762 0.152810
Si Si5 0.577567 0.600032 0.790013
Si Si6 0.132735 0.825124 0.131908
Si Si7 0.862083 0.107472 0.752103
O O1 0.267668 0.649031 0.185727
O O2 0.459856 0.786132 0.052793
O O3 0.633809 0.342149 0.529392
O O4 0.837386 0.632531 0.041725
O O5 0.329676 0.290396 0.109237
O O6 0.500000 0.000000 0.500000
O O7 0.884004 0.213762 0.048782
O O8 0.670109 0.407888 0.957317
O O9 0.236040 0.689953 0.759218
O O10 0.000000 0.000000 0.500000
O O11 0.885271 0.442321 0.505677
O O12 0.789245 0.929653 0.946957
O O13 0.811049 0.795827 0.477874
O O14 0.500000 0.500000 0.000000
O O15 0.914938 0.937243 0.004178
O O16 0.000000 0.000000 0.000000
#
# Coordination Sequence:
#
# PCOD9025343 Si02
#       7
#     2   2   2   2   2   2   2
#     4  10  22  40  68  95 126 177 224 270 339 400
#     4  11  24  40  63  98 132 171 224 276 334 404
#     4  11  22  40  65  96 134 175 223 277 338 398
#     4  10  23  43  64  95 132 168 224 284 333 395
#     4  12  22  40  65  95 133 177 218 273 332 399
#     4  11  24  43  64  93 135 170 219 284 336 399
#     4  11  22  41  70  94 128 178 227 270 339 403
#
# _framework density 23.511236
#
# number of rings (size 3 to 8) (size 9 to 14) (size 15 to 20)
#    0.000    1.143    1.429    7.286    0.000    2.857 
#    0.000    1.429    0.000    0.000    0.000    0.000 
#    0.000    0.000    0.000    0.000    0.000    0.000 
#
# Total GULP energy -77975.576361 kJ/mol
# GULP energy per Si atom -5569.684026 kJ/mol
# Density = 2.345772 g / cm^3
# Si number density = 23.511236 Si / 1000 Ang^3
#
#
#
# Elastic Constant Matrix: (Units=GPa)
#
#
# Indices 1 2 3 4 5 6 
#
# 1 54.5221 37.1898 17.1678 -2.7802 -4.9373 19.2055
# 2 37.1898 154.8715 54.7423 -8.7120 2.5353 29.2902
# 3 17.1678 54.7423 137.1767 1.8219 0.3944 18.0954
# 4 -2.7802 -8.7120 1.8219 58.4768 -3.4237 -3.6033
# 5 -4.9373 2.5353 0.3944 -3.4237 31.2701 -1.0566
# 6 19.2055 29.2902 18.0954 -3.6033 -1.0566 45.1489
#
#
#
# Elastic Compliance Matrix: (Units=1/GPa)
#
#
# Indices 1 2 3 4 5 6 
#
# 1 0.024394 -0.004410 -0.000351 0.000301 0.004001 -0.007257
# 2 -0.004410 0.009097 -0.002705 0.000970 -0.001391 -0.002897
# 3 -0.000351 -0.002705 0.008638 -0.000794 -0.000087 -0.001623
# 4 0.000301 0.000970 -0.000794 0.017459 0.001924 0.000999
# 5 0.004001 -0.001391 -0.000087 0.001924 0.032941 0.000160
# 6 -0.007257 -0.002897 -0.001623 0.000999 0.000160 0.027850
#
#
# Mechanical properties :
#
#
# Convention : Reuss Voigt Hill
#
# Bulk Modulus (GPa) = 36.76881 62.75224 49.76052
# Shear Modulus (GPa) = 34.63163 42.81052 38.72107
#
# Velocity S-wave (km/s) = 3.84211 4.27178 4.06263
# Velocity P-wave (km/s) = 5.94602 7.14696 6.57397
#
# Compressibility (1/GPa) = 0.02719696
#
# Stress axis : x y z
#
# Youngs Moduli (GPa) = 40.99419 109.92247 115.76325
#
# Poissons Ratio (x) = 0.48471 0.04067
# Poissons Ratio (y) = 0.18077 0.31317
# Poissons Ratio (z) = 0.01440 0.29737
#
# Static dielectric constant tensor:
#      x y z
#    x 2.135540 -0.268140 -0.040440 
#    y -0.268140 2.137470 0.074620 
#    z -0.040440 0.074620 1.961730 
# 
# From -- ./inp_files/202246.got.cif
#   From: 2010.05.17/outbox.cif.g08.bks.cpg/sg2_102_cif.got.tgz:202246.got - 2010.06.03 11:33:40.
