data_PCOD9025870
_publ_section_title
;
Structure prediction by ZEFSAII (Michael W. Deem and Ramdas Pophale) SiO2 
 PCOD9025870
Probable space group: P -1
;
_chemical_formula_sum "Si O2"
_cell_formula_units_Z 16
_cell_length_a 13.699288
_cell_length_b 14.125756
_cell_length_c 8.386508
_cell_angle_alpha 138.132295
_cell_angle_beta 42.083303
_cell_angle_gamma 139.117620
_cell_volume 646.566348
_symmetry_space_group_name_H-M "P -1"
_symmetry_group_IT_number 2
_symmetry_cell_setting 'triclinic'
loop_
_space_group_symop_operation_xyz
x,y,z
-x,-y,-z
loop_
_atom_site_type_symbol
_atom_site_label
_atom_site_fract_x
_atom_site_fract_y
_atom_site_fract_z
Si Si1 0.170247 0.420375 0.892910
Si Si2 0.692298 0.248079 0.986452
Si Si3 0.190904 0.102858 0.088044
Si Si4 0.791285 0.178944 0.113661
Si Si5 0.809540 0.440498 0.624447
Si Si6 0.619258 0.539886 0.755143
Si Si7 0.391309 0.260069 0.448271
Si Si8 0.823872 0.027631 0.414873
O O1 0.271019 0.325371 0.605189
O O2 0.193579 0.562575 0.925963
O O3 0.245783 0.511304 0.083707
O O4 0.982262 0.297189 0.993526
O O5 0.761074 0.159854 0.674212
O O6 0.696528 0.179871 0.070725
O O7 0.508363 0.218954 0.143001
O O8 0.326043 0.283409 0.147702
O O9 0.012632 0.093706 0.319850
O O10 0.216056 0.986323 0.033495
O O11 0.188678 0.033774 0.826796
O O12 0.737433 0.259263 0.424138
O O13 0.776411 0.530439 0.629633
O O14 0.000000 0.500000 0.500000
O O15 0.525441 0.405226 0.571539
O O16 0.500000 0.500000 0.000000
O O17 0.284813 0.117271 0.517787
#
# Coordination Sequence:
#
# PCOD9025870 Si02
#       8
#     2   2   2   2   2   2   2   2
#     4  11  23  44  72 102 143 194 239 286 358 424
#     4  12  27  44  70 106 147 190 236 294 351 426
#     4  11  25  45  77 105 139 187 241 295 356 415
#     4  11  24  45  68 108 145 184 244 294 350 422
#     4  10  22  40  73 105 140 182 237 295 346 416
#     4  12  23  45  75 110 137 181 238 301 348 418
#     4  12  24  50  70 106 148 185 237 291 364 425
#     4  11  25  47  74 105 142 189 237 291 359 427
#
# _framework density 24.746106999999999
#
# number of rings (size 3 to 8) (size 9 to 14) (size 15 to 20)
#    0.000    0.750    5.000    1.875    8.750    1.500 
#    6.750    1.250    0.000    0.000    0.000    0.000 
#    0.000    0.000    0.000    0.000    0.000    0.000 
#
# Total GULP energy -89718.996685 kJ/mol
# GULP energy per Si atom -5607.437293 kJ/mol
# Density = 2.468978 g / cm^3
# Si number density = 24.746107 Si / 1000 Ang^3
#
#
#
# Elastic Constant Matrix: (Units=GPa)
#
#
# Indices 1 2 3 4 5 6 
#
# 1 86.8003 36.6444 37.1667 10.3685 -11.8663 -8.1375
# 2 36.6444 186.1236 40.7603 7.8804 -23.8774 -21.4339
# 3 37.1667 40.7603 147.7662 -1.0151 -32.2112 -0.8840
# 4 10.3685 7.8804 -1.0151 25.0442 -11.1850 -4.7864
# 5 -11.8663 -23.8774 -32.2112 -11.1850 36.3852 11.5635
# 6 -8.1375 -21.4339 -0.8840 -4.7864 11.5635 38.5232
#
#
#
# Elastic Compliance Matrix: (Units=1/GPa)
#
#
# Indices 1 2 3 4 5 6 
#
# 1 0.014475 -0.001863 -0.003640 -0.006191 -0.002210 0.001832
# 2 -0.001863 0.006487 -0.000840 0.000140 0.002131 0.002574
# 3 -0.003640 -0.000840 0.010155 0.006096 0.010174 -0.003300
# 4 -0.006191 0.000140 0.006096 0.051255 0.019399 -0.000545
# 5 -0.002210 0.002131 0.010174 0.019399 0.046499 -0.010595
# 6 0.001832 0.002574 -0.003300 -0.000545 -0.010595 0.030815
#
#
# Mechanical properties :
#
#
# Convention : Reuss Voigt Hill
#
# Bulk Modulus (GPa) = 54.25773 72.20367 63.23070
# Shear Modulus (GPa) = 28.00871 40.39843 34.20357
#
# Velocity S-wave (km/s) = 3.36794 4.04482 3.72180
# Velocity P-wave (km/s) = 6.09076 7.14530 6.63900
#
# Compressibility (1/GPa) = 0.01843055
#
# Stress axis : x y z
#
# Youngs Moduli (GPa) = 69.08438 154.14303 98.47642
#
# Poissons Ratio (x) = 0.28719 0.35847
# Poissons Ratio (y) = 0.12871 0.08273
# Poissons Ratio (z) = 0.25148 0.12949
#
# Static dielectric constant tensor:
#      x y z
#    x 1.950610 0.010990 0.010570 
#    y 0.010990 1.901990 0.011520 
#    z 0.010570 0.011520 2.011150 
# 
# From -- ./inp_files/316026.got.cif
#   From: 2010.05.17/outbox.cif.g08.bks.cpg/sg2_159_cif.got.tgz:316026.got - 2010.06.03 11:33:40.
