data_PCOD9025043
_publ_section_title
;
Structure prediction by ZEFSAII (Michael W. Deem and Ramdas Pophale) SiO2 
 PCOD9025043
Probable space group: P -1
;
_chemical_formula_sum "Si O2"
_cell_formula_units_Z 14
_cell_length_a 12.786111
_cell_length_b 10.013920
_cell_length_c 16.606133
_cell_angle_alpha 139.670368
_cell_angle_beta 150.231547
_cell_angle_gamma 60.297479
_cell_volume 584.672389
_symmetry_space_group_name_H-M "P -1"
_symmetry_group_IT_number 2
_symmetry_cell_setting 'triclinic'
loop_
_space_group_symop_operation_xyz
x,y,z
-x,-y,-z
loop_
_atom_site_type_symbol
_atom_site_label
_atom_site_fract_x
_atom_site_fract_y
_atom_site_fract_z
Si Si1 0.466535 0.461350 0.217002
Si Si2 0.344374 0.560833 0.830277
Si Si3 0.298232 0.991767 0.966763
Si Si4 0.186196 0.116037 0.604107
Si Si5 0.775031 0.968103 0.730658
Si Si6 0.651746 0.791134 0.734148
Si Si7 0.932450 0.146519 0.756792
O O1 0.515987 0.502091 0.173954
O O2 0.461531 0.212886 0.117485
O O3 0.667379 0.690029 0.504967
O O4 0.194271 0.396509 0.035300
O O5 0.143866 0.317316 0.626740
O O6 0.544775 0.729978 0.107873
O O7 0.257302 0.730868 0.813558
O O8 0.408029 0.106719 0.180068
O O9 0.038946 0.975724 0.775730
O O10 0.000000 0.000000 0.500000
O O11 0.165179 0.936961 0.436900
O O12 0.633885 0.917028 0.698494
O O13 0.766784 0.104496 0.705899
O O14 0.060715 0.122155 0.019532
O O15 0.500000 0.500000 0.500000
#
# Coordination Sequence:
#
# PCOD9025043 Si02
#       7
#     2   2   2   2   2   2   2
#     4  10  18  33  52  82 111 135 176 217 268 325
#     4  11  22  35  54  78 118 141 175 222 268 321
#     4   9  20  35  51  86 111 138 173 228 266 315
#     4  11  21  37  52  76 107 155 182 211 262 324
#     4  10  17  31  54  78 103 147 170 219 268 311
#     4  10  18  33  51  79 114 136 179 219 270 320
#     4   9  19  33  52  79 106 136 186 211 265 317
#
# _framework density 23.945034
#
# number of rings (size 3 to 8) (size 9 to 14) (size 15 to 20)
#    0.857    1.143    4.286    0.429    0.000    0.571 
#    5.143    0.000    0.000    0.857    0.000    8.000 
#    0.000    0.000    0.000    0.000    0.000    0.000 
#
# Total GULP energy -77950.526268 kJ/mol
# GULP energy per Si atom -5567.894733 kJ/mol
# Density = 2.389053 g / cm^3
# Si number density = 23.945034 Si / 1000 Ang^3
#
#
#
# Elastic Constant Matrix: (Units=GPa)
#
#
# Indices 1 2 3 4 5 6 
#
# 1 83.3359 48.6307 26.5626 11.1789 6.9194 47.0966
# 2 48.6307 86.3008 29.6422 17.6530 3.8866 34.7572
# 3 26.5626 29.6422 138.8709 14.7104 3.7551 16.0497
# 4 11.1789 17.6530 14.7104 45.1397 18.9568 -3.2016
# 5 6.9194 3.8866 3.7551 18.9568 22.6709 -0.4372
# 6 47.0966 34.7572 16.0497 -3.2016 -0.4372 57.7954
#
#
#
# Elastic Compliance Matrix: (Units=1/GPa)
#
#
# Indices 1 2 3 4 5 6 
#
# 1 0.027441 -0.006967 -0.001240 -0.002882 -0.004913 -0.018024
# 2 -0.006967 0.020109 -0.001461 -0.008652 0.006032 -0.006443
# 3 -0.001240 -0.001461 0.008010 -0.002261 0.001184 -0.000451
# 4 -0.002882 -0.008652 -0.002261 0.040810 -0.031190 0.010204
# 5 -0.004913 0.006032 0.001184 -0.031190 0.070437 -0.001148
# 6 -0.018024 -0.006443 -0.000451 0.010204 -0.001148 0.036546
#
#
# Mechanical properties :
#
#
# Convention : Reuss Voigt Hill
#
# Bulk Modulus (GPa) = 27.60822 57.57540 42.59181
# Shear Modulus (GPa) = 21.29782 38.69935 29.99859
#
# Velocity S-wave (km/s) = 2.98559 4.02453 3.54335
# Velocity P-wave (km/s) = 4.84148 6.75964 5.87931
#
# Compressibility (1/GPa) = 0.03622109
#
# Stress axis : x y z
#
# Youngs Moduli (GPa) = 36.44125 49.72969 124.84838
#
# Poissons Ratio (x) = 0.34649 0.15487
# Poissons Ratio (y) = 0.25390 0.18246
# Poissons Ratio (z) = 0.04520 0.07268
#
# Static dielectric constant tensor:
#      x y z
#    x 1.992960 0.016010 0.010290 
#    y 0.016010 1.995060 -0.032520 
#    z 0.010290 -0.032520 1.901410 
# 
# From -- ./inp_files/520199.got.cif
#   From: 2010.05.17/outbox.cif.g08.bks.cpg/sg2_261_cif.got.tgz:520199.got - 2010.06.03 11:33:40.
