data_PCOD9025532
_publ_section_title
;
Structure prediction by ZEFSAII (Michael W. Deem and Ramdas Pophale) SiO2 
 PCOD9025532
Probable space group: P -1
;
_chemical_formula_sum "Si O2"
_cell_formula_units_Z 16
_cell_length_a 5.270759
_cell_length_b 9.010112
_cell_length_c 18.601670
_cell_angle_alpha 118.523596
_cell_angle_beta 58.100090
_cell_angle_gamma 121.040165
_cell_volume 616.529918
_symmetry_space_group_name_H-M "P -1"
_symmetry_group_IT_number 2
_symmetry_cell_setting 'triclinic'
loop_
_space_group_symop_operation_xyz
x,y,z
-x,-y,-z
loop_
_atom_site_type_symbol
_atom_site_label
_atom_site_fract_x
_atom_site_fract_y
_atom_site_fract_z
Si Si1 0.224998 0.542185 0.269676
Si Si2 0.322230 0.645675 0.892928
Si Si3 0.323573 0.644115 0.059097
Si Si4 0.751626 0.915656 0.277537
Si Si5 0.434145 0.020184 0.167414
Si Si6 0.242268 0.096334 0.560866
Si Si7 0.412811 0.157729 0.365267
Si Si8 0.508903 0.517123 0.376076
O O1 0.366631 0.409600 0.176472
O O2 0.434666 0.748957 0.264852
O O3 0.297295 0.515028 0.336964
O O4 0.855518 0.504480 0.302934
O O5 0.018794 0.465298 0.878936
O O6 0.366847 0.818762 0.877020
O O7 0.279231 0.684044 0.991369
O O8 0.513614 0.838071 0.109937
O O9 0.500000 0.500000 0.000000
O O10 0.801110 0.859301 0.337726
O O11 0.054277 0.946073 0.189112
O O12 0.711063 0.109620 0.337948
O O13 0.432290 0.097192 0.265239
O O14 0.407072 0.295372 0.551213
O O15 0.500000 0.000000 0.500000
O O16 0.877705 0.971544 0.573672
O O17 0.361920 0.345211 0.408548
#
# Coordination Sequence:
#
# PCOD9025532 Si02
#       8
#     2   2   2   2   2   2   2   2
#     4  11  22  43  71  97 133 174 224 281 331 392
#     4  11  24  41  63  92 129 175 220 278 342 390
#     4  11  27  40  60  91 133 176 222 274 340 403
#     4  10  22  40  69  95 128 171 227 274 332 394
#     4  11  23  42  64  92 129 169 226 278 332 394
#     4  10  24  44  64  97 141 178 215 272 337 401
#     4  11  23  39  69  99 125 176 228 276 329 396
#     4  11  24  43  70 103 130 176 225 277 332 397
#
# _framework density 25.951703999999999
#
# number of rings (size 3 to 8) (size 9 to 14) (size 15 to 20)
#    0.000    1.250    3.750    1.125    5.250    2.500 
#    0.000    0.625    0.000    0.000    0.000    0.000 
#    0.000    0.000    0.000    0.000    0.000    0.000 
#
# Total GULP energy -89531.999502 kJ/mol
# GULP energy per Si atom -5595.749969 kJ/mol
# Density = 2.589264 g / cm^3
# Si number density = 25.951704 Si / 1000 Ang^3
#
#
#
# Elastic Constant Matrix: (Units=GPa)
#
#
# Indices 1 2 3 4 5 6 
#
# 1 51.6804 9.9898 10.9128 -3.2638 -10.3800 -14.0007
# 2 9.9898 178.5101 44.7260 10.9642 8.7298 -28.9463
# 3 10.9128 44.7260 80.0364 -1.9464 -0.7513 -12.9953
# 4 -3.2638 10.9642 -1.9464 52.3519 -14.2978 -0.6698
# 5 -10.3800 8.7298 -0.7513 -14.2978 43.9522 0.9875
# 6 -14.0007 -28.9463 -12.9953 -0.6698 0.9875 37.2783
#
#
#
# Elastic Compliance Matrix: (Units=1/GPa)
#
#
# Indices 1 2 3 4 5 6 
#
# 1 0.023386 -0.000100 -0.001694 0.003265 0.006396 0.008004
# 2 -0.000100 0.007489 -0.003507 -0.002309 -0.002425 0.004578
# 3 -0.001694 -0.003507 0.015036 0.001483 0.000994 0.001883
# 4 0.003265 -0.002309 0.001483 0.022156 0.008460 0.000125
# 5 0.006396 -0.002425 0.000994 0.008460 0.027507 0.000289
# 6 0.008004 0.004578 0.001883 0.000125 0.000289 0.034037
#
#
# Mechanical properties :
#
#
# Convention : Reuss Voigt Hill
#
# Bulk Modulus (GPa) = 28.32058 49.05380 38.68719
# Shear Modulus (GPa) = 32.89879 43.02302 37.96091
#
# Velocity S-wave (km/s) = 3.56433 4.07604 3.82874
# Velocity P-wave (km/s) = 5.27975 6.41055 5.87243
#
# Compressibility (1/GPa) = 0.03531001
#
# Stress axis : x y z
#
# Youngs Moduli (GPa) = 42.76069 133.53128 66.50652
#
# Poissons Ratio (x) = 0.01332 0.11265
# Poissons Ratio (y) = 0.00426 0.23324
# Poissons Ratio (z) = 0.07243 0.46829
#
# Static dielectric constant tensor:
#      x y z
#    x 2.129440 0.057680 0.076680 
#    y 0.057680 2.113320 0.049860 
#    z 0.076680 0.049860 2.066220 
# 
# From -- ./inp_files/44074.got.cif
#   From: 2010.05.17/outbox.cif.g08.bks.cpg/sg2_23_cif.got.tgz:44074.got - 2010.06.03 11:33:40.
