data_PCOD9025239
_publ_section_title
;
Structure prediction by ZEFSAII (Michael W. Deem and Ramdas Pophale) SiO2 
 PCOD9025239
Probable space group: P -1
;
_chemical_formula_sum "Si O2"
_cell_formula_units_Z 15
_cell_length_a 21.410488
_cell_length_b 9.044427
_cell_length_c 9.071653
_cell_angle_alpha 133.897482
_cell_angle_beta 34.883193
_cell_angle_gamma 138.566295
_cell_volume 650.429175
_symmetry_space_group_name_H-M "P -1"
_symmetry_group_IT_number 2
_symmetry_cell_setting 'triclinic'
loop_
_space_group_symop_operation_xyz
x,y,z
-x,-y,-z
loop_
_atom_site_type_symbol
_atom_site_label
_atom_site_fract_x
_atom_site_fract_y
_atom_site_fract_z
Si Si1 0.163182 0.214833 0.472905
Si Si2 0.436478 0.512088 0.782231
Si Si3 0.758502 0.342240 0.224200
Si Si4 0.224538 0.608164 0.119886
Si Si5 0.500000 0.000000 0.500000
Si Si6 0.372328 0.109556 0.113302
Si Si7 0.953765 0.883686 0.850778
Si Si8 0.227582 0.090886 0.979847
O O1 0.158271 0.441141 0.692614
O O2 0.291853 0.224027 0.279339
O O3 0.166025 0.203615 0.285081
O O4 0.058938 0.005699 0.612853
O O5 0.500000 0.500000 0.500000
O O6 0.527825 0.708201 0.846750
O O7 0.324444 0.562445 0.986065
O O8 0.372184 0.255837 0.799781
O O9 0.618208 0.239346 0.470619
O O10 0.769841 0.417322 0.085277
O O11 0.793380 0.139230 0.056802
O O12 0.097105 0.390877 0.250267
O O13 0.273501 0.881322 0.230346
O O14 0.567096 0.974726 0.193271
O O15 0.839972 0.936780 0.062192
O O16 0.000000 0.000000 0.000000
#
# Coordination Sequence:
#
# PCOD9025239 Si02
#       8
#     2   2   2   2   1   2   2   2
#     4  12  24  45  74 104 143 189 248 296 360 424
#     4  11  25  42  71 107 151 185 235 298 365 439
#     4  11  23  42  72 103 142 188 234 296 352 436
#     4  10  22  46  64 104 144 185 240 288 361 421
#     4  10  22  40  68 100 148 176 236 288 354 432
#     4  11  24  42  72 108 143 190 236 294 366 429
#     4  11  25  48  73 100 145 191 240 306 358 422
#     4  11  26  47  69 109 139 189 245 291 365 432
#
# _framework density 23.061693999999999
#
# number of rings (size 3 to 8) (size 9 to 14) (size 15 to 20)
#    0.000    1.067    4.000    2.400    7.467    2.133 
#    4.800    0.000    0.000    0.000    0.000    0.000 
#    0.000    0.000    0.000    0.000    0.000    0.000 
#
# Total GULP energy -83570.683116 kJ/mol
# GULP energy per Si atom -5571.378874 kJ/mol
# Density = 2.300920 g / cm^3
# Si number density = 23.061694 Si / 1000 Ang^3
#
#
#
# Elastic Constant Matrix: (Units=GPa)
#
#
# Indices 1 2 3 4 5 6 
#
# 1 105.3735 40.8904 5.5846 9.0116 13.2560 30.0327
# 2 40.8904 151.5719 39.0949 -12.5840 20.3927 18.7884
# 3 5.5846 39.0949 54.5826 -10.3026 21.7211 16.2999
# 4 9.0116 -12.5840 -10.3026 36.0866 -3.8567 4.2948
# 5 13.2560 20.3927 21.7211 -3.8567 26.2679 0.6630
# 6 30.0327 18.7884 16.2999 4.2948 0.6630 39.1135
#
#
#
# Elastic Compliance Matrix: (Units=1/GPa)
#
#
# Indices 1 2 3 4 5 6 
#
# 1 0.016566 -0.003615 0.010647 -0.002106 -0.014290 -0.014947
# 2 -0.003615 0.009245 -0.005919 0.002358 -0.000126 0.000545
# 3 0.010647 -0.005919 0.044058 0.006889 -0.035596 -0.023845
# 4 -0.002106 0.002358 0.006889 0.031539 -0.001687 -0.005821
# 5 -0.014290 -0.000126 -0.035596 -0.001687 0.073939 0.024798
# 6 -0.014947 0.000545 -0.023845 -0.005821 0.024798 0.046938
#
#
# Mechanical properties :
#
#
# Convention : Reuss Voigt Hill
#
# Bulk Modulus (GPa) = 13.87072 53.62977 33.75024
# Shear Modulus (GPa) = 20.48426 35.35747 27.92087
#
# Velocity S-wave (km/s) = 2.98356 3.91982 3.48329
# Velocity P-wave (km/s) = 4.23043 6.61755 5.55376
#
# Compressibility (1/GPa) = 0.07209433
#
# Stress axis : x y z
#
# Youngs Moduli (GPa) = 60.36287 108.17095 22.69753
#
# Poissons Ratio (x) = 0.39102 -0.24166
# Poissons Ratio (y) = 0.21820 0.13435
# Poissons Ratio (z) = -0.64268 0.64029
#
# Static dielectric constant tensor:
#      x y z
#    x 1.973560 -0.059800 -0.094180 
#    y -0.059800 1.976030 0.068120 
#    z -0.094180 0.068120 1.900180 
# 
# From -- ./inp_files/343003.got.cif
#   From: 2010.05.17/outbox.cif.g08.bks.cpg/sg2_172_cif.got.tgz:343003.got - 2010.06.03 11:33:40.
