data_PCOD9025672
_publ_section_title
;
Structure prediction by ZEFSAII (Michael W. Deem and Ramdas Pophale) SiO2 
 PCOD9025672
Probable space group: P -1
;
_chemical_formula_sum "Si O2"
_cell_formula_units_Z 14
_cell_length_a 11.241636
_cell_length_b 11.618496
_cell_length_c 7.290952
_cell_angle_alpha 83.247449
_cell_angle_beta 39.832253
_cell_angle_gamma 66.400972
_cell_volume 528.918928
_symmetry_space_group_name_H-M "P -1"
_symmetry_group_IT_number 2
_symmetry_cell_setting 'triclinic'
loop_
_space_group_symop_operation_xyz
x,y,z
-x,-y,-z
loop_
_atom_site_type_symbol
_atom_site_label
_atom_site_fract_x
_atom_site_fract_y
_atom_site_fract_z
Si Si1 0.551761 0.199775 0.803475
Si Si2 0.382474 0.145286 0.513681
Si Si3 0.213219 0.664883 0.323382
Si Si4 0.759973 0.160280 0.167828
Si Si5 0.130152 0.358960 0.075490
Si Si6 0.139829 0.078847 0.507630
Si Si7 0.717147 0.432248 0.142790
O O1 0.624815 0.298988 0.778457
O O2 0.650876 0.159070 0.487964
O O3 0.679864 0.055659 0.772139
O O4 0.300248 0.277409 0.052940
O O5 0.564357 0.187217 0.259158
O O6 0.264397 0.131127 0.479766
O O7 0.500000 0.000000 0.500000
O O8 0.213775 0.255841 0.828758
O O9 0.105397 0.603333 0.593383
O O10 0.016515 0.808160 0.466856
O O11 0.302497 0.578560 0.051126
O O12 0.813417 0.278848 0.108869
O O13 0.973922 0.052895 0.834909
O O14 0.159555 0.486537 0.981791
O O15 0.500000 0.500000 0.500000
#
# Coordination Sequence:
#
# PCOD9025672 Si02
#       7
#     2   2   2   2   2   2   2
#     4  11  22  41  66  99 137 177 206 273 334 390
#     4  11  21  39  68 100 128 175 216 271 317 389
#     4  11  27  41  66  99 135 175 217 271 333 388
#     4  10  22  40  70  95 131 173 224 265 324 384
#     4  11  24  45  68  99 135 171 223 273 328 382
#     4  11  23  40  63 101 137 171 218 261 326 400
#     4  11  22  49  68  94 129 174 229 273 322 393
#
# _framework density 26.469082
#
# number of rings (size 3 to 8) (size 9 to 14) (size 15 to 20)
#    0.000    1.143    5.714    2.143    2.000    3.429 
#    0.000    9.286    0.000    0.000    0.000    0.000 
#    0.000    0.000    0.000    0.000    0.000    0.000 
#
# Total GULP energy -78399.333898 kJ/mol
# GULP energy per Si atom -5599.952421 kJ/mol
# Density = 2.640884 g / cm^3
# Si number density = 26.469082 Si / 1000 Ang^3
#
#
#
# Elastic Constant Matrix: (Units=GPa)
#
#
# Indices 1 2 3 4 5 6 
#
# 1 120.5069 22.9299 31.1804 1.1457 -11.6898 42.7328
# 2 22.9299 104.3789 23.0239 12.1032 -0.8354 23.7900
# 3 31.1804 23.0239 127.7723 -11.0150 5.0302 28.8296
# 4 1.1457 12.1032 -11.0150 45.3863 -1.6499 -4.8275
# 5 -11.6898 -0.8354 5.0302 -1.6499 44.1895 5.2212
# 6 42.7328 23.7900 28.8296 -4.8275 5.2212 55.8417
#
#
#
# Elastic Compliance Matrix: (Units=1/GPa)
#
#
# Indices 1 2 3 4 5 6 
#
# 1 0.012394 -0.000131 -0.001187 -0.001399 0.004464 -0.009354
# 2 -0.000131 0.011369 -0.001373 -0.003807 0.000718 -0.004430
# 3 -0.001187 -0.001373 0.009278 0.002293 -0.000955 -0.003009
# 4 -0.001399 -0.003807 0.002293 0.024015 -0.000232 0.003606
# 5 0.004464 0.000718 -0.000955 -0.000232 0.024580 -0.005547
# 6 -0.009354 -0.004430 -0.003009 0.003606 -0.005547 0.029338
#
#
# Mechanical properties :
#
#
# Convention : Reuss Voigt Hill
#
# Bulk Modulus (GPa) = 36.15530 56.32515 46.24023
# Shear Modulus (GPa) = 39.81697 47.45176 43.63437
#
# Velocity S-wave (km/s) = 3.88272 4.23865 4.06458
# Velocity P-wave (km/s) = 5.81289 6.72909 6.28770
#
# Compressibility (1/GPa) = 0.02765846
#
# Stress axis : x y z
#
# Youngs Moduli (GPa) = 80.68672 87.95687 107.78514
#
# Poissons Ratio (x) = 0.01152 0.12789
# Poissons Ratio (y) = 0.01057 0.14804
# Poissons Ratio (z) = 0.09574 0.12081
#
# Static dielectric constant tensor:
#      x y z
#    x 2.160580 -0.149860 0.009860 
#    y -0.149860 2.132670 -0.034070 
#    z 0.009860 -0.034070 2.049770 
# 
# From -- ./inp_files/258771.got.cif
#   From: 2010.05.17/outbox.cif.g08.bks.cpg/sg2_130_cif.got.tgz:258771.got - 2010.06.03 11:33:40.
