data_PCOD9025011
_publ_section_title
;
Structure prediction by ZEFSAII (Michael W. Deem and Ramdas Pophale) SiO2 
 PCOD9025011
Probable space group: P -1
;
_chemical_formula_sum "Si O2"
_cell_formula_units_Z 14
_cell_length_a 11.566674
_cell_length_b 5.633121
_cell_length_c 10.938883
_cell_angle_alpha 71.272627
_cell_angle_beta 61.779664
_cell_angle_gamma 81.267446
_cell_volume 594.770547
_symmetry_space_group_name_H-M "P -1"
_symmetry_group_IT_number 2
_symmetry_cell_setting 'triclinic'
loop_
_space_group_symop_operation_xyz
x,y,z
-x,-y,-z
loop_
_atom_site_type_symbol
_atom_site_label
_atom_site_fract_x
_atom_site_fract_y
_atom_site_fract_z
Si Si1 0.346268 0.218920 0.127414
Si Si2 0.891209 0.458837 0.163764
Si Si3 0.357310 0.798025 0.376220
Si Si4 0.256412 1.000000 0.621794
Si Si5 0.653732 0.218919 0.973681
Si Si6 0.108791 0.458838 0.554973
Si Si7 0.642689 0.798025 0.233531
O O1 0.289616 0.500000 0.105192
O O2 0.346903 0.077936 0.279624
O O3 0.287859 0.000000 0.106071
O O4 0.500000 0.246355 0.008427
O O5 0.839860 0.176436 0.225416
O O6 0.923314 0.499998 0.288343
O O7 0.767287 0.634515 0.163447
O O8 0.000000 0.500000 0.000000
O O9 0.344985 0.826432 0.522439
O O10 0.232713 0.634516 0.430732
O O11 0.500000 0.696802 0.284879
O O12 0.160141 0.176438 0.565276
O O13 0.344986 0.173565 0.632575
O O14 0.653097 0.077936 0.126526
O O15 0.000000 0.500000 0.500000
#
# Coordination Sequence:
#
# PCOD9025011 Si02
#       7
#     2   2   2   2   2   2   2
#     4   9  19  36  58  93 141 182 223 278 349 427
#     4  10  24  47  69  98 136 182 237 290 355 432
#     4  10  22  40  67 100 138 178 229 293 358 422
#     4  10  23  42  66  96 133 174 238 288 359 422
#     4   9  19  36  58  93 141 182 223 278 349 427
#     4  10  24  47  69  98 136 182 237 290 355 432
#     4  10  22  40  67 100 138 178 229 293 358 422
#
# _framework density 23.538489999999999
#
# number of rings (size 3 to 8) (size 9 to 14) (size 15 to 20)
#    0.000    2.286    0.000    0.429    4.000   10.857 
#    7.714    0.000    0.000    0.857    0.000    0.000 
#    0.000    0.000    0.000    0.000    0.000    0.000 
#
# Total GULP energy -78103.851681 kJ/mol
# GULP energy per Si atom -5578.846549 kJ/mol
# Density = 2.348492 g / cm^3
# Si number density = 23.538490 Si / 1000 Ang^3
#
#
#
# Elastic Constant Matrix: (Units=GPa)
#
#
# Indices 1 2 3 4 5 6 
#
# 1 141.6806 52.1940 69.7937 2.8244 -9.6174 -17.5109
# 2 52.1940 132.5740 40.4793 -22.7349 -17.7798 -9.9780
# 3 69.7937 40.4793 130.8820 -8.0007 -18.0239 -4.7818
# 4 2.8244 -22.7349 -8.0007 36.4538 2.2028 10.2141
# 5 -9.6174 -17.7798 -18.0239 2.2028 28.0072 -1.8687
# 6 -17.5109 -9.9780 -4.7818 10.2141 -1.8687 26.4179
#
#
#
# Elastic Compliance Matrix: (Units=1/GPa)
#
#
# Indices 1 2 3 4 5 6 
#
# 1 0.012337 -0.003779 -0.005618 -0.006838 -0.000685 0.008329
# 2 -0.003779 0.010903 -0.000294 0.006957 0.004834 -0.000788
# 3 -0.005618 -0.000294 0.011495 0.003226 0.004851 -0.002659
# 4 -0.006838 0.006957 0.003226 0.037421 0.000148 -0.015779
# 5 -0.000685 0.004834 0.004851 0.000148 0.041993 0.005163
# 6 0.008329 -0.000788 -0.002659 -0.015779 0.005163 0.049061
#
#
# Mechanical properties :
#
#
# Convention : Reuss Voigt Hill
#
# Bulk Modulus (GPa) = 65.13908 81.11895 73.12901
# Shear Modulus (GPa) = 26.63668 34.35375 30.49522
#
# Velocity S-wave (km/s) = 3.36761 3.82445 3.60328
# Velocity P-wave (km/s) = 6.54634 7.35112 6.96037
#
# Compressibility (1/GPa) = 0.01535177
#
# Stress axis : x y z
#
# Youngs Moduli (GPa) = 81.05607 91.71950 86.99102
#
# Poissons Ratio (x) = 0.34664 0.48871
# Poissons Ratio (y) = 0.30634 0.02561
# Poissons Ratio (z) = 0.45537 0.02700
#
# Static dielectric constant tensor:
#      x y z
#    x 1.924810 0.024940 0.065670 
#    y 0.024940 1.915380 0.026230 
#    z 0.065670 0.026230 1.964780 
# 
# From -- ./inp_files/71074.got.cif
#   From: 2010.05.17/outbox.cif.g08.bks.cpg/sg2_36_cif.got.tgz:71074.got - 2010.06.03 11:33:40.
