data_PCOD9025105
_publ_section_title
;
Structure prediction by ZEFSAII (Michael W. Deem and Ramdas Pophale) SiO2 
 PCOD9025105
Probable space group: P -1
;
_chemical_formula_sum "Si O2"
_cell_formula_units_Z 12
_cell_length_a 12.985846
_cell_length_b 7.769683
_cell_length_c 9.274944
_cell_angle_alpha 138.690605
_cell_angle_beta 117.789190
_cell_angle_gamma 44.840171
_cell_volume 431.137456
_symmetry_space_group_name_H-M "P -1"
_symmetry_group_IT_number 2
_symmetry_cell_setting 'triclinic'
loop_
_space_group_symop_operation_xyz
x,y,z
-x,-y,-z
loop_
_atom_site_type_symbol
_atom_site_label
_atom_site_fract_x
_atom_site_fract_y
_atom_site_fract_z
Si Si1 0.297202 0.227483 0.885290
Si Si2 0.405099 0.625353 0.160666
Si Si3 0.849968 0.305386 0.668294
Si Si4 0.662468 0.391894 0.356696
Si Si5 0.126814 0.025554 0.038851
Si Si6 0.092727 0.328038 0.596981
O O1 0.403704 0.327095 0.025681
O O2 0.173704 0.458045 0.071781
O O3 0.225006 0.327420 0.741510
O O4 0.350855 0.867756 0.734033
O O5 0.501743 0.666392 0.358747
O O6 0.247219 0.910324 0.168968
O O7 0.500000 0.500000 0.000000
O O8 0.726080 0.498653 0.585177
O O9 0.831247 0.055885 0.586115
O O10 0.000000 0.000000 0.500000
O O11 0.787197 0.186343 0.182063
O O12 0.036649 0.421894 0.213381
O O13 0.000000 0.000000 0.000000
O O14 0.000000 0.500000 0.500000
#
# Coordination Sequence:
#
# PCOD9025105 Si02
#       6
#     2   2   2   2   2   2
#     4  11  22  44  66  92 134 173 213 273 324 383
#     4  10  22  40  67  93 129 176 215 267 328 382
#     4  11  24  39  67  98 131 170 216 270 324 385
#     4  10  24  42  65  97 131 171 223 260 328 392
#     4  11  21  41  67  93 130 172 213 270 322 379
#     4  11  24  37  64  99 125 165 219 265 328 380
#
# _framework density 27.833352000000001
#
# number of rings (size 3 to 8) (size 9 to 14) (size 15 to 20)
#    0.000    1.333    1.667    3.500    2.333    3.333 
#    0.000    1.667    0.000   14.000    0.000    0.000 
#    0.000    0.000    0.000    0.000    0.000    0.000 
#
# Total GULP energy -67065.364749 kJ/mol
# GULP energy per Si atom -5588.780396 kJ/mol
# Density = 2.777000 g / cm^3
# Si number density = 27.833352 Si / 1000 Ang^3
#
#
#
# Elastic Constant Matrix: (Units=GPa)
#
#
# Indices 1 2 3 4 5 6 
#
# 1 92.7784 14.0099 4.6639 -10.5701 -17.1827 -11.0600
# 2 14.0099 134.0529 57.4433 -35.4659 13.1418 -30.5466
# 3 4.6639 57.4433 111.3531 -42.9198 -9.7831 -18.7718
# 4 -10.5701 -35.4659 -42.9198 73.5617 -3.7994 11.0288
# 5 -17.1827 13.1418 -9.7831 -3.7994 42.9951 -9.6392
# 6 -11.0600 -30.5466 -18.7718 11.0288 -9.6392 44.1959
#
#
#
# Elastic Compliance Matrix: (Units=1/GPa)
#
#
# Indices 1 2 3 4 5 6 
#
# 1 0.013048 -0.001592 0.002555 0.002339 0.007451 0.004291
# 2 -0.001592 0.011522 -0.004924 0.001613 -0.004205 0.004154
# 3 0.002555 -0.004924 0.015282 0.006744 0.007420 0.003662
# 4 0.002339 0.001613 0.006744 0.018731 0.003792 0.000718
# 5 0.007451 -0.004205 0.007420 0.003792 0.031338 0.007999
# 6 0.004291 0.004154 0.003662 0.000718 0.007999 0.029693
#
#
# Mechanical properties :
#
#
# Convention : Reuss Voigt Hill
#
# Bulk Modulus (GPa) = 31.31981 54.49094 42.90538
# Shear Modulus (GPa) = 36.18437 49.62171 42.90304
#
# Velocity S-wave (km/s) = 3.60951 4.22692 3.93036
# Velocity P-wave (km/s) = 5.35243 6.59110 6.00379
#
# Compressibility (1/GPa) = 0.03192867
#
# Stress axis : x y z
#
# Youngs Moduli (GPa) = 76.63734 86.79190 65.43486
#
# Poissons Ratio (x) = 0.13818 -0.16715
# Poissons Ratio (y) = 0.12201 0.32223
# Poissons Ratio (z) = -0.19577 0.42740
#
# Static dielectric constant tensor:
#      x y z
#    x 2.531410 0.055850 -0.049680 
#    y 0.055850 2.181830 0.064610 
#    z -0.049680 0.064610 2.194750 
# 
# From -- ./inp_files/209636.got.cif
#   From: 2010.05.17/outbox.cif.g08.bks.cpg/sg2_105_cif.got.tgz:209636.got - 2010.06.03 11:33:40.
