data_PCOD9025009
_publ_section_title
;
Structure prediction by ZEFSAII (Michael W. Deem and Ramdas Pophale) SiO2 
 PCOD9025009
Probable space group: P -1
;
_chemical_formula_sum "Si O2"
_cell_formula_units_Z 14
_cell_length_a 15.563776
_cell_length_b 11.380117
_cell_length_c 12.224666
_cell_angle_alpha 115.988519
_cell_angle_beta 151.613427
_cell_angle_gamma 44.657021
_cell_volume 598.717758
_symmetry_space_group_name_H-M "P -1"
_symmetry_group_IT_number 2
_symmetry_cell_setting 'triclinic'
loop_
_space_group_symop_operation_xyz
x,y,z
-x,-y,-z
loop_
_atom_site_type_symbol
_atom_site_label
_atom_site_fract_x
_atom_site_fract_y
_atom_site_fract_z
Si Si1 0.931012 0.177717 0.319749
Si Si2 0.127408 0.616763 0.048554
Si Si3 0.874801 0.460333 0.230736
Si Si4 0.271809 0.814933 0.379619
Si Si5 0.559289 0.815389 0.510043
Si Si6 0.467114 0.247338 0.791358
Si Si7 0.619982 0.062043 0.100640
O O1 0.926081 0.323684 0.323909
O O2 0.620117 0.293542 0.018041
O O3 0.103747 0.989289 0.352748
O O4 0.080775 0.086128 0.567463
O O5 0.111059 0.772410 0.142589
O O6 0.435535 0.395857 0.329606
O O7 0.103798 0.629009 0.896175
O O8 0.891540 0.644557 0.836628
O O9 0.139422 0.410869 0.509822
O O10 0.592586 0.701015 0.015495
O O11 0.370887 0.851333 0.404832
O O12 0.502811 0.780555 0.315933
O O13 0.500000 0.000000 0.500000
O O14 0.612916 0.059655 0.959171
O O15 0.500000 0.000000 0.000000
#
# Coordination Sequence:
#
# PCOD9025009 Si02
#       7
#     2   2   2   2   2   2   2
#     4  12  25  45  73 101 138 181 227 282 338 404
#     4  10  22  40  67 100 137 175 225 276 336 406
#     4  11  24  47  70 101 137 180 228 280 342 400
#     4  11  22  42  67 102 137 176 223 277 339 401
#     4  11  23  39  66  98 135 180 221 275 340 403
#     4  11  25  44  68 103 136 177 230 280 337 402
#     4  12  26  49  72  98 138 183 227 286 340 400
#
# _framework density 23.383303999999999
#
# number of rings (size 3 to 8) (size 9 to 14) (size 15 to 20)
#    0.000    0.857    2.857    4.714    0.000    2.286 
#    2.571    1.429    0.000    0.000    0.000    0.000 
#    0.000    0.000    0.000    0.000    0.000    0.000 
#
# Total GULP energy -78331.738349 kJ/mol
# GULP energy per Si atom -5595.124168 kJ/mol
# Density = 2.333008 g / cm^3
# Si number density = 23.383304 Si / 1000 Ang^3
#
#
#
# Elastic Constant Matrix: (Units=GPa)
#
#
# Indices 1 2 3 4 5 6 
#
# 1 102.7156 8.4953 17.2338 5.0418 -7.9649 8.6776
# 2 8.4953 91.5426 20.7627 -4.4178 -5.2122 5.0496
# 3 17.2338 20.7627 148.4371 9.4918 -11.1632 0.7043
# 4 5.0418 -4.4178 9.4918 34.8973 0.1803 -0.3243
# 5 -7.9649 -5.2122 -11.1632 0.1803 34.6640 -3.4563
# 6 8.6776 5.0496 0.7043 -0.3243 -3.4563 30.7895
#
#
#
# Elastic Compliance Matrix: (Units=1/GPa)
#
#
# Indices 1 2 3 4 5 6 
#
# 1 0.010357 -0.000581 -0.000890 -0.001361 0.001752 -0.002621
# 2 -0.000581 0.011575 -0.001600 0.001965 0.000925 -0.001574
# 3 -0.000890 -0.001600 0.007344 -0.002077 0.001985 0.000546
# 4 -0.001361 0.001965 -0.002077 0.029673 -0.000807 0.000331
# 5 0.001752 0.000925 0.001985 -0.000807 0.030303 0.002702
# 6 -0.002621 -0.001574 0.000546 0.000331 0.002702 0.033770
#
#
# Mechanical properties :
#
#
# Convention : Reuss Voigt Hill
#
# Bulk Modulus (GPa) = 43.22725 48.40877 45.81801
# Shear Modulus (GPa) = 36.52988 39.81707 38.17348
#
# Velocity S-wave (km/s) = 3.95678 4.13098 4.04482
# Velocity P-wave (km/s) = 6.27705 6.59549 6.43824
#
# Compressibility (1/GPa) = 0.02313356
#
# Stress axis : x y z
#
# Youngs Moduli (GPa) = 96.55262 86.39309 136.17457
#
# Poissons Ratio (x) = 0.05016 0.12120
# Poissons Ratio (y) = 0.05606 0.21792
# Poissons Ratio (z) = 0.08594 0.13826
#
# Static dielectric constant tensor:
#      x y z
#    x 1.916290 -0.060350 0.008820 
#    y -0.060350 1.975840 0.013110 
#    z 0.008820 0.013110 1.936740 
# 
# From -- ./inp_files/450461.got.cif
#   From: 2010.05.17/outbox.cif.g08.bks.cpg/sg2_226_cif.got.tgz:450461.got - 2010.06.03 11:33:40.
