data_PCOD9025855
_publ_section_title
;
Structure prediction by ZEFSAII (Michael W. Deem and Ramdas Pophale) SiO2 
 PCOD9025855
Probable space group: P -1
;
_chemical_formula_sum "Si O2"
_cell_formula_units_Z 15
_cell_length_a 8.596906
_cell_length_b 20.622918
_cell_length_c 17.257724
_cell_angle_alpha 160.664434
_cell_angle_beta 52.504725
_cell_angle_gamma 134.515684
_cell_volume 704.030554
_symmetry_space_group_name_H-M "P -1"
_symmetry_group_IT_number 2
_symmetry_cell_setting 'triclinic'
loop_
_space_group_symop_operation_xyz
x,y,z
-x,-y,-z
loop_
_atom_site_type_symbol
_atom_site_label
_atom_site_fract_x
_atom_site_fract_y
_atom_site_fract_z
Si Si1 0.730508 0.126070 0.359688
Si Si2 0.430267 0.739533 0.892612
Si Si3 0.769537 0.646967 0.362586
Si Si4 0.850907 0.089428 0.926313
Si Si5 0.154743 0.154006 0.195793
Si Si6 0.000000 0.500000 0.000000
Si Si7 0.347822 0.470122 0.179345
Si Si8 0.498225 0.155989 0.743322
O O1 0.663822 0.317220 0.608470
O O2 0.988660 0.228381 0.370855
O O3 0.674546 0.986811 0.298437
O O4 0.574203 0.951129 0.144307
O O5 0.267237 0.530680 0.759111
O O6 0.610605 0.685645 0.734997
O O7 0.303621 0.816398 0.956824
O O8 0.832961 0.888617 0.650590
O O9 0.529084 0.552082 0.285710
O O10 0.945884 0.648691 0.249140
O O11 0.795299 0.986829 0.913552
O O12 0.101934 0.293352 0.082295
O O13 0.000000 0.000000 0.000000
O O14 0.746626 0.293074 0.857008
O O15 0.430888 0.344547 0.952368
O O16 0.500000 0.000000 0.500000
#
# Coordination Sequence:
#
# PCOD9025855 Si02
#       8
#     2   2   2   2   2   1   2   2
#     4  11  22  46  69  98 142 181 223 286 342 400
#     4  11  23  45  68 101 137 179 231 282 339 408
#     4  11  24  46  69 100 142 177 227 287 341 404
#     4  12  24  42  73 103 135 182 232 275 345 414
#     4  10  23  45  70  98 140 182 226 283 341 403
#     4  10  22  40  72  98 132 178 220 284 336 394
#     4  11  23  43  68 101 139 178 223 282 339 406
#     4  11  23  44  70  98 137 181 228 279 345 406
#
# _framework density 21.305892
#
# number of rings (size 3 to 8) (size 9 to 14) (size 15 to 20)
#    0.000    1.067    5.333    2.000    1.867    1.067 
#    2.400    9.333    0.000    0.000    0.000    0.000 
#    0.000    0.000    0.000    0.000    0.000    0.000 
#
# Total GULP energy -83551.117314 kJ/mol
# GULP energy per Si atom -5570.074488 kJ/mol
# Density = 2.125740 g / cm^3
# Si number density = 21.305892 Si / 1000 Ang^3
#
#
#
# Elastic Constant Matrix: (Units=GPa)
#
#
# Indices 1 2 3 4 5 6 
#
# 1 99.3944 27.3569 26.6408 -17.8910 -16.5539 1.1843
# 2 27.3569 97.1347 24.9541 -18.5224 -5.2301 24.8992
# 3 26.6408 24.9541 109.5777 -13.3581 -10.0199 9.0158
# 4 -17.8910 -18.5224 -13.3581 20.8307 -3.4657 -3.0953
# 5 -16.5539 -5.2301 -10.0199 -3.4657 34.2620 -1.1781
# 6 1.1843 24.8992 9.0158 -3.0953 -1.1781 14.0908
#
#
#
# Elastic Compliance Matrix: (Units=1/GPa)
#
#
# Indices 1 2 3 4 5 6 
#
# 1 0.014538 -0.003519 -0.001444 0.011009 0.007487 0.008965
# 2 -0.003519 0.023705 0.000407 0.012877 0.002004 -0.038857
# 3 -0.001444 0.000407 0.010836 0.005654 0.002897 -0.006047
# 4 0.011009 0.012877 0.005654 0.073760 0.016064 -0.009751
# 5 0.007487 0.002004 0.002897 0.016064 0.035599 0.000481
# 6 0.008965 -0.038857 -0.006047 -0.009751 0.000481 0.140645
#
#
# Mechanical properties :
#
#
# Convention : Reuss Voigt Hill
#
# Bulk Modulus (GPa) = 25.02040 51.55671 38.28856
# Shear Modulus (GPa) = 15.55117 28.98036 22.26576
#
# Velocity S-wave (km/s) = 2.70460 3.69210 3.23623
# Velocity P-wave (km/s) = 4.63918 6.51355 5.65457
#
# Compressibility (1/GPa) = 0.03996739
#
# Stress axis : x y z
#
# Youngs Moduli (GPa) = 68.78396 42.18444 92.28438
#
# Poissons Ratio (x) = 0.14846 0.13327
# Poissons Ratio (y) = 0.24207 -0.03758
# Poissons Ratio (z) = 0.09933 -0.01718
#
# Static dielectric constant tensor:
#      x y z
#    x 1.793320 -0.005840 0.008670 
#    y -0.005840 1.750340 -0.013550 
#    z 0.008670 -0.013550 1.805970 
# 
# From -- ./inp_files/562745.got.cif
#   From: 2010.05.17/outbox.cif.g08.bks.cpg/sg2_282_cif.got.tgz:562745.got - 2010.06.03 11:33:40.
