data_PCOD9025625
_publ_section_title
;
Structure prediction by ZEFSAII (Michael W. Deem and Ramdas Pophale) SiO2 
 PCOD9025625
Probable space group: P -1
;
_chemical_formula_sum "Si O2"
_cell_formula_units_Z 14
_cell_length_a 11.603253
_cell_length_b 12.659735
_cell_length_c 5.436426
_cell_angle_alpha 73.211513
_cell_angle_beta 82.266838
_cell_angle_gamma 48.003587
_cell_volume 566.260282
_symmetry_space_group_name_H-M "P -1"
_symmetry_group_IT_number 2
_symmetry_cell_setting 'triclinic'
loop_
_space_group_symop_operation_xyz
x,y,z
-x,-y,-z
loop_
_atom_site_type_symbol
_atom_site_label
_atom_site_fract_x
_atom_site_fract_y
_atom_site_fract_z
Si Si1 0.406622 0.538262 0.751961
Si Si2 0.879291 0.678747 0.644410
Si Si3 0.800147 0.511682 0.020927
Si Si4 0.293392 0.930667 0.063103
Si Si5 0.004501 0.256662 0.797343
Si Si6 0.620780 0.021733 0.503567
Si Si7 0.869296 0.156725 0.564065
O O1 0.500000 0.500000 0.500000
O O2 0.261269 0.714079 0.665291
O O3 0.500000 0.500000 0.000000
O O4 0.343851 0.451334 0.824316
O O5 0.781260 0.636972 0.794106
O O6 0.779602 0.851524 0.599666
O O7 0.922478 0.670739 0.352293
O O8 0.046179 0.572958 0.799403
O O9 0.851680 0.385303 0.899756
O O10 0.398943 0.901867 0.284492
O O11 0.222056 0.856607 0.194490
O O12 0.365016 0.908812 0.787676
O O13 0.139711 0.105352 0.993214
O O14 0.950269 0.210719 0.626970
O O15 0.500000 0.000000 0.500000
O O16 0.000000 0.000000 0.500000
#
# Coordination Sequence:
#
# PCOD9025625 Si02
#       7
#     2   2   2   2   2   2   2
#     4  12  29  50  72 108 158 196 245 315 384 442
#     4  10  22  40  70 103 135 187 250 299 370 439
#     4  11  22  43  71 100 142 192 247 301 370 453
#     4  11  24  41  68 103 139 186 249 295 371 432
#     4  11  21  42  69 110 142 182 247 324 360 432
#     4  11  24  45  66 102 146 187 236 315 369 440
#     4  12  25  47  77 109 145 200 253 310 367 459
#
# _framework density 24.723611999999999
#
# number of rings (size 3 to 8) (size 9 to 14) (size 15 to 20)
#    0.000    0.857    2.857    4.714    0.000    5.714 
#    0.000    0.000    0.000    0.000    0.000    0.000 
#    0.000    0.000    0.000    0.000    0.000    0.000 
#
# Total GULP energy -78328.314992 kJ/mol
# GULP energy per Si atom -5594.879642 kJ/mol
# Density = 2.466734 g / cm^3
# Si number density = 24.723612 Si / 1000 Ang^3
#
#
#
# Elastic Constant Matrix: (Units=GPa)
#
#
# Indices 1 2 3 4 5 6 
#
# 1 148.6059 23.6219 80.8736 -7.2024 -19.1454 -2.2266
# 2 23.6219 64.8998 42.9801 -1.0783 10.8220 9.1251
# 3 80.8736 42.9801 183.1236 -18.7283 -29.9034 5.9002
# 4 -7.2024 -1.0783 -18.7283 33.4170 8.2554 1.1513
# 5 -19.1454 10.8220 -29.9034 8.2554 70.1769 -5.1607
# 6 -2.2266 9.1251 5.9002 1.1513 -5.1607 25.6379
#
#
#
# Elastic Compliance Matrix: (Units=1/GPa)
#
#
# Indices 1 2 3 4 5 6 
#
# 1 0.009110 -0.001565 -0.003552 -0.000523 0.001457 0.002482
# 2 -0.001565 0.021656 -0.005273 -0.000713 -0.006511 -0.007909
# 3 -0.003552 -0.005273 0.009159 0.003371 0.003349 -0.000017
# 4 -0.000523 -0.000713 0.003371 0.032407 -0.002596 -0.002545
# 5 0.001457 -0.006511 0.003349 -0.002596 0.017779 0.005369
# 6 0.002482 -0.007909 -0.000017 -0.002545 0.005369 0.043234
#
#
# Mechanical properties :
#
#
# Convention : Reuss Voigt Hill
#
# Bulk Modulus (GPa) = 52.22840 76.84228 64.53534
# Shear Modulus (GPa) = 31.15143 42.45663 36.80403
#
# Velocity S-wave (km/s) = 3.55348 4.14847 3.86245
# Velocity P-wave (km/s) = 6.16499 7.35489 6.78607
#
# Compressibility (1/GPa) = 0.01914667
#
# Stress axis : x y z
#
# Youngs Moduli (GPa) = 109.76445 46.17700 109.18008
#
# Poissons Ratio (x) = 0.07224 0.38778
# Poissons Ratio (y) = 0.17173 0.57572
# Poissons Ratio (z) = 0.38986 0.24350
#
# Static dielectric constant tensor:
#      x y z
#    x 1.968710 -0.019560 -0.039370 
#    y -0.019560 2.005430 0.057020 
#    z -0.039370 0.057020 2.078100 
# 
# From -- ./inp_files/75438.got.cif
#   From: 2010.05.17/outbox.cif.g08.bks.cpg/sg2_38_cif.got.tgz:75438.got - 2010.06.03 11:33:40.
