data_PCOD9025026
_publ_section_title
;
Structure prediction by ZEFSAII (Michael W. Deem and Ramdas Pophale) SiO2 
 PCOD9025026
Probable space group: P -1
;
_chemical_formula_sum "Si O2"
_cell_formula_units_Z 16
_cell_length_a 9.192530
_cell_length_b 11.430281
_cell_length_c 15.136056
_cell_angle_alpha 98.159845
_cell_angle_beta 46.265690
_cell_angle_gamma 129.415935
_cell_volume 751.679773
_symmetry_space_group_name_H-M "P -1"
_symmetry_group_IT_number 2
_symmetry_cell_setting 'triclinic'
loop_
_space_group_symop_operation_xyz
x,y,z
-x,-y,-z
loop_
_atom_site_type_symbol
_atom_site_label
_atom_site_fract_x
_atom_site_fract_y
_atom_site_fract_z
Si Si1 0.207948 0.404048 0.277687
Si Si2 0.658334 0.568323 0.577940
Si Si3 0.532149 0.160653 0.570235
Si Si4 0.738687 0.766062 0.416071
Si Si5 0.142179 0.211904 0.127242
Si Si6 0.249484 0.991643 0.094196
Si Si7 0.714126 0.292812 0.695564
Si Si8 0.105518 0.912314 0.960084
O O1 0.367890 0.438406 0.306260
O O2 0.281938 0.361501 0.155802
O O3 0.264315 0.568747 0.255441
O O4 0.842737 0.226890 0.431469
O O5 0.714863 0.717596 0.521435
O O6 0.392763 0.391955 0.612567
O O7 0.959735 0.624593 0.434797
O O8 0.457762 0.205568 0.521236
O O9 0.615008 0.274869 0.634076
O O10 0.211813 0.963754 0.712333
O O11 0.074642 0.929630 0.253268
O O12 0.082781 0.232603 0.054433
O O13 0.305828 0.154597 0.059455
O O14 0.053076 0.859007 0.077905
O O15 0.500000 0.000000 0.000000
O O16 0.469429 0.089372 0.811943
O O17 0.000000 0.000000 0.000000
#
# Coordination Sequence:
#
# PCOD9025026 Si02
#       8
#     2   2   2   2   2   2   2   2
#     4  11  18  31  51  82 114 130 160 217 264 302
#     4  10  19  30  52  81 108 133 168 206 258 317
#     4   9  16  32  50  77 106 142 162 203 254 319
#     4  10  18  32  53  79  99 134 181 204 249 307
#     4   9  20  33  53  79 105 133 172 214 263 301
#     4  10  20  37  57  71  97 140 184 214 244 303
#     4  10  17  31  54  78 102 138 175 205 251 309
#     4   9  19  35  55  73  98 136 186 212 244 300
#
# _framework density 21.285658000000002
#
# number of rings (size 3 to 8) (size 9 to 14) (size 15 to 20)
#    0.000    2.250    2.500    2.625    0.000    0.000 
#    0.000    6.250    0.000    0.750    0.000    0.000 
#    0.000    0.000    0.000    0.000    0.000    0.000 
#
# Total GULP energy -89109.116220 kJ/mol
# GULP energy per Si atom -5569.319764 kJ/mol
# Density = 2.123721 g / cm^3
# Si number density = 21.285658 Si / 1000 Ang^3
#
#
#
# Elastic Constant Matrix: (Units=GPa)
#
#
# Indices 1 2 3 4 5 6 
#
# 1 92.0752 23.0790 9.5285 12.7620 14.0017 10.1141
# 2 23.0790 72.0099 13.5499 27.1791 -1.0003 14.5347
# 3 9.5285 13.5499 45.9394 2.3181 3.9442 7.7479
# 4 12.7620 27.1791 2.3181 35.8876 6.1874 5.7427
# 5 14.0017 -1.0003 3.9442 6.1874 29.8761 1.7293
# 6 10.1141 14.5347 7.7479 5.7427 1.7293 12.2944
#
#
#
# Elastic Compliance Matrix: (Units=1/GPa)
#
#
# Indices 1 2 3 4 5 6 
#
# 1 0.013241 -0.002759 -0.000340 -0.000590 -0.005764 -0.006330
# 2 -0.002759 0.025538 -0.003529 -0.016302 0.007095 -0.019082
# 3 -0.000340 -0.003529 0.025110 0.003771 -0.003321 -0.012667
# 4 -0.000590 -0.016302 0.003771 0.041940 -0.009402 -0.000886
# 5 -0.005764 0.007095 -0.003321 -0.009402 0.038949 -0.002639
# 6 -0.006330 -0.019082 -0.012667 -0.000886 -0.002639 0.117872
#
#
# Mechanical properties :
#
#
# Convention : Reuss Voigt Hill
#
# Bulk Modulus (GPa) = 19.74983 33.59325 26.67154
# Shear Modulus (GPa) = 17.07739 26.53609 21.80674
#
# Velocity S-wave (km/s) = 2.83555 3.53465 3.20422
# Velocity P-wave (km/s) = 4.47427 5.69865 5.12317
#
# Compressibility (1/GPa) = 0.05063335
#
# Stress axis : x y z
#
# Youngs Moduli (GPa) = 75.52148 39.15703 39.82414
#
# Poissons Ratio (x) = 0.10805 0.01355
# Poissons Ratio (y) = 0.20840 0.14052
# Poissons Ratio (z) = 0.02570 0.13817
#
# Static dielectric constant tensor:
#      x y z
#    x 1.776220 -0.004000 0.027870 
#    y -0.004000 1.851440 -0.055590 
#    z 0.027870 -0.055590 1.881670 
# 
# From -- ./inp_files/180497.got.cif
#   From: 2010.05.17/outbox.cif.g08.bks.cpg/sg2_91_cif.got.tgz:180497.got - 2010.06.03 11:33:40.
