data_PCOD9025311
_publ_section_title
;
Structure prediction by ZEFSAII (Michael W. Deem and Ramdas Pophale) SiO2 
 PCOD9025311
Probable space group: P -1
;
_chemical_formula_sum "Si O2"
_cell_formula_units_Z 14
_cell_length_a 16.159076
_cell_length_b 28.019118
_cell_length_c 16.906257
_cell_angle_alpha 18.346018
_cell_angle_beta 162.911741
_cell_angle_gamma 161.592769
_cell_volume 632.436055
_symmetry_space_group_name_H-M "P -1"
_symmetry_group_IT_number 2
_symmetry_cell_setting 'triclinic'
loop_
_space_group_symop_operation_xyz
x,y,z
-x,-y,-z
loop_
_atom_site_type_symbol
_atom_site_label
_atom_site_fract_x
_atom_site_fract_y
_atom_site_fract_z
Si Si1 0.782757 0.100082 0.539969
Si Si2 0.193894 0.142530 0.516473
Si Si3 0.709622 0.020619 0.850317
Si Si4 0.379377 0.575131 0.653073
Si Si5 0.384169 0.827755 0.004656
Si Si6 0.822996 0.517480 0.731946
Si Si7 0.324300 0.642043 0.673438
O O1 0.991634 0.300725 0.428073
O O2 0.500000 0.000000 0.500000
O O3 0.607458 0.091047 0.311734
O O4 0.004800 0.006016 0.883733
O O5 0.377101 0.313942 0.364379
O O6 0.460055 0.129253 0.834158
O O7 0.000000 0.000000 0.500000
O O8 0.927086 0.145589 0.324787
O O9 0.725845 0.205975 0.574460
O O10 0.650179 0.949042 0.996868
O O11 0.429669 0.672498 0.629791
O O12 0.020110 0.518978 0.388693
O O13 0.432371 0.409742 0.979341
O O14 0.267337 0.634816 0.173281
O O15 0.500000 0.500000 0.500000
O O16 0.000000 0.500000 0.000000
#
# Coordination Sequence:
#
# PCOD9025311 Si02
#       7
#     2   2   2   2   2   2   2
#     4  12  26  44  70 104 141 176 229 304 359 404
#     4  12  26  43  66 102 142 171 231 293 335 404
#     4  12  24  44  69 100 135 178 239 277 351 430
#     4  10  22  42  62  96 134 178 221 281 347 400
#     4  12  25  42  73  99 131 193 229 275 352 422
#     4  12  23  47  71  98 138 181 232 291 339 425
#     4  10  22  40  68  91 131 181 224 273 345 422
#
# _framework density 22.136624999999999
#
# number of rings (size 3 to 8) (size 9 to 14) (size 15 to 20)
#    0.000    0.571    2.857    5.143    0.000    6.857 
#    0.000    0.000    0.000    0.000    0.000    0.000 
#    0.000    0.000    0.000    0.000    0.000    0.000 
#
# Total GULP energy -78314.335511 kJ/mol
# GULP energy per Si atom -5593.881108 kJ/mol
# Density = 2.208624 g / cm^3
# Si number density = 22.136625 Si / 1000 Ang^3
#
#
#
# Elastic Constant Matrix: (Units=GPa)
#
#
# Indices 1 2 3 4 5 6 
#
# 1 51.8058 16.1676 8.9023 -6.8032 12.0665 6.4620
# 2 16.1676 58.9626 6.8414 -0.5647 1.2348 3.7615
# 3 8.9023 6.8414 86.3120 19.4142 17.6552 -3.5595
# 4 -6.8032 -0.5647 19.4142 38.9554 -0.0022 -1.3369
# 5 12.0665 1.2348 17.6552 -0.0022 45.8108 6.0157
# 6 6.4620 3.7615 -3.5595 -1.3369 6.0157 38.9303
#
#
#
# Elastic Compliance Matrix: (Units=1/GPa)
#
#
# Indices 1 2 3 4 5 6 
#
# 1 0.023657 -0.005910 -0.002223 0.005063 -0.004869 -0.002633
# 2 -0.005910 0.018763 -0.001230 -0.000189 0.001684 -0.001211
# 3 -0.002223 -0.001230 0.014861 -0.007730 -0.005427 0.002420
# 4 0.005063 -0.000189 -0.007730 0.030378 0.001751 -0.000756
# 5 -0.004869 0.001684 -0.005427 0.001751 0.025651 -0.003754
# 6 -0.002633 -0.001211 0.002420 -0.000756 -0.003754 0.027016
#
#
# Mechanical properties :
#
#
# Convention : Reuss Voigt Hill
#
# Bulk Modulus (GPa) = 25.93660 28.98925 27.46293
# Shear Modulus (GPa) = 29.08602 35.75056 32.41829
#
# Velocity S-wave (km/s) = 3.62875 4.02306 3.83098
# Velocity P-wave (km/s) = 5.41287 5.89102 5.65700
#
# Compressibility (1/GPa) = 0.03855555
#
# Stress axis : x y z
#
# Youngs Moduli (GPa) = 42.27127 53.29528 67.28981
#
# Poissons Ratio (x) = 0.31500 0.14958
# Poissons Ratio (y) = 0.24984 0.08274
# Poissons Ratio (z) = 0.09396 0.06553
#
# Static dielectric constant tensor:
#      x y z
#    x 1.788910 -0.026080 -0.022660 
#    y -0.026080 1.823590 -0.055620 
#    z -0.022660 -0.055620 1.799780 
# 
# From -- ./inp_files/535718.got.cif
#   From: 2010.05.17/outbox.cif.g08.bks.cpg/sg2_268_cif.got.tgz:535718.got - 2010.06.03 11:33:40.
