data_PCOD9025741
_publ_section_title
;
Structure prediction by ZEFSAII (Michael W. Deem and Ramdas Pophale) SiO2 
 PCOD9025741
Probable space group: P -1
;
_chemical_formula_sum "Si O2"
_cell_formula_units_Z 14
_cell_length_a 13.151155
_cell_length_b 17.798972
_cell_length_c 8.329225
_cell_angle_alpha 138.451170
_cell_angle_beta 52.122400
_cell_angle_gamma 148.812502
_cell_volume 667.681433
_symmetry_space_group_name_H-M "P -1"
_symmetry_group_IT_number 2
_symmetry_cell_setting 'triclinic'
loop_
_space_group_symop_operation_xyz
x,y,z
-x,-y,-z
loop_
_atom_site_type_symbol
_atom_site_label
_atom_site_fract_x
_atom_site_fract_y
_atom_site_fract_z
Si Si1 0.932862 0.080994 0.639327
Si Si2 0.630370 0.018361 0.277120
Si Si3 0.376828 0.461071 0.300759
Si Si4 0.025840 0.890390 0.734011
Si Si5 0.231322 0.669010 0.531815
Si Si6 0.510653 0.795577 0.753655
Si Si7 0.291665 0.472162 0.030903
O O1 0.922064 0.073217 0.445427
O O2 0.091285 0.280757 0.858256
O O3 0.720959 0.961074 0.732266
O O4 0.000000 0.000000 0.500000
O O5 0.500000 0.000000 0.500000
O O6 0.802036 0.060005 0.259639
O O7 0.724053 0.177891 0.331296
O O8 0.503344 0.852924 0.021497
O O9 0.489110 0.646239 0.551747
O O10 0.528199 0.458107 0.134865
O O11 0.183229 0.308172 0.346058
O O12 0.315785 0.447818 0.154179
O O13 0.000000 0.000000 0.000000
O O14 0.342022 0.723888 0.680509
O O15 0.000000 0.500000 0.500000
O O16 0.299045 0.612569 0.257345
#
# Coordination Sequence:
#
# PCOD9025741 Si02
#       7
#     2   2   2   2   2   2   2
#     4  12  23  44  70 105 136 184 236 291 355 420
#     4  12  27  46  68 105 143 182 233 296 354 414
#     4  10  22  42  71 103 140 176 237 291 348 409
#     4  12  28  44  69 103 145 184 238 296 347 410
#     4  11  24  44  70  99 143 190 236 279 348 432
#     4  11  23  45  75 101 138 189 235 281 353 426
#     4  10  22  40  71 102 138 187 231 286 350 419
#
# _framework density 20.968084000000001
#
# number of rings (size 3 to 8) (size 9 to 14) (size 15 to 20)
#    0.000    0.857    1.429    6.429    6.000    2.857 
#    0.000    2.143    0.000    0.000    0.000    0.000 
#    0.000    0.000    0.000    0.000    0.000    0.000 
#
# Total GULP energy -78404.308079 kJ/mol
# GULP energy per Si atom -5600.307720 kJ/mol
# Density = 2.092036 g / cm^3
# Si number density = 20.968084 Si / 1000 Ang^3
#
#
#
# Elastic Constant Matrix: (Units=GPa)
#
#
# Indices 1 2 3 4 5 6 
#
# 1 100.4857 23.4832 61.7823 -3.4103 -14.3623 18.6256
# 2 23.4832 79.9771 36.9369 -12.3160 5.9258 23.4679
# 3 61.7823 36.9369 180.0089 -2.1615 4.7808 12.1969
# 4 -3.4103 -12.3160 -2.1615 35.5864 2.6235 0.0050
# 5 -14.3623 5.9258 4.7808 2.6235 30.8098 1.2920
# 6 18.6256 23.4679 12.1969 0.0050 1.2920 34.8891
#
#
#
# Elastic Compliance Matrix: (Units=1/GPa)
#
#
# Indices 1 2 3 4 5 6 
#
# 1 0.015610 -0.001085 -0.004939 0.000195 0.008495 -0.006192
# 2 -0.001085 0.018403 -0.002496 0.006391 -0.003750 -0.010789
# 3 -0.004939 -0.002496 0.007718 -0.000645 -0.003037 0.001730
# 4 0.000195 0.006391 -0.000645 0.030548 -0.003470 -0.004054
# 5 0.008495 -0.003750 -0.003037 -0.003470 0.038004 -0.002358
# 6 -0.006192 -0.010789 0.001730 -0.004054 -0.002358 0.038708
#
#
# Mechanical properties :
#
#
# Convention : Reuss Voigt Hill
#
# Bulk Modulus (GPa) = 40.50086 67.20850 53.85468
# Shear Modulus (GPa) = 28.69229 36.14169 32.41699
#
# Velocity S-wave (km/s) = 3.70317 4.15619 3.93621
# Velocity P-wave (km/s) = 6.13531 7.42659 6.81162
#
# Compressibility (1/GPa) = 0.02469084
#
# Stress axis : x y z
#
# Youngs Moduli (GPa) = 64.06023 54.33909 129.56188
#
# Poissons Ratio (x) = 0.05897 0.63988
# Poissons Ratio (y) = 0.06952 0.32344
# Poissons Ratio (z) = 0.31638 0.13565
#
# Static dielectric constant tensor:
#      x y z
#    x 1.736660 0.004600 -0.004060 
#    y 0.004600 1.737710 -0.034920 
#    z -0.004060 -0.034920 1.772430 
# 
# From -- ./inp_files/280068.got.cif
#   From: 2010.05.17/outbox.cif.g08.bks.cpg/sg2_141_cif.got.tgz:280068.got - 2010.06.03 11:33:40.
