data_PCOD9025266
_publ_section_title
;
Structure prediction by ZEFSAII (Michael W. Deem and Ramdas Pophale) SiO2 
 PCOD9025266
Probable space group: P -1
;
_chemical_formula_sum "Si O2"
_cell_formula_units_Z 16
_cell_length_a 17.909872
_cell_length_b 17.727977
_cell_length_c 10.932845
_cell_angle_alpha 152.826653
_cell_angle_beta 40.811838
_cell_angle_gamma 156.861885
_cell_volume 585.573145
_symmetry_space_group_name_H-M "P -1"
_symmetry_group_IT_number 2
_symmetry_cell_setting 'triclinic'
loop_
_space_group_symop_operation_xyz
x,y,z
-x,-y,-z
loop_
_atom_site_type_symbol
_atom_site_label
_atom_site_fract_x
_atom_site_fract_y
_atom_site_fract_z
Si Si1 0.679557 0.346118 0.561129
Si Si2 0.156307 0.880331 0.327523
Si Si3 0.904159 0.530992 0.790233
Si Si4 0.714441 0.997780 0.400702
Si Si5 0.671205 0.005568 0.964407
Si Si6 0.686939 0.681196 0.639954
Si Si7 0.292732 0.371119 0.733271
Si Si8 0.927519 0.767224 0.633689
O O1 0.838717 0.475862 0.652128
O O2 0.778820 0.543518 0.603576
O O3 0.523075 0.279272 0.728893
O O4 0.584669 0.064063 0.219416
O O5 0.284630 0.959145 0.392858
O O6 0.191212 0.814819 0.070049
O O7 0.944304 0.661192 0.343123
O O8 0.222482 0.145471 0.588840
O O9 0.821893 0.264031 0.568937
O O10 0.796151 0.556331 0.027608
O O11 0.144849 0.830086 0.937123
O O12 0.850531 0.994736 0.237783
O O13 0.486450 0.671907 0.664673
O O14 0.536803 0.650086 0.821360
O O15 0.774226 0.768248 0.520562
O O16 0.852468 0.841042 0.766339
#
# Coordination Sequence:
#
# PCOD9025266 Si02
#       8
#     2   2   2   2   2   2   2   2
#     4  12  24  43  67  96 136 181 224 266 327 398
#     4   9  22  42  67  97 131 171 211 281 339 379
#     4  12  25  43  65 100 137 178 220 275 325 393
#     4  10  24  45  68  98 133 173 221 281 330 388
#     4  11  22  38  65  99 135 170 218 273 332 390
#     4  10  22  40  68 104 128 173 219 277 339 394
#     4  10  22  42  67 101 136 170 219 275 334 400
#     4  10  23  44  69  97 138 167 224 279 330 393
#
# _framework density 27.323656
#
# number of rings (size 3 to 8) (size 9 to 14) (size 15 to 20)
#    0.750    0.750    1.250    3.750    0.000   10.500 
#    0.000    3.125    0.000    0.000    0.000    0.000 
#    0.000    0.000    0.000    0.000    0.000    0.000 
#
# Total GULP energy -89387.668553 kJ/mol
# GULP energy per Si atom -5586.729285 kJ/mol
# Density = 2.726147 g / cm^3
# Si number density = 27.323656 Si / 1000 Ang^3
#
#
#
# Elastic Constant Matrix: (Units=GPa)
#
#
# Indices 1 2 3 4 5 6 
#
# 1 168.2556 50.1684 19.1249 -4.3627 -6.6339 4.0171
# 2 50.1684 150.9233 38.7943 -5.4023 -7.6127 2.5514
# 3 19.1249 38.7943 87.0150 -15.9667 -3.1088 -5.1280
# 4 -4.3627 -5.4023 -15.9667 27.9823 -2.6177 -7.3065
# 5 -6.6339 -7.6127 -3.1088 -2.6177 29.9747 -5.7439
# 6 4.0171 2.5514 -5.1280 -7.3065 -5.7439 64.9440
#
#
#
# Elastic Compliance Matrix: (Units=1/GPa)
#
#
# Indices 1 2 3 4 5 6 
#
# 1 0.006653 -0.002028 -0.000467 0.000399 0.000897 -0.000244
# 2 -0.002028 0.008192 -0.003305 -0.000624 0.001153 -0.000426
# 3 -0.000467 -0.003305 0.014852 0.008575 0.001817 0.002457
# 4 0.000399 -0.000624 0.008575 0.042665 0.005691 0.005980
# 5 0.000897 0.001153 0.001817 0.005691 0.035267 0.003802
# 6 -0.000244 -0.000426 0.002457 0.005980 0.003802 0.016633
#
#
# Mechanical properties :
#
#
# Convention : Reuss Voigt Hill
#
# Bulk Modulus (GPa) = 55.25901 69.15212 62.20556
# Shear Modulus (GPa) = 35.23753 44.45397 39.84575
#
# Velocity S-wave (km/s) = 3.59504 4.03791 3.82290
# Velocity P-wave (km/s) = 6.12374 6.86317 6.50397
#
# Compressibility (1/GPa) = 0.01809660
#
# Stress axis : x y z
#
# Youngs Moduli (GPa) = 150.31785 122.06306 67.33239
#
# Poissons Ratio (x) = 0.24749 0.03147
# Poissons Ratio (y) = 0.30478 0.22255
# Poissons Ratio (z) = 0.07025 0.40344
#
# Static dielectric constant tensor:
#      x y z
#    x 2.279190 0.032260 -0.067390 
#    y 0.032260 2.153890 0.015740 
#    z -0.067390 0.015740 2.182910 
# 
# From -- ./inp_files/472771.got.cif
#   From: 2010.05.17/outbox.cif.g08.bks.cpg/sg2_237_cif.got.tgz:472771.got - 2010.06.03 11:33:40.
