data_PCOD9025729
_publ_section_title
;
Structure prediction by ZEFSAII (Michael W. Deem and Ramdas Pophale) SiO2 
 PCOD9025729
Probable space group: P -1
;
_chemical_formula_sum "Si O2"
_cell_formula_units_Z 14
_cell_length_a 16.659049
_cell_length_b 5.902894
_cell_length_c 9.710030
_cell_angle_alpha 77.725460
_cell_angle_beta 39.671143
_cell_angle_gamma 80.713339
_cell_volume 595.619872
_symmetry_space_group_name_H-M "P -1"
_symmetry_group_IT_number 2
_symmetry_cell_setting 'triclinic'
loop_
_space_group_symop_operation_xyz
x,y,z
-x,-y,-z
loop_
_atom_site_type_symbol
_atom_site_label
_atom_site_fract_x
_atom_site_fract_y
_atom_site_fract_z
Si Si1 0.829202 0.896091 0.877561
Si Si2 0.335898 0.566665 0.561471
Si Si3 0.926458 0.454562 0.961239
Si Si4 0.556554 0.833446 0.333090
Si Si5 0.236614 0.983465 0.335841
Si Si6 0.029542 0.059824 0.795168
Si Si7 0.646233 0.529844 0.763805
O O1 0.853547 0.949871 0.680827
O O2 0.874973 0.646338 0.900513
O O3 0.679410 0.930572 0.083569
O O4 0.903140 0.040779 0.875108
O O5 0.205489 0.648443 0.791274
O O6 0.443820 0.763281 0.389153
O O7 0.389137 0.382343 0.624685
O O8 0.330192 0.446670 0.435370
O O9 0.000000 0.500000 0.000000
O O10 0.041123 0.334298 0.743865
O O11 0.500000 0.000000 0.500000
O O12 0.144842 0.935020 0.591963
O O13 0.308479 0.227964 0.250800
O O14 0.299078 0.734193 0.248531
O O15 0.000000 0.000000 0.000000
O O16 0.500000 0.500000 0.000000
#
# Coordination Sequence:
#
# PCOD9025729 Si02
#       7
#     2   2   2   2   2   2   2
#     4  11  26  44  69 105 146 191 245 309 369 443
#     4  10  23  41  68 106 136 194 246 308 359 447
#     4  11  22  42  70 103 145 187 250 304 371 434
#     4  10  22  40  71 100 143 185 249 304 375 425
#     4  12  30  48  75 111 150 197 247 308 377 440
#     4  12  25  44  75 104 144 195 247 310 370 445
#     4  12  28  49  77 104 151 197 250 301 374 447
#
# _framework density 23.504925
#
# number of rings (size 3 to 8) (size 9 to 14) (size 15 to 20)
#    0.000    0.857    1.429    4.286   10.000    0.571 
#    0.000    0.000    0.000    0.000    0.000    0.000 
#    0.000    0.000    0.000    0.000    0.000    0.000 
#
# Total GULP energy -77942.776453 kJ/mol
# GULP energy per Si atom -5567.341175 kJ/mol
# Density = 2.345143 g / cm^3
# Si number density = 23.504925 Si / 1000 Ang^3
#
#
#
# Elastic Constant Matrix: (Units=GPa)
#
#
# Indices 1 2 3 4 5 6 
#
# 1 123.0522 37.1958 32.8912 -8.3698 4.7052 5.4888
# 2 37.1958 95.8229 29.7479 16.0505 -10.0070 -5.5367
# 3 32.8912 29.7479 80.4565 7.7103 -5.0481 -15.5570
# 4 -8.3698 16.0505 7.7103 34.7946 -7.2781 -5.3709
# 5 4.7052 -10.0070 -5.0481 -7.2781 50.6346 -4.0146
# 6 5.4888 -5.5367 -15.5570 -5.3709 -4.0146 42.2023
#
#
#
# Elastic Compliance Matrix: (Units=1/GPa)
#
#
# Indices 1 2 3 4 5 6 
#
# 1 0.010997 -0.004130 -0.004120 0.004605 -0.001831 -0.003079
# 2 -0.004130 0.014200 -0.002664 -0.006397 0.002069 0.000801
# 3 -0.004120 -0.002664 0.016608 -0.002130 0.001697 0.006199
# 4 0.004605 -0.006397 -0.002130 0.034324 0.003223 0.002451
# 5 -0.001831 0.002069 0.001697 0.003223 0.021244 0.003566
# 6 -0.003079 0.000801 0.006199 0.002451 0.003566 0.027137
#
#
# Mechanical properties :
#
#
# Convention : Reuss Voigt Hill
#
# Bulk Modulus (GPa) = 50.06071 55.44459 52.75265
# Shear Modulus (GPa) = 32.68046 38.82608 35.75327
#
# Velocity S-wave (km/s) = 3.73281 4.06868 3.90436
# Velocity P-wave (km/s) = 6.31844 6.76106 6.54349
#
# Compressibility (1/GPa) = 0.01997575
#
# Stress axis : x y z
#
# Youngs Moduli (GPa) = 90.93415 70.42221 60.21290
#
# Poissons Ratio (x) = 0.29085 0.24809
# Poissons Ratio (y) = 0.37557 0.16042
# Poissons Ratio (z) = 0.37466 0.18762
#
# Static dielectric constant tensor:
#      x y z
#    x 1.938140 -0.111090 0.161180 
#    y -0.111090 2.333670 -0.344280 
#    z 0.161180 -0.344280 2.295010 
# 
# From -- ./inp_files/288747.got.cif
#   From: 2010.05.17/outbox.cif.g08.bks.cpg/sg2_145_cif.got.tgz:288747.got - 2010.06.03 11:33:40.
