data_PCOD9025210
_publ_section_title
;
Structure prediction by ZEFSAII (Michael W. Deem and Ramdas Pophale) SiO2 
 PCOD9025210
Probable space group: P -1
;
_chemical_formula_sum "Si O2"
_cell_formula_units_Z 14
_cell_length_a 11.491146
_cell_length_b 23.462413
_cell_length_c 5.444981
_cell_angle_alpha 115.068568
_cell_angle_beta 99.370809
_cell_angle_gamma 30.080355
_cell_volume 595.545053
_symmetry_space_group_name_H-M "P -1"
_symmetry_group_IT_number 2
_symmetry_cell_setting 'triclinic'
loop_
_space_group_symop_operation_xyz
x,y,z
-x,-y,-z
loop_
_atom_site_type_symbol
_atom_site_label
_atom_site_fract_x
_atom_site_fract_y
_atom_site_fract_z
Si Si1 0.737149 0.941415 0.288017
Si Si2 0.393817 0.282321 0.634165
Si Si3 0.062451 0.028030 0.752527
Si Si4 0.847188 0.533721 0.712137
Si Si5 0.397271 0.706085 0.603871
Si Si6 0.649692 0.415401 0.649394
Si Si7 0.204024 0.165939 0.391175
O O1 0.926970 0.910143 0.270452
O O2 0.763988 0.899001 0.489819
O O3 0.436786 0.102104 0.423187
O O4 0.778565 0.873342 0.948095
O O5 0.467156 0.315939 0.600090
O O6 0.103727 0.392637 0.692149
O O7 0.638549 0.125394 0.347231
O O8 0.356298 0.319842 0.971636
O O9 0.000000 0.000000 0.500000
O O10 0.843526 0.139899 0.087257
O O11 0.648473 0.576262 0.629509
O O12 0.000000 0.500000 0.500000
O O13 0.288332 0.688476 0.496526
O O14 0.500000 0.500000 0.500000
O O15 0.914857 0.328470 0.596656
O O16 0.500000 0.500000 0.000000
#
# Coordination Sequence:
#
# PCOD9025210 Si02
#       7
#     2   2   2   2   2   2   2
#     4  10  23  43  72  96 140 184 228 300 346 422
#     4  10  22  40  67  98 138 185 226 276 357 434
#     4  12  24  39  69 109 140 182 234 284 367 422
#     4   9  20  42  63  91 137 180 227 272 342 423
#     4  11  24  43  68  97 142 179 230 304 347 424
#     4  12  28  45  72 103 135 185 245 297 360 416
#     4  10  22  47  70  96 134 188 238 289 359 399
#
# _framework density 23.507874000000001
#
# number of rings (size 3 to 8) (size 9 to 14) (size 15 to 20)
#    0.000    1.429    2.857    1.286    4.000    2.286 
#    5.143    0.000    0.000    0.000    0.000    0.000 
#    0.000    0.000    0.000    0.000    0.000    0.000 
#
# Total GULP energy -77989.554864 kJ/mol
# GULP energy per Si atom -5570.682490 kJ/mol
# Density = 2.345437 g / cm^3
# Si number density = 23.507874 Si / 1000 Ang^3
#
#
#
# Elastic Constant Matrix: (Units=GPa)
#
#
# Indices 1 2 3 4 5 6 
#
# 1 86.5372 8.3607 15.7896 -5.7343 -5.8830 -12.7801
# 2 8.3607 106.2090 31.2959 12.2056 -9.5223 -18.7575
# 3 15.7896 31.2959 124.7500 12.6307 -21.8759 -4.8344
# 4 -5.7343 12.2056 12.6307 35.9799 -8.7662 -9.3273
# 5 -5.8830 -9.5223 -21.8759 -8.7662 29.2172 6.6042
# 6 -12.7801 -18.7575 -4.8344 -9.3273 6.6042 38.0567
#
#
#
# Elastic Compliance Matrix: (Units=1/GPa)
#
#
# Indices 1 2 3 4 5 6 
#
# 1 0.012969 -0.000034 -0.001601 0.004300 0.001581 0.004915
# 2 -0.000034 0.011177 -0.002401 -0.001660 0.000269 0.004739
# 3 -0.001601 -0.002401 0.010043 -0.001958 0.006283 -0.002015
# 4 0.004300 -0.001660 -0.001958 0.033383 0.007223 0.007305
# 5 0.001581 0.000269 0.006283 0.007223 0.042438 -0.004132
# 6 0.004915 0.004739 -0.002015 0.007305 -0.004132 0.032514
#
#
# Mechanical properties :
#
#
# Convention : Reuss Voigt Hill
#
# Bulk Modulus (GPa) = 38.28619 47.59874 42.94247
# Shear Modulus (GPa) = 31.38705 38.12076 34.75390
#
# Velocity S-wave (km/s) = 3.65796 4.03130 3.84916
# Velocity P-wave (km/s) = 5.84490 6.47769 6.16941
#
# Compressibility (1/GPa) = 0.02611908
#
# Stress axis : x y z
#
# Youngs Moduli (GPa) = 77.10537 89.46622 99.57383
#
# Poissons Ratio (x) = 0.00301 0.15939
# Poissons Ratio (y) = 0.00259 0.23906
# Poissons Ratio (z) = 0.12342 0.21480
#
# Static dielectric constant tensor:
#      x y z
#    x 1.843360 -0.043220 0.017430 
#    y -0.043220 2.102300 -0.032090 
#    z 0.017430 -0.032090 1.926770 
# 
# From -- ./inp_files/71132.got.cif
#   From: 2010.05.17/outbox.cif.g08.bks.cpg/sg2_36_cif.got.tgz:71132.got - 2010.06.03 11:33:40.
