data_PCOD9025516
_publ_section_title
;
Structure prediction by ZEFSAII (Michael W. Deem and Ramdas Pophale) SiO2 
 PCOD9025516
Probable space group: P -1
;
_chemical_formula_sum "Si O2"
_cell_formula_units_Z 16
_cell_length_a 10.880747
_cell_length_b 16.695619
_cell_length_c 12.013780
_cell_angle_alpha 70.600864
_cell_angle_beta 131.261500
_cell_angle_gamma 145.670323
_cell_volume 800.604580
_symmetry_space_group_name_H-M "P -1"
_symmetry_group_IT_number 2
_symmetry_cell_setting 'triclinic'
loop_
_space_group_symop_operation_xyz
x,y,z
-x,-y,-z
loop_
_atom_site_type_symbol
_atom_site_label
_atom_site_fract_x
_atom_site_fract_y
_atom_site_fract_z
Si Si1 0.646156 0.556445 0.245495
Si Si2 0.833866 0.338211 0.500102
Si Si3 0.295847 0.069682 0.138503
Si Si4 0.375080 0.513256 0.327596
Si Si5 0.694525 0.298271 0.055878
Si Si6 0.084442 0.637693 0.202795
Si Si7 0.145437 0.278899 0.933362
Si Si8 0.346086 0.175657 0.674211
O O1 0.461972 0.513230 0.259005
O O2 0.757865 0.670683 0.161614
O O3 0.958626 0.647167 0.430605
O O4 0.451998 0.396058 0.137283
O O5 0.501202 0.182405 0.315954
O O6 0.818359 0.327092 0.627748
O O7 0.000000 0.500000 0.500000
O O8 0.505608 0.178500 0.104159
O O9 0.147528 0.910648 0.131972
O O10 0.000000 0.000000 0.000000
O O11 0.500000 0.500000 0.500000
O O12 0.563103 0.686591 0.366651
O O13 0.001568 0.374342 0.176901
O O14 0.853458 0.459443 0.108483
O O15 0.445307 0.204216 0.849847
O O16 0.399563 0.770865 0.258912
O O17 0.927020 0.659205 0.094165
O O18 0.000000 0.000000 0.500000
#
# Coordination Sequence:
#
# PCOD9025516 Si02
#       8
#     2   2   2   2   2   2   2   2
#     4  10  22  40  69  93 130 167 219 262 336 392
#     4  11  22  40  65  95 129 168 212 271 324 395
#     4  12  27  40  66  98 135 168 224 273 330 383
#     4  11  24  43  71  97 131 178 223 267 329 409
#     4  11  24  47  67  96 135 181 219 274 333 399
#     4  10  22  43  69  89 132 174 219 262 338 394
#     4  10  23  41  66  98 125 171 213 276 326 389
#     4  11  26  42  67  98 135 177 220 276 329 395
#
# _framework density 19.984898000000001
#
# number of rings (size 3 to 8) (size 9 to 14) (size 15 to 20)
#    0.000    1.250    1.250    4.500    8.750    5.000 
#    0.000    1.875    0.000    0.000    0.000    0.000 
#    0.000    0.000    0.000    0.000    0.000    0.000 
#
# Total GULP energy -89327.878247 kJ/mol
# GULP energy per Si atom -5582.992390 kJ/mol
# Density = 1.993941 g / cm^3
# Si number density = 19.984898 Si / 1000 Ang^3
#
#
#
# Elastic Constant Matrix: (Units=GPa)
#
#
# Indices 1 2 3 4 5 6 
#
# 1 115.5892 32.8069 41.2716 -4.1135 -2.2953 16.9924
# 2 32.8069 95.9426 48.8783 15.3282 -6.3418 6.7073
# 3 41.2716 48.8783 161.2671 12.4996 -5.9305 0.2323
# 4 -4.1135 15.3282 12.4996 35.9986 1.9202 3.1798
# 5 -2.2953 -6.3418 -5.9305 1.9202 27.9797 -3.9570
# 6 16.9924 6.7073 0.2323 3.1798 -3.9570 27.7904
#
#
#
# Elastic Compliance Matrix: (Units=1/GPa)
#
#
# Indices 1 2 3 4 5 6 
#
# 1 0.011496 -0.002975 -0.002405 0.004112 -0.001510 -0.006977
# 2 -0.002975 0.014025 -0.002977 -0.005367 0.002593 -0.000558
# 3 -0.002405 -0.002977 0.007922 -0.002052 0.001308 0.002544
# 4 0.004112 -0.005367 -0.002052 0.031958 -0.004281 -0.005468
# 5 -0.001510 0.002593 0.001308 -0.004281 0.037643 0.006136
# 6 -0.006977 -0.000558 0.002544 -0.005468 0.006136 0.041862
#
#
# Mechanical properties :
#
#
# Convention : Reuss Voigt Hill
#
# Bulk Modulus (GPa) = 59.77503 68.74584 64.26044
# Shear Modulus (GPa) = 29.90490 35.00988 32.45739
#
# Velocity S-wave (km/s) = 3.87250 4.19001 4.03438
# Velocity P-wave (km/s) = 7.06895 7.60801 7.34343
#
# Compressibility (1/GPa) = 0.01672939
#
# Stress axis : x y z
#
# Youngs Moduli (GPa) = 86.98458 71.30220 126.22837
#
# Poissons Ratio (x) = 0.21213 0.30353
# Poissons Ratio (y) = 0.25878 0.37581
# Poissons Ratio (z) = 0.20917 0.21228
#
# Static dielectric constant tensor:
#      x y z
#    x 1.729010 0.003080 -0.041420 
#    y 0.003080 1.693640 0.019760 
#    z -0.041420 0.019760 2.125720 
# 
# From -- ./inp_files/306905.got.cif
#   From: 2010.05.17/outbox.cif.g08.bks.cpg/sg2_154_cif.got.tgz:306905.got - 2010.06.03 11:33:40.
