data_PCOD9025453
_publ_section_title
;
Structure prediction by ZEFSAII (Michael W. Deem and Ramdas Pophale) SiO2 
 PCOD9025453
Probable space group: P -1
;
_chemical_formula_sum "Si O2"
_cell_formula_units_Z 14
_cell_length_a 8.120221
_cell_length_b 12.577804
_cell_length_c 8.281062
_cell_angle_alpha 125.556660
_cell_angle_beta 69.090703
_cell_angle_gamma 123.075949
_cell_volume 575.603786
_symmetry_space_group_name_H-M "P -1"
_symmetry_group_IT_number 2
_symmetry_cell_setting 'triclinic'
loop_
_space_group_symop_operation_xyz
x,y,z
-x,-y,-z
loop_
_atom_site_type_symbol
_atom_site_label
_atom_site_fract_x
_atom_site_fract_y
_atom_site_fract_z
Si Si1 0.748893 0.935852 0.385348
Si Si2 0.114309 0.980001 0.089779
Si Si3 0.350835 0.807350 0.235762
Si Si4 0.264904 0.494227 0.621408
Si Si5 0.100554 0.698890 0.910813
Si Si6 0.691012 0.494342 0.999458
Si Si7 0.652902 0.748882 0.579398
O O1 0.962952 0.959132 0.273330
O O2 0.585009 0.877568 0.248560
O O3 0.682455 0.819383 0.453920
O O4 0.734754 0.083478 0.573810
O O5 0.138388 0.836784 0.912998
O O6 0.311102 0.119647 0.195524
O O7 0.000000 0.000000 0.000000
O O8 0.266463 0.769221 0.051969
O O9 0.283518 0.646712 0.192958
O O10 0.445833 0.607104 0.550669
O O11 0.205150 0.323389 0.473262
O O12 0.111502 0.559545 0.709112
O O13 0.322755 0.515166 0.810151
O O14 0.886115 0.636981 0.010846
O O15 0.500000 0.500000 0.000000
#
# Coordination Sequence:
#
# PCOD9025453 Si02
#       7
#     2   2   2   2   2   2   2
#     4  11  24  44  70  98 136 180 231 275 345 400
#     4  12  28  43  68 100 138 181 223 282 341 407
#     4  10  22  40  69 102 128 178 230 277 329 404
#     4  10  24  42  70  98 136 179 228 282 335 396
#     4  11  24  43  71 101 136 181 223 282 342 396
#     4  11  23  41  71 100 141 178 228 272 346 402
#     4  11  24  45  71  97 140 182 225 282 339 398
#
# _framework density 24.322286999999999
#
# number of rings (size 3 to 8) (size 9 to 14) (size 15 to 20)
#    0.000    1.143    1.429    4.714   10.000    2.857 
#    0.000    0.714    0.000    0.000    0.000    0.000 
#    0.000    0.000    0.000    0.000    0.000    0.000 
#
# Total GULP energy -78201.851498 kJ/mol
# GULP energy per Si atom -5585.846536 kJ/mol
# Density = 2.426693 g / cm^3
# Si number density = 24.322287 Si / 1000 Ang^3
#
#
#
# Elastic Constant Matrix: (Units=GPa)
#
#
# Indices 1 2 3 4 5 6 
#
# 1 79.0349 35.4959 1.2595 10.6676 -7.9972 -19.3456
# 2 35.4959 118.6128 30.7354 21.5416 -13.2456 -23.9783
# 3 1.2595 30.7354 29.6029 10.2827 -14.4841 -2.0413
# 4 10.6676 21.5416 10.2827 30.7961 -14.5009 -11.8880
# 5 -7.9972 -13.2456 -14.4841 -14.5009 38.5833 7.8098
# 6 -19.3456 -23.9783 -2.0413 -11.8880 7.8098 49.9706
#
#
#
# Elastic Compliance Matrix: (Units=1/GPa)
#
#
# Indices 1 2 3 4 5 6 
#
# 1 0.016287 -0.005496 0.007242 -0.001614 0.002970 0.003116
# 2 -0.005496 0.015354 -0.016175 -0.003748 -0.004229 0.004349
# 3 0.007242 -0.016175 0.060492 -0.005498 0.017925 -0.006596
# 4 -0.001614 -0.003748 -0.005498 0.045669 0.012202 0.006310
# 5 0.002970 -0.004229 0.017925 0.012202 0.037010 -0.003029
# 6 0.003116 0.004349 -0.006596 0.006310 -0.003029 0.025010
#
#
# Mechanical properties :
#
#
# Convention : Reuss Voigt Hill
#
# Bulk Modulus (GPa) = 15.80415 40.24801 28.02608
# Shear Modulus (GPa) = 20.01828 34.52066 27.26947
#
# Velocity S-wave (km/s) = 2.87198 3.77145 3.35202
# Velocity P-wave (km/s) = 4.18445 5.96228 5.15065
#
# Compressibility (1/GPa) = 0.06327453
#
# Stress axis : x y z
#
# Youngs Moduli (GPa) = 61.40052 65.12766 16.53110
#
# Poissons Ratio (x) = 0.35793 -0.11972
# Poissons Ratio (y) = 0.33744 0.26740
# Poissons Ratio (z) = -0.44466 1.05347
#
# Static dielectric constant tensor:
#      x y z
#    x 1.983850 0.000870 -0.089790 
#    y 0.000870 1.935150 0.021820 
#    z -0.089790 0.021820 2.018330 
# 
# From -- ./inp_files/189954.got.cif
#   From: 2010.05.17/outbox.cif.g08.bks.cpg/sg2_95_cif.got.tgz:189954.got - 2010.06.03 11:33:40.
