data_PCOD9025915
_publ_section_title
;
Structure prediction by ZEFSAII (Michael W. Deem and Ramdas Pophale) SiO2 
 PCOD9025915
Probable space group: P -1
;
_chemical_formula_sum "Si O2"
_cell_formula_units_Z 15
_cell_length_a 11.826608
_cell_length_b 9.312629
_cell_length_c 9.774312
_cell_angle_alpha 43.835726
_cell_angle_beta 116.728556
_cell_angle_gamma 120.997588
_cell_volume 633.526975
_symmetry_space_group_name_H-M "P -1"
_symmetry_group_IT_number 2
_symmetry_cell_setting 'triclinic'
loop_
_space_group_symop_operation_xyz
x,y,z
-x,-y,-z
loop_
_atom_site_type_symbol
_atom_site_label
_atom_site_fract_x
_atom_site_fract_y
_atom_site_fract_z
Si Si1 0.500000 0.500000 0.000000
Si Si2 0.225201 0.686536 0.525893
Si Si3 0.023767 0.243505 0.007817
Si Si4 0.773595 0.279870 0.950961
Si Si5 0.300276 0.343165 0.246281
Si Si6 0.946985 0.752289 0.307533
Si Si7 0.620976 0.970013 0.852268
Si Si8 0.319264 0.905032 0.688982
O O1 0.573371 0.577031 0.838109
O O2 0.604764 0.722698 0.975729
O O3 0.183299 0.449729 0.596577
O O4 0.081429 0.714835 0.463884
O O5 0.300664 0.874067 0.334302
O O6 0.308505 0.724725 0.686040
O O7 0.166536 0.314035 0.105832
O O8 0.038323 0.248747 0.848952
O O9 0.951839 0.992724 0.184740
O O10 0.922626 0.369563 0.912406
O O11 0.700984 0.465229 0.781257
O O12 0.694934 0.075461 0.956381
O O13 0.770918 0.201944 0.159579
O O14 0.290293 0.112935 0.466543
O O15 0.470723 0.976639 0.769919
#
# Coordination Sequence:
#
# PCOD9025915 Si02
#       8
#     1   2   2   2   2   2   2   2
#     4  12  26  48  80 102 146 192 248 298 358 440
#     4  11  22  44  70 111 140 183 253 296 358 433
#     4  11  23  47  72 107 148 192 240 302 370 435
#     4  12  28  49  72 108 154 191 241 305 371 431
#     4  12  27  47  75 111 145 198 240 303 372 431
#     4  10  22  40  76 105 142 185 244 304 357 429
#     4  12  26  49  74 107 144 197 244 303 365 433
#     4  12  26  46  71 107 151 190 248 298 360 445
#
# _framework density 23.676971999999999
#
# number of rings (size 3 to 8) (size 9 to 14) (size 15 to 20)
#    0.000    0.533    5.333    2.000    1.867    2.133 
#    0.000    0.000    0.000    0.000    0.000    0.000 
#    0.000    0.000    0.000    0.000    0.000    0.000 
#
# Total GULP energy -83779.224419 kJ/mol
# GULP energy per Si atom -5585.281628 kJ/mol
# Density = 2.362308 g / cm^3
# Si number density = 23.676972 Si / 1000 Ang^3
#
#
#
# Elastic Constant Matrix: (Units=GPa)
#
#
# Indices 1 2 3 4 5 6 
#
# 1 67.7189 3.0694 8.9839 2.4572 -11.7751 5.9944
# 2 3.0694 111.9355 17.0291 -20.0290 -23.3018 7.3509
# 3 8.9839 17.0291 67.0499 -17.9178 -18.9200 6.3191
# 4 2.4572 -20.0290 -17.9178 43.7229 5.3031 2.9578
# 5 -11.7751 -23.3018 -18.9200 5.3031 31.7247 -0.5036
# 6 5.9944 7.3509 6.3191 2.9578 -0.5036 41.4882
#
#
#
# Elastic Compliance Matrix: (Units=1/GPa)
#
#
# Indices 1 2 3 4 5 6 
#
# 1 0.016191 0.000894 -0.000764 -0.001443 0.006417 -0.002201
# 2 0.000894 0.011564 0.000846 0.004735 0.008498 -0.002541
# 3 -0.000764 0.000846 0.020317 0.007648 0.011120 -0.003544
# 4 -0.001443 0.004735 0.007648 0.028179 0.002733 -0.003771
# 5 0.006417 0.008498 0.011120 0.002733 0.046260 -0.003760
# 6 -0.002201 -0.002541 -0.003544 -0.003771 -0.003760 0.025635
#
#
# Mechanical properties :
#
#
# Convention : Reuss Voigt Hill
#
# Bulk Modulus (GPa) = 19.99002 33.87435 26.93219
# Shear Modulus (GPa) = 30.69986 37.89528 34.29757
#
# Velocity S-wave (km/s) = 3.60476 4.00498 3.81013
# Velocity P-wave (km/s) = 5.07807 5.97699 5.54578
#
# Compressibility (1/GPa) = 0.05002495
#
# Stress axis : x y z
#
# Youngs Moduli (GPa) = 61.76383 86.47767 49.21913
#
# Poissons Ratio (x) = -0.07735 0.03760
# Poissons Ratio (y) = -0.05525 -0.04164
# Poissons Ratio (z) = 0.04718 -0.07317
#
# Static dielectric constant tensor:
#      x y z
#    x 2.045750 0.016580 0.125960 
#    y 0.016580 1.934920 -0.013820 
#    z 0.125960 -0.013820 1.934350 
# 
# From -- ./inp_files/242239.got.cif
#   From: 2010.05.17/outbox.cif.g08.bks.cpg/sg2_122_cif.got.tgz:242239.got - 2010.06.03 11:33:40.
